MODEL 1
REMARK VINA RESULT:    -4.534      0.000      0.000
REMARK INTER + INTRA:          -6.944
REMARK INTER:                  -6.920
REMARK INTRA:                  -0.024
REMARK UNBOUND:                -0.024
REMARK SMILES CC1=CCC[C@@H](C)C(=O)C[C@@H](C(C)C)C(=O)C1
REMARK SMILES IDX 8 1 9 2 6 3 7 4 5 5 4 6 3 7 2 8 1 9 10 11 11 12 15 13 16 14
REMARK SMILES IDX 17 15 12 17 13 18 14 19
REMARK H PARENT
REMARK Flexibility Score: 70.00
ROOT
ATOM      1  C   UNL     1      -7.067  19.636  67.887  1.00  0.00     0.136 C 
ATOM      2  O   UNL     1      -6.053  19.386  67.248  1.00  0.00    -0.299 OA
ENDROOT
BRANCH   1   3
ATOM      3  C   UNL     1      -8.433  19.389  67.241  1.00  0.00     0.053 C 
ATOM      4  C   UNL     1      -8.369  18.304  66.154  1.00  0.00     0.016 C 
BRANCH   3   5
ATOM      5  C   UNL     1      -9.053  20.688  66.652  1.00  0.00     0.015 C 
BRANCH   5   6
ATOM      6  C   UNL     1      -8.063  21.823  66.316  1.00  0.00     0.028 C 
BRANCH   6   7
ATOM      7  C   UNL     1      -8.354  23.215  66.843  1.00  0.00    -0.028 C 
ATOM      8  C   UNL     1      -7.909  23.775  67.995  1.00  0.00    -0.070 CG0
ATOM      9  C   UNL     1      -8.193  25.242  68.210  1.00  0.00     0.039 C 
ATOM     10  G   UNL     1      -7.241  23.010  69.126  1.00  0.00     0.000 G0
ENDBRANCH   6   7
ENDBRANCH   5   6
ENDBRANCH   3   5
ENDBRANCH   1   3
BRANCH   1  11
ATOM     11  C   UNL     1      -6.894  20.090  69.333  1.00  0.00     0.087 C 
BRANCH  11  12
ATOM     12  C   UNL     1      -8.176  20.655  69.996  1.00  0.00     0.066 C 
BRANCH  12  13
ATOM     13  C   UNL     1      -8.237  22.174  69.938  1.00  0.00     0.140 C 
ATOM     14  O   UNL     1      -9.070  22.742  70.631  1.00  0.00    -0.299 OA
BRANCH  13  15
ATOM     15  C   UNL     1      -7.240  23.004  69.144  1.00  0.00     0.106 CG0
ATOM     16  G   UNL     1      -7.925  23.755  68.013  1.00  0.00     0.000 G0
ENDBRANCH  13  15
ENDBRANCH  12  13
BRANCH  12  17
ATOM     17  C   UNL     1      -8.353  20.162  71.469  1.00  0.00    -0.006 C 
ATOM     18  C   UNL     1      -8.174  18.635  71.573  1.00  0.00     0.008 C 
ATOM     19  C   UNL     1      -7.371  20.841  72.440  1.00  0.00     0.008 C 
ENDBRANCH  12  17
ENDBRANCH  11  12
ENDBRANCH   1  11
TORSDOF 1
ENDMDL
MODEL 2
REMARK VINA RESULT:    -3.795      2.079      4.394
REMARK INTER + INTRA:          -5.816
REMARK INTER:                  -6.568
REMARK INTRA:                   0.752
REMARK UNBOUND:                -0.024
REMARK SMILES CC1=CCC[C@@H](C)C(=O)C[C@@H](C(C)C)C(=O)C1
REMARK SMILES IDX 8 1 9 2 6 3 7 4 5 5 4 6 3 7 2 8 1 9 10 11 11 12 15 13 16 14
REMARK SMILES IDX 17 15 12 17 13 18 14 19
REMARK H PARENT
REMARK Flexibility Score: 70.00
ROOT
ATOM      1  C   UNL     1      -7.306  21.234  70.086  1.00  0.00     0.136 C 
ATOM      2  O   UNL     1      -6.602  21.413  71.071  1.00  0.00    -0.299 OA
ENDROOT
BRANCH   1   3
ATOM      3  C   UNL     1      -8.271  20.044  70.068  1.00  0.00     0.053 C 
ATOM      4  C   UNL     1      -8.514  19.478  71.478  1.00  0.00     0.016 C 
BRANCH   3   5
ATOM      5  C   UNL     1      -7.791  18.907  69.121  1.00  0.00     0.015 C 
BRANCH   5   6
ATOM      6  C   UNL     1      -6.624  19.258  68.175  1.00  0.00     0.028 C 
BRANCH   6   7
ATOM      7  C   UNL     1      -6.872  19.228  66.679  1.00  0.00    -0.028 C 
ATOM      8  C   UNL     1      -7.819  19.904  65.982  1.00  0.00    -0.070 CG0
ATOM      9  C   UNL     1      -7.748  19.844  64.476  1.00  0.00     0.039 C 
ATOM     10  G   UNL     1      -9.002  20.624  66.609  1.00  0.00     0.000 G0
ENDBRANCH   6   7
ENDBRANCH   5   6
ENDBRANCH   3   5
ENDBRANCH   1   3
BRANCH   1  11
ATOM     11  C   UNL     1      -7.243  22.277  68.975  1.00  0.00     0.087 C 
BRANCH  11  12
ATOM     12  C   UNL     1      -8.608  22.619  68.325  1.00  0.00     0.066 C 
BRANCH  12  13
ATOM     13  C   UNL     1      -8.723  22.082  66.906  1.00  0.00     0.140 C 
ATOM     14  O   UNL     1      -8.467  22.842  65.982  1.00  0.00    -0.299 OA
BRANCH  13  15
ATOM     15  C   UNL     1      -9.036  20.624  66.605  1.00  0.00     0.106 CG0
ATOM     16  G   UNL     1      -7.839  19.922  65.983  1.00  0.00     0.000 G0
ENDBRANCH  13  15
ENDBRANCH  12  13
BRANCH  12  17
ATOM     17  C   UNL     1      -8.913  24.152  68.350  1.00  0.00    -0.006 C 
ATOM     18  C   UNL     1      -9.125  24.656  69.790  1.00  0.00     0.008 C 
ATOM     19  C   UNL     1      -7.798  24.986  67.694  1.00  0.00     0.008 C 
ENDBRANCH  12  17
ENDBRANCH  11  12
ENDBRANCH   1  11
TORSDOF 1
ENDMDL
MODEL 3
REMARK VINA RESULT:    -3.577     10.965     12.466
REMARK INTER + INTRA:          -5.483
REMARK INTER:                  -4.974
REMARK INTRA:                  -0.509
REMARK UNBOUND:                -0.024
REMARK SMILES CC1=CCC[C@@H](C)C(=O)C[C@@H](C(C)C)C(=O)C1
REMARK SMILES IDX 8 1 9 2 6 3 7 4 5 5 4 6 3 7 2 8 1 9 10 11 11 12 15 13 16 14
REMARK SMILES IDX 17 15 12 17 13 18 14 19
REMARK H PARENT
REMARK Flexibility Score: 70.00
ROOT
ATOM      1  C   UNL     1       0.037  25.999  62.000  1.00  0.00     0.136 C 
ATOM      2  O   UNL     1      -0.657  26.522  61.138  1.00  0.00    -0.299 OA
ENDROOT
BRANCH   1   3
ATOM      3  C   UNL     1      -0.630  25.477  63.276  1.00  0.00     0.053 C 
ATOM      4  C   UNL     1      -1.968  24.777  62.983  1.00  0.00     0.016 C 
BRANCH   3   5
ATOM      5  C   UNL     1      -0.843  26.596  64.334  1.00  0.00     0.015 C 
BRANCH   5   6
ATOM      6  C   UNL     1       0.403  27.427  64.706  1.00  0.00     0.028 C 
BRANCH   6   7
ATOM      7  C   UNL     1       1.429  26.811  65.638  1.00  0.00    -0.028 C 
ATOM      8  C   UNL     1       2.724  26.515  65.365  1.00  0.00    -0.070 CG0
ATOM      9  C   UNL     1       3.593  26.072  66.517  1.00  0.00     0.039 C 
ATOM     10  G   UNL     1       3.329  26.493  63.971  1.00  0.00     0.000 G0
ENDBRANCH   6   7
ENDBRANCH   5   6
ENDBRANCH   3   5
ENDBRANCH   1   3
BRANCH   1  11
ATOM     11  C   UNL     1       1.520  25.815  61.694  1.00  0.00     0.087 C 
BRANCH  11  12
ATOM     12  C   UNL     1       2.199  24.642  62.446  1.00  0.00     0.066 C 
BRANCH  12  13
ATOM     13  C   UNL     1       3.313  25.113  63.368  1.00  0.00     0.140 C 
ATOM     14  O   UNL     1       4.268  24.368  63.540  1.00  0.00    -0.299 OA
BRANCH  13  15
ATOM     15  C   UNL     1       3.332  26.501  63.988  1.00  0.00     0.106 CG0
ATOM     16  G   UNL     1       2.709  26.495  65.375  1.00  0.00     0.000 G0
ENDBRANCH  13  15
ENDBRANCH  12  13
BRANCH  12  17
ATOM     17  C   UNL     1       2.730  23.538  61.474  1.00  0.00    -0.006 C 
ATOM     18  C   UNL     1       1.726  22.377  61.343  1.00  0.00     0.008 C 
ATOM     19  C   UNL     1       3.035  24.088  60.069  1.00  0.00     0.008 C 
ENDBRANCH  12  17
ENDBRANCH  11  12
ENDBRANCH   1  11
TORSDOF 1
ENDMDL
MODEL 4
REMARK VINA RESULT:    -3.510     11.154     12.411
REMARK INTER + INTRA:          -5.381
REMARK INTER:                  -5.056
REMARK INTRA:                  -0.325
REMARK UNBOUND:                -0.024
REMARK SMILES CC1=CCC[C@@H](C)C(=O)C[C@@H](C(C)C)C(=O)C1
REMARK SMILES IDX 8 1 9 2 6 3 7 4 5 5 4 6 3 7 2 8 1 9 10 11 11 12 15 13 16 14
REMARK SMILES IDX 17 15 12 17 13 18 14 19
REMARK H PARENT
REMARK Flexibility Score: 70.00
ROOT
ATOM      1  C   UNL     1       0.698  26.384  68.162  1.00  0.00     0.136 C 
ATOM      2  O   UNL     1      -0.195  25.550  68.089  1.00  0.00    -0.299 OA
ENDROOT
BRANCH   1   3
ATOM      3  C   UNL     1       1.097  27.159  66.903  1.00  0.00     0.053 C 
ATOM      4  C   UNL     1      -0.097  27.380  65.959  1.00  0.00     0.016 C 
BRANCH   3   5
ATOM      5  C   UNL     1       2.258  26.472  66.128  1.00  0.00     0.015 C 
BRANCH   5   6
ATOM      6  C   UNL     1       3.541  27.309  65.944  1.00  0.00     0.028 C 
BRANCH   6   7
ATOM      7  C   UNL     1       3.580  28.709  66.525  1.00  0.00    -0.028 C 
ATOM      8  C   UNL     1       4.001  29.083  67.759  1.00  0.00    -0.070 CG0
ATOM      9  C   UNL     1       4.110  30.562  68.037  1.00  0.00     0.039 C 
ATOM     10  G   UNL     1       4.266  28.124  68.908  1.00  0.00     0.000 G0
ENDBRANCH   6   7
ENDBRANCH   5   6
ENDBRANCH   3   5
ENDBRANCH   1   3
BRANCH   1  11
ATOM     11  C   UNL     1       1.288  26.665  69.540  1.00  0.00     0.087 C 
BRANCH  11  12
ATOM     12  C   UNL     1       1.745  28.129  69.767  1.00  0.00     0.066 C 
BRANCH  12  13
ATOM     13  C   UNL     1       3.239  28.235  70.032  1.00  0.00     0.140 C 
ATOM     14  O   UNL     1       3.610  28.323  71.194  1.00  0.00    -0.299 OA
BRANCH  13  15
ATOM     15  C   UNL     1       4.277  28.124  68.926  1.00  0.00     0.106 CG0
ATOM     16  G   UNL     1       3.972  29.083  67.786  1.00  0.00     0.000 G0
ENDBRANCH  13  15
ENDBRANCH  12  13
BRANCH  12  17
ATOM     17  C   UNL     1       0.941  28.836  70.906  1.00  0.00    -0.006 C 
ATOM     18  C   UNL     1       0.769  30.340  70.619  1.00  0.00     0.008 C 
ATOM     19  C   UNL     1      -0.450  28.212  71.121  1.00  0.00     0.008 C 
ENDBRANCH  12  17
ENDBRANCH  11  12
ENDBRANCH   1  11
TORSDOF 1
ENDMDL
MODEL 5
REMARK VINA RESULT:    -3.395      7.330      9.194
REMARK INTER + INTRA:          -5.205
REMARK INTER:                  -4.981
REMARK INTRA:                  -0.224
REMARK UNBOUND:                -0.024
REMARK SMILES CC1=CCC[C@@H](C)C(=O)C[C@@H](C(C)C)C(=O)C1
REMARK SMILES IDX 8 1 9 2 6 3 7 4 5 5 4 6 3 7 2 8 1 9 10 11 11 12 15 13 16 14
REMARK SMILES IDX 17 15 12 17 13 18 14 19
REMARK H PARENT
REMARK Flexibility Score: 70.00
ROOT
ATOM      1  C   UNL     1      -7.087  24.328  62.154  1.00  0.00     0.136 C 
ATOM      2  O   UNL     1      -7.718  23.409  62.658  1.00  0.00    -0.299 OA
ENDROOT
BRANCH   1   3
ATOM      3  C   UNL     1      -7.151  25.716  62.798  1.00  0.00     0.053 C 
ATOM      4  C   UNL     1      -8.251  25.804  63.870  1.00  0.00     0.016 C 
BRANCH   3   5
ATOM      5  C   UNL     1      -7.347  26.848  61.750  1.00  0.00     0.015 C 
BRANCH   5   6
ATOM      6  C   UNL     1      -6.085  27.650  61.371  1.00  0.00     0.028 C 
BRANCH   6   7
ATOM      7  C   UNL     1      -4.804  27.387  62.139  1.00  0.00    -0.028 C 
ATOM      8  C   UNL     1      -3.757  26.611  61.764  1.00  0.00    -0.070 CG0
ATOM      9  C   UNL     1      -2.518  26.652  62.625  1.00  0.00     0.039 C 
ATOM     10  G   UNL     1      -3.783  25.628  60.605  1.00  0.00     0.000 G0
ENDBRANCH   6   7
ENDBRANCH   5   6
ENDBRANCH   3   5
ENDBRANCH   1   3
BRANCH   1  11
ATOM     11  C   UNL     1      -6.195  23.999  60.962  1.00  0.00     0.087 C 
BRANCH  11  12
ATOM     12  C   UNL     1      -4.857  23.302  61.323  1.00  0.00     0.066 C 
BRANCH  12  13
ATOM     13  C   UNL     1      -3.652  24.192  61.058  1.00  0.00     0.140 C 
ATOM     14  O   UNL     1      -2.539  23.691  61.146  1.00  0.00    -0.299 OA
BRANCH  13  15
ATOM     15  C   UNL     1      -3.784  25.632  60.587  1.00  0.00     0.106 CG0
ATOM     16  G   UNL     1      -3.762  26.599  61.760  1.00  0.00     0.000 G0
ENDBRANCH  13  15
ENDBRANCH  12  13
BRANCH  12  17
ATOM     17  C   UNL     1      -4.686  21.928  60.598  1.00  0.00    -0.006 C 
ATOM     18  C   UNL     1      -4.260  20.824  61.586  1.00  0.00     0.008 C 
ATOM     19  C   UNL     1      -5.969  21.477  59.878  1.00  0.00     0.008 C 
ENDBRANCH  12  17
ENDBRANCH  11  12
ENDBRANCH   1  11
TORSDOF 1
ENDMDL
MODEL 6
REMARK VINA RESULT:    -3.393     11.589     13.095
REMARK INTER + INTRA:          -5.202
REMARK INTER:                  -4.746
REMARK INTRA:                  -0.457
REMARK UNBOUND:                -0.024
REMARK SMILES CC1=CCC[C@@H](C)C(=O)C[C@@H](C(C)C)C(=O)C1
REMARK SMILES IDX 8 1 9 2 6 3 7 4 5 5 4 6 3 7 2 8 1 9 10 11 11 12 15 13 16 14
REMARK SMILES IDX 17 15 12 17 13 18 14 19
REMARK H PARENT
REMARK Flexibility Score: 70.00
ROOT
ATOM      1  C   UNL     1       0.822  27.828  67.383  1.00  0.00     0.136 C 
ATOM      2  O   UNL     1      -0.163  28.475  67.054  1.00  0.00    -0.299 OA
ENDROOT
BRANCH   1   3
ATOM      3  C   UNL     1       0.737  26.916  68.611  1.00  0.00     0.053 C 
ATOM      4  C   UNL     1      -0.325  25.817  68.441  1.00  0.00     0.016 C 
BRANCH   3   5
ATOM      5  C   UNL     1       0.467  27.710  69.921  1.00  0.00     0.015 C 
BRANCH   5   6
ATOM      6  C   UNL     1       1.712  28.118  70.738  1.00  0.00     0.028 C 
BRANCH   6   7
ATOM      7  C   UNL     1       2.410  29.418  70.391  1.00  0.00    -0.028 C 
ATOM      8  C   UNL     1       3.505  29.588  69.609  1.00  0.00    -0.070 CG0
ATOM      9  C   UNL     1       3.905  31.003  69.270  1.00  0.00     0.039 C 
ATOM     10  G   UNL     1       4.416  28.463  69.143  1.00  0.00     0.000 G0
ENDBRANCH   6   7
ENDBRANCH   5   6
ENDBRANCH   3   5
ENDBRANCH   1   3
BRANCH   1  11
ATOM     11  C   UNL     1       2.048  27.902  66.479  1.00  0.00     0.087 C 
BRANCH  11  12
ATOM     12  C   UNL     1       3.317  27.214  67.044  1.00  0.00     0.066 C 
BRANCH  12  13
ATOM     13  C   UNL     1       4.302  28.211  67.635  1.00  0.00     0.140 C 
ATOM     14  O   UNL     1       4.957  28.896  66.862  1.00  0.00    -0.299 OA
BRANCH  13  15
ATOM     15  C   UNL     1       4.419  28.459  69.131  1.00  0.00     0.106 CG0
ATOM     16  G   UNL     1       3.496  29.582  69.577  1.00  0.00     0.000 G0
ENDBRANCH  13  15
ENDBRANCH  12  13
BRANCH  12  17
ATOM     17  C   UNL     1       4.029  26.312  65.984  1.00  0.00    -0.006 C 
ATOM     18  C   UNL     1       4.722  25.107  66.650  1.00  0.00     0.008 C 
ATOM     19  C   UNL     1       3.060  25.790  64.908  1.00  0.00     0.008 C 
ENDBRANCH  12  17
ENDBRANCH  11  12
ENDBRANCH   1  11
TORSDOF 1
ENDMDL
MODEL 7
REMARK VINA RESULT:    -3.259     18.992     20.737
REMARK INTER + INTRA:          -4.997
REMARK INTER:                  -4.758
REMARK INTRA:                  -0.239
REMARK UNBOUND:                -0.024
REMARK SMILES CC1=CCC[C@@H](C)C(=O)C[C@@H](C(C)C)C(=O)C1
REMARK SMILES IDX 8 1 9 2 6 3 7 4 5 5 4 6 3 7 2 8 1 9 10 11 11 12 15 13 16 14
REMARK SMILES IDX 17 15 12 17 13 18 14 19
REMARK H PARENT
REMARK Flexibility Score: 70.00
ROOT
ATOM      1  C   UNL     1       7.594  32.414  62.588  1.00  0.00     0.136 C 
ATOM      2  O   UNL     1       8.120  31.312  62.504  1.00  0.00    -0.299 OA
ENDROOT
BRANCH   1   3
ATOM      3  C   UNL     1       6.073  32.526  62.445  1.00  0.00     0.053 C 
ATOM      4  C   UNL     1       5.385  31.152  62.519  1.00  0.00     0.016 C 
BRANCH   3   5
ATOM      5  C   UNL     1       5.653  33.253  61.136  1.00  0.00     0.015 C 
BRANCH   5   6
ATOM      6  C   UNL     1       5.517  34.788  61.224  1.00  0.00     0.028 C 
BRANCH   6   7
ATOM      7  C   UNL     1       4.990  35.393  62.511  1.00  0.00    -0.028 C 
ATOM      8  C   UNL     1       5.686  36.082  63.449  1.00  0.00    -0.070 CG0
ATOM      9  C   UNL     1       4.898  36.739  64.556  1.00  0.00     0.039 C 
ATOM     10  G   UNL     1       7.203  36.147  63.523  1.00  0.00     0.000 G0
ENDBRANCH   6   7
ENDBRANCH   5   6
ENDBRANCH   3   5
ENDBRANCH   1   3
BRANCH   1  11
ATOM     11  C   UNL     1       8.491  33.599  62.932  1.00  0.00     0.087 C 
BRANCH  11  12
ATOM     12  C   UNL     1       8.483  34.010  64.427  1.00  0.00     0.066 C 
BRANCH  12  13
ATOM     13  C   UNL     1       7.762  35.329  64.660  1.00  0.00     0.140 C 
ATOM     14  O   UNL     1       7.718  35.764  65.803  1.00  0.00    -0.299 OA
BRANCH  13  15
ATOM     15  C   UNL     1       7.198  36.167  63.523  1.00  0.00     0.106 CG0
ATOM     16  G   UNL     1       5.684  36.051  63.452  1.00  0.00     0.000 G0
ENDBRANCH  13  15
ENDBRANCH  12  13
BRANCH  12  17
ATOM     17  C   UNL     1       9.920  34.063  65.039  1.00  0.00    -0.006 C 
ATOM     18  C   UNL     1      10.599  32.680  64.994  1.00  0.00     0.008 C 
ATOM     19  C   UNL     1      10.828  35.081  64.325  1.00  0.00     0.008 C 
ENDBRANCH  12  17
ENDBRANCH  11  12
ENDBRANCH   1  11
TORSDOF 1
ENDMDL
MODEL 8
REMARK VINA RESULT:    -3.246     11.401     13.052
REMARK INTER + INTRA:          -4.977
REMARK INTER:                  -4.733
REMARK INTRA:                  -0.244
REMARK UNBOUND:                -0.024
REMARK SMILES CC1=CCC[C@@H](C)C(=O)C[C@@H](C(C)C)C(=O)C1
REMARK SMILES IDX 8 1 9 2 6 3 7 4 5 5 4 6 3 7 2 8 1 9 10 11 11 12 15 13 16 14
REMARK SMILES IDX 17 15 12 17 13 18 14 19
REMARK H PARENT
REMARK Flexibility Score: 70.00
ROOT
ATOM      1  C   UNL     1       2.007  27.151  64.321  1.00  0.00     0.136 C 
ATOM      2  O   UNL     1       1.672  28.139  64.961  1.00  0.00    -0.299 OA
ENDROOT
BRANCH   1   3
ATOM      3  C   UNL     1       2.761  26.023  65.032  1.00  0.00     0.053 C 
ATOM      4  C   UNL     1       2.693  26.161  66.562  1.00  0.00     0.016 C 
BRANCH   3   5
ATOM      5  C   UNL     1       4.245  25.925  64.578  1.00  0.00     0.015 C 
BRANCH   5   6
ATOM      6  C   UNL     1       4.483  25.454  63.128  1.00  0.00     0.028 C 
BRANCH   6   7
ATOM      7  C   UNL     1       3.874  24.137  62.686  1.00  0.00    -0.028 C 
ATOM      8  C   UNL     1       3.061  23.915  61.623  1.00  0.00    -0.070 CG0
ATOM      9  C   UNL     1       2.731  22.481  61.290  1.00  0.00     0.039 C 
ATOM     10  G   UNL     1       2.379  25.007  60.815  1.00  0.00     0.000 G0
ENDBRANCH   6   7
ENDBRANCH   5   6
ENDBRANCH   3   5
ENDBRANCH   1   3
BRANCH   1  11
ATOM     11  C   UNL     1       1.559  27.070  62.865  1.00  0.00     0.087 C 
BRANCH  11  12
ATOM     12  C   UNL     1       0.587  25.905  62.546  1.00  0.00     0.066 C 
BRANCH  12  13
ATOM     13  C   UNL     1       0.943  25.193  61.250  1.00  0.00     0.140 C 
ATOM     14  O   UNL     1       0.029  24.857  60.510  1.00  0.00    -0.299 OA
BRANCH  13  15
ATOM     15  C   UNL     1       2.380  24.985  60.797  1.00  0.00     0.106 CG0
ATOM     16  G   UNL     1       3.070  23.914  61.626  1.00  0.00     0.000 G0
ENDBRANCH  13  15
ENDBRANCH  12  13
BRANCH  12  17
ATOM     17  C   UNL     1      -0.907  26.364  62.519  1.00  0.00    -0.006 C 
ATOM     18  C   UNL     1      -1.674  25.842  63.749  1.00  0.00     0.008 C 
ATOM     19  C   UNL     1      -1.052  27.895  62.461  1.00  0.00     0.008 C 
ENDBRANCH  12  17
ENDBRANCH  11  12
ENDBRANCH   1  11
TORSDOF 1
ENDMDL
MODEL 9
REMARK VINA RESULT:    -3.243      7.845      9.357
REMARK INTER + INTRA:          -4.973
REMARK INTER:                  -4.460
REMARK INTRA:                  -0.513
REMARK UNBOUND:                -0.024
REMARK SMILES CC1=CCC[C@@H](C)C(=O)C[C@@H](C(C)C)C(=O)C1
REMARK SMILES IDX 8 1 9 2 6 3 7 4 5 5 4 6 3 7 2 8 1 9 10 11 11 12 15 13 16 14
REMARK SMILES IDX 17 15 12 17 13 18 14 19
REMARK H PARENT
REMARK Flexibility Score: 70.00
ROOT
ATOM      1  C   UNL     1      -2.684  24.744  61.013  1.00  0.00     0.136 C 
ATOM      2  O   UNL     1      -1.838  24.517  60.158  1.00  0.00    -0.299 OA
ENDROOT
BRANCH   1   3
ATOM      3  C   UNL     1      -2.979  23.676  62.071  1.00  0.00     0.053 C 
ATOM      4  C   UNL     1      -1.701  22.955  62.534  1.00  0.00     0.016 C 
BRANCH   3   5
ATOM      5  C   UNL     1      -4.024  22.633  61.583  1.00  0.00     0.015 C 
BRANCH   5   6
ATOM      6  C   UNL     1      -5.271  23.199  60.873  1.00  0.00     0.028 C 
BRANCH   6   7
ATOM      7  C   UNL     1      -6.444  23.648  61.722  1.00  0.00    -0.028 C 
ATOM      8  C   UNL     1      -6.962  24.897  61.827  1.00  0.00    -0.070 CG0
ATOM      9  C   UNL     1      -8.247  25.054  62.603  1.00  0.00     0.039 C 
ATOM     10  G   UNL     1      -6.285  26.158  61.313  1.00  0.00     0.000 G0
ENDBRANCH   6   7
ENDBRANCH   5   6
ENDBRANCH   3   5
ENDBRANCH   1   3
BRANCH   1  11
ATOM     11  C   UNL     1      -3.322  26.130  61.022  1.00  0.00     0.087 C 
BRANCH  11  12
ATOM     12  C   UNL     1      -3.886  26.578  62.395  1.00  0.00     0.066 C 
BRANCH  12  13
ATOM     13  C   UNL     1      -5.389  26.812  62.353  1.00  0.00     0.140 C 
ATOM     14  O   UNL     1      -5.865  27.620  63.139  1.00  0.00    -0.299 OA
BRANCH  13  15
ATOM     15  C   UNL     1      -6.290  26.170  61.311  1.00  0.00     0.106 CG0
ATOM     16  G   UNL     1      -6.941  24.905  61.849  1.00  0.00     0.000 G0
ENDBRANCH  13  15
ENDBRANCH  12  13
BRANCH  12  17
ATOM     17  C   UNL     1      -3.156  27.840  62.957  1.00  0.00    -0.006 C 
ATOM     18  C   UNL     1      -1.853  27.455  63.684  1.00  0.00     0.008 C 
ATOM     19  C   UNL     1      -2.824  28.867  61.859  1.00  0.00     0.008 C 
ENDBRANCH  12  17
ENDBRANCH  11  12
ENDBRANCH   1  11
TORSDOF 1
ENDMDL
