MODEL 1
REMARK VINA RESULT:    -5.183      0.000      0.000
REMARK INTER + INTRA:          -9.934
REMARK INTER:                  -9.425
REMARK INTRA:                  -0.510
REMARK UNBOUND:                -0.510
REMARK SMILES CCCCCCCCCCCCCCCC(=O)[O-]
REMARK SMILES IDX 9 1 10 2 11 3 12 4 13 5 14 6 15 7 16 8 17 9 18 10 8 11 7 12
REMARK SMILES IDX 6 13 5 14 4 15 3 16 2 17 1 18
REMARK H PARENT
REMARK Flexibility Score: inf
ROOT
ATOM      1  C   UNL     1       2.494  20.872 -13.509  1.00  0.00     0.000 C 
ENDROOT
BRANCH   1   2
ATOM      2  C   UNL     1       2.881  22.230 -14.119  1.00  0.00     0.000 C 
BRANCH   2   3
ATOM      3  C   UNL     1       3.402  22.103 -15.562  1.00  0.00     0.000 C 
BRANCH   3   4
ATOM      4  C   UNL     1       2.275  22.178 -16.605  1.00  0.00     0.000 C 
BRANCH   4   5
ATOM      5  C   UNL     1       2.730  22.834 -17.920  1.00  0.00     0.000 C 
BRANCH   5   6
ATOM      6  C   UNL     1       1.784  22.527 -19.096  1.00  0.00     0.006 C 
BRANCH   6   7
ATOM      7  C   UNL     1       1.551  21.030 -19.350  1.00  0.00     0.053 C 
BRANCH   7   8
ATOM      8  C   UNL     1       2.521  20.471 -20.344  1.00  0.00     0.041 C 
ATOM      9  O   UNL     1       3.288  21.240 -20.982  1.00  0.00    -0.550 OA
ATOM     10  O   UNL     1       2.557  19.105 -20.591  1.00  0.00    -0.550 OA
ENDBRANCH   7   8
ENDBRANCH   6   7
ENDBRANCH   5   6
ENDBRANCH   4   5
ENDBRANCH   3   4
ENDBRANCH   2   3
ENDBRANCH   1   2
BRANCH   1  11
ATOM     11  C   UNL     1       2.123  20.979 -12.020  1.00  0.00     0.000 C 
BRANCH  11  12
ATOM     12  C   UNL     1       2.653  19.797 -11.187  1.00  0.00    -0.000 C 
BRANCH  12  13
ATOM     13  C   UNL     1       2.835  20.085  -9.684  1.00  0.00    -0.000 C 
BRANCH  13  14
ATOM     14  C   UNL     1       1.527  20.275  -8.889  1.00  0.00    -0.000 C 
BRANCH  14  15
ATOM     15  C   UNL     1       1.614  21.284  -7.730  1.00  0.00    -0.000 C 
BRANCH  15  16
ATOM     16  C   UNL     1       0.291  21.427  -6.964  1.00  0.00    -0.000 C 
BRANCH  16  17
ATOM     17  C   UNL     1       0.357  20.701  -5.615  1.00  0.00    -0.003 C 
ATOM     18  C   UNL     1       1.776  20.705  -5.056  1.00  0.00     0.004 C 
ENDBRANCH  16  17
ENDBRANCH  15  16
ENDBRANCH  14  15
ENDBRANCH  13  14
ENDBRANCH  12  13
ENDBRANCH  11  12
ENDBRANCH   1  11
TORSDOF 14
ENDMDL
MODEL 2
REMARK VINA RESULT:    -5.118      1.224      2.122
REMARK INTER + INTRA:          -9.816
REMARK INTER:                  -9.120
REMARK INTRA:                  -0.696
REMARK UNBOUND:                -0.510
REMARK SMILES CCCCCCCCCCCCCCCC(=O)[O-]
REMARK SMILES IDX 9 1 10 2 11 3 12 4 13 5 14 6 15 7 16 8 17 9 18 10 8 11 7 12
REMARK SMILES IDX 6 13 5 14 4 15 3 16 2 17 1 18
REMARK H PARENT
REMARK Flexibility Score: inf
ROOT
ATOM      1  C   UNL     1       2.308  20.028 -11.663  1.00  0.00     0.000 C 
ENDROOT
BRANCH   1   2
ATOM      2  C   UNL     1       2.341  20.391 -13.157  1.00  0.00     0.000 C 
BRANCH   2   3
ATOM      3  C   UNL     1       2.565  21.895 -13.396  1.00  0.00     0.000 C 
BRANCH   3   4
ATOM      4  C   UNL     1       3.227  22.185 -14.753  1.00  0.00     0.000 C 
BRANCH   4   5
ATOM      5  C   UNL     1       2.503  21.498 -15.923  1.00  0.00     0.000 C 
BRANCH   5   6
ATOM      6  C   UNL     1       1.956  22.501 -16.956  1.00  0.00     0.006 C 
BRANCH   6   7
ATOM      7  C   UNL     1       2.844  22.684 -18.197  1.00  0.00     0.053 C 
BRANCH   7   8
ATOM      8  C   UNL     1       2.328  21.916 -19.374  1.00  0.00     0.041 C 
ATOM      9  O   UNL     1       3.074  21.698 -20.365  1.00  0.00    -0.550 OA
ATOM     10  O   UNL     1       1.013  21.469 -19.392  1.00  0.00    -0.550 OA
ENDBRANCH   7   8
ENDBRANCH   6   7
ENDBRANCH   5   6
ENDBRANCH   4   5
ENDBRANCH   3   4
ENDBRANCH   2   3
ENDBRANCH   1   2
BRANCH   1  11
ATOM     11  C   UNL     1       1.608  21.100 -10.811  1.00  0.00     0.000 C 
BRANCH  11  12
ATOM     12  C   UNL     1       2.549  21.752  -9.781  1.00  0.00    -0.000 C 
BRANCH  12  13
ATOM     13  C   UNL     1       2.048  21.718  -8.324  1.00  0.00    -0.000 C 
BRANCH  13  14
ATOM     14  C   UNL     1       3.046  21.140  -7.299  1.00  0.00    -0.000 C 
BRANCH  14  15
ATOM     15  C   UNL     1       2.413  20.640  -5.988  1.00  0.00    -0.000 C 
BRANCH  15  16
ATOM     16  C   UNL     1       0.951  21.082  -5.827  1.00  0.00    -0.000 C 
BRANCH  16  17
ATOM     17  C   UNL     1       0.100  19.953  -5.232  1.00  0.00    -0.003 C 
ATOM     18  C   UNL     1      -0.019  18.782  -6.203  1.00  0.00     0.004 C 
ENDBRANCH  16  17
ENDBRANCH  15  16
ENDBRANCH  14  15
ENDBRANCH  13  14
ENDBRANCH  12  13
ENDBRANCH  11  12
ENDBRANCH   1  11
TORSDOF 14
ENDMDL
MODEL 3
REMARK VINA RESULT:    -5.051      8.992     11.751
REMARK INTER + INTRA:          -9.695
REMARK INTER:                  -7.959
REMARK INTRA:                  -1.736
REMARK UNBOUND:                -0.510
REMARK SMILES CCCCCCCCCCCCCCCC(=O)[O-]
REMARK SMILES IDX 9 1 10 2 11 3 12 4 13 5 14 6 15 7 16 8 17 9 18 10 8 11 7 12
REMARK SMILES IDX 6 13 5 14 4 15 3 16 2 17 1 18
REMARK H PARENT
REMARK Flexibility Score: inf
ROOT
ATOM      1  C   UNL     1      10.294  29.940 -13.842  1.00  0.00     0.000 C 
ENDROOT
BRANCH   1   2
ATOM      2  C   UNL     1      11.111  28.915 -14.645  1.00  0.00     0.000 C 
BRANCH   2   3
ATOM      3  C   UNL     1      10.260  27.726 -15.126  1.00  0.00     0.000 C 
BRANCH   3   4
ATOM      4  C   UNL     1      10.919  26.369 -14.831  1.00  0.00     0.000 C 
BRANCH   4   5
ATOM      5  C   UNL     1       9.976  25.400 -14.096  1.00  0.00     0.000 C 
BRANCH   5   6
ATOM      6  C   UNL     1       9.941  25.641 -12.576  1.00  0.00     0.006 C 
BRANCH   6   7
ATOM      7  C   UNL     1       8.528  25.764 -11.984  1.00  0.00     0.053 C 
BRANCH   7   8
ATOM      8  C   UNL     1       7.802  24.453 -11.990  1.00  0.00     0.041 C 
ATOM      9  O   UNL     1       6.583  24.405 -12.299  1.00  0.00    -0.550 OA
ATOM     10  O   UNL     1       8.465  23.289 -11.622  1.00  0.00    -0.550 OA
ENDBRANCH   7   8
ENDBRANCH   6   7
ENDBRANCH   5   6
ENDBRANCH   4   5
ENDBRANCH   3   4
ENDBRANCH   2   3
ENDBRANCH   1   2
BRANCH   1  11
ATOM     11  C   UNL     1       9.535  29.300 -12.667  1.00  0.00     0.000 C 
BRANCH  11  12
ATOM     12  C   UNL     1       8.019  29.565 -12.721  1.00  0.00    -0.000 C 
BRANCH  12  13
ATOM     13  C   UNL     1       7.196  28.504 -13.477  1.00  0.00    -0.000 C 
BRANCH  13  14
ATOM     14  C   UNL     1       6.632  28.958 -14.839  1.00  0.00    -0.000 C 
BRANCH  14  15
ATOM     15  C   UNL     1       6.727  30.471 -15.108  1.00  0.00    -0.000 C 
BRANCH  15  16
ATOM     16  C   UNL     1       5.437  31.221 -14.747  1.00  0.00    -0.000 C 
BRANCH  16  17
ATOM     17  C   UNL     1       5.175  32.366 -15.733  1.00  0.00    -0.003 C 
ATOM     18  C   UNL     1       6.021  32.214 -16.993  1.00  0.00     0.004 C 
ENDBRANCH  16  17
ENDBRANCH  15  16
ENDBRANCH  14  15
ENDBRANCH  13  14
ENDBRANCH  12  13
ENDBRANCH  11  12
ENDBRANCH   1  11
TORSDOF 14
ENDMDL
MODEL 4
REMARK VINA RESULT:    -5.040      9.492     12.392
REMARK INTER + INTRA:          -9.674
REMARK INTER:                  -8.278
REMARK INTRA:                  -1.396
REMARK UNBOUND:                -0.510
REMARK SMILES CCCCCCCCCCCCCCCC(=O)[O-]
REMARK SMILES IDX 9 1 10 2 11 3 12 4 13 5 14 6 15 7 16 8 17 9 18 10 8 11 7 12
REMARK SMILES IDX 6 13 5 14 4 15 3 16 2 17 1 18
REMARK H PARENT
REMARK Flexibility Score: inf
ROOT
ATOM      1  C   UNL     1       8.708  30.880 -13.044  1.00  0.00     0.000 C 
ENDROOT
BRANCH   1   2
ATOM      2  C   UNL     1       8.909  29.381 -12.771  1.00  0.00     0.000 C 
BRANCH   2   3
ATOM      3  C   UNL     1       7.585  28.597 -12.768  1.00  0.00     0.000 C 
BRANCH   3   4
ATOM      4  C   UNL     1       7.799  27.075 -12.802  1.00  0.00     0.000 C 
BRANCH   4   5
ATOM      5  C   UNL     1       9.234  26.671 -12.422  1.00  0.00     0.000 C 
BRANCH   5   6
ATOM      6  C   UNL     1       9.377  25.160 -12.159  1.00  0.00     0.006 C 
BRANCH   6   7
ATOM      7  C   UNL     1       9.008  24.725 -10.732  1.00  0.00     0.053 C 
BRANCH   7   8
ATOM      8  C   UNL     1       7.813  23.823 -10.712  1.00  0.00     0.041 C 
ATOM      9  O   UNL     1       6.745  24.173 -11.280  1.00  0.00    -0.550 OA
ATOM     10  O   UNL     1       7.868  22.609 -10.039  1.00  0.00    -0.550 OA
ENDBRANCH   7   8
ENDBRANCH   6   7
ENDBRANCH   5   6
ENDBRANCH   4   5
ENDBRANCH   3   4
ENDBRANCH   2   3
ENDBRANCH   1   2
BRANCH   1  11
ATOM     11  C   UNL     1       7.571  31.486 -12.203  1.00  0.00     0.000 C 
BRANCH  11  12
ATOM     12  C   UNL     1       6.837  32.629 -12.927  1.00  0.00    -0.000 C 
BRANCH  12  13
ATOM     13  C   UNL     1       5.307  32.469 -13.018  1.00  0.00    -0.000 C 
BRANCH  13  14
ATOM     14  C   UNL     1       4.776  32.005 -14.390  1.00  0.00    -0.000 C 
BRANCH  14  15
ATOM     15  C   UNL     1       5.438  30.730 -14.943  1.00  0.00    -0.000 C 
BRANCH  15  16
ATOM     16  C   UNL     1       6.246  30.986 -16.223  1.00  0.00    -0.000 C 
BRANCH  16  17
ATOM     17  C   UNL     1       5.894  32.351 -16.830  1.00  0.00    -0.003 C 
ATOM     18  C   UNL     1       7.047  33.337 -16.674  1.00  0.00     0.004 C 
ENDBRANCH  16  17
ENDBRANCH  15  16
ENDBRANCH  14  15
ENDBRANCH  13  14
ENDBRANCH  12  13
ENDBRANCH  11  12
ENDBRANCH   1  11
TORSDOF 14
ENDMDL
MODEL 5
REMARK VINA RESULT:    -5.018      1.121      1.783
REMARK INTER + INTRA:          -9.635
REMARK INTER:                  -8.826
REMARK INTRA:                  -0.808
REMARK UNBOUND:                -0.510
REMARK SMILES CCCCCCCCCCCCCCCC(=O)[O-]
REMARK SMILES IDX 9 1 10 2 11 3 12 4 13 5 14 6 15 7 16 8 17 9 18 10 8 11 7 12
REMARK SMILES IDX 6 13 5 14 4 15 3 16 2 17 1 18
REMARK H PARENT
REMARK Flexibility Score: inf
ROOT
ATOM      1  C   UNL     1       2.166  20.121 -12.784  1.00  0.00     0.000 C 
ENDROOT
BRANCH   1   2
ATOM      2  C   UNL     1       2.337  21.621 -12.494  1.00  0.00     0.000 C 
BRANCH   2   3
ATOM      3  C   UNL     1       2.840  22.407 -13.718  1.00  0.00     0.000 C 
BRANCH   3   4
ATOM      4  C   UNL     1       2.844  21.562 -15.002  1.00  0.00     0.000 C 
BRANCH   4   5
ATOM      5  C   UNL     1       2.620  22.408 -16.268  1.00  0.00     0.000 C 
BRANCH   5   6
ATOM      6  C   UNL     1       1.702  21.715 -17.292  1.00  0.00     0.006 C 
BRANCH   6   7
ATOM      7  C   UNL     1       1.781  22.298 -18.712  1.00  0.00     0.053 C 
BRANCH   7   8
ATOM      8  C   UNL     1       2.043  21.239 -19.738  1.00  0.00     0.041 C 
ATOM      9  O   UNL     1       1.316  20.211 -19.789  1.00  0.00    -0.550 OA
ATOM     10  O   UNL     1       3.109  21.370 -20.619  1.00  0.00    -0.550 OA
ENDBRANCH   7   8
ENDBRANCH   6   7
ENDBRANCH   5   6
ENDBRANCH   4   5
ENDBRANCH   3   4
ENDBRANCH   2   3
ENDBRANCH   1   2
BRANCH   1  11
ATOM     11  C   UNL     1       2.081  19.277 -11.501  1.00  0.00     0.000 C 
BRANCH  11  12
ATOM     12  C   UNL     1       3.305  19.457 -10.586  1.00  0.00    -0.000 C 
BRANCH  12  13
ATOM     13  C   UNL     1       3.313  18.576  -9.321  1.00  0.00    -0.000 C 
BRANCH  13  14
ATOM     14  C   UNL     1       2.837  19.275  -8.031  1.00  0.00    -0.000 C 
BRANCH  14  15
ATOM     15  C   UNL     1       3.133  20.784  -7.964  1.00  0.00    -0.000 C 
BRANCH  15  16
ATOM     16  C   UNL     1       2.106  21.555  -7.122  1.00  0.00    -0.000 C 
BRANCH  16  17
ATOM     17  C   UNL     1       0.710  20.936  -7.258  1.00  0.00    -0.003 C 
ATOM     18  C   UNL     1      -0.126  21.178  -6.005  1.00  0.00     0.004 C 
ENDBRANCH  16  17
ENDBRANCH  15  16
ENDBRANCH  14  15
ENDBRANCH  13  14
ENDBRANCH  12  13
ENDBRANCH  11  12
ENDBRANCH   1  11
TORSDOF 14
ENDMDL
MODEL 6
REMARK VINA RESULT:    -4.958      5.106     10.437
REMARK INTER + INTRA:          -9.526
REMARK INTER:                  -8.717
REMARK INTRA:                  -0.809
REMARK UNBOUND:                -0.510
REMARK SMILES CCCCCCCCCCCCCCCC(=O)[O-]
REMARK SMILES IDX 9 1 10 2 11 3 12 4 13 5 14 6 15 7 16 8 17 9 18 10 8 11 7 12
REMARK SMILES IDX 6 13 5 14 4 15 3 16 2 17 1 18
REMARK H PARENT
REMARK Flexibility Score: inf
ROOT
ATOM      1  C   UNL     1       2.172  20.242 -12.779  1.00  0.00     0.000 C 
ENDROOT
BRANCH   1   2
ATOM      2  C   UNL     1       2.021  19.432 -11.481  1.00  0.00     0.000 C 
BRANCH   2   3
ATOM      3  C   UNL     1       3.213  19.617 -10.526  1.00  0.00     0.000 C 
BRANCH   3   4
ATOM      4  C   UNL     1       2.776  19.814  -9.066  1.00  0.00     0.000 C 
BRANCH   4   5
ATOM      5  C   UNL     1       1.893  21.060  -8.875  1.00  0.00     0.000 C 
BRANCH   5   6
ATOM      6  C   UNL     1       2.114  21.743  -7.513  1.00  0.00     0.006 C 
BRANCH   6   7
ATOM      7  C   UNL     1       1.946  20.812  -6.301  1.00  0.00     0.053 C 
BRANCH   7   8
ATOM      8  C   UNL     1       0.515  20.432  -6.080  1.00  0.00     0.041 C 
ATOM      9  O   UNL     1       0.187  19.219  -5.994  1.00  0.00    -0.550 OA
ATOM     10  O   UNL     1      -0.463  21.415  -6.002  1.00  0.00    -0.550 OA
ENDBRANCH   7   8
ENDBRANCH   6   7
ENDBRANCH   5   6
ENDBRANCH   4   5
ENDBRANCH   3   4
ENDBRANCH   2   3
ENDBRANCH   1   2
BRANCH   1  11
ATOM     11  C   UNL     1       2.501  21.722 -12.517  1.00  0.00     0.000 C 
BRANCH  11  12
ATOM     12  C   UNL     1       2.827  22.499 -13.805  1.00  0.00    -0.000 C 
BRANCH  12  13
ATOM     13  C   UNL     1       2.865  21.648 -15.090  1.00  0.00    -0.000 C 
BRANCH  13  14
ATOM     14  C   UNL     1       2.575  22.417 -16.395  1.00  0.00    -0.000 C 
BRANCH  14  15
ATOM     15  C   UNL     1       1.555  21.744 -17.331  1.00  0.00    -0.000 C 
BRANCH  15  16
ATOM     16  C   UNL     1       1.870  21.971 -18.817  1.00  0.00    -0.000 C 
BRANCH  16  17
ATOM     17  C   UNL     1       1.650  20.687 -19.627  1.00  0.00    -0.003 C 
ATOM     18  C   UNL     1       2.782  20.462 -20.624  1.00  0.00     0.004 C 
ENDBRANCH  16  17
ENDBRANCH  15  16
ENDBRANCH  14  15
ENDBRANCH  13  14
ENDBRANCH  12  13
ENDBRANCH  11  12
ENDBRANCH   1  11
TORSDOF 14
ENDMDL
MODEL 7
REMARK VINA RESULT:    -4.948      9.386     10.996
REMARK INTER + INTRA:          -9.507
REMARK INTER:                  -8.150
REMARK INTRA:                  -1.356
REMARK UNBOUND:                -0.510
REMARK SMILES CCCCCCCCCCCCCCCC(=O)[O-]
REMARK SMILES IDX 9 1 10 2 11 3 12 4 13 5 14 6 15 7 16 8 17 9 18 10 8 11 7 12
REMARK SMILES IDX 6 13 5 14 4 15 3 16 2 17 1 18
REMARK H PARENT
REMARK Flexibility Score: inf
ROOT
ATOM      1  C   UNL     1       8.934  29.586 -12.791  1.00  0.00     0.000 C 
ENDROOT
BRANCH   1   2
ATOM      2  C   UNL     1       7.962  30.712 -12.404  1.00  0.00     0.000 C 
BRANCH   2   3
ATOM      3  C   UNL     1       7.461  31.507 -13.623  1.00  0.00     0.000 C 
BRANCH   3   4
ATOM      4  C   UNL     1       6.040  32.058 -13.426  1.00  0.00     0.000 C 
BRANCH   4   5
ATOM      5  C   UNL     1       5.150  31.859 -14.666  1.00  0.00     0.000 C 
BRANCH   5   6
ATOM      6  C   UNL     1       5.910  31.227 -15.847  1.00  0.00     0.006 C 
BRANCH   6   7
ATOM      7  C   UNL     1       5.919  32.080 -17.126  1.00  0.00     0.053 C 
BRANCH   7   8
ATOM      8  C   UNL     1       6.497  33.440 -16.887  1.00  0.00     0.041 C 
ATOM      9  O   UNL     1       5.780  34.467 -17.024  1.00  0.00    -0.550 OA
ATOM     10  O   UNL     1       7.836  33.578 -16.546  1.00  0.00    -0.550 OA
ENDBRANCH   7   8
ENDBRANCH   6   7
ENDBRANCH   5   6
ENDBRANCH   4   5
ENDBRANCH   3   4
ENDBRANCH   2   3
ENDBRANCH   1   2
BRANCH   1  11
ATOM     11  C   UNL     1       8.535  28.887 -14.103  1.00  0.00     0.000 C 
BRANCH  11  12
ATOM     12  C   UNL     1       7.339  27.933 -13.931  1.00  0.00    -0.000 C 
BRANCH  12  13
ATOM     13  C   UNL     1       7.325  27.132 -12.615  1.00  0.00    -0.000 C 
BRANCH  13  14
ATOM     14  C   UNL     1       6.960  25.640 -12.758  1.00  0.00    -0.000 C 
BRANCH  14  15
ATOM     15  C   UNL     1       8.163  24.683 -12.840  1.00  0.00    -0.000 C 
BRANCH  15  16
ATOM     16  C   UNL     1       9.209  24.948 -11.747  1.00  0.00    -0.000 C 
BRANCH  16  17
ATOM     17  C   UNL     1       8.730  24.417 -10.390  1.00  0.00    -0.003 C 
ATOM     18  C   UNL     1       8.156  23.010 -10.519  1.00  0.00     0.004 C 
ENDBRANCH  16  17
ENDBRANCH  15  16
ENDBRANCH  14  15
ENDBRANCH  13  14
ENDBRANCH  12  13
ENDBRANCH  11  12
ENDBRANCH   1  11
TORSDOF 14
ENDMDL
MODEL 8
REMARK VINA RESULT:    -4.910      9.375     11.751
REMARK INTER + INTRA:          -9.438
REMARK INTER:                  -7.637
REMARK INTRA:                  -1.800
REMARK UNBOUND:                -0.510
REMARK SMILES CCCCCCCCCCCCCCCC(=O)[O-]
REMARK SMILES IDX 9 1 10 2 11 3 12 4 13 5 14 6 15 7 16 8 17 9 18 10 8 11 7 12
REMARK SMILES IDX 6 13 5 14 4 15 3 16 2 17 1 18
REMARK H PARENT
REMARK Flexibility Score: inf
ROOT
ATOM      1  C   UNL     1       8.782  29.663 -12.793  1.00  0.00     0.000 C 
ENDROOT
BRANCH   1   2
ATOM      2  C   UNL     1       9.837  28.691 -13.345  1.00  0.00     0.000 C 
BRANCH   2   3
ATOM      3  C   UNL     1      10.698  28.060 -12.236  1.00  0.00     0.000 C 
BRANCH   3   4
ATOM      4  C   UNL     1      10.592  26.526 -12.206  1.00  0.00     0.000 C 
BRANCH   4   5
ATOM      5  C   UNL     1       9.598  25.982 -13.248  1.00  0.00     0.000 C 
BRANCH   5   6
ATOM      6  C   UNL     1       8.397  25.263 -12.605  1.00  0.00     0.006 C 
BRANCH   6   7
ATOM      7  C   UNL     1       8.743  23.923 -11.936  1.00  0.00     0.053 C 
BRANCH   7   8
ATOM      8  C   UNL     1       8.408  23.923 -10.477  1.00  0.00     0.041 C 
ATOM      9  O   UNL     1       9.122  24.565  -9.662  1.00  0.00    -0.550 OA
ATOM     10  O   UNL     1       7.325  23.187 -10.011  1.00  0.00    -0.550 OA
ENDBRANCH   7   8
ENDBRANCH   6   7
ENDBRANCH   5   6
ENDBRANCH   4   5
ENDBRANCH   3   4
ENDBRANCH   2   3
ENDBRANCH   1   2
BRANCH   1  11
ATOM     11  C   UNL     1       7.371  29.051 -12.769  1.00  0.00     0.000 C 
BRANCH  11  12
ATOM     12  C   UNL     1       6.982  28.395 -14.106  1.00  0.00    -0.000 C 
BRANCH  12  13
ATOM     13  C   UNL     1       6.743  29.376 -15.271  1.00  0.00    -0.000 C 
BRANCH  13  14
ATOM     14  C   UNL     1       5.728  30.501 -14.984  1.00  0.00    -0.000 C 
BRANCH  14  15
ATOM     15  C   UNL     1       6.191  31.911 -15.394  1.00  0.00    -0.000 C 
BRANCH  15  16
ATOM     16  C   UNL     1       6.207  32.898 -14.218  1.00  0.00    -0.000 C 
BRANCH  16  17
ATOM     17  C   UNL     1       5.270  32.430 -13.097  1.00  0.00    -0.003 C 
ATOM     18  C   UNL     1       6.004  32.350 -11.762  1.00  0.00     0.004 C 
ENDBRANCH  16  17
ENDBRANCH  15  16
ENDBRANCH  14  15
ENDBRANCH  13  14
ENDBRANCH  12  13
ENDBRANCH  11  12
ENDBRANCH   1  11
TORSDOF 14
ENDMDL
MODEL 9
REMARK VINA RESULT:    -4.849     10.023     12.736
REMARK INTER + INTRA:          -9.327
REMARK INTER:                  -7.208
REMARK INTRA:                  -2.119
REMARK UNBOUND:                -0.510
REMARK SMILES CCCCCCCCCCCCCCCC(=O)[O-]
REMARK SMILES IDX 9 1 10 2 11 3 12 4 13 5 14 6 15 7 16 8 17 9 18 10 8 11 7 12
REMARK SMILES IDX 6 13 5 14 4 15 3 16 2 17 1 18
REMARK H PARENT
REMARK Flexibility Score: inf
ROOT
ATOM      1  C   UNL     1       8.783  31.970 -12.354  1.00  0.00     0.000 C 
ENDROOT
BRANCH   1   2
ATOM      2  C   UNL     1       8.946  31.364 -13.757  1.00  0.00     0.000 C 
BRANCH   2   3
ATOM      3  C   UNL     1       9.427  29.902 -13.719  1.00  0.00     0.000 C 
BRANCH   3   4
ATOM      4  C   UNL     1       8.667  29.058 -12.683  1.00  0.00     0.000 C 
BRANCH   4   5
ATOM      5  C   UNL     1       7.301  28.574 -13.202  1.00  0.00     0.000 C 
BRANCH   5   6
ATOM      6  C   UNL     1       7.105  27.056 -13.036  1.00  0.00     0.006 C 
BRANCH   6   7
ATOM      7  C   UNL     1       8.346  26.307 -12.524  1.00  0.00     0.053 C 
BRANCH   7   8
ATOM      8  C   UNL     1       8.057  24.863 -12.253  1.00  0.00     0.041 C 
ATOM      9  O   UNL     1       6.875  24.481 -12.049  1.00  0.00    -0.550 OA
ATOM     10  O   UNL     1       9.097  23.944 -12.192  1.00  0.00    -0.550 OA
ENDBRANCH   7   8
ENDBRANCH   6   7
ENDBRANCH   5   6
ENDBRANCH   4   5
ENDBRANCH   3   4
ENDBRANCH   2   3
ENDBRANCH   1   2
BRANCH   1  11
ATOM     11  C   UNL     1       7.513  32.829 -12.226  1.00  0.00     0.000 C 
BRANCH  11  12
ATOM     12  C   UNL     1       6.220  32.007 -12.376  1.00  0.00    -0.000 C 
BRANCH  12  13
ATOM     13  C   UNL     1       5.339  32.388 -13.582  1.00  0.00    -0.000 C 
BRANCH  13  14
ATOM     14  C   UNL     1       5.202  31.298 -14.665  1.00  0.00    -0.000 C 
BRANCH  14  15
ATOM     15  C   UNL     1       6.023  31.548 -15.943  1.00  0.00    -0.000 C 
BRANCH  15  16
ATOM     16  C   UNL     1       6.033  33.025 -16.364  1.00  0.00    -0.000 C 
BRANCH  16  17
ATOM     17  C   UNL     1       7.469  33.549 -16.489  1.00  0.00    -0.003 C 
ATOM     18  C   UNL     1       7.752  34.636 -15.456  1.00  0.00     0.004 C 
ENDBRANCH  16  17
ENDBRANCH  15  16
ENDBRANCH  14  15
ENDBRANCH  13  14
ENDBRANCH  12  13
ENDBRANCH  11  12
ENDBRANCH   1  11
TORSDOF 14
ENDMDL
