MODEL 1
REMARK VINA RESULT:    -5.948      0.000      0.000
REMARK INTER + INTRA:          -6.122
REMARK INTER:                  -6.122
REMARK INTRA:                   0.000
REMARK UNBOUND:                 0.000
REMARK SMILES Oc1ccc2[nH]ccc2c1
REMARK SMILES IDX 3 1 4 2 5 3 9 4 8 5 7 6 6 7 10 8 2 9 1 11
REMARK H PARENT 6 10 1 12
REMARK Flexibility Score: inf
ROOT
ATOM      1  C   UNL     1     130.686 127.880 127.303  1.00  0.00     0.048 A 
ATOM      2  C   UNL     1     129.482 127.152 127.246  1.00  0.00     0.030 A 
ATOM      3  C   UNL     1     129.565 125.767 127.122  1.00  0.00     0.046 A 
ATOM      4  C   UNL     1     130.771 125.120 127.058  1.00  0.00     0.003 A 
ATOM      5  C   UNL     1     130.509 123.772 126.940  1.00  0.00     0.028 A 
ATOM      6  C   UNL     1     129.121 123.671 126.938  1.00  0.00     0.083 A 
ATOM      7  N   UNL     1     128.549 124.891 127.050  1.00  0.00    -0.361 N 
ATOM      8  C   UNL     1     131.980 125.809 127.113  1.00  0.00     0.056 A 
ATOM      9  C   UNL     1     131.934 127.211 127.238  1.00  0.00     0.116 A 
ATOM     10  H   UNL     1     127.528 125.105 127.075  1.00  0.00     0.166 HD
ENDROOT
BRANCH   9  11
ATOM     11  O   UNL     1     133.125 127.932 127.295  1.00  0.00    -0.508 OA
ATOM     12  H   UNL     1     133.915 127.696 126.705  1.00  0.00     0.293 HD
ENDBRANCH   9  11
TORSDOF 1
ENDMDL
MODEL 2
REMARK VINA RESULT:    -5.875      2.593      3.632
REMARK INTER + INTRA:          -6.047
REMARK INTER:                  -6.047
REMARK INTRA:                   0.000
REMARK UNBOUND:                 0.000
REMARK SMILES Oc1ccc2[nH]ccc2c1
REMARK SMILES IDX 3 1 4 2 5 3 9 4 8 5 7 6 6 7 10 8 2 9 1 11
REMARK H PARENT 6 10 1 12
REMARK Flexibility Score: inf
ROOT
ATOM      1  C   UNL     1     128.591 125.038 127.641  1.00  0.00     0.048 A 
ATOM      2  C   UNL     1     129.141 126.227 128.156  1.00  0.00     0.030 A 
ATOM      3  C   UNL     1     130.424 126.581 127.744  1.00  0.00     0.046 A 
ATOM      4  C   UNL     1     131.138 125.808 126.868  1.00  0.00     0.003 A 
ATOM      5  C   UNL     1     132.353 126.428 126.667  1.00  0.00     0.028 A 
ATOM      6  C   UNL     1     132.309 127.575 127.454  1.00  0.00     0.083 A 
ATOM      7  N   UNL     1     131.129 127.665 128.109  1.00  0.00    -0.361 N 
ATOM      8  C   UNL     1     130.624 124.626 126.340  1.00  0.00     0.056 A 
ATOM      9  C   UNL     1     129.329 124.237 126.735  1.00  0.00     0.116 A 
ATOM     10  H   UNL     1     130.832 128.421 128.764  1.00  0.00     0.166 HD
ENDROOT
BRANCH   9  11
ATOM     11  O   UNL     1     128.784 123.061 126.227  1.00  0.00    -0.508 OA
ATOM     12  H   UNL     1     127.807 123.001 125.963  1.00  0.00     0.293 HD
ENDBRANCH   9  11
TORSDOF 1
ENDMDL
MODEL 3
REMARK VINA RESULT:    -5.791      2.640      4.052
REMARK INTER + INTRA:          -5.960
REMARK INTER:                  -5.960
REMARK INTRA:                   0.000
REMARK UNBOUND:                 0.000
REMARK SMILES Oc1ccc2[nH]ccc2c1
REMARK SMILES IDX 3 1 4 2 5 3 9 4 8 5 7 6 6 7 10 8 2 9 1 11
REMARK H PARENT 6 10 1 12
REMARK Flexibility Score: inf
ROOT
ATOM      1  C   UNL     1     129.621 123.748 127.009  1.00  0.00     0.048 A 
ATOM      2  C   UNL     1     130.872 124.267 126.624  1.00  0.00     0.030 A 
ATOM      3  C   UNL     1     131.174 125.577 126.993  1.00  0.00     0.046 A 
ATOM      4  C   UNL     1     130.293 126.345 127.707  1.00  0.00     0.003 A 
ATOM      5  C   UNL     1     130.886 127.573 127.908  1.00  0.00     0.028 A 
ATOM      6  C   UNL     1     132.128 127.481 127.287  1.00  0.00     0.083 A 
ATOM      7  N   UNL     1     132.299 126.260 126.730  1.00  0.00    -0.361 N 
ATOM      8  C   UNL     1     129.049 125.862 128.105  1.00  0.00     0.056 A 
ATOM      9  C   UNL     1     128.710 124.542 127.749  1.00  0.00     0.116 A 
ATOM     10  H   UNL     1     133.136 125.922 126.204  1.00  0.00     0.166 HD
ENDROOT
BRANCH   9  11
ATOM     11  O   UNL     1     127.473 124.027 128.130  1.00  0.00    -0.508 OA
ATOM     12  H   UNL     1     126.606 124.441 127.808  1.00  0.00     0.293 HD
ENDBRANCH   9  11
TORSDOF 1
ENDMDL
MODEL 4
REMARK VINA RESULT:    -5.782      1.680      2.650
REMARK INTER + INTRA:          -5.951
REMARK INTER:                  -5.951
REMARK INTRA:                   0.000
REMARK UNBOUND:                 0.000
REMARK SMILES Oc1ccc2[nH]ccc2c1
REMARK SMILES IDX 3 1 4 2 5 3 9 4 8 5 7 6 6 7 10 8 2 9 1 11
REMARK H PARENT 6 10 1 12
REMARK Flexibility Score: inf
ROOT
ATOM      1  C   UNL     1     130.759 125.088 126.093  1.00  0.00     0.048 A 
ATOM      2  C   UNL     1     130.046 123.982 126.594  1.00  0.00     0.030 A 
ATOM      3  C   UNL     1     128.993 124.231 127.472  1.00  0.00     0.046 A 
ATOM      4  C   UNL     1     128.650 125.504 127.843  1.00  0.00     0.003 A 
ATOM      5  C   UNL     1     127.581 125.407 128.708  1.00  0.00     0.028 A 
ATOM      6  C   UNL     1     127.326 124.044 128.818  1.00  0.00     0.083 A 
ATOM      7  N   UNL     1     128.190 123.330 128.061  1.00  0.00    -0.361 N 
ATOM      8  C   UNL     1     129.334 126.620 127.366  1.00  0.00     0.056 A 
ATOM      9  C   UNL     1     130.405 126.406 126.477  1.00  0.00     0.116 A 
ATOM     10  H   UNL     1     128.224 122.291 127.958  1.00  0.00     0.166 HD
ENDROOT
BRANCH   9  11
ATOM     11  O   UNL     1     131.111 127.499 125.980  1.00  0.00    -0.508 OA
ATOM     12  H   UNL     1     131.578 127.463 125.082  1.00  0.00     0.293 HD
ENDBRANCH   9  11
TORSDOF 1
ENDMDL
MODEL 5
REMARK VINA RESULT:    -5.705      2.721      4.075
REMARK INTER + INTRA:          -5.872
REMARK INTER:                  -5.872
REMARK INTRA:                   0.000
REMARK UNBOUND:                 0.000
REMARK SMILES Oc1ccc2[nH]ccc2c1
REMARK SMILES IDX 3 1 4 2 5 3 9 4 8 5 7 6 6 7 10 8 2 9 1 11
REMARK H PARENT 6 10 1 12
REMARK Flexibility Score: inf
ROOT
ATOM      1  C   UNL     1     131.247 125.554 125.550  1.00  0.00     0.048 A 
ATOM      2  C   UNL     1     132.326 126.393 125.889  1.00  0.00     0.030 A 
ATOM      3  C   UNL     1     132.191 127.202 127.015  1.00  0.00     0.046 A 
ATOM      4  C   UNL     1     131.052 127.193 127.776  1.00  0.00     0.003 A 
ATOM      5  C   UNL     1     131.235 128.094 128.804  1.00  0.00     0.028 A 
ATOM      6  C   UNL     1     132.510 128.616 128.604  1.00  0.00     0.083 A 
ATOM      7  N   UNL     1     133.089 128.068 127.511  1.00  0.00    -0.361 N 
ATOM      8  C   UNL     1     129.967 126.375 127.469  1.00  0.00     0.056 A 
ATOM      9  C   UNL     1     130.069 125.543 126.337  1.00  0.00     0.116 A 
ATOM     10  H   UNL     1     134.040 128.278 127.134  1.00  0.00     0.166 HD
ENDROOT
BRANCH   9  11
ATOM     11  O   UNL     1     129.003 124.713 126.001  1.00  0.00    -0.508 OA
ATOM     12  H   UNL     1     129.053 123.709 126.129  1.00  0.00     0.293 HD
ENDBRANCH   9  11
TORSDOF 1
ENDMDL
MODEL 6
REMARK VINA RESULT:    -5.561      2.306      3.088
REMARK INTER + INTRA:          -5.723
REMARK INTER:                  -5.723
REMARK INTRA:                   0.000
REMARK UNBOUND:                 0.000
REMARK SMILES Oc1ccc2[nH]ccc2c1
REMARK SMILES IDX 3 1 4 2 5 3 9 4 8 5 7 6 6 7 10 8 2 9 1 11
REMARK H PARENT 6 10 1 12
REMARK Flexibility Score: inf
ROOT
ATOM      1  C   UNL     1     132.335 126.498 126.167  1.00  0.00     0.048 A 
ATOM      2  C   UNL     1     131.725 125.983 125.007  1.00  0.00     0.030 A 
ATOM      3  C   UNL     1     130.425 126.392 124.720  1.00  0.00     0.046 A 
ATOM      4  C   UNL     1     129.750 127.266 125.530  1.00  0.00     0.003 A 
ATOM      5  C   UNL     1     128.504 127.464 124.973  1.00  0.00     0.028 A 
ATOM      6  C   UNL     1     128.490 126.677 123.826  1.00  0.00     0.083 A 
ATOM      7  N   UNL     1     129.665 126.025 123.675  1.00  0.00    -0.361 N 
ATOM      8  C   UNL     1     130.323 127.795 126.683  1.00  0.00     0.056 A 
ATOM      9  C   UNL     1     131.637 127.403 127.005  1.00  0.00     0.116 A 
ATOM     10  H   UNL     1     129.925 125.371 122.904  1.00  0.00     0.166 HD
ENDROOT
BRANCH   9  11
ATOM     11  O   UNL     1     132.241 127.913 128.152  1.00  0.00    -0.508 OA
ATOM     12  H   UNL     1     131.914 128.767 128.587  1.00  0.00     0.293 HD
ENDBRANCH   9  11
TORSDOF 1
ENDMDL
MODEL 7
REMARK VINA RESULT:    -5.429      1.738      1.868
REMARK INTER + INTRA:          -5.588
REMARK INTER:                  -5.588
REMARK INTRA:                   0.000
REMARK UNBOUND:                 0.000
REMARK SMILES Oc1ccc2[nH]ccc2c1
REMARK SMILES IDX 3 1 4 2 5 3 9 4 8 5 7 6 6 7 10 8 2 9 1 11
REMARK H PARENT 6 10 1 12
REMARK Flexibility Score: inf
ROOT
ATOM      1  C   UNL     1     130.149 127.439 125.741  1.00  0.00     0.048 A 
ATOM      2  C   UNL     1     129.030 127.350 126.591  1.00  0.00     0.030 A 
ATOM      3  C   UNL     1     128.723 126.103 127.134  1.00  0.00     0.046 A 
ATOM      4  C   UNL     1     129.477 124.993 126.858  1.00  0.00     0.003 A 
ATOM      5  C   UNL     1     128.916 123.935 127.541  1.00  0.00     0.028 A 
ATOM      6  C   UNL     1     127.823 124.475 128.212  1.00  0.00     0.083 A 
ATOM      7  N   UNL     1     127.710 125.799 127.961  1.00  0.00    -0.361 N 
ATOM      8  C   UNL     1     130.589 125.047 126.022  1.00  0.00     0.056 A 
ATOM      9  C   UNL     1     130.929 126.291 125.456  1.00  0.00     0.116 A 
ATOM     10  H   UNL     1     126.982 126.448 128.334  1.00  0.00     0.166 HD
ENDROOT
BRANCH   9  11
ATOM     11  O   UNL     1     132.035 126.380 124.615  1.00  0.00    -0.508 OA
ATOM     12  H   UNL     1     132.154 127.160 123.979  1.00  0.00     0.293 HD
ENDBRANCH   9  11
TORSDOF 1
ENDMDL
MODEL 8
REMARK VINA RESULT:    -5.336      3.041      3.903
REMARK INTER + INTRA:          -5.492
REMARK INTER:                  -5.492
REMARK INTRA:                   0.000
REMARK UNBOUND:                 0.000
REMARK SMILES Oc1ccc2[nH]ccc2c1
REMARK SMILES IDX 3 1 4 2 5 3 9 4 8 5 7 6 6 7 10 8 2 9 1 11
REMARK H PARENT 6 10 1 12
REMARK Flexibility Score: inf
ROOT
ATOM      1  C   UNL     1     130.056 126.768 127.509  1.00  0.00     0.048 A 
ATOM      2  C   UNL     1     130.069 127.999 126.828  1.00  0.00     0.030 A 
ATOM      3  C   UNL     1     129.576 128.027 125.525  1.00  0.00     0.046 A 
ATOM      4  C   UNL     1     129.091 126.901 124.915  1.00  0.00     0.003 A 
ATOM      5  C   UNL     1     128.684 127.262 123.648  1.00  0.00     0.028 A 
ATOM      6  C   UNL     1     128.953 128.624 123.555  1.00  0.00     0.083 A 
ATOM      7  N   UNL     1     129.497 129.087 124.704  1.00  0.00    -0.361 N 
ATOM      8  C   UNL     1     129.063 125.667 125.560  1.00  0.00     0.056 A 
ATOM      9  C   UNL     1     129.554 125.602 126.878  1.00  0.00     0.116 A 
ATOM     10  H   UNL     1     129.793 130.067 124.907  1.00  0.00     0.166 HD
ENDROOT
BRANCH   9  11
ATOM     11  O   UNL     1     129.542 124.384 127.553  1.00  0.00    -0.508 OA
ATOM     12  H   UNL     1     129.785 123.518 127.086  1.00  0.00     0.293 HD
ENDBRANCH   9  11
TORSDOF 1
ENDMDL
MODEL 9
REMARK VINA RESULT:    -5.322      2.321      2.667
REMARK INTER + INTRA:          -5.478
REMARK INTER:                  -5.478
REMARK INTRA:                   0.000
REMARK UNBOUND:                 0.000
REMARK SMILES Oc1ccc2[nH]ccc2c1
REMARK SMILES IDX 3 1 4 2 5 3 9 4 8 5 7 6 6 7 10 8 2 9 1 11
REMARK H PARENT 6 10 1 12
REMARK Flexibility Score: inf
ROOT
ATOM      1  C   UNL     1     130.900 127.393 127.396  1.00  0.00     0.048 A 
ATOM      2  C   UNL     1     129.597 127.669 126.941  1.00  0.00     0.030 A 
ATOM      3  C   UNL     1     129.267 127.286 125.643  1.00  0.00     0.046 A 
ATOM      4  C   UNL     1     130.170 126.661 124.825  1.00  0.00     0.003 A 
ATOM      5  C   UNL     1     129.539 126.419 123.623  1.00  0.00     0.028 A 
ATOM      6  C   UNL     1     128.252 126.924 123.782  1.00  0.00     0.083 A 
ATOM      7  N   UNL     1     128.090 127.452 125.017  1.00  0.00    -0.361 N 
ATOM      8  C   UNL     1     131.467 126.373 125.243  1.00  0.00     0.056 A 
ATOM      9  C   UNL     1     131.836 126.746 126.551  1.00  0.00     0.116 A 
ATOM     10  H   UNL     1     127.228 127.897 125.400  1.00  0.00     0.166 HD
ENDROOT
BRANCH   9  11
ATOM     11  O   UNL     1     133.125 126.474 127.001  1.00  0.00    -0.508 OA
ATOM     12  H   UNL     1     133.518 126.955 127.802  1.00  0.00     0.293 HD
ENDBRANCH   9  11
TORSDOF 1
ENDMDL
