MODEL 1
REMARK VINA RESULT:    -2.241      0.000      0.000
REMARK INTER + INTRA:          -7.047
REMARK INTER:                  -4.338
REMARK INTRA:                  -2.710
REMARK UNBOUND:                -2.710
REMARK SMILES CCCCCCCCCCCCCCCCCC(=O)[O-]
REMARK SMILES IDX 10 1 11 2 12 3 13 4 14 5 15 6 16 7 17 8 18 9 19 10 20 11
REMARK SMILES IDX 9 12 8 13 7 14 6 15 5 16 4 17 3 18 2 19 1 20
REMARK H PARENT
REMARK Flexibility Score: inf
ROOT
ATOM      1  C   UNL     1       0.942  16.461  -2.022  1.00  0.00     0.000 C 
ENDROOT
BRANCH   1   2
ATOM      2  C   UNL     1       1.252  15.597  -0.784  1.00  0.00     0.000 C 
BRANCH   2   3
ATOM      3  C   UNL     1       2.744  15.254  -0.582  1.00  0.00     0.000 C 
BRANCH   3   4
ATOM      4  C   UNL     1       3.115  13.782  -0.837  1.00  0.00     0.000 C 
BRANCH   4   5
ATOM      5  C   UNL     1       2.104  12.798  -0.223  1.00  0.00     0.000 C 
BRANCH   5   6
ATOM      6  C   UNL     1       1.997  11.481  -1.012  1.00  0.00     0.000 C 
BRANCH   6   7
ATOM      7  C   UNL     1       2.456  10.228  -0.245  1.00  0.00     0.006 C 
BRANCH   7   8
ATOM      8  C   UNL     1       1.483   9.819   0.870  1.00  0.00     0.053 C 
BRANCH   8   9
ATOM      9  C   UNL     1       0.333   9.050   0.303  1.00  0.00     0.041 C 
ATOM     10  O   UNL     1       0.539   8.017  -0.388  1.00  0.00    -0.550 OA
ATOM     11  O   UNL     1      -0.970   9.446   0.578  1.00  0.00    -0.550 OA
ENDBRANCH   8   9
ENDBRANCH   7   8
ENDBRANCH   6   7
ENDBRANCH   5   6
ENDBRANCH   4   5
ENDBRANCH   3   4
ENDBRANCH   2   3
ENDBRANCH   1   2
BRANCH   1  12
ATOM     12  C   UNL     1       0.048  15.781  -3.076  1.00  0.00     0.000 C 
BRANCH  12  13
ATOM     13  C   UNL     1       0.704  14.554  -3.746  1.00  0.00    -0.000 C 
BRANCH  13  14
ATOM     14  C   UNL     1      -0.049  13.247  -3.445  1.00  0.00    -0.000 C 
BRANCH  14  15
ATOM     15  C   UNL     1      -1.401  13.488  -2.755  1.00  0.00    -0.000 C 
BRANCH  15  16
ATOM     16  C   UNL     1      -1.413  13.024  -1.288  1.00  0.00    -0.000 C 
BRANCH  16  17
ATOM     17  C   UNL     1      -2.553  13.679  -0.479  1.00  0.00    -0.000 C 
BRANCH  17  18
ATOM     18  C   UNL     1      -3.185  14.898  -1.176  1.00  0.00    -0.000 C 
BRANCH  18  19
ATOM     19  C   UNL     1      -2.707  16.259  -0.643  1.00  0.00    -0.003 C 
ATOM     20  C   UNL     1      -2.965  17.403  -1.625  1.00  0.00     0.004 C 
ENDBRANCH  18  19
ENDBRANCH  17  18
ENDBRANCH  16  17
ENDBRANCH  15  16
ENDBRANCH  14  15
ENDBRANCH  13  14
ENDBRANCH  12  13
ENDBRANCH   1  12
TORSDOF 16
ENDMDL
MODEL 2
REMARK VINA RESULT:    -2.168      8.105      9.895
REMARK INTER + INTRA:          -6.906
REMARK INTER:                  -4.231
REMARK INTRA:                  -2.675
REMARK UNBOUND:                -2.710
REMARK SMILES CCCCCCCCCCCCCCCCCC(=O)[O-]
REMARK SMILES IDX 10 1 11 2 12 3 13 4 14 5 15 6 16 7 17 8 18 9 19 10 20 11
REMARK SMILES IDX 9 12 8 13 7 14 6 15 5 16 4 17 3 18 2 19 1 20
REMARK H PARENT
REMARK Flexibility Score: inf
ROOT
ATOM      1  C   UNL     1      -0.252   9.981 -10.218  1.00  0.00     0.000 C 
ENDROOT
BRANCH   1   2
ATOM      2  C   UNL     1       0.353   8.603 -10.545  1.00  0.00     0.000 C 
BRANCH   2   3
ATOM      3  C   UNL     1      -0.670   7.459 -10.705  1.00  0.00     0.000 C 
BRANCH   3   4
ATOM      4  C   UNL     1      -0.527   6.310  -9.691  1.00  0.00     0.000 C 
BRANCH   4   5
ATOM      5  C   UNL     1      -1.876   5.862  -9.103  1.00  0.00     0.000 C 
BRANCH   5   6
ATOM      6  C   UNL     1      -1.980   6.111  -7.587  1.00  0.00     0.000 C 
BRANCH   6   7
ATOM      7  C   UNL     1      -0.844   6.963  -6.992  1.00  0.00     0.006 C 
BRANCH   7   8
ATOM      8  C   UNL     1       0.137   6.144  -6.143  1.00  0.00     0.053 C 
BRANCH   8   9
ATOM      9  C   UNL     1       1.483   6.796  -6.126  1.00  0.00     0.041 C 
ATOM     10  O   UNL     1       1.884   7.449  -7.125  1.00  0.00    -0.550 OA
ATOM     11  O   UNL     1       2.275   6.724  -4.987  1.00  0.00    -0.550 OA
ENDBRANCH   8   9
ENDBRANCH   7   8
ENDBRANCH   6   7
ENDBRANCH   5   6
ENDBRANCH   4   5
ENDBRANCH   3   4
ENDBRANCH   2   3
ENDBRANCH   1   2
BRANCH   1  12
ATOM     12  C   UNL     1      -0.723  10.151  -8.761  1.00  0.00     0.000 C 
BRANCH  12  13
ATOM     13  C   UNL     1      -2.209  10.551  -8.633  1.00  0.00    -0.000 C 
BRANCH  13  14
ATOM     14  C   UNL     1      -3.154   9.342  -8.736  1.00  0.00    -0.000 C 
BRANCH  14  15
ATOM     15  C   UNL     1      -4.274   9.551  -9.767  1.00  0.00    -0.000 C 
BRANCH  15  16
ATOM     16  C   UNL     1      -3.737   9.815 -11.185  1.00  0.00    -0.000 C 
BRANCH  16  17
ATOM     17  C   UNL     1      -4.672  10.732 -12.002  1.00  0.00    -0.000 C 
BRANCH  17  18
ATOM     18  C   UNL     1      -4.119  12.155 -12.205  1.00  0.00    -0.000 C 
BRANCH  18  19
ATOM     19  C   UNL     1      -2.611  12.299 -11.941  1.00  0.00    -0.003 C 
ATOM     20  C   UNL     1      -2.295  13.325 -10.852  1.00  0.00     0.004 C 
ENDBRANCH  18  19
ENDBRANCH  17  18
ENDBRANCH  16  17
ENDBRANCH  15  16
ENDBRANCH  14  15
ENDBRANCH  13  14
ENDBRANCH  12  13
ENDBRANCH   1  12
TORSDOF 16
ENDMDL
MODEL 3
REMARK VINA RESULT:    -2.146      8.142     10.563
REMARK INTER + INTRA:          -6.863
REMARK INTER:                  -4.119
REMARK INTRA:                  -2.744
REMARK UNBOUND:                -2.710
REMARK SMILES CCCCCCCCCCCCCCCCCC(=O)[O-]
REMARK SMILES IDX 10 1 11 2 12 3 13 4 14 5 15 6 16 7 17 8 18 9 19 10 20 11
REMARK SMILES IDX 9 12 8 13 7 14 6 15 5 16 4 17 3 18 2 19 1 20
REMARK H PARENT
REMARK Flexibility Score: inf
ROOT
ATOM      1  C   UNL     1      -4.071  11.024 -12.530  1.00  0.00     0.000 C 
ENDROOT
BRANCH   1   2
ATOM      2  C   UNL     1      -3.354  12.373 -12.722  1.00  0.00     0.000 C 
BRANCH   2   3
ATOM      3  C   UNL     1      -3.376  13.308 -11.493  1.00  0.00     0.000 C 
BRANCH   3   4
ATOM      4  C   UNL     1      -2.161  13.183 -10.557  1.00  0.00     0.000 C 
BRANCH   4   5
ATOM      5  C   UNL     1      -0.841  12.969 -11.319  1.00  0.00     0.000 C 
BRANCH   5   6
ATOM      6  C   UNL     1       0.001  11.816 -10.743  1.00  0.00     0.000 C 
BRANCH   6   7
ATOM      7  C   UNL     1       1.015  12.231  -9.663  1.00  0.00     0.006 C 
BRANCH   7   8
ATOM      8  C   UNL     1       0.755  11.559  -8.308  1.00  0.00     0.053 C 
BRANCH   8   9
ATOM      9  C   UNL     1       0.394  12.582  -7.278  1.00  0.00     0.041 C 
ATOM     10  O   UNL     1      -0.729  13.149  -7.315  1.00  0.00    -0.550 OA
ATOM     11  O   UNL     1       1.279  12.873  -6.248  1.00  0.00    -0.550 OA
ENDBRANCH   8   9
ENDBRANCH   7   8
ENDBRANCH   6   7
ENDBRANCH   5   6
ENDBRANCH   4   5
ENDBRANCH   3   4
ENDBRANCH   2   3
ENDBRANCH   1   2
BRANCH   1  12
ATOM     12  C   UNL     1      -3.135   9.819 -12.318  1.00  0.00     0.000 C 
BRANCH  12  13
ATOM     13  C   UNL     1      -3.483   8.975 -11.073  1.00  0.00    -0.000 C 
BRANCH  13  14
ATOM     14  C   UNL     1      -3.784   9.844  -9.840  1.00  0.00    -0.000 C 
BRANCH  14  15
ATOM     15  C   UNL     1      -2.611   9.895  -8.849  1.00  0.00    -0.000 C 
BRANCH  15  16
ATOM     16  C   UNL     1      -1.541   8.828  -9.136  1.00  0.00    -0.000 C 
BRANCH  16  17
ATOM     17  C   UNL     1      -1.252   7.944  -7.904  1.00  0.00    -0.000 C 
BRANCH  17  18
ATOM     18  C   UNL     1      -1.821   6.518  -8.019  1.00  0.00    -0.000 C 
BRANCH  18  19
ATOM     19  C   UNL     1      -3.357   6.439  -8.031  1.00  0.00    -0.003 C 
ATOM     20  C   UNL     1      -3.901   5.680  -9.241  1.00  0.00     0.004 C 
ENDBRANCH  18  19
ENDBRANCH  17  18
ENDBRANCH  16  17
ENDBRANCH  15  16
ENDBRANCH  14  15
ENDBRANCH  13  14
ENDBRANCH  12  13
ENDBRANCH   1  12
TORSDOF 16
ENDMDL
MODEL 4
REMARK VINA RESULT:    -2.120      7.935     10.147
REMARK INTER + INTRA:          -6.813
REMARK INTER:                  -3.896
REMARK INTRA:                  -2.918
REMARK UNBOUND:                -2.710
REMARK SMILES CCCCCCCCCCCCCCCCCC(=O)[O-]
REMARK SMILES IDX 10 1 11 2 12 3 13 4 14 5 15 6 16 7 17 8 18 9 19 10 20 11
REMARK SMILES IDX 9 12 8 13 7 14 6 15 5 16 4 17 3 18 2 19 1 20
REMARK H PARENT
REMARK Flexibility Score: inf
ROOT
ATOM      1  C   UNL     1      -0.836   9.931 -12.807  1.00  0.00     0.000 C 
ENDROOT
BRANCH   1   2
ATOM      2  C   UNL     1       0.075  10.171 -11.588  1.00  0.00     0.000 C 
BRANCH   2   3
ATOM      3  C   UNL     1       0.372   8.920 -10.734  1.00  0.00     0.000 C 
BRANCH   3   4
ATOM      4  C   UNL     1      -0.716   8.559  -9.707  1.00  0.00     0.000 C 
BRANCH   4   5
ATOM      5  C   UNL     1      -0.921   9.655  -8.647  1.00  0.00     0.000 C 
BRANCH   5   6
ATOM      6  C   UNL     1      -2.343  10.245  -8.664  1.00  0.00     0.000 C 
BRANCH   6   7
ATOM      7  C   UNL     1      -3.364   9.446  -9.494  1.00  0.00     0.006 C 
BRANCH   7   8
ATOM      8  C   UNL     1      -4.560   8.958  -8.664  1.00  0.00     0.053 C 
BRANCH   8   9
ATOM      9  C   UNL     1      -4.561   7.465  -8.578  1.00  0.00     0.041 C 
ATOM     10  O   UNL     1      -3.502   6.845  -8.297  1.00  0.00    -0.550 OA
ATOM     11  O   UNL     1      -5.744   6.760  -8.762  1.00  0.00    -0.550 OA
ENDBRANCH   8   9
ENDBRANCH   7   8
ENDBRANCH   6   7
ENDBRANCH   5   6
ENDBRANCH   4   5
ENDBRANCH   3   4
ENDBRANCH   2   3
ENDBRANCH   1   2
BRANCH   1  12
ATOM     12  C   UNL     1      -2.203  10.638 -12.742  1.00  0.00     0.000 C 
BRANCH  12  13
ATOM     13  C   UNL     1      -2.101  12.178 -12.689  1.00  0.00    -0.000 C 
BRANCH  13  14
ATOM     14  C   UNL     1      -2.745  12.766 -11.422  1.00  0.00    -0.000 C 
BRANCH  14  15
ATOM     15  C   UNL     1      -1.708  13.307 -10.426  1.00  0.00    -0.000 C 
BRANCH  15  16
ATOM     16  C   UNL     1      -0.452  13.867 -11.118  1.00  0.00    -0.000 C 
BRANCH  16  17
ATOM     17  C   UNL     1       0.738  14.005 -10.144  1.00  0.00    -0.000 C 
BRANCH  17  18
ATOM     18  C   UNL     1       0.842  12.851  -9.129  1.00  0.00    -0.000 C 
BRANCH  18  19
ATOM     19  C   UNL     1       1.015  13.297  -7.668  1.00  0.00    -0.003 C 
ATOM     20  C   UNL     1      -0.240  13.067  -6.825  1.00  0.00     0.004 C 
ENDBRANCH  18  19
ENDBRANCH  17  18
ENDBRANCH  16  17
ENDBRANCH  15  16
ENDBRANCH  14  15
ENDBRANCH  13  14
ENDBRANCH  12  13
ENDBRANCH   1  12
TORSDOF 16
ENDMDL
MODEL 5
REMARK VINA RESULT:    -2.109      8.785     10.675
REMARK INTER + INTRA:          -6.790
REMARK INTER:                  -4.061
REMARK INTRA:                  -2.729
REMARK UNBOUND:                -2.710
REMARK SMILES CCCCCCCCCCCCCCCCCC(=O)[O-]
REMARK SMILES IDX 10 1 11 2 12 3 13 4 14 5 15 6 16 7 17 8 18 9 19 10 20 11
REMARK SMILES IDX 9 12 8 13 7 14 6 15 5 16 4 17 3 18 2 19 1 20
REMARK H PARENT
REMARK Flexibility Score: inf
ROOT
ATOM      1  C   UNL     1      -2.769   9.729 -13.132  1.00  0.00     0.000 C 
ENDROOT
BRANCH   1   2
ATOM      2  C   UNL     1      -3.969  10.118 -12.249  1.00  0.00     0.000 C 
BRANCH   2   3
ATOM      3  C   UNL     1      -4.485   9.002 -11.316  1.00  0.00     0.000 C 
BRANCH   3   4
ATOM      4  C   UNL     1      -4.777   9.443  -9.871  1.00  0.00     0.000 C 
BRANCH   4   5
ATOM      5  C   UNL     1      -3.763   8.882  -8.860  1.00  0.00     0.000 C 
BRANCH   5   6
ATOM      6  C   UNL     1      -3.036   7.626  -9.376  1.00  0.00     0.000 C 
BRANCH   6   7
ATOM      7  C   UNL     1      -2.663   6.602  -8.290  1.00  0.00     0.006 C 
BRANCH   7   8
ATOM      8  C   UNL     1      -1.175   6.229  -8.305  1.00  0.00     0.053 C 
BRANCH   8   9
ATOM      9  C   UNL     1      -0.704   5.908  -6.922  1.00  0.00     0.041 C 
ATOM     10  O   UNL     1      -0.604   6.819  -6.059  1.00  0.00    -0.550 OA
ATOM     11  O   UNL     1      -0.421   4.593  -6.572  1.00  0.00    -0.550 OA
ENDBRANCH   8   9
ENDBRANCH   7   8
ENDBRANCH   6   7
ENDBRANCH   5   6
ENDBRANCH   4   5
ENDBRANCH   3   4
ENDBRANCH   2   3
ENDBRANCH   1   2
BRANCH   1  12
ATOM     12  C   UNL     1      -1.640   8.983 -12.396  1.00  0.00     0.000 C 
BRANCH  12  13
ATOM     13  C   UNL     1      -0.478   9.898 -11.953  1.00  0.00    -0.000 C 
BRANCH  13  14
ATOM     14  C   UNL     1      -0.336   9.966 -10.423  1.00  0.00    -0.000 C 
BRANCH  14  15
ATOM     15  C   UNL     1      -0.436  11.399  -9.881  1.00  0.00    -0.000 C 
BRANCH  15  16
ATOM     16  C   UNL     1      -1.882  11.921  -9.836  1.00  0.00    -0.000 C 
BRANCH  16  17
ATOM     17  C   UNL     1      -2.027  13.302 -10.511  1.00  0.00    -0.000 C 
BRANCH  17  18
ATOM     18  C   UNL     1      -1.725  13.286 -12.021  1.00  0.00    -0.000 C 
BRANCH  18  19
ATOM     19  C   UNL     1      -2.911  13.682 -12.915  1.00  0.00    -0.003 C 
ATOM     20  C   UNL     1      -4.231  13.761 -12.148  1.00  0.00     0.004 C 
ENDBRANCH  18  19
ENDBRANCH  17  18
ENDBRANCH  16  17
ENDBRANCH  15  16
ENDBRANCH  14  15
ENDBRANCH  13  14
ENDBRANCH  12  13
ENDBRANCH   1  12
TORSDOF 16
ENDMDL
MODEL 6
REMARK VINA RESULT:    -2.106      3.996      5.709
REMARK INTER + INTRA:          -6.785
REMARK INTER:                  -4.252
REMARK INTRA:                  -2.533
REMARK UNBOUND:                -2.710
REMARK SMILES CCCCCCCCCCCCCCCCCC(=O)[O-]
REMARK SMILES IDX 10 1 11 2 12 3 13 4 14 5 15 6 16 7 17 8 18 9 19 10 20 11
REMARK SMILES IDX 9 12 8 13 7 14 6 15 5 16 4 17 3 18 2 19 1 20
REMARK H PARENT
REMARK Flexibility Score: inf
ROOT
ATOM      1  C   UNL     1       3.020  15.588  -2.491  1.00  0.00     0.000 C 
ENDROOT
BRANCH   1   2
ATOM      2  C   UNL     1       1.764  16.479  -2.463  1.00  0.00     0.000 C 
BRANCH   2   3
ATOM      3  C   UNL     1       0.607  16.008  -3.370  1.00  0.00     0.000 C 
BRANCH   3   4
ATOM      4  C   UNL     1       1.041  15.362  -4.698  1.00  0.00     0.000 C 
BRANCH   4   5
ATOM      5  C   UNL     1       0.423  13.969  -4.913  1.00  0.00     0.000 C 
BRANCH   5   6
ATOM      6  C   UNL     1       1.407  12.971  -5.549  1.00  0.00     0.000 C 
BRANCH   6   7
ATOM      7  C   UNL     1       1.196  12.726  -7.054  1.00  0.00     0.006 C 
BRANCH   7   8
ATOM      8  C   UNL     1      -0.263  12.910  -7.493  1.00  0.00     0.053 C 
BRANCH   8   9
ATOM      9  C   UNL     1      -0.330  13.282  -8.940  1.00  0.00     0.041 C 
ATOM     10  O   UNL     1      -1.438  13.306  -9.538  1.00  0.00    -0.550 OA
ATOM     11  O   UNL     1       0.826  13.649  -9.616  1.00  0.00    -0.550 OA
ENDBRANCH   8   9
ENDBRANCH   7   8
ENDBRANCH   6   7
ENDBRANCH   5   6
ENDBRANCH   4   5
ENDBRANCH   3   4
ENDBRANCH   2   3
ENDBRANCH   1   2
BRANCH   1  12
ATOM     12  C   UNL     1       3.479  15.074  -1.114  1.00  0.00     0.000 C 
BRANCH  12  13
ATOM     13  C   UNL     1       3.405  13.538  -0.970  1.00  0.00    -0.000 C 
BRANCH  13  14
ATOM     14  C   UNL     1       2.686  12.872  -2.155  1.00  0.00    -0.000 C 
BRANCH  14  15
ATOM     15  C   UNL     1       1.389  12.161  -1.738  1.00  0.00    -0.000 C 
BRANCH  15  16
ATOM     16  C   UNL     1       0.846  12.655  -0.386  1.00  0.00    -0.000 C 
BRANCH  16  17
ATOM     17  C   UNL     1      -0.220  13.760  -0.554  1.00  0.00    -0.000 C 
BRANCH  17  18
ATOM     18  C   UNL     1      -1.296  13.425  -1.603  1.00  0.00    -0.000 C 
BRANCH  18  19
ATOM     19  C   UNL     1      -2.628  14.171  -1.415  1.00  0.00    -0.003 C 
ATOM     20  C   UNL     1      -2.446  15.684  -1.290  1.00  0.00     0.004 C 
ENDBRANCH  18  19
ENDBRANCH  17  18
ENDBRANCH  16  17
ENDBRANCH  15  16
ENDBRANCH  14  15
ENDBRANCH  13  14
ENDBRANCH  12  13
ENDBRANCH   1  12
TORSDOF 16
ENDMDL
MODEL 7
REMARK VINA RESULT:    -2.092      7.551      9.528
REMARK INTER + INTRA:          -6.758
REMARK INTER:                  -3.789
REMARK INTRA:                  -2.969
REMARK UNBOUND:                -2.710
REMARK SMILES CCCCCCCCCCCCCCCCCC(=O)[O-]
REMARK SMILES IDX 10 1 11 2 12 3 13 4 14 5 15 6 16 7 17 8 18 9 19 10 20 11
REMARK SMILES IDX 9 12 8 13 7 14 6 15 5 16 4 17 3 18 2 19 1 20
REMARK H PARENT
REMARK Flexibility Score: inf
ROOT
ATOM      1  C   UNL     1       1.390  12.803 -12.339  1.00  0.00     0.000 C 
ENDROOT
BRANCH   1   2
ATOM      2  C   UNL     1       0.805  11.444 -12.768  1.00  0.00     0.000 C 
BRANCH   2   3
ATOM      3  C   UNL     1       0.870  10.334 -11.697  1.00  0.00     0.000 C 
BRANCH   3   4
ATOM      4  C   UNL     1      -0.090   9.153 -11.923  1.00  0.00     0.000 C 
BRANCH   4   5
ATOM      5  C   UNL     1      -0.576   8.520 -10.607  1.00  0.00     0.000 C 
BRANCH   5   6
ATOM      6  C   UNL     1       0.564   8.290  -9.598  1.00  0.00     0.000 C 
BRANCH   6   7
ATOM      7  C   UNL     1       0.103   7.965  -8.166  1.00  0.00     0.006 C 
BRANCH   7   8
ATOM      8  C   UNL     1       1.247   7.476  -7.266  1.00  0.00     0.053 C 
BRANCH   8   9
ATOM      9  C   UNL     1       0.710   6.638  -6.149  1.00  0.00     0.041 C 
ATOM     10  O   UNL     1      -0.348   5.975  -6.306  1.00  0.00    -0.550 OA
ATOM     11  O   UNL     1       1.405   6.552  -4.950  1.00  0.00    -0.550 OA
ENDBRANCH   8   9
ENDBRANCH   7   8
ENDBRANCH   6   7
ENDBRANCH   5   6
ENDBRANCH   4   5
ENDBRANCH   3   4
ENDBRANCH   2   3
ENDBRANCH   1   2
BRANCH   1  12
ATOM     12  C   UNL     1       0.345  13.847 -11.903  1.00  0.00     0.000 C 
BRANCH  12  13
ATOM     13  C   UNL     1      -0.890  13.911 -12.828  1.00  0.00    -0.000 C 
BRANCH  13  14
ATOM     14  C   UNL     1      -2.192  13.550 -12.093  1.00  0.00    -0.000 C 
BRANCH  14  15
ATOM     15  C   UNL     1      -1.981  13.324 -10.588  1.00  0.00    -0.000 C 
BRANCH  15  16
ATOM     16  C   UNL     1      -2.175  11.855 -10.173  1.00  0.00    -0.000 C 
BRANCH  16  17
ATOM     17  C   UNL     1      -1.477  11.530  -8.835  1.00  0.00    -0.000 C 
BRANCH  17  18
ATOM     18  C   UNL     1      -0.225  12.384  -8.568  1.00  0.00    -0.000 C 
BRANCH  18  19
ATOM     19  C   UNL     1       0.980  11.602  -8.018  1.00  0.00    -0.003 C 
ATOM     20  C   UNL     1       2.286  11.946  -8.733  1.00  0.00     0.004 C 
ENDBRANCH  18  19
ENDBRANCH  17  18
ENDBRANCH  16  17
ENDBRANCH  15  16
ENDBRANCH  14  15
ENDBRANCH  13  14
ENDBRANCH  12  13
ENDBRANCH   1  12
TORSDOF 16
ENDMDL
MODEL 8
REMARK VINA RESULT:    -2.081      8.044     10.011
REMARK INTER + INTRA:          -6.737
REMARK INTER:                  -4.139
REMARK INTRA:                  -2.598
REMARK UNBOUND:                -2.710
REMARK SMILES CCCCCCCCCCCCCCCCCC(=O)[O-]
REMARK SMILES IDX 10 1 11 2 12 3 13 4 14 5 15 6 16 7 17 8 18 9 19 10 20 11
REMARK SMILES IDX 9 12 8 13 7 14 6 15 5 16 4 17 3 18 2 19 1 20
REMARK H PARENT
REMARK Flexibility Score: inf
ROOT
ATOM      1  C   UNL     1      -3.201   9.532  -8.897  1.00  0.00     0.000 C 
ENDROOT
BRANCH   1   2
ATOM      2  C   UNL     1      -4.606   8.913  -8.765  1.00  0.00     0.000 C 
BRANCH   2   3
ATOM      3  C   UNL     1      -4.682   7.396  -9.039  1.00  0.00     0.000 C 
BRANCH   3   4
ATOM      4  C   UNL     1      -4.329   6.499  -7.840  1.00  0.00     0.000 C 
BRANCH   4   5
ATOM      5  C   UNL     1      -3.231   5.471  -8.166  1.00  0.00     0.000 C 
BRANCH   5   6
ATOM      6  C   UNL     1      -1.851   6.119  -8.380  1.00  0.00     0.000 C 
BRANCH   6   7
ATOM      7  C   UNL     1      -1.246   6.780  -7.129  1.00  0.00     0.006 C 
BRANCH   7   8
ATOM      8  C   UNL     1      -0.195   5.901  -6.436  1.00  0.00     0.053 C 
BRANCH   8   9
ATOM      9  C   UNL     1       1.110   5.978  -7.162  1.00  0.00     0.041 C 
ATOM     10  O   UNL     1       1.794   4.938  -7.349  1.00  0.00    -0.550 OA
ATOM     11  O   UNL     1       1.549   7.192  -7.674  1.00  0.00    -0.550 OA
ENDBRANCH   8   9
ENDBRANCH   7   8
ENDBRANCH   6   7
ENDBRANCH   5   6
ENDBRANCH   4   5
ENDBRANCH   3   4
ENDBRANCH   2   3
ENDBRANCH   1   2
BRANCH   1  12
ATOM     12  C   UNL     1      -2.538   9.342 -10.274  1.00  0.00     0.000 C 
BRANCH  12  13
ATOM     13  C   UNL     1      -0.995   9.307 -10.219  1.00  0.00    -0.000 C 
BRANCH  13  14
ATOM     14  C   UNL     1      -0.438   9.964  -8.945  1.00  0.00    -0.000 C 
BRANCH  14  15
ATOM     15  C   UNL     1       0.186  11.342  -9.214  1.00  0.00    -0.000 C 
BRANCH  15  16
ATOM     16  C   UNL     1      -0.739  12.504  -8.814  1.00  0.00    -0.000 C 
BRANCH  16  17
ATOM     17  C   UNL     1      -1.073  13.423 -10.009  1.00  0.00    -0.000 C 
BRANCH  17  18
ATOM     18  C   UNL     1      -2.358  13.020 -10.756  1.00  0.00    -0.000 C 
BRANCH  18  19
ATOM     19  C   UNL     1      -2.210  12.936 -12.285  1.00  0.00    -0.003 C 
ATOM     20  C   UNL     1      -1.037  12.057 -12.719  1.00  0.00     0.004 C 
ENDBRANCH  18  19
ENDBRANCH  17  18
ENDBRANCH  16  17
ENDBRANCH  15  16
ENDBRANCH  14  15
ENDBRANCH  13  14
ENDBRANCH  12  13
ENDBRANCH   1  12
TORSDOF 16
ENDMDL
MODEL 9
REMARK VINA RESULT:    -2.047      2.864      4.884
REMARK INTER + INTRA:          -6.672
REMARK INTER:                  -3.493
REMARK INTRA:                  -3.179
REMARK UNBOUND:                -2.710
REMARK SMILES CCCCCCCCCCCCCCCCCC(=O)[O-]
REMARK SMILES IDX 10 1 11 2 12 3 13 4 14 5 15 6 16 7 17 8 18 9 19 10 20 11
REMARK SMILES IDX 9 12 8 13 7 14 6 15 5 16 4 17 3 18 2 19 1 20
REMARK H PARENT
REMARK Flexibility Score: inf
ROOT
ATOM      1  C   UNL     1      -3.294  16.067  -0.267  1.00  0.00     0.000 C 
ENDROOT
BRANCH   1   2
ATOM      2  C   UNL     1      -3.630  14.564  -0.225  1.00  0.00     0.000 C 
BRANCH   2   3
ATOM      3  C   UNL     1      -2.557  13.670   0.433  1.00  0.00     0.000 C 
BRANCH   3   4
ATOM      4  C   UNL     1      -1.909  12.634  -0.502  1.00  0.00     0.000 C 
BRANCH   4   5
ATOM      5  C   UNL     1      -0.832  13.245  -1.414  1.00  0.00     0.000 C 
BRANCH   5   6
ATOM      6  C   UNL     1      -1.278  13.345  -2.884  1.00  0.00     0.000 C 
BRANCH   6   7
ATOM      7  C   UNL     1      -0.131  13.474  -3.902  1.00  0.00     0.006 C 
BRANCH   7   8
ATOM      8  C   UNL     1       1.253  13.262  -3.274  1.00  0.00     0.053 C 
BRANCH   8   9
ATOM      9  C   UNL     1       2.082  12.357  -4.129  1.00  0.00     0.041 C 
ATOM     10  O   UNL     1       2.147  12.544  -5.373  1.00  0.00    -0.550 OA
ATOM     11  O   UNL     1       2.821  11.336  -3.547  1.00  0.00    -0.550 OA
ENDBRANCH   8   9
ENDBRANCH   7   8
ENDBRANCH   6   7
ENDBRANCH   5   6
ENDBRANCH   4   5
ENDBRANCH   3   4
ENDBRANCH   2   3
ENDBRANCH   1   2
BRANCH   1  12
ATOM     12  C   UNL     1      -2.719  16.562  -1.607  1.00  0.00     0.000 C 
BRANCH  12  13
ATOM     13  C   UNL     1      -2.245  18.032  -1.573  1.00  0.00    -0.000 C 
BRANCH  13  14
ATOM     14  C   UNL     1      -0.739  18.170  -1.855  1.00  0.00    -0.000 C 
BRANCH  14  15
ATOM     15  C   UNL     1      -0.096  16.849  -2.302  1.00  0.00    -0.000 C 
BRANCH  15  16
ATOM     16  C   UNL     1       1.235  16.561  -1.588  1.00  0.00    -0.000 C 
BRANCH  16  17
ATOM     17  C   UNL     1       1.168  16.878  -0.078  1.00  0.00    -0.000 C 
BRANCH  17  18
ATOM     18  C   UNL     1       0.526  15.757   0.760  1.00  0.00    -0.000 C 
BRANCH  18  19
ATOM     19  C   UNL     1      -0.344  16.249   1.929  1.00  0.00    -0.003 C 
ATOM     20  C   UNL     1      -0.654  17.745   1.848  1.00  0.00     0.004 C 
ENDBRANCH  18  19
ENDBRANCH  17  18
ENDBRANCH  16  17
ENDBRANCH  15  16
ENDBRANCH  14  15
ENDBRANCH  13  14
ENDBRANCH  12  13
ENDBRANCH   1  12
TORSDOF 16
ENDMDL
