MODEL 1
REMARK VINA RESULT:    -3.796      0.000      0.000
REMARK INTER + INTRA:          -5.465
REMARK INTER:                  -5.128
REMARK INTRA:                  -0.337
REMARK UNBOUND:                -0.337
REMARK SMILES CCCCCCC=CC(=O)[O-]
REMARK SMILES IDX 5 1 6 2 7 3 8 4 9 5 10 6 11 7 4 8 3 9 2 10 1 11
REMARK H PARENT
REMARK Flexibility Score: inf
ROOT
ATOM      1  C   UNL     1      57.177  28.102  50.215  1.00  0.00     0.004 C 
ENDROOT
BRANCH   1   2
ATOM      2  C   UNL     1      58.257  29.172  50.440  1.00  0.00     0.027 C 
BRANCH   2   3
ATOM      3  C   UNL     1      59.148  29.349  49.239  1.00  0.00    -0.025 C 
ATOM      4  C   UNL     1      60.198  28.578  48.912  1.00  0.00     0.020 C 
BRANCH   4   5
ATOM      5  C   UNL     1      60.664  27.375  49.632  1.00  0.00     0.064 C 
ATOM      6  O   UNL     1      60.244  26.246  49.267  1.00  0.00    -0.545 OA
ATOM      7  O   UNL     1      61.528  27.447  50.717  1.00  0.00    -0.545 OA
ENDBRANCH   4   5
ENDBRANCH   2   3
ENDBRANCH   1   2
BRANCH   1   8
ATOM      8  C   UNL     1      55.758  28.667  50.404  1.00  0.00     0.000 C 
BRANCH   8   9
ATOM      9  C   UNL     1      54.675  27.766  49.793  1.00  0.00    -0.000 C 
BRANCH   9  10
ATOM     10  C   UNL     1      55.171  26.335  49.535  1.00  0.00    -0.003 C 
ATOM     11  C   UNL     1      54.067  25.471  48.933  1.00  0.00     0.004 C 
ENDBRANCH   9  10
ENDBRANCH   8   9
ENDBRANCH   1   8
TORSDOF 6
ENDMDL
MODEL 2
REMARK VINA RESULT:    -3.787     11.784     13.614
REMARK INTER + INTRA:          -5.453
REMARK INTER:                  -5.100
REMARK INTRA:                  -0.353
REMARK UNBOUND:                -0.337
REMARK SMILES CCCCCCC=CC(=O)[O-]
REMARK SMILES IDX 5 1 6 2 7 3 8 4 9 5 10 6 11 7 4 8 3 9 2 10 1 11
REMARK H PARENT
REMARK Flexibility Score: inf
ROOT
ATOM      1  C   UNL     1      62.201  32.845  60.302  1.00  0.00     0.004 C 
ENDROOT
BRANCH   1   2
ATOM      2  C   UNL     1      61.131  31.774  60.038  1.00  0.00     0.027 C 
BRANCH   2   3
ATOM      3  C   UNL     1      60.845  30.936  61.256  1.00  0.00    -0.025 C 
ATOM      4  C   UNL     1      61.543  29.862  61.658  1.00  0.00     0.020 C 
BRANCH   4   5
ATOM      5  C   UNL     1      62.758  29.312  61.020  1.00  0.00     0.064 C 
ATOM      6  O   UNL     1      63.873  29.829  61.289  1.00  0.00    -0.545 OA
ATOM      7  O   UNL     1      62.709  28.262  60.112  1.00  0.00    -0.545 OA
ENDBRANCH   4   5
ENDBRANCH   2   3
ENDBRANCH   1   2
BRANCH   1   8
ATOM      8  C   UNL     1      61.603  34.262  60.332  1.00  0.00     0.000 C 
BRANCH   8   9
ATOM      9  C   UNL     1      62.651  35.341  60.642  1.00  0.00    -0.000 C 
BRANCH   9  10
ATOM     10  C   UNL     1      64.039  34.752  60.935  1.00  0.00    -0.003 C 
ATOM     11  C   UNL     1      64.935  35.774  61.629  1.00  0.00     0.004 C 
ENDBRANCH   9  10
ENDBRANCH   8   9
ENDBRANCH   1   8
TORSDOF 6
ENDMDL
MODEL 3
REMARK VINA RESULT:    -3.467     12.052     13.493
REMARK INTER + INTRA:          -5.020
REMARK INTER:                  -4.571
REMARK INTRA:                  -0.449
REMARK UNBOUND:                -0.337
REMARK SMILES CCCCCCC=CC(=O)[O-]
REMARK SMILES IDX 5 1 6 2 7 3 8 4 9 5 10 6 11 7 4 8 3 9 2 10 1 11
REMARK H PARENT
REMARK Flexibility Score: inf
ROOT
ATOM      1  C   UNL     1      61.461  32.660  59.206  1.00  0.00     0.004 C 
ENDROOT
BRANCH   1   2
ATOM      2  C   UNL     1      62.319  33.332  60.289  1.00  0.00     0.027 C 
BRANCH   2   3
ATOM      3  C   UNL     1      61.940  34.773  60.510  1.00  0.00    -0.025 C 
ATOM      4  C   UNL     1      62.789  35.787  60.744  1.00  0.00     0.020 C 
BRANCH   4   5
ATOM      5  C   UNL     1      64.264  35.708  60.785  1.00  0.00     0.064 C 
ATOM      6  O   UNL     1      64.821  35.275  61.827  1.00  0.00    -0.545 OA
ATOM      7  O   UNL     1      65.059  36.124  59.725  1.00  0.00    -0.545 OA
ENDBRANCH   4   5
ENDBRANCH   2   3
ENDBRANCH   1   2
BRANCH   1   8
ATOM      8  C   UNL     1      60.768  31.389  59.726  1.00  0.00     0.000 C 
BRANCH   8   9
ATOM      9  C   UNL     1      61.029  31.141  61.220  1.00  0.00    -0.000 C 
BRANCH   9  10
ATOM     10  C   UNL     1      61.717  29.794  61.486  1.00  0.00    -0.003 C 
ATOM     11  C   UNL     1      63.215  29.878  61.207  1.00  0.00     0.004 C 
ENDBRANCH   9  10
ENDBRANCH   8   9
ENDBRANCH   1   8
TORSDOF 6
ENDMDL
MODEL 4
REMARK VINA RESULT:    -3.447     11.190     12.794
REMARK INTER + INTRA:          -4.993
REMARK INTER:                  -4.551
REMARK INTRA:                  -0.442
REMARK UNBOUND:                -0.337
REMARK SMILES CCCCCCC=CC(=O)[O-]
REMARK SMILES IDX 5 1 6 2 7 3 8 4 9 5 10 6 11 7 4 8 3 9 2 10 1 11
REMARK H PARENT
REMARK Flexibility Score: inf
ROOT
ATOM      1  C   UNL     1      61.144  31.828  60.327  1.00  0.00     0.004 C 
ENDROOT
BRANCH   1   2
ATOM      2  C   UNL     1      60.830  30.782  61.408  1.00  0.00     0.027 C 
BRANCH   2   3
ATOM      3  C   UNL     1      61.955  29.799  61.601  1.00  0.00    -0.025 C 
ATOM      4  C   UNL     1      61.986  28.535  61.149  1.00  0.00     0.020 C 
BRANCH   4   5
ATOM      5  C   UNL     1      60.951  27.865  60.334  1.00  0.00     0.064 C 
ATOM      6  O   UNL     1      60.165  27.057  60.893  1.00  0.00    -0.545 OA
ATOM      7  O   UNL     1      60.833  28.075  58.966  1.00  0.00    -0.545 OA
ENDBRANCH   4   5
ENDBRANCH   2   3
ENDBRANCH   1   2
BRANCH   1   8
ATOM      8  C   UNL     1      62.638  32.196  60.300  1.00  0.00     0.000 C 
BRANCH   8   9
ATOM      9  C   UNL     1      62.879  33.708  60.426  1.00  0.00    -0.000 C 
BRANCH   9  10
ATOM     10  C   UNL     1      61.586  34.526  60.293  1.00  0.00    -0.003 C 
ATOM     11  C   UNL     1      61.817  35.986  60.672  1.00  0.00     0.004 C 
ENDBRANCH   9  10
ENDBRANCH   8   9
ENDBRANCH   1   8
TORSDOF 6
ENDMDL
MODEL 5
REMARK VINA RESULT:    -3.447     11.757     12.988
REMARK INTER + INTRA:          -4.993
REMARK INTER:                  -4.577
REMARK INTRA:                  -0.415
REMARK UNBOUND:                -0.337
REMARK SMILES CCCCCCC=CC(=O)[O-]
REMARK SMILES IDX 5 1 6 2 7 3 8 4 9 5 10 6 11 7 4 8 3 9 2 10 1 11
REMARK H PARENT
REMARK Flexibility Score: inf
ROOT
ATOM      1  C   UNL     1      60.959  31.535  60.455  1.00  0.00     0.004 C 
ENDROOT
BRANCH   1   2
ATOM      2  C   UNL     1      61.359  30.422  61.437  1.00  0.00     0.027 C 
BRANCH   2   3
ATOM      3  C   UNL     1      62.789  29.986  61.259  1.00  0.00    -0.025 C 
ATOM      4  C   UNL     1      63.206  28.748  60.946  1.00  0.00     0.020 C 
BRANCH   4   5
ATOM      5  C   UNL     1      62.350  27.576  60.666  1.00  0.00     0.064 C 
ATOM      6  O   UNL     1      62.263  26.667  61.531  1.00  0.00    -0.545 OA
ATOM      7  O   UNL     1      61.662  27.429  59.469  1.00  0.00    -0.545 OA
ENDBRANCH   4   5
ENDBRANCH   2   3
ENDBRANCH   1   2
BRANCH   1   8
ATOM      8  C   UNL     1      62.099  32.544  60.234  1.00  0.00     0.000 C 
BRANCH   8   9
ATOM      9  C   UNL     1      61.614  34.002  60.267  1.00  0.00    -0.000 C 
BRANCH   9  10
ATOM     10  C   UNL     1      62.725  34.987  60.660  1.00  0.00    -0.003 C 
ATOM     11  C   UNL     1      64.044  34.259  60.905  1.00  0.00     0.004 C 
ENDBRANCH   9  10
ENDBRANCH   8   9
ENDBRANCH   1   8
TORSDOF 6
ENDMDL
MODEL 6
REMARK VINA RESULT:    -3.402      3.181      5.533
REMARK INTER + INTRA:          -4.932
REMARK INTER:                  -4.571
REMARK INTRA:                  -0.361
REMARK UNBOUND:                -0.337
REMARK SMILES CCCCCCC=CC(=O)[O-]
REMARK SMILES IDX 5 1 6 2 7 3 8 4 9 5 10 6 11 7 4 8 3 9 2 10 1 11
REMARK H PARENT
REMARK Flexibility Score: inf
ROOT
ATOM      1  C   UNL     1      56.749  28.973  50.611  1.00  0.00     0.004 C 
ENDROOT
BRANCH   1   2
ATOM      2  C   UNL     1      56.005  27.733  50.092  1.00  0.00     0.027 C 
BRANCH   2   3
ATOM      3  C   UNL     1      54.576  28.033  49.726  1.00  0.00    -0.025 C 
ATOM      4  C   UNL     1      53.569  27.146  49.676  1.00  0.00     0.020 C 
BRANCH   4   5
ATOM      5  C   UNL     1      53.644  25.709  50.015  1.00  0.00     0.064 C 
ATOM      6  O   UNL     1      54.105  24.907  49.162  1.00  0.00    -0.545 OA
ATOM      7  O   UNL     1      53.196  25.209  51.230  1.00  0.00    -0.545 OA
ENDBRANCH   4   5
ENDBRANCH   2   3
ENDBRANCH   1   2
BRANCH   1   8
ATOM      8  C   UNL     1      58.270  28.747  50.676  1.00  0.00     0.000 C 
BRANCH   8   9
ATOM      9  C   UNL     1      59.002  29.283  49.436  1.00  0.00    -0.000 C 
BRANCH   9  10
ATOM     10  C   UNL     1      60.146  28.364  48.980  1.00  0.00    -0.003 C 
ATOM     11  C   UNL     1      59.864  26.911  49.349  1.00  0.00     0.004 C 
ENDBRANCH   9  10
ENDBRANCH   8   9
ENDBRANCH   1   8
TORSDOF 6
ENDMDL
MODEL 7
REMARK VINA RESULT:    -3.359      1.545      2.366
REMARK INTER + INTRA:          -4.874
REMARK INTER:                  -4.410
REMARK INTRA:                  -0.465
REMARK UNBOUND:                -0.337
REMARK SMILES CCCCCCC=CC(=O)[O-]
REMARK SMILES IDX 5 1 6 2 7 3 8 4 9 5 10 6 11 7 4 8 3 9 2 10 1 11
REMARK H PARENT
REMARK Flexibility Score: inf
ROOT
ATOM      1  C   UNL     1      58.940  29.692  50.763  1.00  0.00     0.004 C 
ENDROOT
BRANCH   1   2
ATOM      2  C   UNL     1      59.036  29.279  49.286  1.00  0.00     0.027 C 
BRANCH   2   3
ATOM      3  C   UNL     1      60.256  28.443  49.001  1.00  0.00    -0.025 C 
ATOM      4  C   UNL     1      60.467  27.185  49.420  1.00  0.00     0.020 C 
BRANCH   4   5
ATOM      5  C   UNL     1      59.533  26.348  50.201  1.00  0.00     0.064 C 
ATOM      6  O   UNL     1      59.812  26.080  51.399  1.00  0.00    -0.545 OA
ATOM      7  O   UNL     1      58.371  25.822  49.652  1.00  0.00    -0.545 OA
ENDBRANCH   4   5
ENDBRANCH   2   3
ENDBRANCH   1   2
BRANCH   1   8
ATOM      8  C   UNL     1      57.567  29.350  51.368  1.00  0.00     0.000 C 
BRANCH   8   9
ATOM      9  C   UNL     1      56.610  28.718  50.346  1.00  0.00    -0.000 C 
BRANCH   9  10
ATOM     10  C   UNL     1      55.186  29.289  50.435  1.00  0.00    -0.003 C 
ATOM     11  C   UNL     1      54.174  28.345  49.793  1.00  0.00     0.004 C 
ENDBRANCH   9  10
ENDBRANCH   8   9
ENDBRANCH   1   8
TORSDOF 6
ENDMDL
MODEL 8
REMARK VINA RESULT:    -3.355     11.148     12.944
REMARK INTER + INTRA:          -4.869
REMARK INTER:                  -4.228
REMARK INTRA:                  -0.642
REMARK UNBOUND:                -0.337
REMARK SMILES CCCCCCC=CC(=O)[O-]
REMARK SMILES IDX 5 1 6 2 7 3 8 4 9 5 10 6 11 7 4 8 3 9 2 10 1 11
REMARK H PARENT
REMARK Flexibility Score: inf
ROOT
ATOM      1  C   UNL     1      64.133  30.803  60.924  1.00  0.00     0.004 C 
ENDROOT
BRANCH   1   2
ATOM      2  C   UNL     1      63.053  29.710  60.905  1.00  0.00     0.027 C 
BRANCH   2   3
ATOM      3  C   UNL     1      61.799  30.130  61.626  1.00  0.00    -0.025 C 
ATOM      4  C   UNL     1      60.626  30.447  61.054  1.00  0.00     0.020 C 
BRANCH   4   5
ATOM      5  C   UNL     1      60.310  30.404  59.612  1.00  0.00     0.064 C 
ATOM      6  O   UNL     1      59.967  29.307  59.097  1.00  0.00    -0.545 OA
ATOM      7  O   UNL     1      60.405  31.524  58.797  1.00  0.00    -0.545 OA
ENDBRANCH   4   5
ENDBRANCH   2   3
ENDBRANCH   1   2
BRANCH   1   8
ATOM      8  C   UNL     1      63.818  31.941  59.938  1.00  0.00     0.000 C 
BRANCH   8   9
ATOM      9  C   UNL     1      63.673  33.304  60.632  1.00  0.00    -0.000 C 
BRANCH   9  10
ATOM     10  C   UNL     1      62.303  33.953  60.380  1.00  0.00    -0.003 C 
ATOM     11  C   UNL     1      62.317  35.430  60.765  1.00  0.00     0.004 C 
ENDBRANCH   9  10
ENDBRANCH   8   9
ENDBRANCH   1   8
TORSDOF 6
ENDMDL
MODEL 9
REMARK VINA RESULT:    -3.346     12.788     13.728
REMARK INTER + INTRA:          -4.857
REMARK INTER:                  -4.216
REMARK INTRA:                  -0.641
REMARK UNBOUND:                -0.337
REMARK SMILES CCCCCCC=CC(=O)[O-]
REMARK SMILES IDX 5 1 6 2 7 3 8 4 9 5 10 6 11 7 4 8 3 9 2 10 1 11
REMARK H PARENT
REMARK Flexibility Score: inf
ROOT
ATOM      1  C   UNL     1      64.083  32.565  60.497  1.00  0.00     0.004 C 
ENDROOT
BRANCH   1   2
ATOM      2  C   UNL     1      63.190  33.322  59.502  1.00  0.00     0.027 C 
BRANCH   2   3
ATOM      3  C   UNL     1      62.061  34.049  60.182  1.00  0.00    -0.025 C 
ATOM      4  C   UNL     1      62.109  35.295  60.680  1.00  0.00     0.020 C 
BRANCH   4   5
ATOM      5  C   UNL     1      63.258  36.223  60.622  1.00  0.00     0.064 C 
ATOM      6  O   UNL     1      63.320  37.056  59.680  1.00  0.00    -0.545 OA
ATOM      7  O   UNL     1      64.286  36.190  61.554  1.00  0.00    -0.545 OA
ENDBRANCH   4   5
ENDBRANCH   2   3
ENDBRANCH   1   2
BRANCH   1   8
ATOM      8  C   UNL     1      64.089  31.050  60.229  1.00  0.00     0.000 C 
BRANCH   8   9
ATOM      9  C   UNL     1      63.232  30.267  61.235  1.00  0.00    -0.000 C 
BRANCH   9  10
ATOM     10  C   UNL     1      61.810  29.998  60.718  1.00  0.00    -0.003 C 
ATOM     11  C   UNL     1      60.774  30.761  61.538  1.00  0.00     0.004 C 
ENDBRANCH   9  10
ENDBRANCH   8   9
ENDBRANCH   1   8
TORSDOF 6
ENDMDL
