MODEL 1
REMARK VINA RESULT:    -5.791      0.000      0.000
REMARK INTER + INTRA:         -18.013
REMARK INTER:                 -14.594
REMARK INTRA:                  -3.419
REMARK UNBOUND:                -3.419
REMARK SMILES CCCCCCCCCCCCCCCCCCCCCCCCCCCC(=O)[O-]
REMARK SMILES IDX 15 1 16 2 17 3 18 4 19 5 20 6 21 7 22 8 23 9 24 10 25 11
REMARK SMILES IDX 26 12 27 13 28 14 29 15 30 16 14 17 13 18 12 19 11 20 10 21
REMARK SMILES IDX 9 22 8 23 7 24 6 25 5 26 4 27 3 28 2 29 1 30
REMARK H PARENT
REMARK Flexibility Score: inf
ROOT
ATOM      1  C   UNL     1     -10.977 -15.619  26.908  1.00  0.00     0.000 C 
ENDROOT
BRANCH   1   2
ATOM      2  C   UNL     1     -12.403 -15.990  26.467  1.00  0.00     0.000 C 
BRANCH   2   3
ATOM      3  C   UNL     1     -13.411 -15.957  27.628  1.00  0.00     0.000 C 
BRANCH   3   4
ATOM      4  C   UNL     1     -12.731 -16.100  29.000  1.00  0.00     0.000 C 
BRANCH   4   5
ATOM      5  C   UNL     1     -13.411 -17.147  29.900  1.00  0.00     0.000 C 
BRANCH   5   6
ATOM      6  C   UNL     1     -12.747 -18.537  29.906  1.00  0.00     0.000 C 
BRANCH   6   7
ATOM      7  C   UNL     1     -11.438 -18.647  29.101  1.00  0.00     0.000 C 
BRANCH   7   8
ATOM      8  C   UNL     1     -10.194 -18.956  29.963  1.00  0.00     0.000 C 
BRANCH   8   9
ATOM      9  C   UNL     1     -10.515 -19.025  31.467  1.00  0.00     0.000 C 
BRANCH   9  10
ATOM     10  C   UNL     1      -9.907 -17.858  32.266  1.00  0.00     0.000 C 
BRANCH  10  11
ATOM     11  C   UNL     1     -10.825 -16.635  32.438  1.00  0.00     0.000 C 
BRANCH  11  12
ATOM     12  C   UNL     1     -10.316 -15.389  31.692  1.00  0.00     0.006 C 
BRANCH  12  13
ATOM     13  C   UNL     1      -8.957 -15.630  31.024  1.00  0.00     0.053 C 
BRANCH  13  14
ATOM     14  C   UNL     1      -7.887 -14.759  31.609  1.00  0.00     0.041 C 
ATOM     15  O   UNL     1      -6.686 -15.136  31.592  1.00  0.00    -0.550 OA
ATOM     16  O   UNL     1      -8.219 -13.544  32.195  1.00  0.00    -0.550 OA
ENDBRANCH  13  14
ENDBRANCH  12  13
ENDBRANCH  11  12
ENDBRANCH  10  11
ENDBRANCH   9  10
ENDBRANCH   8   9
ENDBRANCH   7   8
ENDBRANCH   6   7
ENDBRANCH   5   6
ENDBRANCH   4   5
ENDBRANCH   3   4
ENDBRANCH   2   3
ENDBRANCH   1   2
BRANCH   1  17
ATOM     17  C   UNL     1     -10.157 -14.982  25.774  1.00  0.00     0.000 C 
BRANCH  17  18
ATOM     18  C   UNL     1      -8.891 -14.274  26.279  1.00  0.00     0.000 C 
BRANCH  18  19
ATOM     19  C   UNL     1      -7.782 -15.289  26.580  1.00  0.00     0.000 C 
BRANCH  19  20
ATOM     20  C   UNL     1      -6.435 -14.585  26.802  1.00  0.00     0.000 C 
BRANCH  20  21
ATOM     21  C   UNL     1      -6.168 -14.258  28.283  1.00  0.00     0.000 C 
BRANCH  21  22
ATOM     22  C   UNL     1      -4.680 -14.208  28.682  1.00  0.00    -0.000 C 
BRANCH  22  23
ATOM     23  C   UNL     1      -4.206 -12.863  29.268  1.00  0.00    -0.000 C 
BRANCH  23  24
ATOM     24  C   UNL     1      -5.302 -12.038  29.972  1.00  0.00    -0.000 C 
BRANCH  24  25
ATOM     25  C   UNL     1      -5.146 -11.919  31.499  1.00  0.00    -0.000 C 
BRANCH  25  26
ATOM     26  C   UNL     1      -4.022 -10.974  31.967  1.00  0.00    -0.000 C 
BRANCH  26  27
ATOM     27  C   UNL     1      -2.998 -11.643  32.910  1.00  0.00    -0.000 C 
BRANCH  27  28
ATOM     28  C   UNL     1      -1.547 -11.469  32.424  1.00  0.00    -0.000 C 
BRANCH  28  29
ATOM     29  C   UNL     1      -1.137 -12.534  31.394  1.00  0.00    -0.003 C 
ATOM     30  C   UNL     1       0.345 -12.896  31.477  1.00  0.00     0.004 C 
ENDBRANCH  28  29
ENDBRANCH  27  28
ENDBRANCH  26  27
ENDBRANCH  25  26
ENDBRANCH  24  25
ENDBRANCH  23  24
ENDBRANCH  22  23
ENDBRANCH  21  22
ENDBRANCH  20  21
ENDBRANCH  19  20
ENDBRANCH  18  19
ENDBRANCH  17  18
ENDBRANCH   1  17
TORSDOF 26
ENDMDL
MODEL 2
REMARK VINA RESULT:    -5.616      2.821      8.570
REMARK INTER + INTRA:         -17.570
REMARK INTER:                 -13.769
REMARK INTRA:                  -3.801
REMARK UNBOUND:                -3.419
REMARK SMILES CCCCCCCCCCCCCCCCCCCCCCCCCCCC(=O)[O-]
REMARK SMILES IDX 15 1 16 2 17 3 18 4 19 5 20 6 21 7 22 8 23 9 24 10 25 11
REMARK SMILES IDX 26 12 27 13 28 14 29 15 30 16 14 17 13 18 12 19 11 20 10 21
REMARK SMILES IDX 9 22 8 23 7 24 6 25 5 26 4 27 3 28 2 29 1 30
REMARK H PARENT
REMARK Flexibility Score: inf
ROOT
ATOM      1  C   UNL     1      -6.951 -14.410  29.229  1.00  0.00     0.000 C 
ENDROOT
BRANCH   1   2
ATOM      2  C   UNL     1      -6.190 -14.806  30.508  1.00  0.00     0.000 C 
BRANCH   2   3
ATOM      3  C   UNL     1      -7.038 -14.636  31.779  1.00  0.00     0.000 C 
BRANCH   3   4
ATOM      4  C   UNL     1      -7.206 -13.161  32.180  1.00  0.00     0.000 C 
BRANCH   4   5
ATOM      5  C   UNL     1      -5.881 -12.378  32.150  1.00  0.00     0.000 C 
BRANCH   5   6
ATOM      6  C   UNL     1      -5.821 -11.229  31.125  1.00  0.00     0.000 C 
BRANCH   6   7
ATOM      7  C   UNL     1      -4.845 -11.440  29.951  1.00  0.00     0.000 C 
BRANCH   7   8
ATOM      8  C   UNL     1      -3.558 -12.202  30.334  1.00  0.00     0.000 C 
BRANCH   8   9
ATOM      9  C   UNL     1      -2.390 -11.918  29.373  1.00  0.00     0.000 C 
BRANCH   9  10
ATOM     10  C   UNL     1      -1.677 -13.197  28.896  1.00  0.00     0.000 C 
BRANCH  10  11
ATOM     11  C   UNL     1      -2.473 -14.499  29.092  1.00  0.00     0.000 C 
BRANCH  11  12
ATOM     12  C   UNL     1      -2.472 -15.399  27.843  1.00  0.00     0.006 C 
BRANCH  12  13
ATOM     13  C   UNL     1      -2.672 -14.596  26.551  1.00  0.00     0.053 C 
BRANCH  13  14
ATOM     14  C   UNL     1      -1.486 -14.699  25.643  1.00  0.00     0.041 C 
ATOM     15  O   UNL     1      -1.218 -15.788  25.073  1.00  0.00    -0.550 OA
ATOM     16  O   UNL     1      -0.660 -13.599  25.445  1.00  0.00    -0.550 OA
ENDBRANCH  13  14
ENDBRANCH  12  13
ENDBRANCH  11  12
ENDBRANCH  10  11
ENDBRANCH   9  10
ENDBRANCH   8   9
ENDBRANCH   7   8
ENDBRANCH   6   7
ENDBRANCH   5   6
ENDBRANCH   4   5
ENDBRANCH   3   4
ENDBRANCH   2   3
ENDBRANCH   1   2
BRANCH   1  17
ATOM     17  C   UNL     1      -6.049 -14.413  27.984  1.00  0.00     0.000 C 
BRANCH  17  18
ATOM     18  C   UNL     1      -6.841 -14.546  26.675  1.00  0.00     0.000 C 
BRANCH  18  19
ATOM     19  C   UNL     1      -8.202 -15.205  26.926  1.00  0.00     0.000 C 
BRANCH  19  20
ATOM     20  C   UNL     1      -9.241 -14.735  25.897  1.00  0.00     0.000 C 
BRANCH  20  21
ATOM     21  C   UNL     1     -10.671 -15.196  26.238  1.00  0.00     0.000 C 
BRANCH  21  22
ATOM     22  C   UNL     1     -10.810 -15.961  27.569  1.00  0.00    -0.000 C 
BRANCH  22  23
ATOM     23  C   UNL     1     -12.104 -16.785  27.718  1.00  0.00    -0.000 C 
BRANCH  23  24
ATOM     24  C   UNL     1     -13.037 -16.330  28.859  1.00  0.00    -0.000 C 
BRANCH  24  25
ATOM     25  C   UNL     1     -13.321 -17.398  29.930  1.00  0.00    -0.000 C 
BRANCH  25  26
ATOM     26  C   UNL     1     -12.126 -18.308  30.278  1.00  0.00    -0.000 C 
BRANCH  26  27
ATOM     27  C   UNL     1     -11.734 -18.277  31.772  1.00  0.00    -0.000 C 
BRANCH  27  28
ATOM     28  C   UNL     1     -10.314 -17.727  31.998  1.00  0.00    -0.000 C 
BRANCH  28  29
ATOM     29  C   UNL     1     -10.066 -16.406  31.251  1.00  0.00    -0.003 C 
ATOM     30  C   UNL     1     -10.766 -15.217  31.908  1.00  0.00     0.004 C 
ENDBRANCH  28  29
ENDBRANCH  27  28
ENDBRANCH  26  27
ENDBRANCH  25  26
ENDBRANCH  24  25
ENDBRANCH  23  24
ENDBRANCH  22  23
ENDBRANCH  21  22
ENDBRANCH  20  21
ENDBRANCH  19  20
ENDBRANCH  18  19
ENDBRANCH  17  18
ENDBRANCH   1  17
TORSDOF 26
ENDMDL
MODEL 3
REMARK VINA RESULT:    -5.540      2.086      5.027
REMARK INTER + INTRA:         -17.379
REMARK INTER:                 -13.733
REMARK INTRA:                  -3.646
REMARK UNBOUND:                -3.419
REMARK SMILES CCCCCCCCCCCCCCCCCCCCCCCCCCCC(=O)[O-]
REMARK SMILES IDX 15 1 16 2 17 3 18 4 19 5 20 6 21 7 22 8 23 9 24 10 25 11
REMARK SMILES IDX 26 12 27 13 28 14 29 15 30 16 14 17 13 18 12 19 11 20 10 21
REMARK SMILES IDX 9 22 8 23 7 24 6 25 5 26 4 27 3 28 2 29 1 30
REMARK H PARENT
REMARK Flexibility Score: inf
ROOT
ATOM      1  C   UNL     1      -5.866 -14.539  29.932  1.00  0.00     0.000 C 
ENDROOT
BRANCH   1   2
ATOM      2  C   UNL     1      -6.023 -13.751  28.619  1.00  0.00     0.000 C 
BRANCH   2   3
ATOM      3  C   UNL     1      -5.968 -14.653  27.375  1.00  0.00     0.000 C 
BRANCH   3   4
ATOM      4  C   UNL     1      -7.190 -14.466  26.460  1.00  0.00     0.000 C 
BRANCH   4   5
ATOM      5  C   UNL     1      -8.424 -15.253  26.939  1.00  0.00     0.000 C 
BRANCH   5   6
ATOM      6  C   UNL     1      -9.738 -14.919  26.208  1.00  0.00     0.000 C 
BRANCH   6   7
ATOM      7  C   UNL     1     -10.986 -15.665  26.720  1.00  0.00     0.000 C 
BRANCH   7   8
ATOM      8  C   UNL     1     -10.778 -16.387  28.069  1.00  0.00     0.000 C 
BRANCH   8   9
ATOM      9  C   UNL     1     -12.052 -17.088  28.571  1.00  0.00     0.000 C 
BRANCH   9  10
ATOM     10  C   UNL     1     -11.792 -18.519  29.078  1.00  0.00     0.000 C 
BRANCH  10  11
ATOM     11  C   UNL     1     -10.367 -18.779  29.595  1.00  0.00     0.000 C 
BRANCH  11  12
ATOM     12  C   UNL     1     -10.280 -18.816  31.131  1.00  0.00     0.006 C 
BRANCH  12  13
ATOM     13  C   UNL     1      -9.701 -17.518  31.708  1.00  0.00     0.053 C 
BRANCH  13  14
ATOM     14  C   UNL     1     -10.778 -16.574  32.148  1.00  0.00     0.041 C 
ATOM     15  O   UNL     1     -11.605 -16.925  33.030  1.00  0.00    -0.550 OA
ATOM     16  O   UNL     1     -10.886 -15.318  31.566  1.00  0.00    -0.550 OA
ENDBRANCH  13  14
ENDBRANCH  12  13
ENDBRANCH  11  12
ENDBRANCH  10  11
ENDBRANCH   9  10
ENDBRANCH   8   9
ENDBRANCH   7   8
ENDBRANCH   6   7
ENDBRANCH   5   6
ENDBRANCH   4   5
ENDBRANCH   3   4
ENDBRANCH   2   3
ENDBRANCH   1   2
BRANCH   1  17
ATOM     17  C   UNL     1      -7.216 -14.832  30.607  1.00  0.00     0.000 C 
BRANCH  17  18
ATOM     18  C   UNL     1      -7.613 -13.760  31.633  1.00  0.00     0.000 C 
BRANCH  18  19
ATOM     19  C   UNL     1      -6.371 -13.098  32.241  1.00  0.00     0.000 C 
BRANCH  19  20
ATOM     20  C   UNL     1      -6.365 -11.586  31.977  1.00  0.00     0.000 C 
BRANCH  20  21
ATOM     21  C   UNL     1      -5.164 -11.131  31.128  1.00  0.00     0.000 C 
BRANCH  21  22
ATOM     22  C   UNL     1      -3.783 -11.533  31.684  1.00  0.00    -0.000 C 
BRANCH  22  23
ATOM     23  C   UNL     1      -2.628 -11.481  30.664  1.00  0.00    -0.000 C 
BRANCH  23  24
ATOM     24  C   UNL     1      -3.058 -11.608  29.188  1.00  0.00    -0.000 C 
BRANCH  24  25
ATOM     25  C   UNL     1      -2.074 -12.376  28.289  1.00  0.00    -0.000 C 
BRANCH  25  26
ATOM     26  C   UNL     1      -1.437 -13.622  28.934  1.00  0.00    -0.000 C 
BRANCH  26  27
ATOM     27  C   UNL     1      -2.414 -14.807  29.098  1.00  0.00    -0.000 C 
BRANCH  27  28
ATOM     28  C   UNL     1      -2.465 -15.707  27.850  1.00  0.00    -0.000 C 
BRANCH  28  29
ATOM     29  C   UNL     1      -1.066 -16.080  27.332  1.00  0.00    -0.003 C 
ATOM     30  C   UNL     1      -0.978 -16.062  25.807  1.00  0.00     0.004 C 
ENDBRANCH  28  29
ENDBRANCH  27  28
ENDBRANCH  26  27
ENDBRANCH  25  26
ENDBRANCH  24  25
ENDBRANCH  23  24
ENDBRANCH  22  23
ENDBRANCH  21  22
ENDBRANCH  20  21
ENDBRANCH  19  20
ENDBRANCH  18  19
ENDBRANCH  17  18
ENDBRANCH   1  17
TORSDOF 26
ENDMDL
MODEL 4
REMARK VINA RESULT:    -5.535      1.161      2.325
REMARK INTER + INTRA:         -17.366
REMARK INTER:                 -13.804
REMARK INTRA:                  -3.563
REMARK UNBOUND:                -3.419
REMARK SMILES CCCCCCCCCCCCCCCCCCCCCCCCCCCC(=O)[O-]
REMARK SMILES IDX 15 1 16 2 17 3 18 4 19 5 20 6 21 7 22 8 23 9 24 10 25 11
REMARK SMILES IDX 26 12 27 13 28 14 29 15 30 16 14 17 13 18 12 19 11 20 10 21
REMARK SMILES IDX 9 22 8 23 7 24 6 25 5 26 4 27 3 28 2 29 1 30
REMARK H PARENT
REMARK Flexibility Score: inf
ROOT
ATOM      1  C   UNL     1      -9.076 -15.320  27.045  1.00  0.00     0.000 C 
ENDROOT
BRANCH   1   2
ATOM      2  C   UNL     1     -10.337 -15.234  26.167  1.00  0.00     0.000 C 
BRANCH   2   3
ATOM      3  C   UNL     1     -11.562 -15.892  26.823  1.00  0.00     0.000 C 
BRANCH   3   4
ATOM      4  C   UNL     1     -11.416 -16.017  28.349  1.00  0.00     0.000 C 
BRANCH   4   5
ATOM      5  C   UNL     1     -12.680 -16.572  29.029  1.00  0.00     0.000 C 
BRANCH   5   6
ATOM      6  C   UNL     1     -12.607 -18.054  29.440  1.00  0.00     0.000 C 
BRANCH   6   7
ATOM      7  C   UNL     1     -11.348 -18.809  28.969  1.00  0.00     0.000 C 
BRANCH   7   8
ATOM      8  C   UNL     1     -10.258 -18.951  30.052  1.00  0.00     0.000 C 
BRANCH   8   9
ATOM      9  C   UNL     1     -10.827 -18.893  31.481  1.00  0.00     0.000 C 
BRANCH   9  10
ATOM     10  C   UNL     1     -10.153 -17.819  32.354  1.00  0.00     0.000 C 
BRANCH  10  11
ATOM     11  C   UNL     1     -10.954 -16.516  32.523  1.00  0.00     0.000 C 
BRANCH  11  12
ATOM     12  C   UNL     1     -10.365 -15.338  31.728  1.00  0.00     0.006 C 
BRANCH  12  13
ATOM     13  C   UNL     1      -8.986 -15.668  31.143  1.00  0.00     0.053 C 
BRANCH  13  14
ATOM     14  C   UNL     1      -7.918 -14.776  31.697  1.00  0.00     0.041 C 
ATOM     15  O   UNL     1      -6.722 -15.167  31.732  1.00  0.00    -0.550 OA
ATOM     16  O   UNL     1      -8.246 -13.523  32.199  1.00  0.00    -0.550 OA
ENDBRANCH  13  14
ENDBRANCH  12  13
ENDBRANCH  11  12
ENDBRANCH  10  11
ENDBRANCH   9  10
ENDBRANCH   8   9
ENDBRANCH   7   8
ENDBRANCH   6   7
ENDBRANCH   5   6
ENDBRANCH   4   5
ENDBRANCH   3   4
ENDBRANCH   2   3
ENDBRANCH   1   2
BRANCH   1  17
ATOM     17  C   UNL     1      -7.780 -15.219  26.223  1.00  0.00     0.000 C 
BRANCH  17  18
ATOM     18  C   UNL     1      -6.815 -14.153  26.764  1.00  0.00     0.000 C 
BRANCH  18  19
ATOM     19  C   UNL     1      -6.581 -14.340  28.267  1.00  0.00     0.000 C 
BRANCH  19  20
ATOM     20  C   UNL     1      -5.126 -14.025  28.643  1.00  0.00     0.000 C 
BRANCH  20  21
ATOM     21  C   UNL     1      -4.134 -15.090  28.141  1.00  0.00     0.000 C 
BRANCH  21  22
ATOM     22  C   UNL     1      -3.028 -14.561  27.204  1.00  0.00    -0.000 C 
BRANCH  22  23
ATOM     23  C   UNL     1      -1.716 -14.160  27.906  1.00  0.00    -0.000 C 
BRANCH  23  24
ATOM     24  C   UNL     1      -1.654 -12.693  28.380  1.00  0.00    -0.000 C 
BRANCH  24  25
ATOM     25  C   UNL     1      -1.868 -12.489  29.890  1.00  0.00    -0.000 C 
BRANCH  25  26
ATOM     26  C   UNL     1      -1.861 -11.021  30.359  1.00  0.00    -0.000 C 
BRANCH  26  27
ATOM     27  C   UNL     1      -3.198 -10.559  30.979  1.00  0.00    -0.000 C 
BRANCH  27  28
ATOM     28  C   UNL     1      -3.546 -11.325  32.269  1.00  0.00    -0.000 C 
BRANCH  28  29
ATOM     29  C   UNL     1      -5.051 -11.612  32.397  1.00  0.00    -0.003 C 
ATOM     30  C   UNL     1      -5.823 -11.291  31.118  1.00  0.00     0.004 C 
ENDBRANCH  28  29
ENDBRANCH  27  28
ENDBRANCH  26  27
ENDBRANCH  25  26
ENDBRANCH  24  25
ENDBRANCH  23  24
ENDBRANCH  22  23
ENDBRANCH  21  22
ENDBRANCH  20  21
ENDBRANCH  19  20
ENDBRANCH  18  19
ENDBRANCH  17  18
ENDBRANCH   1  17
TORSDOF 26
ENDMDL
MODEL 5
REMARK VINA RESULT:    -5.500      2.070      5.023
REMARK INTER + INTRA:         -17.278
REMARK INTER:                 -13.871
REMARK INTRA:                  -3.407
REMARK UNBOUND:                -3.419
REMARK SMILES CCCCCCCCCCCCCCCCCCCCCCCCCCCC(=O)[O-]
REMARK SMILES IDX 15 1 16 2 17 3 18 4 19 5 20 6 21 7 22 8 23 9 24 10 25 11
REMARK SMILES IDX 26 12 27 13 28 14 29 15 30 16 14 17 13 18 12 19 11 20 10 21
REMARK SMILES IDX 9 22 8 23 7 24 6 25 5 26 4 27 3 28 2 29 1 30
REMARK H PARENT
REMARK Flexibility Score: inf
ROOT
ATOM      1  C   UNL     1     -11.562 -18.460  30.311  1.00  0.00     0.000 C 
ENDROOT
BRANCH   1   2
ATOM      2  C   UNL     1     -11.751 -18.194  28.807  1.00  0.00     0.000 C 
BRANCH   2   3
ATOM      3  C   UNL     1     -12.392 -16.826  28.522  1.00  0.00     0.000 C 
BRANCH   3   4
ATOM      4  C   UNL     1     -11.927 -16.226  27.184  1.00  0.00     0.000 C 
BRANCH   4   5
ATOM      5  C   UNL     1     -10.442 -15.820  27.194  1.00  0.00     0.000 C 
BRANCH   5   6
ATOM      6  C   UNL     1     -10.030 -14.814  26.102  1.00  0.00     0.000 C 
BRANCH   6   7
ATOM      7  C   UNL     1      -8.628 -14.196  26.269  1.00  0.00     0.000 C 
BRANCH   7   8
ATOM      8  C   UNL     1      -7.484 -15.232  26.308  1.00  0.00     0.000 C 
BRANCH   8   9
ATOM      9  C   UNL     1      -6.169 -14.645  26.853  1.00  0.00     0.000 C 
BRANCH   9  10
ATOM     10  C   UNL     1      -6.297 -14.119  28.294  1.00  0.00     0.000 C 
BRANCH  10  11
ATOM     11  C   UNL     1      -5.160 -14.534  29.244  1.00  0.00     0.000 C 
BRANCH  11  12
ATOM     12  C   UNL     1      -3.974 -13.554  29.229  1.00  0.00     0.006 C 
BRANCH  12  13
ATOM     13  C   UNL     1      -2.631 -14.273  29.047  1.00  0.00     0.053 C 
BRANCH  13  14
ATOM     14  C   UNL     1      -2.593 -15.071  27.780  1.00  0.00     0.041 C 
ATOM     15  O   UNL     1      -2.517 -16.326  27.825  1.00  0.00    -0.550 OA
ATOM     16  O   UNL     1      -2.615 -14.428  26.549  1.00  0.00    -0.550 OA
ENDBRANCH  13  14
ENDBRANCH  12  13
ENDBRANCH  11  12
ENDBRANCH  10  11
ENDBRANCH   9  10
ENDBRANCH   8   9
ENDBRANCH   7   8
ENDBRANCH   6   7
ENDBRANCH   5   6
ENDBRANCH   4   5
ENDBRANCH   3   4
ENDBRANCH   2   3
ENDBRANCH   1   2
BRANCH   1  17
ATOM     17  C   UNL     1     -10.086 -18.662  30.692  1.00  0.00     0.000 C 
BRANCH  17  18
ATOM     18  C   UNL     1      -9.639 -17.752  31.845  1.00  0.00     0.000 C 
BRANCH  18  19
ATOM     19  C   UNL     1      -9.959 -16.284  31.537  1.00  0.00     0.000 C 
BRANCH  19  20
ATOM     20  C   UNL     1      -8.805 -15.615  30.776  1.00  0.00     0.000 C 
BRANCH  20  21
ATOM     21  C   UNL     1      -7.659 -15.165  31.702  1.00  0.00     0.000 C 
BRANCH  21  22
ATOM     22  C   UNL     1      -7.714 -13.687  32.138  1.00  0.00    -0.000 C 
BRANCH  22  23
ATOM     23  C   UNL     1      -6.346 -13.043  32.435  1.00  0.00    -0.000 C 
BRANCH  23  24
ATOM     24  C   UNL     1      -6.144 -11.638  31.829  1.00  0.00    -0.000 C 
BRANCH  24  25
ATOM     25  C   UNL     1      -4.675 -11.209  31.660  1.00  0.00    -0.000 C 
BRANCH  25  26
ATOM     26  C   UNL     1      -3.824 -11.276  32.943  1.00  0.00    -0.000 C 
BRANCH  26  27
ATOM     27  C   UNL     1      -2.330 -11.572  32.685  1.00  0.00    -0.000 C 
BRANCH  27  28
ATOM     28  C   UNL     1      -1.467 -10.297  32.681  1.00  0.00    -0.000 C 
BRANCH  28  29
ATOM     29  C   UNL     1      -1.448  -9.600  31.311  1.00  0.00    -0.003 C 
ATOM     30  C   UNL     1      -1.292 -10.584  30.152  1.00  0.00     0.004 C 
ENDBRANCH  28  29
ENDBRANCH  27  28
ENDBRANCH  26  27
ENDBRANCH  25  26
ENDBRANCH  24  25
ENDBRANCH  23  24
ENDBRANCH  22  23
ENDBRANCH  21  22
ENDBRANCH  20  21
ENDBRANCH  19  20
ENDBRANCH  18  19
ENDBRANCH  17  18
ENDBRANCH   1  17
TORSDOF 26
ENDMDL
MODEL 6
REMARK VINA RESULT:    -5.414      1.899      5.008
REMARK INTER + INTRA:         -17.063
REMARK INTER:                 -13.738
REMARK INTRA:                  -3.325
REMARK UNBOUND:                -3.419
REMARK SMILES CCCCCCCCCCCCCCCCCCCCCCCCCCCC(=O)[O-]
REMARK SMILES IDX 15 1 16 2 17 3 18 4 19 5 20 6 21 7 22 8 23 9 24 10 25 11
REMARK SMILES IDX 26 12 27 13 28 14 29 15 30 16 14 17 13 18 12 19 11 20 10 21
REMARK SMILES IDX 9 22 8 23 7 24 6 25 5 26 4 27 3 28 2 29 1 30
REMARK H PARENT
REMARK Flexibility Score: inf
ROOT
ATOM      1  C   UNL     1      -7.170 -14.497  29.445  1.00  0.00     0.000 C 
ENDROOT
BRANCH   1   2
ATOM      2  C   UNL     1      -5.792 -14.223  28.818  1.00  0.00     0.000 C 
BRANCH   2   3
ATOM      3  C   UNL     1      -5.767 -14.486  27.303  1.00  0.00     0.000 C 
BRANCH   3   4
ATOM      4  C   UNL     1      -7.095 -15.064  26.785  1.00  0.00     0.000 C 
BRANCH   4   5
ATOM      5  C   UNL     1      -7.845 -14.098  25.849  1.00  0.00     0.000 C 
BRANCH   5   6
ATOM      6  C   UNL     1      -9.378 -14.248  25.844  1.00  0.00     0.000 C 
BRANCH   6   7
ATOM      7  C   UNL     1      -9.936 -15.367  26.745  1.00  0.00     0.000 C 
BRANCH   7   8
ATOM      8  C   UNL     1     -11.440 -15.648  26.541  1.00  0.00     0.000 C 
BRANCH   8   9
ATOM      9  C   UNL     1     -12.008 -16.631  27.580  1.00  0.00     0.000 C 
BRANCH   9  10
ATOM     10  C   UNL     1     -12.075 -16.034  28.999  1.00  0.00     0.000 C 
BRANCH  10  11
ATOM     11  C   UNL     1     -12.945 -16.818  29.996  1.00  0.00     0.000 C 
BRANCH  11  12
ATOM     12  C   UNL     1     -12.232 -17.096  31.331  1.00  0.00     0.006 C 
BRANCH  12  13
ATOM     13  C   UNL     1     -10.789 -16.574  31.335  1.00  0.00     0.053 C 
BRANCH  13  14
ATOM     14  C   UNL     1      -9.792 -17.692  31.342  1.00  0.00     0.041 C 
ATOM     15  O   UNL     1      -9.938 -18.674  30.570  1.00  0.00    -0.550 OA
ATOM     16  O   UNL     1      -8.716 -17.662  32.221  1.00  0.00    -0.550 OA
ENDBRANCH  13  14
ENDBRANCH  12  13
ENDBRANCH  11  12
ENDBRANCH  10  11
ENDBRANCH   9  10
ENDBRANCH   8   9
ENDBRANCH   7   8
ENDBRANCH   6   7
ENDBRANCH   5   6
ENDBRANCH   4   5
ENDBRANCH   3   4
ENDBRANCH   2   3
ENDBRANCH   1   2
BRANCH   1  17
ATOM     17  C   UNL     1      -7.068 -14.976  30.903  1.00  0.00     0.000 C 
BRANCH  17  18
ATOM     18  C   UNL     1      -7.696 -13.989  31.899  1.00  0.00     0.000 C 
BRANCH  18  19
ATOM     19  C   UNL     1      -6.616 -13.148  32.589  1.00  0.00     0.000 C 
BRANCH  19  20
ATOM     20  C   UNL     1      -6.429 -11.800  31.879  1.00  0.00     0.000 C 
BRANCH  20  21
ATOM     21  C   UNL     1      -4.948 -11.460  31.622  1.00  0.00     0.000 C 
BRANCH  21  22
ATOM     22  C   UNL     1      -4.073 -11.358  32.887  1.00  0.00    -0.000 C 
BRANCH  22  23
ATOM     23  C   UNL     1      -2.555 -11.456  32.641  1.00  0.00    -0.000 C 
BRANCH  23  24
ATOM     24  C   UNL     1      -1.806 -10.107  32.653  1.00  0.00    -0.000 C 
BRANCH  24  25
ATOM     25  C   UNL     1      -1.259  -9.656  31.287  1.00  0.00    -0.000 C 
BRANCH  25  26
ATOM     26  C   UNL     1      -2.310  -9.553  30.165  1.00  0.00    -0.000 C 
BRANCH  26  27
ATOM     27  C   UNL     1      -1.731  -9.766  28.749  1.00  0.00    -0.000 C 
BRANCH  27  28
ATOM     28  C   UNL     1      -1.522 -11.255  28.414  1.00  0.00    -0.000 C 
BRANCH  28  29
ATOM     29  C   UNL     1      -2.697 -12.133  28.869  1.00  0.00    -0.003 C 
ATOM     30  C   UNL     1      -2.242 -13.395  29.601  1.00  0.00     0.004 C 
ENDBRANCH  28  29
ENDBRANCH  27  28
ENDBRANCH  26  27
ENDBRANCH  25  26
ENDBRANCH  24  25
ENDBRANCH  23  24
ENDBRANCH  22  23
ENDBRANCH  21  22
ENDBRANCH  20  21
ENDBRANCH  19  20
ENDBRANCH  18  19
ENDBRANCH  17  18
ENDBRANCH   1  17
TORSDOF 26
ENDMDL
MODEL 7
REMARK VINA RESULT:    -5.356      3.086      8.681
REMARK INTER + INTRA:         -16.916
REMARK INTER:                 -14.180
REMARK INTRA:                  -2.737
REMARK UNBOUND:                -3.419
REMARK SMILES CCCCCCCCCCCCCCCCCCCCCCCCCCCC(=O)[O-]
REMARK SMILES IDX 15 1 16 2 17 3 18 4 19 5 20 6 21 7 22 8 23 9 24 10 25 11
REMARK SMILES IDX 26 12 27 13 28 14 29 15 30 16 14 17 13 18 12 19 11 20 10 21
REMARK SMILES IDX 9 22 8 23 7 24 6 25 5 26 4 27 3 28 2 29 1 30
REMARK H PARENT
REMARK Flexibility Score: inf
ROOT
ATOM      1  C   UNL     1     -10.103 -15.101  31.841  1.00  0.00     0.000 C 
ENDROOT
BRANCH   1   2
ATOM      2  C   UNL     1      -9.108 -14.009  32.271  1.00  0.00     0.000 C 
BRANCH   2   3
ATOM      3  C   UNL     1      -7.733 -14.162  31.600  1.00  0.00     0.000 C 
BRANCH   3   4
ATOM      4  C   UNL     1      -6.615 -13.450  32.382  1.00  0.00     0.000 C 
BRANCH   4   5
ATOM      5  C   UNL     1      -6.307 -12.043  31.838  1.00  0.00     0.000 C 
BRANCH   5   6
ATOM      6  C   UNL     1      -5.079 -11.354  32.462  1.00  0.00     0.000 C 
BRANCH   6   7
ATOM      7  C   UNL     1      -3.766 -11.499  31.667  1.00  0.00     0.000 C 
BRANCH   7   8
ATOM      8  C   UNL     1      -3.958 -12.015  30.225  1.00  0.00     0.000 C 
BRANCH   8   9
ATOM      9  C   UNL     1      -2.630 -12.400  29.549  1.00  0.00     0.000 C 
BRANCH   9  10
ATOM     10  C   UNL     1      -2.690 -13.765  28.839  1.00  0.00     0.000 C 
BRANCH  10  11
ATOM     11  C   UNL     1      -1.665 -13.959  27.708  1.00  0.00     0.000 C 
BRANCH  11  12
ATOM     12  C   UNL     1      -2.191 -14.841  26.563  1.00  0.00     0.006 C 
BRANCH  12  13
ATOM     13  C   UNL     1      -1.632 -14.413  25.200  1.00  0.00     0.053 C 
BRANCH  13  14
ATOM     14  C   UNL     1      -0.144 -14.239  25.237  1.00  0.00     0.041 C 
ATOM     15  O   UNL     1       0.607 -15.241  25.353  1.00  0.00    -0.550 OA
ATOM     16  O   UNL     1       0.411 -12.967  25.171  1.00  0.00    -0.550 OA
ENDBRANCH  13  14
ENDBRANCH  12  13
ENDBRANCH  11  12
ENDBRANCH  10  11
ENDBRANCH   9  10
ENDBRANCH   8   9
ENDBRANCH   7   8
ENDBRANCH   6   7
ENDBRANCH   5   6
ENDBRANCH   4   5
ENDBRANCH   3   4
ENDBRANCH   2   3
ENDBRANCH   1   2
BRANCH   1  17
ATOM     17  C   UNL     1      -9.423 -16.247  31.075  1.00  0.00     0.000 C 
BRANCH  17  18
ATOM     18  C   UNL     1      -9.371 -17.554  31.880  1.00  0.00     0.000 C 
BRANCH  18  19
ATOM     19  C   UNL     1     -10.201 -18.649  31.200  1.00  0.00     0.000 C 
BRANCH  19  20
ATOM     20  C   UNL     1     -10.304 -18.404  29.687  1.00  0.00     0.000 C 
BRANCH  20  21
ATOM     21  C   UNL     1     -11.713 -18.682  29.131  1.00  0.00     0.000 C 
BRANCH  21  22
ATOM     22  C   UNL     1     -12.760 -17.591  29.432  1.00  0.00    -0.000 C 
BRANCH  22  23
ATOM     23  C   UNL     1     -12.401 -16.183  28.919  1.00  0.00    -0.000 C 
BRANCH  23  24
ATOM     24  C   UNL     1     -12.156 -16.088  27.399  1.00  0.00    -0.000 C 
BRANCH  24  25
ATOM     25  C   UNL     1     -10.683 -15.918  26.988  1.00  0.00    -0.000 C 
BRANCH  25  26
ATOM     26  C   UNL     1     -10.430 -14.878  25.879  1.00  0.00    -0.000 C 
BRANCH  26  27
ATOM     27  C   UNL     1      -9.017 -14.256  25.918  1.00  0.00    -0.000 C 
BRANCH  27  28
ATOM     28  C   UNL     1      -7.999 -15.149  26.652  1.00  0.00    -0.000 C 
BRANCH  28  29
ATOM     29  C   UNL     1      -6.620 -14.485  26.788  1.00  0.00    -0.003 C 
ATOM     30  C   UNL     1      -6.170 -14.354  28.243  1.00  0.00     0.004 C 
ENDBRANCH  28  29
ENDBRANCH  27  28
ENDBRANCH  26  27
ENDBRANCH  25  26
ENDBRANCH  24  25
ENDBRANCH  23  24
ENDBRANCH  22  23
ENDBRANCH  21  22
ENDBRANCH  20  21
ENDBRANCH  19  20
ENDBRANCH  18  19
ENDBRANCH  17  18
ENDBRANCH   1  17
TORSDOF 26
ENDMDL
MODEL 8
REMARK VINA RESULT:    -5.271      2.199      9.261
REMARK INTER + INTRA:         -16.702
REMARK INTER:                 -13.303
REMARK INTRA:                  -3.400
REMARK UNBOUND:                -3.419
REMARK SMILES CCCCCCCCCCCCCCCCCCCCCCCCCCCC(=O)[O-]
REMARK SMILES IDX 15 1 16 2 17 3 18 4 19 5 20 6 21 7 22 8 23 9 24 10 25 11
REMARK SMILES IDX 26 12 27 13 28 14 29 15 30 16 14 17 13 18 12 19 11 20 10 21
REMARK SMILES IDX 9 22 8 23 7 24 6 25 5 26 4 27 3 28 2 29 1 30
REMARK H PARENT
REMARK Flexibility Score: inf
ROOT
ATOM      1  C   UNL     1      -6.768 -14.659  32.630  1.00  0.00     0.000 C 
ENDROOT
BRANCH   1   2
ATOM      2  C   UNL     1      -7.257 -13.300  32.098  1.00  0.00     0.000 C 
BRANCH   2   3
ATOM      3  C   UNL     1      -6.540 -12.877  30.805  1.00  0.00     0.000 C 
BRANCH   3   4
ATOM      4  C   UNL     1      -5.977 -11.448  30.886  1.00  0.00     0.000 C 
BRANCH   4   5
ATOM      5  C   UNL     1      -5.402 -11.108  32.273  1.00  0.00     0.000 C 
BRANCH   5   6
ATOM      6  C   UNL     1      -4.120 -11.872  32.656  1.00  0.00     0.000 C 
BRANCH   6   7
ATOM      7  C   UNL     1      -2.841 -11.017  32.738  1.00  0.00     0.000 C 
BRANCH   7   8
ATOM      8  C   UNL     1      -1.540 -11.840  32.851  1.00  0.00     0.000 C 
BRANCH   8   9
ATOM      9  C   UNL     1      -0.802 -11.974  31.506  1.00  0.00     0.000 C 
BRANCH   9  10
ATOM     10  C   UNL     1      -1.243 -10.923  30.471  1.00  0.00     0.000 C 
BRANCH  10  11
ATOM     11  C   UNL     1      -1.550 -11.476  29.069  1.00  0.00     0.000 C 
BRANCH  11  12
ATOM     12  C   UNL     1      -2.996 -11.979  28.922  1.00  0.00     0.006 C 
BRANCH  12  13
ATOM     13  C   UNL     1      -3.152 -13.434  29.382  1.00  0.00     0.053 C 
BRANCH  13  14
ATOM     14  C   UNL     1      -2.504 -14.392  28.429  1.00  0.00     0.041 C 
ATOM     15  O   UNL     1      -3.009 -14.592  27.294  1.00  0.00    -0.550 OA
ATOM     16  O   UNL     1      -1.359 -15.082  28.805  1.00  0.00    -0.550 OA
ENDBRANCH  13  14
ENDBRANCH  12  13
ENDBRANCH  11  12
ENDBRANCH  10  11
ENDBRANCH   9  10
ENDBRANCH   8   9
ENDBRANCH   7   8
ENDBRANCH   6   7
ENDBRANCH   5   6
ENDBRANCH   4   5
ENDBRANCH   3   4
ENDBRANCH   2   3
ENDBRANCH   1   2
BRANCH   1  17
ATOM     17  C   UNL     1      -6.949 -15.791  31.606  1.00  0.00     0.000 C 
BRANCH  17  18
ATOM     18  C   UNL     1      -8.175 -16.669  31.900  1.00  0.00     0.000 C 
BRANCH  18  19
ATOM     19  C   UNL     1      -9.326 -16.339  30.942  1.00  0.00     0.000 C 
BRANCH  19  20
ATOM     20  C   UNL     1     -10.376 -15.452  31.627  1.00  0.00     0.000 C 
BRANCH  20  21
ATOM     21  C   UNL     1     -11.231 -16.221  32.651  1.00  0.00     0.000 C 
BRANCH  21  22
ATOM     22  C   UNL     1     -11.906 -17.497  32.111  1.00  0.00    -0.000 C 
BRANCH  22  23
ATOM     23  C   UNL     1     -13.095 -17.255  31.160  1.00  0.00    -0.000 C 
BRANCH  23  24
ATOM     24  C   UNL     1     -13.168 -18.212  29.953  1.00  0.00    -0.000 C 
BRANCH  24  25
ATOM     25  C   UNL     1     -11.837 -18.418  29.207  1.00  0.00    -0.000 C 
BRANCH  25  26
ATOM     26  C   UNL     1     -11.737 -17.707  27.843  1.00  0.00    -0.000 C 
BRANCH  26  27
ATOM     27  C   UNL     1     -11.456 -16.192  27.950  1.00  0.00    -0.000 C 
BRANCH  27  28
ATOM     28  C   UNL     1     -10.987 -15.583  26.616  1.00  0.00    -0.000 C 
BRANCH  28  29
ATOM     29  C   UNL     1      -9.491 -15.231  26.621  1.00  0.00    -0.003 C 
ATOM     30  C   UNL     1      -9.157 -14.061  25.696  1.00  0.00     0.004 C 
ENDBRANCH  28  29
ENDBRANCH  27  28
ENDBRANCH  26  27
ENDBRANCH  25  26
ENDBRANCH  24  25
ENDBRANCH  23  24
ENDBRANCH  22  23
ENDBRANCH  21  22
ENDBRANCH  20  21
ENDBRANCH  19  20
ENDBRANCH  18  19
ENDBRANCH  17  18
ENDBRANCH   1  17
TORSDOF 26
ENDMDL
MODEL 9
REMARK VINA RESULT:    -5.115      2.469      5.389
REMARK INTER + INTRA:         -16.308
REMARK INTER:                 -13.565
REMARK INTRA:                  -2.743
REMARK UNBOUND:                -3.419
REMARK SMILES CCCCCCCCCCCCCCCCCCCCCCCCCCCC(=O)[O-]
REMARK SMILES IDX 15 1 16 2 17 3 18 4 19 5 20 6 21 7 22 8 23 9 24 10 25 11
REMARK SMILES IDX 26 12 27 13 28 14 29 15 30 16 14 17 13 18 12 19 11 20 10 21
REMARK SMILES IDX 9 22 8 23 7 24 6 25 5 26 4 27 3 28 2 29 1 30
REMARK H PARENT
REMARK Flexibility Score: inf
ROOT
ATOM      1  C   UNL     1      -6.286 -14.228  30.053  1.00  0.00     0.000 C 
ENDROOT
BRANCH   1   2
ATOM      2  C   UNL     1      -7.125 -14.510  28.794  1.00  0.00     0.000 C 
BRANCH   2   3
ATOM      3  C   UNL     1      -6.284 -14.503  27.507  1.00  0.00     0.000 C 
BRANCH   3   4
ATOM      4  C   UNL     1      -7.101 -14.910  26.269  1.00  0.00     0.000 C 
BRANCH   4   5
ATOM      5  C   UNL     1      -8.368 -14.056  26.081  1.00  0.00     0.000 C 
BRANCH   5   6
ATOM      6  C   UNL     1      -9.667 -14.853  25.849  1.00  0.00     0.000 C 
BRANCH   6   7
ATOM      7  C   UNL     1     -10.159 -15.679  27.054  1.00  0.00     0.000 C 
BRANCH   7   8
ATOM      8  C   UNL     1     -11.656 -16.051  26.991  1.00  0.00     0.000 C 
BRANCH   8   9
ATOM      9  C   UNL     1     -12.075 -17.019  28.112  1.00  0.00     0.000 C 
BRANCH   9  10
ATOM     10  C   UNL     1     -12.550 -16.296  29.386  1.00  0.00     0.000 C 
BRANCH  10  11
ATOM     11  C   UNL     1     -13.183 -17.203  30.455  1.00  0.00     0.000 C 
BRANCH  11  12
ATOM     12  C   UNL     1     -12.280 -17.408  31.684  1.00  0.00     0.006 C 
BRANCH  12  13
ATOM     13  C   UNL     1     -10.792 -17.418  31.313  1.00  0.00     0.053 C 
BRANCH  13  14
ATOM     14  C   UNL     1     -10.063 -16.249  31.901  1.00  0.00     0.041 C 
ATOM     15  O   UNL     1     -10.705 -15.311  32.441  1.00  0.00    -0.550 OA
ATOM     16  O   UNL     1      -8.678 -16.182  31.829  1.00  0.00    -0.550 OA
ENDBRANCH  13  14
ENDBRANCH  12  13
ENDBRANCH  11  12
ENDBRANCH  10  11
ENDBRANCH   9  10
ENDBRANCH   8   9
ENDBRANCH   7   8
ENDBRANCH   6   7
ENDBRANCH   5   6
ENDBRANCH   4   5
ENDBRANCH   3   4
ENDBRANCH   2   3
ENDBRANCH   1   2
BRANCH   1  17
ATOM     17  C   UNL     1      -6.383 -12.762  30.508  1.00  0.00     0.000 C 
BRANCH  17  18
ATOM     18  C   UNL     1      -6.046 -12.577  31.995  1.00  0.00     0.000 C 
BRANCH  18  19
ATOM     19  C   UNL     1      -5.267 -11.276  32.220  1.00  0.00     0.000 C 
BRANCH  19  20
ATOM     20  C   UNL     1      -3.769 -11.475  31.950  1.00  0.00     0.000 C 
BRANCH  20  21
ATOM     21  C   UNL     1      -3.291 -10.755  30.675  1.00  0.00     0.000 C 
BRANCH  21  22
ATOM     22  C   UNL     1      -3.068 -11.670  29.454  1.00  0.00    -0.000 C 
BRANCH  22  23
ATOM     23  C   UNL     1      -2.392 -13.020  29.765  1.00  0.00    -0.000 C 
BRANCH  23  24
ATOM     24  C   UNL     1      -2.897 -14.209  28.921  1.00  0.00    -0.000 C 
BRANCH  24  25
ATOM     25  C   UNL     1      -1.910 -14.711  27.852  1.00  0.00    -0.000 C 
BRANCH  25  26
ATOM     26  C   UNL     1      -2.430 -14.649  26.402  1.00  0.00    -0.000 C 
BRANCH  26  27
ATOM     27  C   UNL     1      -1.513 -13.856  25.445  1.00  0.00    -0.000 C 
BRANCH  27  28
ATOM     28  C   UNL     1      -1.095 -12.491  26.024  1.00  0.00    -0.000 C 
BRANCH  28  29
ATOM     29  C   UNL     1       0.431 -12.314  26.076  1.00  0.00    -0.003 C 
ATOM     30  C   UNL     1       1.107 -12.636  24.744  1.00  0.00     0.004 C 
ENDBRANCH  28  29
ENDBRANCH  27  28
ENDBRANCH  26  27
ENDBRANCH  25  26
ENDBRANCH  24  25
ENDBRANCH  23  24
ENDBRANCH  22  23
ENDBRANCH  21  22
ENDBRANCH  20  21
ENDBRANCH  19  20
ENDBRANCH  18  19
ENDBRANCH  17  18
ENDBRANCH   1  17
TORSDOF 26
ENDMDL
