MODEL 1
REMARK VINA RESULT:    -2.616      0.000      0.000
REMARK INTER + INTRA:          -7.589
REMARK INTER:                  -5.675
REMARK INTRA:                  -1.915
REMARK UNBOUND:                -1.915
REMARK SMILES CCCCCCCCCCCCCCCCCCCCCC(=O)[O-]
REMARK SMILES IDX 12 1 11 2 10 3 9 4 8 5 7 6 6 7 5 8 4 9 3 10 2 11 1 12 13 13
REMARK SMILES IDX 14 14 15 15 16 16 17 17 18 18 19 19 20 20 21 21 22 22 23 23
REMARK SMILES IDX 24 24
REMARK H PARENT
REMARK Flexibility Score: inf
ROOT
ATOM      1  C   UNL     1       6.637 -33.668  13.619  1.00  0.00     0.000 C 
ENDROOT
BRANCH   1   2
ATOM      2  C   UNL     1       8.022 -33.601  12.957  1.00  0.00     0.000 C 
BRANCH   2   3
ATOM      3  C   UNL     1       9.167 -33.787  13.967  1.00  0.00     0.000 C 
BRANCH   3   4
ATOM      4  C   UNL     1       9.930 -32.483  14.248  1.00  0.00    -0.000 C 
BRANCH   4   5
ATOM      5  C   UNL     1      11.326 -32.459  13.599  1.00  0.00    -0.000 C 
BRANCH   5   6
ATOM      6  C   UNL     1      12.265 -31.421  14.236  1.00  0.00    -0.000 C 
BRANCH   6   7
ATOM      7  C   UNL     1      13.738 -31.513  13.792  1.00  0.00    -0.000 C 
BRANCH   7   8
ATOM      8  C   UNL     1      14.610 -30.333  14.271  1.00  0.00    -0.000 C 
BRANCH   8   9
ATOM      9  C   UNL     1      15.890 -30.809  14.982  1.00  0.00    -0.000 C 
BRANCH   9  10
ATOM     10  C   UNL     1      16.434 -32.130  14.407  1.00  0.00    -0.000 C 
BRANCH  10  11
ATOM     11  C   UNL     1      17.950 -32.328  14.588  1.00  0.00    -0.003 C 
ATOM     12  C   UNL     1      18.777 -31.665  13.485  1.00  0.00     0.004 C 
ENDBRANCH  10  11
ENDBRANCH   9  10
ENDBRANCH   8   9
ENDBRANCH   7   8
ENDBRANCH   6   7
ENDBRANCH   5   6
ENDBRANCH   4   5
ENDBRANCH   3   4
ENDBRANCH   2   3
ENDBRANCH   1   2
BRANCH   1  13
ATOM     13  C   UNL     1       5.880 -34.968  13.292  1.00  0.00     0.000 C 
BRANCH  13  14
ATOM     14  C   UNL     1       6.771 -36.216  13.456  1.00  0.00     0.000 C 
BRANCH  14  15
ATOM     15  C   UNL     1       6.370 -37.115  14.638  1.00  0.00     0.000 C 
BRANCH  15  16
ATOM     16  C   UNL     1       6.056 -36.318  15.915  1.00  0.00     0.000 C 
BRANCH  16  17
ATOM     17  C   UNL     1       7.321 -35.943  16.704  1.00  0.00     0.000 C 
BRANCH  17  18
ATOM     18  C   UNL     1       7.102 -34.732  17.624  1.00  0.00     0.000 C 
BRANCH  18  19
ATOM     19  C   UNL     1       6.666 -33.501  16.820  1.00  0.00     0.000 C 
BRANCH  19  20
ATOM     20  C   UNL     1       7.529 -32.279  17.174  1.00  0.00     0.006 C 
BRANCH  20  21
ATOM     21  C   UNL     1       8.680 -32.634  18.125  1.00  0.00     0.053 C 
BRANCH  21  22
ATOM     22  C   UNL     1       9.551 -31.451  18.417  1.00  0.00     0.041 C 
ATOM     23  O   UNL     1       9.525 -30.911  19.555  1.00  0.00    -0.550 OA
ATOM     24  O   UNL     1      10.365 -30.924  17.424  1.00  0.00    -0.550 OA
ENDBRANCH  21  22
ENDBRANCH  20  21
ENDBRANCH  19  20
ENDBRANCH  18  19
ENDBRANCH  17  18
ENDBRANCH  16  17
ENDBRANCH  15  16
ENDBRANCH  14  15
ENDBRANCH  13  14
ENDBRANCH   1  13
TORSDOF 20
ENDMDL
MODEL 2
REMARK VINA RESULT:    -1.638      3.823     10.103
REMARK INTER + INTRA:          -5.469
REMARK INTER:                  -4.114
REMARK INTRA:                  -1.355
REMARK UNBOUND:                -1.915
REMARK SMILES CCCCCCCCCCCCCCCCCCCCCC(=O)[O-]
REMARK SMILES IDX 12 1 11 2 10 3 9 4 8 5 7 6 6 7 5 8 4 9 3 10 2 11 1 12 13 13
REMARK SMILES IDX 14 14 15 15 16 16 17 17 18 18 19 19 20 20 21 21 22 22 23 23
REMARK SMILES IDX 24 24
REMARK H PARENT
REMARK Flexibility Score: inf
ROOT
ATOM      1  C   UNL     1      11.497 -31.383  13.595  1.00  0.00     0.000 C 
ENDROOT
BRANCH   1   2
ATOM      2  C   UNL     1      10.751 -32.725  13.533  1.00  0.00     0.000 C 
BRANCH   2   3
ATOM      3  C   UNL     1       9.334 -32.584  12.952  1.00  0.00     0.000 C 
BRANCH   3   4
ATOM      4  C   UNL     1       8.293 -33.420  13.715  1.00  0.00    -0.000 C 
BRANCH   4   5
ATOM      5  C   UNL     1       6.923 -33.446  13.014  1.00  0.00    -0.000 C 
BRANCH   5   6
ATOM      6  C   UNL     1       6.324 -34.860  12.923  1.00  0.00    -0.000 C 
BRANCH   6   7
ATOM      7  C   UNL     1       6.889 -35.876  13.936  1.00  0.00    -0.000 C 
BRANCH   7   8
ATOM      8  C   UNL     1       5.920 -36.215  15.088  1.00  0.00    -0.000 C 
BRANCH   8   9
ATOM      9  C   UNL     1       5.927 -35.137  16.187  1.00  0.00    -0.000 C 
BRANCH   9  10
ATOM     10  C   UNL     1       7.270 -35.058  16.935  1.00  0.00    -0.000 C 
BRANCH  10  11
ATOM     11  C   UNL     1       7.395 -33.862  17.898  1.00  0.00    -0.003 C 
ATOM     12  C   UNL     1       8.361 -32.788  17.396  1.00  0.00     0.004 C 
ENDBRANCH  10  11
ENDBRANCH   9  10
ENDBRANCH   8   9
ENDBRANCH   7   8
ENDBRANCH   6   7
ENDBRANCH   5   6
ENDBRANCH   4   5
ENDBRANCH   3   4
ENDBRANCH   2   3
ENDBRANCH   1   2
BRANCH   1  13
ATOM     13  C   UNL     1      12.697 -31.409  14.558  1.00  0.00     0.000 C 
BRANCH  13  14
ATOM     14  C   UNL     1      14.025 -31.690  13.825  1.00  0.00     0.000 C 
BRANCH  14  15
ATOM     15  C   UNL     1      15.116 -30.638  14.091  1.00  0.00     0.000 C 
BRANCH  15  16
ATOM     16  C   UNL     1      16.245 -31.162  14.994  1.00  0.00     0.000 C 
BRANCH  16  17
ATOM     17  C   UNL     1      17.191 -32.124  14.258  1.00  0.00     0.000 C 
BRANCH  17  18
ATOM     18  C   UNL     1      18.671 -31.761  14.458  1.00  0.00     0.000 C 
BRANCH  18  19
ATOM     19  C   UNL     1      19.369 -31.535  13.112  1.00  0.00     0.000 C 
BRANCH  19  20
ATOM     20  C   UNL     1      19.642 -30.041  12.878  1.00  0.00     0.006 C 
BRANCH  20  21
ATOM     21  C   UNL     1      20.537 -29.433  13.966  1.00  0.00     0.053 C 
BRANCH  21  22
ATOM     22  C   UNL     1      21.196 -28.168  13.511  1.00  0.00     0.041 C 
ATOM     23  O   UNL     1      20.519 -27.271  12.943  1.00  0.00    -0.550 OA
ATOM     24  O   UNL     1      22.564 -27.995  13.680  1.00  0.00    -0.550 OA
ENDBRANCH  21  22
ENDBRANCH  20  21
ENDBRANCH  19  20
ENDBRANCH  18  19
ENDBRANCH  17  18
ENDBRANCH  16  17
ENDBRANCH  15  16
ENDBRANCH  14  15
ENDBRANCH  13  14
ENDBRANCH   1  13
TORSDOF 20
ENDMDL
MODEL 3
REMARK VINA RESULT:    -1.094      2.092      4.022
REMARK INTER + INTRA:          -4.287
REMARK INTER:                  -2.286
REMARK INTRA:                  -2.001
REMARK UNBOUND:                -1.915
REMARK SMILES CCCCCCCCCCCCCCCCCCCCCC(=O)[O-]
REMARK SMILES IDX 12 1 11 2 10 3 9 4 8 5 7 6 6 7 5 8 4 9 3 10 2 11 1 12 13 13
REMARK SMILES IDX 14 14 15 15 16 16 17 17 18 18 19 19 20 20 21 21 22 22 23 23
REMARK SMILES IDX 24 24
REMARK H PARENT
REMARK Flexibility Score: inf
ROOT
ATOM      1  C   UNL     1       7.753 -35.534  17.930  1.00  0.00     0.000 C 
ENDROOT
BRANCH   1   2
ATOM      2  C   UNL     1       7.061 -34.194  17.636  1.00  0.00     0.000 C 
BRANCH   2   3
ATOM      3  C   UNL     1       7.697 -33.023  18.406  1.00  0.00     0.000 C 
BRANCH   3   4
ATOM      4  C   UNL     1       8.537 -32.105  17.505  1.00  0.00    -0.000 C 
BRANCH   4   5
ATOM      5  C   UNL     1       9.742 -31.490  18.240  1.00  0.00    -0.000 C 
BRANCH   5   6
ATOM      6  C   UNL     1      10.564 -30.540  17.352  1.00  0.00    -0.000 C 
BRANCH   6   7
ATOM      7  C   UNL     1      11.221 -31.199  16.123  1.00  0.00    -0.000 C 
BRANCH   7   8
ATOM      8  C   UNL     1      12.514 -30.498  15.655  1.00  0.00    -0.000 C 
BRANCH   8   9
ATOM      9  C   UNL     1      13.180 -31.236  14.480  1.00  0.00    -0.000 C 
BRANCH   9  10
ATOM     10  C   UNL     1      14.548 -30.639  14.100  1.00  0.00    -0.000 C 
BRANCH  10  11
ATOM     11  C   UNL     1      15.681 -31.673  13.967  1.00  0.00    -0.003 C 
ATOM     12  C   UNL     1      16.597 -31.720  15.192  1.00  0.00     0.004 C 
ENDBRANCH  10  11
ENDBRANCH   9  10
ENDBRANCH   8   9
ENDBRANCH   7   8
ENDBRANCH   6   7
ENDBRANCH   5   6
ENDBRANCH   4   5
ENDBRANCH   3   4
ENDBRANCH   2   3
ENDBRANCH   1   2
BRANCH   1  13
ATOM     13  C   UNL     1       7.662 -36.524  16.754  1.00  0.00     0.000 C 
BRANCH  13  14
ATOM     14  C   UNL     1       6.217 -37.010  16.515  1.00  0.00     0.000 C 
BRANCH  14  15
ATOM     15  C   UNL     1       5.876 -37.239  15.032  1.00  0.00     0.000 C 
BRANCH  15  16
ATOM     16  C   UNL     1       7.116 -37.219  14.123  1.00  0.00     0.000 C 
BRANCH  16  17
ATOM     17  C   UNL     1       7.079 -36.074  13.098  1.00  0.00     0.000 C 
BRANCH  17  18
ATOM     18  C   UNL     1       6.501 -34.778  13.685  1.00  0.00     0.000 C 
BRANCH  18  19
ATOM     19  C   UNL     1       6.978 -33.554  12.893  1.00  0.00     0.000 C 
BRANCH  19  20
ATOM     20  C   UNL     1       8.142 -32.853  13.612  1.00  0.00     0.006 C 
BRANCH  20  21
ATOM     21  C   UNL     1       9.078 -33.847  14.314  1.00  0.00     0.053 C 
BRANCH  21  22
ATOM     22  C   UNL     1      10.318 -34.110  13.517  1.00  0.00     0.041 C 
ATOM     23  O   UNL     1      10.781 -35.278  13.434  1.00  0.00    -0.550 OA
ATOM     24  O   UNL     1      10.982 -33.061  12.896  1.00  0.00    -0.550 OA
ENDBRANCH  21  22
ENDBRANCH  20  21
ENDBRANCH  19  20
ENDBRANCH  18  19
ENDBRANCH  17  18
ENDBRANCH  16  17
ENDBRANCH  15  16
ENDBRANCH  14  15
ENDBRANCH  13  14
ENDBRANCH   1  13
TORSDOF 20
ENDMDL
MODEL 4
REMARK VINA RESULT:    -0.917      2.482      4.273
REMARK INTER + INTRA:          -3.904
REMARK INTER:                  -2.229
REMARK INTRA:                  -1.675
REMARK UNBOUND:                -1.915
REMARK SMILES CCCCCCCCCCCCCCCCCCCCCC(=O)[O-]
REMARK SMILES IDX 12 1 11 2 10 3 9 4 8 5 7 6 6 7 5 8 4 9 3 10 2 11 1 12 13 13
REMARK SMILES IDX 14 14 15 15 16 16 17 17 18 18 19 19 20 20 21 21 22 22 23 23
REMARK SMILES IDX 24 24
REMARK H PARENT
REMARK Flexibility Score: inf
ROOT
ATOM      1  C   UNL     1       8.287 -33.170  15.414  1.00  0.00     0.000 C 
ENDROOT
BRANCH   1   2
ATOM      2  C   UNL     1       8.257 -32.315  16.690  1.00  0.00     0.000 C 
BRANCH   2   3
ATOM      3  C   UNL     1       9.651 -32.143  17.315  1.00  0.00     0.000 C 
BRANCH   3   4
ATOM      4  C   UNL     1      10.146 -30.688  17.273  1.00  0.00    -0.000 C 
BRANCH   4   5
ATOM      5  C   UNL     1      11.455 -30.528  16.479  1.00  0.00    -0.000 C 
BRANCH   5   6
ATOM      6  C   UNL     1      11.533 -31.462  15.259  1.00  0.00    -0.000 C 
BRANCH   6   7
ATOM      7  C   UNL     1      12.690 -31.166  14.283  1.00  0.00    -0.000 C 
BRANCH   7   8
ATOM      8  C   UNL     1      14.026 -30.833  14.979  1.00  0.00    -0.000 C 
BRANCH   8   9
ATOM      9  C   UNL     1      15.194 -30.748  13.981  1.00  0.00    -0.000 C 
BRANCH   9  10
ATOM     10  C   UNL     1      16.049 -32.028  13.954  1.00  0.00    -0.000 C 
BRANCH  10  11
ATOM     11  C   UNL     1      17.404 -31.905  14.676  1.00  0.00    -0.003 C 
ATOM     12  C   UNL     1      18.591 -31.832  13.714  1.00  0.00     0.004 C 
ENDBRANCH  10  11
ENDBRANCH   9  10
ENDBRANCH   8   9
ENDBRANCH   7   8
ENDBRANCH   6   7
ENDBRANCH   5   6
ENDBRANCH   4   5
ENDBRANCH   3   4
ENDBRANCH   2   3
ENDBRANCH   1   2
BRANCH   1  13
ATOM     13  C   UNL     1       8.095 -32.338  14.133  1.00  0.00     0.000 C 
BRANCH  13  14
ATOM     14  C   UNL     1       9.156 -32.668  13.062  1.00  0.00     0.000 C 
BRANCH  14  15
ATOM     15  C   UNL     1       9.870 -34.012  13.288  1.00  0.00     0.000 C 
BRANCH  15  16
ATOM     16  C   UNL     1       8.996 -35.223  12.924  1.00  0.00     0.000 C 
BRANCH  16  17
ATOM     17  C   UNL     1       9.730 -36.560  13.111  1.00  0.00     0.000 C 
BRANCH  17  18
ATOM     18  C   UNL     1       8.765 -37.740  13.297  1.00  0.00     0.000 C 
BRANCH  18  19
ATOM     19  C   UNL     1       7.337 -37.352  12.895  1.00  0.00     0.000 C 
BRANCH  19  20
ATOM     20  C   UNL     1       6.339 -37.694  14.014  1.00  0.00     0.006 C 
BRANCH  20  21
ATOM     21  C   UNL     1       6.009 -36.479  14.892  1.00  0.00     0.053 C 
BRANCH  21  22
ATOM     22  C   UNL     1       6.434 -36.682  16.314  1.00  0.00     0.041 C 
ATOM     23  O   UNL     1       7.018 -35.758  16.938  1.00  0.00    -0.550 OA
ATOM     24  O   UNL     1       6.218 -37.904  16.937  1.00  0.00    -0.550 OA
ENDBRANCH  21  22
ENDBRANCH  20  21
ENDBRANCH  19  20
ENDBRANCH  18  19
ENDBRANCH  17  18
ENDBRANCH  16  17
ENDBRANCH  15  16
ENDBRANCH  14  15
ENDBRANCH  13  14
ENDBRANCH   1  13
TORSDOF 20
ENDMDL
MODEL 5
REMARK VINA RESULT:    -0.872      2.815      7.670
REMARK INTER + INTRA:          -3.807
REMARK INTER:                  -2.290
REMARK INTRA:                  -1.517
REMARK UNBOUND:                -1.915
REMARK SMILES CCCCCCCCCCCCCCCCCCCCCC(=O)[O-]
REMARK SMILES IDX 12 1 11 2 10 3 9 4 8 5 7 6 6 7 5 8 4 9 3 10 2 11 1 12 13 13
REMARK SMILES IDX 14 14 15 15 16 16 17 17 18 18 19 19 20 20 21 21 22 22 23 23
REMARK SMILES IDX 24 24
REMARK H PARENT
REMARK Flexibility Score: inf
ROOT
ATOM      1  C   UNL     1       8.678 -33.325  17.254  1.00  0.00     0.000 C 
ENDROOT
BRANCH   1   2
ATOM      2  C   UNL     1       7.393 -33.772  17.969  1.00  0.00     0.000 C 
BRANCH   2   3
ATOM      3  C   UNL     1       6.500 -34.652  17.078  1.00  0.00     0.000 C 
BRANCH   3   4
ATOM      4  C   UNL     1       6.991 -36.106  16.994  1.00  0.00    -0.000 C 
BRANCH   4   5
ATOM      5  C   UNL     1       6.355 -36.883  15.828  1.00  0.00    -0.000 C 
BRANCH   5   6
ATOM      6  C   UNL     1       6.138 -36.014  14.577  1.00  0.00    -0.000 C 
BRANCH   6   7
ATOM      7  C   UNL     1       6.698 -36.604  13.267  1.00  0.00    -0.000 C 
BRANCH   7   8
ATOM      8  C   UNL     1       7.761 -37.702  13.480  1.00  0.00    -0.000 C 
BRANCH   8   9
ATOM      9  C   UNL     1       9.185 -37.193  13.191  1.00  0.00    -0.000 C 
BRANCH   9  10
ATOM     10  C   UNL     1       9.414 -35.752  13.682  1.00  0.00    -0.000 C 
BRANCH  10  11
ATOM     11  C   UNL     1      10.780 -35.156  13.297  1.00  0.00    -0.003 C 
ATOM     12  C   UNL     1      11.912 -36.185  13.322  1.00  0.00     0.004 C 
ENDBRANCH  10  11
ENDBRANCH   9  10
ENDBRANCH   8   9
ENDBRANCH   7   8
ENDBRANCH   6   7
ENDBRANCH   5   6
ENDBRANCH   4   5
ENDBRANCH   3   4
ENDBRANCH   2   3
ENDBRANCH   1   2
BRANCH   1  13
ATOM     13  C   UNL     1       8.687 -31.822  16.925  1.00  0.00     0.000 C 
BRANCH  13  14
ATOM     14  C   UNL     1      10.013 -31.146  17.333  1.00  0.00     0.000 C 
BRANCH  14  15
ATOM     15  C   UNL     1      11.045 -31.065  16.195  1.00  0.00     0.000 C 
BRANCH  15  16
ATOM     16  C   UNL     1      10.672 -31.938  14.985  1.00  0.00     0.000 C 
BRANCH  16  17
ATOM     17  C   UNL     1      11.491 -31.593  13.732  1.00  0.00     0.000 C 
BRANCH  17  18
ATOM     18  C   UNL     1      12.744 -30.766  14.058  1.00  0.00     0.000 C 
BRANCH  18  19
ATOM     19  C   UNL     1      13.946 -31.675  14.340  1.00  0.00     0.000 C 
BRANCH  19  20
ATOM     20  C   UNL     1      15.221 -30.847  14.564  1.00  0.00     0.006 C 
BRANCH  20  21
ATOM     21  C   UNL     1      16.320 -31.181  13.545  1.00  0.00     0.053 C 
BRANCH  21  22
ATOM     22  C   UNL     1      17.449 -31.945  14.166  1.00  0.00     0.041 C 
ATOM     23  O   UNL     1      18.540 -32.073  13.551  1.00  0.00    -0.550 OA
ATOM     24  O   UNL     1      17.283 -32.546  15.407  1.00  0.00    -0.550 OA
ENDBRANCH  21  22
ENDBRANCH  20  21
ENDBRANCH  19  20
ENDBRANCH  18  19
ENDBRANCH  17  18
ENDBRANCH  16  17
ENDBRANCH  15  16
ENDBRANCH  14  15
ENDBRANCH  13  14
ENDBRANCH   1  13
TORSDOF 20
ENDMDL
MODEL 6
REMARK VINA RESULT:    -0.846      2.792      8.027
REMARK INTER + INTRA:          -3.749
REMARK INTER:                  -1.628
REMARK INTRA:                  -2.121
REMARK UNBOUND:                -1.915
REMARK SMILES CCCCCCCCCCCCCCCCCCCCCC(=O)[O-]
REMARK SMILES IDX 12 1 11 2 10 3 9 4 8 5 7 6 6 7 5 8 4 9 3 10 2 11 1 12 13 13
REMARK SMILES IDX 14 14 15 15 16 16 17 17 18 18 19 19 20 20 21 21 22 22 23 23
REMARK SMILES IDX 24 24
REMARK H PARENT
REMARK Flexibility Score: inf
ROOT
ATOM      1  C   UNL     1       8.495 -33.003  17.981  1.00  0.00     0.000 C 
ENDROOT
BRANCH   1   2
ATOM      2  C   UNL     1       7.972 -34.199  17.172  1.00  0.00     0.000 C 
BRANCH   2   3
ATOM      3  C   UNL     1       6.439 -34.198  17.045  1.00  0.00     0.000 C 
BRANCH   3   4
ATOM      4  C   UNL     1       5.937 -33.289  15.912  1.00  0.00    -0.000 C 
BRANCH   4   5
ATOM      5  C   UNL     1       6.150 -33.904  14.517  1.00  0.00    -0.000 C 
BRANCH   5   6
ATOM      6  C   UNL     1       7.267 -33.208  13.720  1.00  0.00    -0.000 C 
BRANCH   6   7
ATOM      7  C   UNL     1       8.489 -34.092  13.400  1.00  0.00    -0.000 C 
BRANCH   7   8
ATOM      8  C   UNL     1       8.577 -35.371  14.258  1.00  0.00    -0.000 C 
BRANCH   8   9
ATOM      9  C   UNL     1       8.465 -36.649  13.406  1.00  0.00    -0.000 C 
BRANCH   9  10
ATOM     10  C   UNL     1       7.064 -37.286  13.470  1.00  0.00    -0.000 C 
BRANCH  10  11
ATOM     11  C   UNL     1       6.789 -38.095  14.751  1.00  0.00    -0.003 C 
ATOM     12  C   UNL     1       5.944 -37.331  15.772  1.00  0.00     0.004 C 
ENDBRANCH  10  11
ENDBRANCH   9  10
ENDBRANCH   8   9
ENDBRANCH   7   8
ENDBRANCH   6   7
ENDBRANCH   5   6
ENDBRANCH   4   5
ENDBRANCH   3   4
ENDBRANCH   2   3
ENDBRANCH   1   2
BRANCH   1  13
ATOM     13  C   UNL     1       8.754 -31.759  17.112  1.00  0.00     0.000 C 
BRANCH  13  14
ATOM     14  C   UNL     1      10.077 -31.057  17.482  1.00  0.00     0.000 C 
BRANCH  14  15
ATOM     15  C   UNL     1      11.091 -30.995  16.326  1.00  0.00     0.000 C 
BRANCH  15  16
ATOM     16  C   UNL     1      10.690 -31.876  15.131  1.00  0.00     0.000 C 
BRANCH  16  17
ATOM     17  C   UNL     1      11.610 -31.676  13.915  1.00  0.00     0.000 C 
BRANCH  17  18
ATOM     18  C   UNL     1      13.082 -31.499  14.315  1.00  0.00     0.000 C 
BRANCH  18  19
ATOM     19  C   UNL     1      13.708 -30.298  13.595  1.00  0.00     0.000 C 
BRANCH  19  20
ATOM     20  C   UNL     1      15.217 -30.215  13.874  1.00  0.00     0.006 C 
BRANCH  20  21
ATOM     21  C   UNL     1      15.736 -31.434  14.648  1.00  0.00     0.053 C 
BRANCH  21  22
ATOM     22  C   UNL     1      17.092 -31.862  14.180  1.00  0.00     0.041 C 
ATOM     23  O   UNL     1      17.384 -31.814  12.956  1.00  0.00    -0.550 OA
ATOM     24  O   UNL     1      18.022 -32.346  15.091  1.00  0.00    -0.550 OA
ENDBRANCH  21  22
ENDBRANCH  20  21
ENDBRANCH  19  20
ENDBRANCH  18  19
ENDBRANCH  17  18
ENDBRANCH  16  17
ENDBRANCH  15  16
ENDBRANCH  14  15
ENDBRANCH  13  14
ENDBRANCH   1  13
TORSDOF 20
ENDMDL
MODEL 7
REMARK VINA RESULT:    -0.767      2.986      8.377
REMARK INTER + INTRA:          -3.579
REMARK INTER:                  -1.990
REMARK INTRA:                  -1.589
REMARK UNBOUND:                -1.915
REMARK SMILES CCCCCCCCCCCCCCCCCCCCCC(=O)[O-]
REMARK SMILES IDX 12 1 11 2 10 3 9 4 8 5 7 6 6 7 5 8 4 9 3 10 2 11 1 12 13 13
REMARK SMILES IDX 14 14 15 15 16 16 17 17 18 18 19 19 20 20 21 21 22 22 23 23
REMARK SMILES IDX 24 24
REMARK H PARENT
REMARK Flexibility Score: inf
ROOT
ATOM      1  C   UNL     1       8.201 -33.684  17.163  1.00  0.00     0.000 C 
ENDROOT
BRANCH   1   2
ATOM      2  C   UNL     1       7.256 -32.528  16.798  1.00  0.00     0.000 C 
BRANCH   2   3
ATOM      3  C   UNL     1       5.875 -33.022  16.335  1.00  0.00     0.000 C 
BRANCH   3   4
ATOM      4  C   UNL     1       5.965 -34.141  15.285  1.00  0.00    -0.000 C 
BRANCH   4   5
ATOM      5  C   UNL     1       6.375 -33.621  13.895  1.00  0.00    -0.000 C 
BRANCH   5   6
ATOM      6  C   UNL     1       6.906 -34.732  12.973  1.00  0.00    -0.000 C 
BRANCH   6   7
ATOM      7  C   UNL     1       7.485 -35.963  13.699  1.00  0.00    -0.000 C 
BRANCH   7   8
ATOM      8  C   UNL     1       6.702 -37.267  13.440  1.00  0.00    -0.000 C 
BRANCH   8   9
ATOM      9  C   UNL     1       5.876 -37.700  14.664  1.00  0.00    -0.000 C 
BRANCH   9  10
ATOM     10  C   UNL     1       6.248 -36.921  15.939  1.00  0.00    -0.000 C 
BRANCH  10  11
ATOM     11  C   UNL     1       6.387 -37.792  17.202  1.00  0.00    -0.003 C 
ATOM     12  C   UNL     1       7.395 -37.233  18.207  1.00  0.00     0.004 C 
ENDBRANCH  10  11
ENDBRANCH   9  10
ENDBRANCH   8   9
ENDBRANCH   7   8
ENDBRANCH   6   7
ENDBRANCH   5   6
ENDBRANCH   4   5
ENDBRANCH   3   4
ENDBRANCH   2   3
ENDBRANCH   1   2
BRANCH   1  13
ATOM     13  C   UNL     1       9.256 -33.959  16.077  1.00  0.00     0.000 C 
BRANCH  13  14
ATOM     14  C   UNL     1       9.726 -32.664  15.382  1.00  0.00     0.000 C 
BRANCH  14  15
ATOM     15  C   UNL     1       9.959 -32.821  13.869  1.00  0.00     0.000 C 
BRANCH  15  16
ATOM     16  C   UNL     1      11.094 -31.926  13.343  1.00  0.00     0.000 C 
BRANCH  16  17
ATOM     17  C   UNL     1      12.165 -31.643  14.408  1.00  0.00     0.000 C 
BRANCH  17  18
ATOM     18  C   UNL     1      13.418 -30.977  13.819  1.00  0.00     0.000 C 
BRANCH  18  19
ATOM     19  C   UNL     1      14.646 -31.882  13.971  1.00  0.00     0.000 C 
BRANCH  19  20
ATOM     20  C   UNL     1      15.640 -31.297  14.986  1.00  0.00     0.006 C 
BRANCH  20  21
ATOM     21  C   UNL     1      16.898 -32.163  15.138  1.00  0.00     0.053 C 
BRANCH  21  22
ATOM     22  C   UNL     1      17.981 -31.752  14.189  1.00  0.00     0.041 C 
ATOM     23  O   UNL     1      19.187 -31.794  14.549  1.00  0.00    -0.550 OA
ATOM     24  O   UNL     1      17.657 -31.287  12.921  1.00  0.00    -0.550 OA
ENDBRANCH  21  22
ENDBRANCH  20  21
ENDBRANCH  19  20
ENDBRANCH  18  19
ENDBRANCH  17  18
ENDBRANCH  16  17
ENDBRANCH  15  16
ENDBRANCH  14  15
ENDBRANCH  13  14
ENDBRANCH   1  13
TORSDOF 20
ENDMDL
MODEL 8
REMARK VINA RESULT:    -0.728      1.879      4.018
REMARK INTER + INTRA:          -3.493
REMARK INTER:                  -2.078
REMARK INTRA:                  -1.415
REMARK UNBOUND:                -1.915
REMARK SMILES CCCCCCCCCCCCCCCCCCCCCC(=O)[O-]
REMARK SMILES IDX 12 1 11 2 10 3 9 4 8 5 7 6 6 7 5 8 4 9 3 10 2 11 1 12 13 13
REMARK SMILES IDX 14 14 15 15 16 16 17 17 18 18 19 19 20 20 21 21 22 22 23 23
REMARK SMILES IDX 24 24
REMARK H PARENT
REMARK Flexibility Score: inf
ROOT
ATOM      1  C   UNL     1       7.994 -33.182  18.858  1.00  0.00     0.000 C 
ENDROOT
BRANCH   1   2
ATOM      2  C   UNL     1       8.558 -32.199  17.821  1.00  0.00     0.000 C 
BRANCH   2   3
ATOM      3  C   UNL     1       9.706 -31.345  18.384  1.00  0.00     0.000 C 
BRANCH   3   4
ATOM      4  C   UNL     1      10.163 -30.246  17.412  1.00  0.00    -0.000 C 
BRANCH   4   5
ATOM      5  C   UNL     1      11.472 -30.601  16.685  1.00  0.00    -0.000 C 
BRANCH   5   6
ATOM      6  C   UNL     1      11.238 -31.330  15.351  1.00  0.00    -0.000 C 
BRANCH   6   7
ATOM      7  C   UNL     1      12.236 -30.978  14.229  1.00  0.00    -0.000 C 
BRANCH   7   8
ATOM      8  C   UNL     1      13.583 -31.722  14.336  1.00  0.00    -0.000 C 
BRANCH   8   9
ATOM      9  C   UNL     1      14.767 -30.844  13.891  1.00  0.00    -0.000 C 
BRANCH   9  10
ATOM     10  C   UNL     1      16.112 -31.320  14.469  1.00  0.00    -0.000 C 
BRANCH  10  11
ATOM     11  C   UNL     1      17.226 -31.507  13.423  1.00  0.00    -0.003 C 
ATOM     12  C   UNL     1      18.543 -31.996  14.030  1.00  0.00     0.004 C 
ENDBRANCH  10  11
ENDBRANCH   9  10
ENDBRANCH   8   9
ENDBRANCH   7   8
ENDBRANCH   6   7
ENDBRANCH   5   6
ENDBRANCH   4   5
ENDBRANCH   3   4
ENDBRANCH   2   3
ENDBRANCH   1   2
BRANCH   1  13
ATOM     13  C   UNL     1       7.360 -34.430  18.216  1.00  0.00     0.000 C 
BRANCH  13  14
ATOM     14  C   UNL     1       6.268 -34.064  17.189  1.00  0.00     0.000 C 
BRANCH  14  15
ATOM     15  C   UNL     1       6.260 -34.966  15.943  1.00  0.00     0.000 C 
BRANCH  15  16
ATOM     16  C   UNL     1       6.873 -36.352  16.204  1.00  0.00     0.000 C 
BRANCH  16  17
ATOM     17  C   UNL     1       6.019 -37.494  15.632  1.00  0.00     0.000 C 
BRANCH  17  18
ATOM     18  C   UNL     1       6.448 -37.895  14.213  1.00  0.00     0.000 C 
BRANCH  18  19
ATOM     19  C   UNL     1       7.879 -37.430  13.917  1.00  0.00     0.000 C 
BRANCH  19  20
ATOM     20  C   UNL     1       7.887 -36.301  12.875  1.00  0.00     0.006 C 
BRANCH  20  21
ATOM     21  C   UNL     1       9.200 -35.507  12.885  1.00  0.00     0.053 C 
BRANCH  21  22
ATOM     22  C   UNL     1       9.119 -34.297  13.763  1.00  0.00     0.041 C 
ATOM     23  O   UNL     1       9.426 -34.378  14.982  1.00  0.00    -0.550 OA
ATOM     24  O   UNL     1       8.670 -33.089  13.245  1.00  0.00    -0.550 OA
ENDBRANCH  21  22
ENDBRANCH  20  21
ENDBRANCH  19  20
ENDBRANCH  18  19
ENDBRANCH  17  18
ENDBRANCH  16  17
ENDBRANCH  15  16
ENDBRANCH  14  15
ENDBRANCH  13  14
ENDBRANCH   1  13
TORSDOF 20
ENDMDL
