MODEL 1
REMARK VINA RESULT:    -6.733      0.000      0.000
REMARK INTER + INTRA:          -6.930
REMARK INTER:                  -6.930
REMARK INTRA:                   0.000
REMARK UNBOUND:                 0.000
REMARK SMILES C=C1CCC[C@]2(C)C[C@]3(O)OC(=O)C(C)=C3C[C@H]12
REMARK SMILES IDX 15 1 14 2 16 3 17 4 18 5 2 6 1 7 3 8 4 9 5 10 6 11 8 12 9 13
REMARK SMILES IDX 11 14 12 15 13 16 7 17 10 18
REMARK H PARENT 10 19
REMARK Flexibility Score: inf
ROOT
ATOM      1  C   UNL     1       7.783  -3.720   1.792  1.00  0.00     0.052 C 
ATOM      2  C   UNL     1       8.003  -2.266   1.513  1.00  0.00     0.040 C 
ATOM      3  C   UNL     1       7.711  -1.626   0.382  1.00  0.00     0.012 C 
ATOM      4  C   UNL     1       7.172  -2.258  -0.866  1.00  0.00     0.047 C 
ATOM      5  C   UNL     1       7.150  -1.225  -2.013  1.00  0.00     0.025 C 
ATOM      6  C   UNL     1       6.677  -1.893  -3.295  1.00  0.00    -0.073 C 
ATOM      7  C   UNL     1       5.374  -1.897  -3.617  1.00  0.00     0.008 C 
ATOM      8  C   UNL     1       7.661  -2.691  -4.114  1.00  0.00     0.031 C 
ATOM      9  C   UNL     1       8.946  -1.895  -4.336  1.00  0.00     0.005 C 
ATOM     10  C   UNL     1       9.520  -1.377  -3.010  1.00  0.00     0.008 C 
ATOM     11  C   UNL     1       8.530  -0.479  -2.207  1.00  0.00    -0.019 C 
ATOM     12  C   UNL     1       9.217  -0.096  -0.836  1.00  0.00     0.092 C 
ATOM     13  C   UNL     1       8.294  -0.237   0.382  1.00  0.00     0.235 C 
ATOM     14  O   UNL     1       9.027  -0.182   1.607  1.00  0.00    -0.426 OA
ATOM     15  C   UNL     1       8.838  -1.370   2.287  1.00  0.00     0.336 C 
ATOM     16  O   UNL     1       9.357  -1.632   3.403  1.00  0.00    -0.246 OA
ATOM     17  C   UNL     1       8.270   0.834  -2.990  1.00  0.00     0.012 C 
ENDROOT
BRANCH  13  18
ATOM     18  O   UNL     1       7.291   0.746   0.365  1.00  0.00    -0.353 OA
ATOM     19  H   UNL     1       6.721   0.572  -0.430  1.00  0.00     0.215 HD
ENDBRANCH  13  18
TORSDOF 1
ENDMDL
MODEL 2
REMARK VINA RESULT:    -5.810      2.838      4.587
REMARK INTER + INTRA:          -5.980
REMARK INTER:                  -5.980
REMARK INTRA:                   0.000
REMARK UNBOUND:                 0.000
REMARK SMILES C=C1CCC[C@]2(C)C[C@]3(O)OC(=O)C(C)=C3C[C@H]12
REMARK SMILES IDX 15 1 14 2 16 3 17 4 18 5 2 6 1 7 3 8 4 9 5 10 6 11 8 12 9 13
REMARK SMILES IDX 11 14 12 15 13 16 7 17 10 18
REMARK H PARENT 10 19
REMARK Flexibility Score: inf
ROOT
ATOM      1  C   UNL     1       7.882   2.762  -0.353  1.00  0.00     0.052 C 
ATOM      2  C   UNL     1       8.017   1.890  -1.562  1.00  0.00     0.040 C 
ATOM      3  C   UNL     1       7.847   0.570  -1.605  1.00  0.00     0.012 C 
ATOM      4  C   UNL     1       7.561  -0.314  -0.429  1.00  0.00     0.047 C 
ATOM      5  C   UNL     1       7.626  -1.797  -0.855  1.00  0.00     0.025 C 
ATOM      6  C   UNL     1       7.413  -2.688   0.358  1.00  0.00    -0.073 C 
ATOM      7  C   UNL     1       6.179  -3.102   0.688  1.00  0.00     0.008 C 
ATOM      8  C   UNL     1       8.575  -2.965   1.280  1.00  0.00     0.031 C 
ATOM      9  C   UNL     1       9.806  -3.389   0.480  1.00  0.00     0.005 C 
ATOM     10  C   UNL     1      10.125  -2.382  -0.633  1.00  0.00     0.008 C 
ATOM     11  C   UNL     1       8.950  -2.164  -1.636  1.00  0.00    -0.019 C 
ATOM     12  C   UNL     1       9.384  -1.045  -2.665  1.00  0.00     0.092 C 
ATOM     13  C   UNL     1       8.302   0.011  -2.928  1.00  0.00     0.235 C 
ATOM     14  O   UNL     1       8.832   1.150  -3.608  1.00  0.00    -0.426 OA
ATOM     15  C   UNL     1       8.644   2.264  -2.813  1.00  0.00     0.336 C 
ATOM     16  O   UNL     1       9.008   3.426  -3.133  1.00  0.00    -0.246 OA
ATOM     17  C   UNL     1       8.700  -3.470  -2.434  1.00  0.00     0.012 C 
ENDROOT
BRANCH  13  18
ATOM     18  O   UNL     1       7.233  -0.541  -3.653  1.00  0.00    -0.353 OA
ATOM     19  H   UNL     1       6.536   0.163  -3.733  1.00  0.00     0.215 HD
ENDBRANCH  13  18
TORSDOF 1
ENDMDL
MODEL 3
REMARK VINA RESULT:    -5.791      2.518      5.180
REMARK INTER + INTRA:          -5.961
REMARK INTER:                  -5.961
REMARK INTRA:                   0.000
REMARK UNBOUND:                 0.000
REMARK SMILES C=C1CCC[C@]2(C)C[C@]3(O)OC(=O)C(C)=C3C[C@H]12
REMARK SMILES IDX 15 1 14 2 16 3 17 4 18 5 2 6 1 7 3 8 4 9 5 10 6 11 8 12 9 13
REMARK SMILES IDX 11 14 12 15 13 16 7 17 10 18
REMARK H PARENT 10 19
REMARK Flexibility Score: inf
ROOT
ATOM      1  C   UNL     1       8.469  -3.244  -4.969  1.00  0.00     0.052 C 
ATOM      2  C   UNL     1       8.715  -1.870  -4.432  1.00  0.00     0.040 C 
ATOM      3  C   UNL     1       8.909  -1.545  -3.155  1.00  0.00     0.012 C 
ATOM      4  C   UNL     1       8.842  -2.489  -1.992  1.00  0.00     0.047 C 
ATOM      5  C   UNL     1       8.929  -1.702  -0.667  1.00  0.00     0.025 C 
ATOM      6  C   UNL     1       8.781  -2.657   0.507  1.00  0.00    -0.073 C 
ATOM      7  C   UNL     1       9.865  -3.218   1.066  1.00  0.00     0.008 C 
ATOM      8  C   UNL     1       7.400  -3.095   0.928  1.00  0.00     0.031 C 
ATOM      9  C   UNL     1       6.472  -1.889   1.065  1.00  0.00     0.005 C 
ATOM     10  C   UNL     1       6.487  -1.025  -0.204  1.00  0.00     0.008 C 
ATOM     11  C   UNL     1       7.905  -0.500  -0.587  1.00  0.00    -0.019 C 
ATOM     12  C   UNL     1       7.783   0.292  -1.950  1.00  0.00     0.092 C 
ATOM     13  C   UNL     1       8.880  -0.051  -2.968  1.00  0.00     0.235 C 
ATOM     14  O   UNL     1       8.562   0.443  -4.270  1.00  0.00    -0.426 OA
ATOM     15  C   UNL     1       8.487  -0.628  -5.141  1.00  0.00     0.336 C 
ATOM     16  O   UNL     1       8.219  -0.520  -6.366  1.00  0.00    -0.246 OA
ATOM     17  C   UNL     1       8.401   0.493   0.496  1.00  0.00     0.012 C 
ENDROOT
BRANCH  13  18
ATOM     18  O   UNL     1      10.125   0.444  -2.545  1.00  0.00    -0.353 OA
ATOM     19  H   UNL     1      10.638   0.687  -3.361  1.00  0.00     0.215 HD
ENDBRANCH  13  18
TORSDOF 1
ENDMDL
MODEL 4
REMARK VINA RESULT:    -5.728      1.488      2.109
REMARK INTER + INTRA:          -5.896
REMARK INTER:                  -5.896
REMARK INTRA:                   0.000
REMARK UNBOUND:                 0.000
REMARK SMILES C=C1CCC[C@]2(C)C[C@]3(O)OC(=O)C(C)=C3C[C@H]12
REMARK SMILES IDX 15 1 14 2 16 3 17 4 18 5 2 6 1 7 3 8 4 9 5 10 6 11 8 12 9 13
REMARK SMILES IDX 11 14 12 15 13 16 7 17 10 18
REMARK H PARENT 10 19
REMARK Flexibility Score: inf
ROOT
ATOM      1  C   UNL     1       6.311  -2.008   0.578  1.00  0.00     0.052 C 
ATOM      2  C   UNL     1       7.220  -1.016  -0.078  1.00  0.00     0.040 C 
ATOM      3  C   UNL     1       7.475  -0.923  -1.382  1.00  0.00     0.012 C 
ATOM      4  C   UNL     1       6.959  -1.848  -2.443  1.00  0.00     0.047 C 
ATOM      5  C   UNL     1       7.632  -1.528  -3.795  1.00  0.00     0.025 C 
ATOM      6  C   UNL     1       7.162  -2.519  -4.849  1.00  0.00    -0.073 C 
ATOM      7  C   UNL     1       6.090  -2.245  -5.608  1.00  0.00     0.008 C 
ATOM      8  C   UNL     1       7.810  -3.880  -4.917  1.00  0.00     0.031 C 
ATOM      9  C   UNL     1       9.333  -3.752  -4.905  1.00  0.00     0.005 C 
ATOM     10  C   UNL     1       9.813  -2.896  -3.725  1.00  0.00     0.008 C 
ATOM     11  C   UNL     1       9.208  -1.458  -3.707  1.00  0.00    -0.019 C 
ATOM     12  C   UNL     1       9.716  -0.729  -2.399  1.00  0.00     0.092 C 
ATOM     13  C   UNL     1       8.615   0.027  -1.641  1.00  0.00     0.235 C 
ATOM     14  O   UNL     1       9.042   0.403  -0.332  1.00  0.00    -0.426 OA
ATOM     15  C   UNL     1       8.205  -0.193   0.593  1.00  0.00     0.336 C 
ATOM     16  O   UNL     1       8.322  -0.058   1.838  1.00  0.00    -0.246 OA
ATOM     17  C   UNL     1       9.732  -0.660  -4.929  1.00  0.00     0.012 C 
ENDROOT
BRANCH  13  18
ATOM     18  O   UNL     1       8.196   1.155  -2.365  1.00  0.00    -0.353 OA
ATOM     19  H   UNL     1       8.986   1.748  -2.470  1.00  0.00     0.215 HD
ENDBRANCH  13  18
TORSDOF 1
ENDMDL
MODEL 5
REMARK VINA RESULT:    -5.583     11.380     12.960
REMARK INTER + INTRA:          -5.747
REMARK INTER:                  -5.747
REMARK INTRA:                   0.000
REMARK UNBOUND:                 0.000
REMARK SMILES C=C1CCC[C@]2(C)C[C@]3(O)OC(=O)C(C)=C3C[C@H]12
REMARK SMILES IDX 15 1 14 2 16 3 17 4 18 5 2 6 1 7 3 8 4 9 5 10 6 11 8 12 9 13
REMARK SMILES IDX 11 14 12 15 13 16 7 17 10 18
REMARK H PARENT 10 19
REMARK Flexibility Score: inf
ROOT
ATOM      1  C   UNL     1      -3.219  -5.053   4.318  1.00  0.00     0.052 C 
ATOM      2  C   UNL     1      -1.890  -4.787   4.953  1.00  0.00     0.040 C 
ATOM      3  C   UNL     1      -0.965  -5.695   5.256  1.00  0.00     0.012 C 
ATOM      4  C   UNL     1      -1.107  -7.178   5.090  1.00  0.00     0.047 C 
ATOM      5  C   UNL     1       0.097  -7.899   5.733  1.00  0.00     0.025 C 
ATOM      6  C   UNL     1      -0.092  -9.405   5.630  1.00  0.00    -0.073 C 
ATOM      7  C   UNL     1       0.394 -10.079   4.576  1.00  0.00     0.008 C 
ATOM      8  C   UNL     1      -0.971 -10.105   6.636  1.00  0.00     0.031 C 
ATOM      9  C   UNL     1      -0.605  -9.681   8.058  1.00  0.00     0.005 C 
ATOM     10  C   UNL     1      -0.596  -8.153   8.201  1.00  0.00     0.008 C 
ATOM     11  C   UNL     1       0.381  -7.438   7.218  1.00  0.00    -0.019 C 
ATOM     12  C   UNL     1       0.220  -5.877   7.415  1.00  0.00     0.092 C 
ATOM     13  C   UNL     1       0.127  -5.091   6.100  1.00  0.00     0.235 C 
ATOM     14  O   UNL     1      -0.319  -3.752   6.317  1.00  0.00    -0.426 OA
ATOM     15  C   UNL     1      -1.499  -3.564   5.622  1.00  0.00     0.336 C 
ATOM     16  O   UNL     1      -2.147  -2.484   5.615  1.00  0.00    -0.246 OA
ATOM     17  C   UNL     1       1.843  -7.812   7.575  1.00  0.00     0.012 C 
ENDROOT
BRANCH  13  18
ATOM     18  O   UNL     1       1.362  -5.094   5.430  1.00  0.00    -0.353 OA
ATOM     19  H   UNL     1       1.410  -4.258   4.896  1.00  0.00     0.215 HD
ENDBRANCH  13  18
TORSDOF 1
ENDMDL
MODEL 6
REMARK VINA RESULT:    -5.560     10.910     12.834
REMARK INTER + INTRA:          -5.722
REMARK INTER:                  -5.722
REMARK INTRA:                   0.000
REMARK UNBOUND:                 0.000
REMARK SMILES C=C1CCC[C@]2(C)C[C@]3(O)OC(=O)C(C)=C3C[C@H]12
REMARK SMILES IDX 15 1 14 2 16 3 17 4 18 5 2 6 1 7 3 8 4 9 5 10 6 11 8 12 9 13
REMARK SMILES IDX 11 14 12 15 13 16 7 17 10 18
REMARK H PARENT 10 19
REMARK Flexibility Score: inf
ROOT
ATOM      1  C   UNL     1      -3.772  -9.090  -2.375  1.00  0.00     0.052 C 
ATOM      2  C   UNL     1      -2.805  -7.986  -2.669  1.00  0.00     0.040 C 
ATOM      3  C   UNL     1      -2.725  -6.818  -2.034  1.00  0.00     0.012 C 
ATOM      4  C   UNL     1      -3.644  -6.349  -0.946  1.00  0.00     0.047 C 
ATOM      5  C   UNL     1      -3.347  -4.873  -0.605  1.00  0.00     0.025 C 
ATOM      6  C   UNL     1      -4.333  -4.381   0.443  1.00  0.00    -0.073 C 
ATOM      7  C   UNL     1      -4.039  -4.476   1.750  1.00  0.00     0.008 C 
ATOM      8  C   UNL     1      -5.709  -3.941   0.008  1.00  0.00     0.031 C 
ATOM      9  C   UNL     1      -5.616  -2.975  -1.173  1.00  0.00     0.005 C 
ATOM     10  C   UNL     1      -4.764  -3.561  -2.309  1.00  0.00     0.008 C 
ATOM     11  C   UNL     1      -3.313  -3.933  -1.875  1.00  0.00    -0.019 C 
ATOM     12  C   UNL     1      -2.588  -4.601  -3.112  1.00  0.00     0.092 C 
ATOM     13  C   UNL     1      -1.803  -5.873  -2.759  1.00  0.00     0.235 C 
ATOM     14  O   UNL     1      -1.429  -6.601  -3.929  1.00  0.00    -0.426 OA
ATOM     15  C   UNL     1      -2.002  -7.858  -3.867  1.00  0.00     0.336 C 
ATOM     16  O   UNL     1      -1.862  -8.739  -4.755  1.00  0.00    -0.246 OA
ATOM     17  C   UNL     1      -2.534  -2.644  -1.509  1.00  0.00     0.012 C 
ENDROOT
BRANCH  13  18
ATOM     18  O   UNL     1      -0.670  -5.562  -1.990  1.00  0.00    -0.353 OA
ATOM     19  H   UNL     1      -0.771  -4.623  -1.683  1.00  0.00     0.215 HD
ENDBRANCH  13  18
TORSDOF 1
ENDMDL
MODEL 7
REMARK VINA RESULT:    -5.515      9.940     11.998
REMARK INTER + INTRA:          -5.676
REMARK INTER:                  -5.676
REMARK INTRA:                   0.000
REMARK UNBOUND:                 0.000
REMARK SMILES C=C1CCC[C@]2(C)C[C@]3(O)OC(=O)C(C)=C3C[C@H]12
REMARK SMILES IDX 15 1 14 2 16 3 17 4 18 5 2 6 1 7 3 8 4 9 5 10 6 11 8 12 9 13
REMARK SMILES IDX 11 14 12 15 13 16 7 17 10 18
REMARK H PARENT 10 19
REMARK Flexibility Score: inf
ROOT
ATOM      1  C   UNL     1      -1.527  -8.515  -5.237  1.00  0.00     0.052 C 
ATOM      2  C   UNL     1      -0.866  -7.254  -4.776  1.00  0.00     0.040 C 
ATOM      3  C   UNL     1      -1.129  -6.591  -3.651  1.00  0.00     0.012 C 
ATOM      4  C   UNL     1      -2.199  -6.939  -2.660  1.00  0.00     0.047 C 
ATOM      5  C   UNL     1      -2.317  -5.826  -1.597  1.00  0.00     0.025 C 
ATOM      6  C   UNL     1      -3.455  -6.148  -0.642  1.00  0.00    -0.073 C 
ATOM      7  C   UNL     1      -3.222  -6.843   0.483  1.00  0.00     0.008 C 
ATOM      8  C   UNL     1      -4.871  -5.824  -1.051  1.00  0.00     0.031 C 
ATOM      9  C   UNL     1      -4.965  -4.391  -1.574  1.00  0.00     0.005 C 
ATOM     10  C   UNL     1      -3.927  -4.128  -2.675  1.00  0.00     0.008 C 
ATOM     11  C   UNL     1      -2.456  -4.380  -2.221  1.00  0.00    -0.019 C 
ATOM     12  C   UNL     1      -1.513  -4.159  -3.470  1.00  0.00     0.092 C 
ATOM     13  C   UNL     1      -0.446  -5.249  -3.644  1.00  0.00     0.235 C 
ATOM     14  O   UNL     1       0.171  -5.180  -4.930  1.00  0.00    -0.426 OA
ATOM     15  C   UNL     1      -0.057  -6.373  -5.591  1.00  0.00     0.336 C 
ATOM     16  O   UNL     1       0.358  -6.623  -6.753  1.00  0.00    -0.246 OA
ATOM     17  C   UNL     1      -2.062  -3.341  -1.139  1.00  0.00     0.012 C 
ENDROOT
BRANCH  13  18
ATOM     18  O   UNL     1       0.522  -5.165  -2.630  1.00  0.00    -0.353 OA
ATOM     19  H   UNL     1       0.049  -5.265  -1.762  1.00  0.00     0.215 HD
ENDBRANCH  13  18
TORSDOF 1
ENDMDL
MODEL 8
REMARK VINA RESULT:    -5.335     10.351     12.257
REMARK INTER + INTRA:          -5.491
REMARK INTER:                  -5.491
REMARK INTRA:                   0.000
REMARK UNBOUND:                 0.000
REMARK SMILES C=C1CCC[C@]2(C)C[C@]3(O)OC(=O)C(C)=C3C[C@H]12
REMARK SMILES IDX 15 1 14 2 16 3 17 4 18 5 2 6 1 7 3 8 4 9 5 10 6 11 8 12 9 13
REMARK SMILES IDX 11 14 12 15 13 16 7 17 10 18
REMARK H PARENT 10 19
REMARK Flexibility Score: inf
ROOT
ATOM      1  C   UNL     1      -5.263  -6.361   0.164  1.00  0.00     0.052 C 
ATOM      2  C   UNL     1      -4.984  -5.342  -0.896  1.00  0.00     0.040 C 
ATOM      3  C   UNL     1      -4.183  -5.498  -1.948  1.00  0.00     0.012 C 
ATOM      4  C   UNL     1      -3.340  -6.704  -2.235  1.00  0.00     0.047 C 
ATOM      5  C   UNL     1      -2.409  -6.425  -3.435  1.00  0.00     0.025 C 
ATOM      6  C   UNL     1      -1.503  -7.623  -3.670  1.00  0.00    -0.073 C 
ATOM      7  C   UNL     1      -1.874  -8.600  -4.513  1.00  0.00     0.008 C 
ATOM      8  C   UNL     1      -0.264  -7.785  -2.824  1.00  0.00     0.031 C 
ATOM      9  C   UNL     1       0.530  -6.481  -2.778  1.00  0.00     0.005 C 
ATOM     10  C   UNL     1      -0.356  -5.300  -2.359  1.00  0.00     0.008 C 
ATOM     11  C   UNL     1      -1.590  -5.081  -3.289  1.00  0.00    -0.019 C 
ATOM     12  C   UNL     1      -2.453  -3.900  -2.689  1.00  0.00     0.092 C 
ATOM     13  C   UNL     1      -3.960  -4.187  -2.656  1.00  0.00     0.235 C 
ATOM     14  O   UNL     1      -4.657  -3.244  -1.840  1.00  0.00    -0.426 OA
ATOM     15  C   UNL     1      -5.282  -3.928  -0.813  1.00  0.00     0.336 C 
ATOM     16  O   UNL     1      -5.975  -3.375   0.080  1.00  0.00    -0.246 OA
ATOM     17  C   UNL     1      -1.107  -4.648  -4.697  1.00  0.00     0.012 C 
ENDROOT
BRANCH  13  18
ATOM     18  O   UNL     1      -4.494  -4.202  -3.955  1.00  0.00    -0.353 OA
ATOM     19  H   UNL     1      -5.384  -4.640  -3.903  1.00  0.00     0.215 HD
ENDBRANCH  13  18
TORSDOF 1
ENDMDL
