MODEL 1
REMARK VINA RESULT:    -4.176      0.000      0.000
REMARK INTER + INTRA:          -6.544
REMARK INTER:                  -5.884
REMARK INTRA:                  -0.660
REMARK UNBOUND:                -0.660
REMARK SMILES CCCCCCCCC(=O)[O-]
REMARK SMILES IDX 6 1 7 2 8 3 9 4 10 5 11 6 5 7 4 8 3 9 2 10 1 11
REMARK H PARENT
REMARK Flexibility Score: inf
ROOT
ATOM      1  C   UNL     1       7.584  -5.910  31.159  1.00  0.00     0.000 C 
ENDROOT
BRANCH   1   2
ATOM      2  C   UNL     1       7.818  -5.566  29.675  1.00  0.00     0.006 C 
BRANCH   2   3
ATOM      3  C   UNL     1       8.893  -6.435  28.994  1.00  0.00     0.053 C 
BRANCH   3   4
ATOM      4  C   UNL     1       8.340  -7.248  27.863  1.00  0.00     0.041 C 
ATOM      5  O   UNL     1       7.288  -6.884  27.274  1.00  0.00    -0.550 OA
ATOM      6  O   UNL     1       8.967  -8.428  27.482  1.00  0.00    -0.550 OA
ENDBRANCH   3   4
ENDBRANCH   2   3
ENDBRANCH   1   2
BRANCH   1   7
ATOM      7  C   UNL     1       6.137  -5.736  31.657  1.00  0.00     0.000 C 
BRANCH   7   8
ATOM      8  C   UNL     1       5.377  -7.046  31.936  1.00  0.00    -0.000 C 
BRANCH   8   9
ATOM      9  C   UNL     1       5.987  -8.256  31.216  1.00  0.00    -0.000 C 
BRANCH   9  10
ATOM     10  C   UNL     1       5.255  -8.537  29.899  1.00  0.00    -0.003 C 
ATOM     11  C   UNL     1       5.871  -9.725  29.167  1.00  0.00     0.004 C 
ENDBRANCH   9  10
ENDBRANCH   8   9
ENDBRANCH   7   8
ENDBRANCH   1   7
TORSDOF 7
ENDMDL
MODEL 2
REMARK VINA RESULT:    -4.020      2.471      4.533
REMARK INTER + INTRA:          -6.325
REMARK INTER:                  -5.513
REMARK INTRA:                  -0.812
REMARK UNBOUND:                -0.660
REMARK SMILES CCCCCCCCC(=O)[O-]
REMARK SMILES IDX 6 1 7 2 8 3 9 4 10 5 11 6 5 7 4 8 3 9 2 10 1 11
REMARK H PARENT
REMARK Flexibility Score: inf
ROOT
ATOM      1  C   UNL     1       5.480  -8.267  29.976  1.00  0.00     0.000 C 
ENDROOT
BRANCH   1   2
ATOM      2  C   UNL     1       6.160  -7.862  31.298  1.00  0.00     0.006 C 
BRANCH   2   3
ATOM      3  C   UNL     1       6.112  -6.350  31.587  1.00  0.00     0.053 C 
BRANCH   3   4
ATOM      4  C   UNL     1       7.422  -5.821  32.088  1.00  0.00     0.041 C 
ATOM      5  O   UNL     1       8.495  -6.424  31.821  1.00  0.00    -0.550 OA
ATOM      6  O   UNL     1       7.455  -4.679  32.880  1.00  0.00    -0.550 OA
ENDBRANCH   3   4
ENDBRANCH   2   3
ENDBRANCH   1   2
BRANCH   1   7
ATOM      7  C   UNL     1       6.436  -8.581  28.810  1.00  0.00     0.000 C 
BRANCH   7   8
ATOM      8  C   UNL     1       7.010  -7.350  28.083  1.00  0.00    -0.000 C 
BRANCH   8   9
ATOM      9  C   UNL     1       8.506  -7.139  28.356  1.00  0.00    -0.000 C 
BRANCH   9  10
ATOM     10  C   UNL     1       8.851  -5.646  28.397  1.00  0.00    -0.003 C 
ATOM     11  C   UNL     1       7.591  -4.790  28.488  1.00  0.00     0.004 C 
ENDBRANCH   9  10
ENDBRANCH   8   9
ENDBRANCH   7   8
ENDBRANCH   1   7
TORSDOF 7
ENDMDL
MODEL 3
REMARK VINA RESULT:    -4.006     13.578     16.044
REMARK INTER + INTRA:          -6.305
REMARK INTER:                  -5.556
REMARK INTRA:                  -0.749
REMARK UNBOUND:                -0.660
REMARK SMILES CCCCCCCCC(=O)[O-]
REMARK SMILES IDX 6 1 7 2 8 3 9 4 10 5 11 6 5 7 4 8 3 9 2 10 1 11
REMARK H PARENT
REMARK Flexibility Score: inf
ROOT
ATOM      1  C   UNL     1      15.511  -8.986  16.633  1.00  0.00     0.000 C 
ENDROOT
BRANCH   1   2
ATOM      2  C   UNL     1      14.786  -8.205  17.746  1.00  0.00     0.006 C 
BRANCH   2   3
ATOM      3  C   UNL     1      13.886  -7.068  17.227  1.00  0.00     0.053 C 
BRANCH   3   4
ATOM      4  C   UNL     1      12.431  -7.420  17.280  1.00  0.00     0.041 C 
ATOM      5  O   UNL     1      11.620  -6.896  16.471  1.00  0.00    -0.550 OA
ATOM      6  O   UNL     1      11.962  -8.302  18.246  1.00  0.00    -0.550 OA
ENDBRANCH   3   4
ENDBRANCH   2   3
ENDBRANCH   1   2
BRANCH   1   7
ATOM      7  C   UNL     1      14.621  -9.926  15.799  1.00  0.00     0.000 C 
BRANCH   7   8
ATOM      8  C   UNL     1      14.309  -9.439  14.371  1.00  0.00    -0.000 C 
BRANCH   8   9
ATOM      9  C   UNL     1      15.527  -8.822  13.670  1.00  0.00    -0.000 C 
BRANCH   9  10
ATOM     10  C   UNL     1      15.236  -7.383  13.230  1.00  0.00    -0.003 C 
ATOM     11  C   UNL     1      13.791  -6.996  13.526  1.00  0.00     0.004 C 
ENDBRANCH   9  10
ENDBRANCH   8   9
ENDBRANCH   7   8
ENDBRANCH   1   7
TORSDOF 7
ENDMDL
MODEL 4
REMARK VINA RESULT:    -4.003      1.942      3.470
REMARK INTER + INTRA:          -6.301
REMARK INTER:                  -5.532
REMARK INTRA:                  -0.768
REMARK UNBOUND:                -0.660
REMARK SMILES CCCCCCCCC(=O)[O-]
REMARK SMILES IDX 6 1 7 2 8 3 9 4 10 5 11 6 5 7 4 8 3 9 2 10 1 11
REMARK H PARENT
REMARK Flexibility Score: inf
ROOT
ATOM      1  C   UNL     1       5.035  -7.550  28.990  1.00  0.00     0.000 C 
ENDROOT
BRANCH   1   2
ATOM      2  C   UNL     1       6.188  -6.743  28.361  1.00  0.00     0.006 C 
BRANCH   2   3
ATOM      3  C   UNL     1       5.988  -5.217  28.421  1.00  0.00     0.053 C 
BRANCH   3   4
ATOM      4  C   UNL     1       7.194  -4.463  27.949  1.00  0.00     0.041 C 
ATOM      5  O   UNL     1       8.350  -4.850  28.265  1.00  0.00    -0.550 OA
ATOM      6  O   UNL     1       7.041  -3.310  27.188  1.00  0.00    -0.550 OA
ENDBRANCH   3   4
ENDBRANCH   2   3
ENDBRANCH   1   2
BRANCH   1   7
ATOM      7  C   UNL     1       5.444  -8.523  30.111  1.00  0.00     0.000 C 
BRANCH   7   8
ATOM      8  C   UNL     1       6.165  -7.877  31.309  1.00  0.00    -0.000 C 
BRANCH   8   9
ATOM      9  C   UNL     1       5.286  -6.868  32.063  1.00  0.00    -0.000 C 
BRANCH   9  10
ATOM     10  C   UNL     1       6.057  -5.574  32.347  1.00  0.00    -0.003 C 
ATOM     11  C   UNL     1       7.496  -5.667  31.848  1.00  0.00     0.004 C 
ENDBRANCH   9  10
ENDBRANCH   8   9
ENDBRANCH   7   8
ENDBRANCH   1   7
TORSDOF 7
ENDMDL
MODEL 5
REMARK VINA RESULT:    -4.000      1.730      3.622
REMARK INTER + INTRA:          -6.296
REMARK INTER:                  -5.691
REMARK INTRA:                  -0.605
REMARK UNBOUND:                -0.660
REMARK SMILES CCCCCCCCC(=O)[O-]
REMARK SMILES IDX 6 1 7 2 8 3 9 4 10 5 11 6 5 7 4 8 3 9 2 10 1 11
REMARK H PARENT
REMARK Flexibility Score: inf
ROOT
ATOM      1  C   UNL     1       5.995  -5.726  31.791  1.00  0.00     0.000 C 
ENDROOT
BRANCH   1   2
ATOM      2  C   UNL     1       5.319  -7.105  31.921  1.00  0.00     0.006 C 
BRANCH   2   3
ATOM      3  C   UNL     1       6.056  -8.235  31.177  1.00  0.00     0.053 C 
BRANCH   3   4
ATOM      4  C   UNL     1       5.370  -8.625  29.904  1.00  0.00     0.041 C 
ATOM      5  O   UNL     1       4.529  -7.853  29.373  1.00  0.00    -0.550 OA
ATOM      6  O   UNL     1       5.633  -9.859  29.321  1.00  0.00    -0.550 OA
ENDBRANCH   3   4
ENDBRANCH   2   3
ENDBRANCH   1   2
BRANCH   1   7
ATOM      7  C   UNL     1       7.246  -5.685  30.893  1.00  0.00     0.000 C 
BRANCH   7   8
ATOM      8  C   UNL     1       7.001  -5.212  29.448  1.00  0.00    -0.000 C 
BRANCH   8   9
ATOM      9  C   UNL     1       8.273  -5.229  28.589  1.00  0.00    -0.000 C 
BRANCH   9  10
ATOM     10  C   UNL     1       9.028  -6.553  28.753  1.00  0.00    -0.003 C 
ATOM     11  C   UNL     1       8.421  -7.647  27.880  1.00  0.00     0.004 C 
ENDBRANCH   9  10
ENDBRANCH   8   9
ENDBRANCH   7   8
ENDBRANCH   1   7
TORSDOF 7
ENDMDL
MODEL 6
REMARK VINA RESULT:    -3.993     13.919     16.485
REMARK INTER + INTRA:          -6.287
REMARK INTER:                  -5.667
REMARK INTRA:                  -0.621
REMARK UNBOUND:                -0.660
REMARK SMILES CCCCCCCCC(=O)[O-]
REMARK SMILES IDX 6 1 7 2 8 3 9 4 10 5 11 6 5 7 4 8 3 9 2 10 1 11
REMARK H PARENT
REMARK Flexibility Score: inf
ROOT
ATOM      1  C   UNL     1      13.548  -6.653  15.384  1.00  0.00     0.000 C 
ENDROOT
BRANCH   1   2
ATOM      2  C   UNL     1      13.897  -7.588  16.558  1.00  0.00     0.006 C 
BRANCH   2   3
ATOM      3  C   UNL     1      15.222  -7.239  17.263  1.00  0.00     0.053 C 
BRANCH   3   4
ATOM      4  C   UNL     1      15.018  -6.379  18.473  1.00  0.00     0.041 C 
ATOM      5  O   UNL     1      14.656  -5.180  18.347  1.00  0.00    -0.550 OA
ATOM      6  O   UNL     1      15.263  -6.893  19.741  1.00  0.00    -0.550 OA
ENDBRANCH   3   4
ENDBRANCH   2   3
ENDBRANCH   1   2
BRANCH   1   7
ATOM      7  C   UNL     1      13.260  -7.355  14.044  1.00  0.00     0.000 C 
BRANCH   7   8
ATOM      8  C   UNL     1      14.255  -7.039  12.911  1.00  0.00    -0.000 C 
BRANCH   8   9
ATOM      9  C   UNL     1      15.693  -7.461  13.243  1.00  0.00    -0.000 C 
BRANCH   9  10
ATOM     10  C   UNL     1      15.886  -8.967  13.033  1.00  0.00    -0.003 C 
ATOM     11  C   UNL     1      15.948  -9.708  14.365  1.00  0.00     0.004 C 
ENDBRANCH   9  10
ENDBRANCH   8   9
ENDBRANCH   7   8
ENDBRANCH   1   7
TORSDOF 7
ENDMDL
MODEL 7
REMARK VINA RESULT:    -3.972     13.731     16.091
REMARK INTER + INTRA:          -6.258
REMARK INTER:                  -5.563
REMARK INTRA:                  -0.694
REMARK UNBOUND:                -0.660
REMARK SMILES CCCCCCCCC(=O)[O-]
REMARK SMILES IDX 6 1 7 2 8 3 9 4 10 5 11 6 5 7 4 8 3 9 2 10 1 11
REMARK H PARENT
REMARK Flexibility Score: inf
ROOT
ATOM      1  C   UNL     1      14.191  -8.918  16.931  1.00  0.00     0.000 C 
ENDROOT
BRANCH   1   2
ATOM      2  C   UNL     1      15.089  -7.669  17.012  1.00  0.00     0.006 C 
BRANCH   2   3
ATOM      3  C   UNL     1      14.312  -6.350  17.180  1.00  0.00     0.053 C 
BRANCH   3   4
ATOM      4  C   UNL     1      14.637  -5.653  18.466  1.00  0.00     0.041 C 
ATOM      5  O   UNL     1      14.627  -4.395  18.526  1.00  0.00    -0.550 OA
ATOM      6  O   UNL     1      14.986  -6.391  19.589  1.00  0.00    -0.550 OA
ENDBRANCH   3   4
ENDBRANCH   2   3
ENDBRANCH   1   2
BRANCH   1   7
ATOM      7  C   UNL     1      14.539  -9.911  15.807  1.00  0.00     0.000 C 
BRANCH   7   8
ATOM      8  C   UNL     1      14.239  -9.418  14.379  1.00  0.00    -0.000 C 
BRANCH   8   9
ATOM      9  C   UNL     1      15.498  -8.971  13.623  1.00  0.00    -0.000 C 
BRANCH   9  10
ATOM     10  C   UNL     1      15.415  -7.487  13.248  1.00  0.00    -0.003 C 
ATOM     11  C   UNL     1      13.989  -6.962  13.380  1.00  0.00     0.004 C 
ENDBRANCH   9  10
ENDBRANCH   8   9
ENDBRANCH   7   8
ENDBRANCH   1   7
TORSDOF 7
ENDMDL
MODEL 8
REMARK VINA RESULT:    -3.957      1.722      2.165
REMARK INTER + INTRA:          -6.236
REMARK INTER:                  -5.527
REMARK INTRA:                  -0.709
REMARK UNBOUND:                -0.660
REMARK SMILES CCCCCCCCC(=O)[O-]
REMARK SMILES IDX 6 1 7 2 8 3 9 4 10 5 11 6 5 7 4 8 3 9 2 10 1 11
REMARK H PARENT
REMARK Flexibility Score: inf
ROOT
ATOM      1  C   UNL     1       7.746  -6.045  30.778  1.00  0.00     0.000 C 
ENDROOT
BRANCH   1   2
ATOM      2  C   UNL     1       7.897  -5.630  29.301  1.00  0.00     0.006 C 
BRANCH   2   3
ATOM      3  C   UNL     1       6.576  -5.201  28.634  1.00  0.00     0.053 C 
BRANCH   3   4
ATOM      4  C   UNL     1       6.798  -4.421  27.374  1.00  0.00     0.041 C 
ATOM      5  O   UNL     1       7.207  -3.231  27.427  1.00  0.00    -0.550 OA
ATOM      6  O   UNL     1       6.518  -4.996  26.141  1.00  0.00    -0.550 OA
ENDBRANCH   3   4
ENDBRANCH   2   3
ENDBRANCH   1   2
BRANCH   1   7
ATOM      7  C   UNL     1       6.402  -5.676  31.433  1.00  0.00     0.000 C 
BRANCH   7   8
ATOM      8  C   UNL     1       5.495  -6.870  31.785  1.00  0.00    -0.000 C 
BRANCH   8   9
ATOM      9  C   UNL     1       6.031  -8.206  31.253  1.00  0.00    -0.000 C 
BRANCH   9  10
ATOM     10  C   UNL     1       5.231  -8.671  30.031  1.00  0.00    -0.003 C 
ATOM     11  C   UNL     1       6.153  -9.195  28.934  1.00  0.00     0.004 C 
ENDBRANCH   9  10
ENDBRANCH   8   9
ENDBRANCH   7   8
ENDBRANCH   1   7
TORSDOF 7
ENDMDL
MODEL 9
REMARK VINA RESULT:    -3.924     14.312     16.187
REMARK INTER + INTRA:          -6.189
REMARK INTER:                  -5.585
REMARK INTRA:                  -0.604
REMARK UNBOUND:                -0.660
REMARK SMILES CCCCCCCCC(=O)[O-]
REMARK SMILES IDX 6 1 7 2 8 3 9 4 10 5 11 6 5 7 4 8 3 9 2 10 1 11
REMARK H PARENT
REMARK Flexibility Score: inf
ROOT
ATOM      1  C   UNL     1      13.490  -6.670  15.414  1.00  0.00     0.000 C 
ENDROOT
BRANCH   1   2
ATOM      2  C   UNL     1      13.571  -7.269  13.996  1.00  0.00     0.006 C 
BRANCH   2   3
ATOM      3  C   UNL     1      15.007  -7.401  13.455  1.00  0.00     0.053 C 
BRANCH   3   4
ATOM      4  C   UNL     1      15.536  -8.798  13.569  1.00  0.00     0.041 C 
ATOM      5  O   UNL     1      14.962  -9.636  14.314  1.00  0.00    -0.550 OA
ATOM      6  O   UNL     1      16.685  -9.167  12.880  1.00  0.00    -0.550 OA
ENDBRANCH   3   4
ENDBRANCH   2   3
ENDBRANCH   1   2
BRANCH   1   7
ATOM      7  C   UNL     1      13.002  -7.635  16.511  1.00  0.00     0.000 C 
BRANCH   7   8
ATOM      8  C   UNL     1      14.088  -8.114  17.493  1.00  0.00    -0.000 C 
BRANCH   8   9
ATOM      9  C   UNL     1      15.237  -7.109  17.651  1.00  0.00    -0.000 C 
BRANCH   9  10
ATOM     10  C   UNL     1      15.044  -6.247  18.904  1.00  0.00    -0.003 C 
ATOM     11  C   UNL     1      14.571  -4.843  18.541  1.00  0.00     0.004 C 
ENDBRANCH   9  10
ENDBRANCH   8   9
ENDBRANCH   7   8
ENDBRANCH   1   7
TORSDOF 7
ENDMDL
