MODEL 1
REMARK VINA RESULT:    36.264      0.000      0.000
REMARK INTER + INTRA:          45.056
REMARK INTER:                  44.744
REMARK INTRA:                   0.311
REMARK UNBOUND:                 0.311
REMARK SMILES COc1cc(-c2oc3cc(O)cc(O)c3c(=O)c2O)ccc1O
REMARK SMILES IDX 6 1 18 2 16 3 17 4 15 5 13 6 12 7 10 8 9 9 8 10 7 11 5 12
REMARK SMILES IDX 3 13 22 14 4 15 21 16 20 17 2 18 1 19 23 20 19 22 14 24
REMARK SMILES IDX 11 26
REMARK H PARENT 23 21 19 23 14 25 11 27
REMARK Flexibility Score: inf
ROOT
ATOM      1  C   UNL     1      -2.302  -0.503   2.687  1.00  0.00     0.180 A 
ATOM      2  C   UNL     1      -3.212   0.128   3.553  1.00  0.00     0.208 A 
ATOM      3  C   UNL     1      -4.587   0.030   3.286  1.00  0.00     0.238 A 
ATOM      4  O   UNL     1      -5.398   0.551   4.096  1.00  0.00    -0.285 OA
ATOM      5  C   UNL     1      -5.034  -0.682   2.147  1.00  0.00     0.111 A 
ATOM      6  C   UNL     1      -6.401  -0.810   1.757  1.00  0.00     0.134 A 
ATOM      7  C   UNL     1      -6.738  -1.647   0.686  1.00  0.00     0.093 A 
ATOM      8  C   UNL     1      -5.751  -2.307  -0.051  1.00  0.00     0.123 A 
ATOM      9  C   UNL     1      -4.409  -2.140   0.286  1.00  0.00     0.094 A 
ATOM     10  C   UNL     1      -4.045  -1.341   1.372  1.00  0.00     0.146 A 
ATOM     11  O   UNL     1      -2.756  -1.218   1.664  1.00  0.00    -0.452 OA
ENDROOT
BRANCH   1  12
ATOM     12  C   UNL     1      -0.837  -0.425   2.889  1.00  0.00     0.025 A 
ATOM     13  C   UNL     1       1.421  -0.519   1.951  1.00  0.00     0.161 A 
ATOM     14  C   UNL     1       1.950  -0.224   3.221  1.00  0.00     0.157 A 
ATOM     15  C   UNL     1       0.023  -0.610   1.793  1.00  0.00     0.062 A 
ATOM     16  C   UNL     1       1.094  -0.021   4.306  1.00  0.00     0.051 A 
ATOM     17  C   UNL     1      -0.289  -0.113   4.143  1.00  0.00     0.016 A 
BRANCH  13  18
ATOM     18  O   UNL     1       2.304  -0.711   0.876  1.00  0.00    -0.493 OA
ATOM     19  C   UNL     1       2.029  -0.343  -0.472  1.00  0.00     0.278 C 
ENDBRANCH  13  18
BRANCH  14  20
ATOM     20  O   UNL     1       3.327  -0.127   3.422  1.00  0.00    -0.504 OA
ATOM     21  H   UNL     1       3.724   0.213   4.290  1.00  0.00     0.293 HD
ENDBRANCH  14  20
ENDBRANCH   1  12
BRANCH   2  22
ATOM     22  O   UNL     1      -2.749   0.807   4.684  1.00  0.00    -0.502 OA
ATOM     23  H   UNL     1      -3.270   0.834   5.553  1.00  0.00     0.293 HD
ENDBRANCH   2  22
BRANCH   6  24
ATOM     24  O   UNL     1      -7.454  -0.123   2.368  1.00  0.00    -0.507 OA
ATOM     25  H   UNL     1      -8.359  -0.521   2.570  1.00  0.00     0.293 HD
ENDBRANCH   6  24
BRANCH   8  26
ATOM     26  O   UNL     1      -6.093  -3.125  -1.124  1.00  0.00    -0.508 OA
ATOM     27  H   UNL     1      -5.542  -3.142  -1.974  1.00  0.00     0.293 HD
ENDBRANCH   8  26
TORSDOF 6
ENDMDL
