MODEL 1
REMARK VINA RESULT:    -5.224      0.000      0.000
REMARK INTER + INTRA:          -6.274
REMARK INTER:                  -5.987
REMARK INTRA:                  -0.287
REMARK UNBOUND:                -0.287
REMARK SMILES O=C1C[C@@H](c2ccc(O)cc2)Oc2cc(O)cc(O)c21
REMARK SMILES IDX 3 1 4 2 12 3 13 4 14 5 15 6 17 7 18 8 20 9 2 10 1 11 5 12
REMARK SMILES IDX 6 13 11 14 7 15 10 16 8 17 9 18 19 20 16 22
REMARK H PARENT 9 19 19 21 16 23
REMARK Flexibility Score: inf
ROOT
ATOM      1  C   UNL     1       7.308  -4.436 -27.999  1.00  0.00     0.131 C 
ATOM      2  C   UNL     1       7.561  -4.104 -29.478  1.00  0.00     0.211 C 
ATOM      3  O   UNL     1       6.778  -4.949 -30.325  1.00  0.00    -0.484 OA
ATOM      4  C   UNL     1       5.439  -5.248 -30.042  1.00  0.00     0.138 A 
ATOM      5  C   UNL     1       4.634  -5.802 -31.041  1.00  0.00     0.093 A 
ATOM      6  C   UNL     1       3.288  -6.085 -30.785  1.00  0.00     0.123 A 
ATOM      7  C   UNL     1       2.750  -5.818 -29.523  1.00  0.00     0.093 A 
ATOM      8  C   UNL     1       3.552  -5.279 -28.505  1.00  0.00     0.133 A 
ATOM      9  C   UNL     1       4.910  -4.996 -28.762  1.00  0.00     0.102 A 
ATOM     10  C   UNL     1       5.832  -4.474 -27.724  1.00  0.00     0.174 C 
ATOM     11  O   UNL     1       5.405  -4.111 -26.596  1.00  0.00    -0.294 OA
ENDROOT
BRANCH   2  12
ATOM     12  C   UNL     1       9.025  -4.246 -29.816  1.00  0.00    -0.007 A 
ATOM     13  C   UNL     1       9.522  -3.754 -31.035  1.00  0.00     0.011 A 
ATOM     14  C   UNL     1       9.919  -4.821 -28.894  1.00  0.00     0.011 A 
ATOM     15  C   UNL     1      10.882  -3.857 -31.337  1.00  0.00     0.046 A 
ATOM     16  C   UNL     1      11.280  -4.921 -29.199  1.00  0.00     0.046 A 
ATOM     17  C   UNL     1      11.766  -4.442 -30.419  1.00  0.00     0.115 A 
BRANCH  17  18
ATOM     18  O   UNL     1      13.123  -4.550 -30.710  1.00  0.00    -0.508 OA
ATOM     19  H   UNL     1      13.702  -3.730 -30.852  1.00  0.00     0.293 HD
ENDBRANCH  17  18
ENDBRANCH   2  12
BRANCH   8  20
ATOM     20  O   UNL     1       2.999  -5.035 -27.247  1.00  0.00    -0.507 OA
ATOM     21  H   UNL     1       2.582  -4.142 -27.013  1.00  0.00     0.293 HD
ENDBRANCH   8  20
BRANCH   6  22
ATOM     22  O   UNL     1       2.474  -6.629 -31.777  1.00  0.00    -0.508 OA
ATOM     23  H   UNL     1       1.568  -7.027 -31.559  1.00  0.00     0.293 HD
ENDBRANCH   6  22
TORSDOF 4
ENDMDL
MODEL 2
REMARK VINA RESULT:    -5.201      1.462      2.997
REMARK INTER + INTRA:          -6.249
REMARK INTER:                  -5.946
REMARK INTRA:                  -0.302
REMARK UNBOUND:                -0.287
REMARK SMILES O=C1C[C@@H](c2ccc(O)cc2)Oc2cc(O)cc(O)c21
REMARK SMILES IDX 3 1 4 2 12 3 13 4 14 5 15 6 17 7 18 8 20 9 2 10 1 11 5 12
REMARK SMILES IDX 6 13 11 14 7 15 10 16 8 17 9 18 19 20 16 22
REMARK H PARENT 9 19 19 21 16 23
REMARK Flexibility Score: inf
ROOT
ATOM      1  C   UNL     1       7.213  -5.237 -31.296  1.00  0.00     0.131 C 
ATOM      2  C   UNL     1       8.262  -5.196 -30.173  1.00  0.00     0.211 C 
ATOM      3  O   UNL     1       7.775  -4.447 -29.057  1.00  0.00    -0.484 OA
ATOM      4  C   UNL     1       6.462  -4.581 -28.587  1.00  0.00     0.138 A 
ATOM      5  C   UNL     1       6.130  -4.083 -27.325  1.00  0.00     0.093 A 
ATOM      6  C   UNL     1       4.830  -4.231 -26.829  1.00  0.00     0.123 A 
ATOM      7  C   UNL     1       3.860  -4.872 -27.604  1.00  0.00     0.093 A 
ATOM      8  C   UNL     1       4.175  -5.360 -28.881  1.00  0.00     0.133 A 
ATOM      9  C   UNL     1       5.485  -5.210 -29.383  1.00  0.00     0.102 A 
ATOM     10  C   UNL     1       5.881  -5.653 -30.742  1.00  0.00     0.174 C 
ATOM     11  O   UNL     1       5.098  -6.330 -31.461  1.00  0.00    -0.294 OA
ENDROOT
BRANCH   2  12
ATOM     12  C   UNL     1       9.556  -4.601 -30.672  1.00  0.00    -0.007 A 
ATOM     13  C   UNL     1       9.701  -4.257 -32.026  1.00  0.00     0.011 A 
ATOM     14  C   UNL     1      10.610  -4.331 -29.780  1.00  0.00     0.011 A 
ATOM     15  C   UNL     1      10.887  -3.677 -32.485  1.00  0.00     0.046 A 
ATOM     16  C   UNL     1      11.795  -3.750 -30.242  1.00  0.00     0.046 A 
ATOM     17  C   UNL     1      11.939  -3.423 -31.594  1.00  0.00     0.115 A 
BRANCH  17  18
ATOM     18  O   UNL     1      13.125  -2.846 -32.040  1.00  0.00    -0.508 OA
ATOM     19  H   UNL     1      13.132  -1.960 -32.531  1.00  0.00     0.293 HD
ENDBRANCH  17  18
ENDBRANCH   2  12
BRANCH   8  20
ATOM     20  O   UNL     1       3.187  -5.982 -29.645  1.00  0.00    -0.507 OA
ATOM     21  H   UNL     1       2.686  -5.486 -30.374  1.00  0.00     0.293 HD
ENDBRANCH   8  20
BRANCH   6  22
ATOM     22  O   UNL     1       4.492  -3.745 -25.567  1.00  0.00    -0.508 OA
ATOM     23  H   UNL     1       3.848  -4.244 -24.964  1.00  0.00     0.293 HD
ENDBRANCH   6  22
TORSDOF 4
ENDMDL
MODEL 3
REMARK VINA RESULT:    -5.127      1.857      7.317
REMARK INTER + INTRA:          -6.164
REMARK INTER:                  -5.865
REMARK INTRA:                  -0.299
REMARK UNBOUND:                -0.287
REMARK SMILES O=C1C[C@@H](c2ccc(O)cc2)Oc2cc(O)cc(O)c21
REMARK SMILES IDX 3 1 4 2 12 3 13 4 14 5 15 6 17 7 18 8 20 9 2 10 1 11 5 12
REMARK SMILES IDX 6 13 11 14 7 15 10 16 8 17 9 18 19 20 16 22
REMARK H PARENT 9 19 19 21 16 23
REMARK Flexibility Score: inf
ROOT
ATOM      1  C   UNL     1       8.689  -4.413 -30.405  1.00  0.00     0.131 C 
ATOM      2  C   UNL     1       8.155  -4.217 -28.977  1.00  0.00     0.211 C 
ATOM      3  O   UNL     1       8.908  -4.998 -28.046  1.00  0.00    -0.484 OA
ATOM      4  C   UNL     1      10.305  -5.086 -28.110  1.00  0.00     0.138 A 
ATOM      5  C   UNL     1      11.012  -5.586 -27.014  1.00  0.00     0.093 A 
ATOM      6  C   UNL     1      12.409  -5.659 -27.051  1.00  0.00     0.123 A 
ATOM      7  C   UNL     1      13.097  -5.237 -28.192  1.00  0.00     0.093 A 
ATOM      8  C   UNL     1      12.398  -4.750 -29.307  1.00  0.00     0.133 A 
ATOM      9  C   UNL     1      10.989  -4.679 -29.272  1.00  0.00     0.102 A 
ATOM     10  C   UNL     1      10.178  -4.225 -30.428  1.00  0.00     0.174 C 
ATOM     11  O   UNL     1      10.722  -3.732 -31.452  1.00  0.00    -0.294 OA
ENDROOT
BRANCH   2  12
ATOM     12  C   UNL     1       6.693  -4.586 -28.898  1.00  0.00    -0.007 A 
ATOM     13  C   UNL     1       6.014  -5.039 -30.041  1.00  0.00     0.011 A 
ATOM     14  C   UNL     1       6.008  -4.534 -27.670  1.00  0.00     0.011 A 
ATOM     15  C   UNL     1       4.669  -5.410 -29.964  1.00  0.00     0.046 A 
ATOM     16  C   UNL     1       4.662  -4.906 -27.596  1.00  0.00     0.046 A 
ATOM     17  C   UNL     1       3.989  -5.344 -28.741  1.00  0.00     0.115 A 
BRANCH  17  18
ATOM     18  O   UNL     1       2.648  -5.711 -28.652  1.00  0.00    -0.508 OA
ATOM     19  H   UNL     1       1.959  -5.101 -28.228  1.00  0.00     0.293 HD
ENDBRANCH  17  18
ENDBRANCH   2  12
BRANCH   8  20
ATOM     20  O   UNL     1      13.103  -4.350 -30.443  1.00  0.00    -0.507 OA
ATOM     21  H   UNL     1      13.626  -5.012 -31.005  1.00  0.00     0.293 HD
ENDBRANCH   8  20
BRANCH   6  22
ATOM     22  O   UNL     1      13.124  -6.147 -25.959  1.00  0.00    -0.508 OA
ATOM     23  H   UNL     1      13.568  -7.058 -25.982  1.00  0.00     0.293 HD
ENDBRANCH   6  22
TORSDOF 4
ENDMDL
MODEL 4
REMARK VINA RESULT:    -5.008      2.071      7.044
REMARK INTER + INTRA:          -6.027
REMARK INTER:                  -5.735
REMARK INTRA:                  -0.292
REMARK UNBOUND:                -0.287
REMARK SMILES O=C1C[C@@H](c2ccc(O)cc2)Oc2cc(O)cc(O)c21
REMARK SMILES IDX 3 1 4 2 12 3 13 4 14 5 15 6 17 7 18 8 20 9 2 10 1 11 5 12
REMARK SMILES IDX 6 13 11 14 7 15 10 16 8 17 9 18 19 20 16 22
REMARK H PARENT 9 19 19 21 16 23
REMARK Flexibility Score: inf
ROOT
ATOM      1  C   UNL     1       7.278  -4.410 -30.177  1.00  0.00     0.131 C 
ATOM      2  C   UNL     1       6.543  -4.638 -28.846  1.00  0.00     0.211 C 
ATOM      3  O   UNL     1       7.225  -5.614 -28.055  1.00  0.00    -0.484 OA
ATOM      4  C   UNL     1       8.620  -5.625 -27.929  1.00  0.00     0.138 A 
ATOM      5  C   UNL     1       9.212  -6.379 -26.912  1.00  0.00     0.093 A 
ATOM      6  C   UNL     1      10.603  -6.383 -26.756  1.00  0.00     0.123 A 
ATOM      7  C   UNL     1      11.401  -5.635 -27.626  1.00  0.00     0.093 A 
ATOM      8  C   UNL     1      10.821  -4.889 -28.663  1.00  0.00     0.133 A 
ATOM      9  C   UNL     1       9.419  -4.886 -28.823  1.00  0.00     0.102 A 
ATOM     10  C   UNL     1       8.738  -4.164 -29.924  1.00  0.00     0.174 C 
ATOM     11  O   UNL     1       9.373  -3.386 -30.686  1.00  0.00    -0.294 OA
ENDROOT
BRANCH   2  12
ATOM     12  C   UNL     1       5.119  -5.072 -29.089  1.00  0.00    -0.007 A 
ATOM     13  C   UNL     1       4.237  -5.246 -28.009  1.00  0.00     0.011 A 
ATOM     14  C   UNL     1       4.640  -5.253 -30.400  1.00  0.00     0.011 A 
ATOM     15  C   UNL     1       2.909  -5.618 -28.233  1.00  0.00     0.046 A 
ATOM     16  C   UNL     1       3.310  -5.625 -30.621  1.00  0.00     0.046 A 
ATOM     17  C   UNL     1       2.442  -5.810 -29.541  1.00  0.00     0.115 A 
BRANCH  17  18
ATOM     18  O   UNL     1       1.120  -6.182 -29.776  1.00  0.00    -0.508 OA
ATOM     19  H   UNL     1       0.345  -5.650 -29.397  1.00  0.00     0.293 HD
ENDBRANCH  17  18
ENDBRANCH   2  12
BRANCH   8  20
ATOM     20  O   UNL     1      11.638  -4.163 -29.531  1.00  0.00    -0.507 OA
ATOM     21  H   UNL     1      12.358  -3.537 -29.186  1.00  0.00     0.293 HD
ENDBRANCH   8  20
BRANCH   6  22
ATOM     22  O   UNL     1      11.201  -7.125 -25.740  1.00  0.00    -0.508 OA
ATOM     23  H   UNL     1      11.110  -6.859 -24.766  1.00  0.00     0.293 HD
ENDBRANCH   6  22
TORSDOF 4
ENDMDL
MODEL 5
REMARK VINA RESULT:    -4.954      2.103      6.687
REMARK INTER + INTRA:          -5.966
REMARK INTER:                  -5.663
REMARK INTRA:                  -0.303
REMARK UNBOUND:                -0.287
REMARK SMILES O=C1C[C@@H](c2ccc(O)cc2)Oc2cc(O)cc(O)c21
REMARK SMILES IDX 3 1 4 2 12 3 13 4 14 5 15 6 17 7 18 8 20 9 2 10 1 11 5 12
REMARK SMILES IDX 6 13 11 14 7 15 10 16 8 17 9 18 19 20 16 22
REMARK H PARENT 9 19 19 21 16 23
REMARK Flexibility Score: inf
ROOT
ATOM      1  C   UNL     1       6.505  -6.358 -27.319  1.00  0.00     0.131 C 
ATOM      2  C   UNL     1       6.464  -6.373 -28.855  1.00  0.00     0.211 C 
ATOM      3  O   UNL     1       7.420  -5.456 -29.393  1.00  0.00    -0.484 OA
ATOM      4  C   UNL     1       8.715  -5.343 -28.872  1.00  0.00     0.138 A 
ATOM      5  C   UNL     1       9.698  -4.683 -29.614  1.00  0.00     0.093 A 
ATOM      6  C   UNL     1      11.004  -4.582 -29.120  1.00  0.00     0.123 A 
ATOM      7  C   UNL     1      11.322  -5.137 -27.877  1.00  0.00     0.093 A 
ATOM      8  C   UNL     1      10.339  -5.785 -27.114  1.00  0.00     0.133 A 
ATOM      9  C   UNL     1       9.022  -5.886 -27.609  1.00  0.00     0.102 A 
ATOM     10  C   UNL     1       7.919  -6.511 -26.839  1.00  0.00     0.174 C 
ATOM     11  O   UNL     1       8.143  -7.123 -25.761  1.00  0.00    -0.294 OA
ENDROOT
BRANCH   2  12
ATOM     12  C   UNL     1       5.081  -6.033 -29.357  1.00  0.00    -0.007 A 
ATOM     13  C   UNL     1       4.874  -5.736 -30.714  1.00  0.00     0.011 A 
ATOM     14  C   UNL     1       3.977  -6.063 -28.486  1.00  0.00     0.011 A 
ATOM     15  C   UNL     1       3.590  -5.451 -31.187  1.00  0.00     0.046 A 
ATOM     16  C   UNL     1       2.694  -5.778 -28.962  1.00  0.00     0.046 A 
ATOM     17  C   UNL     1       2.496  -5.470 -30.312  1.00  0.00     0.115 A 
BRANCH  17  18
ATOM     18  O   UNL     1       1.213  -5.187 -30.772  1.00  0.00    -0.508 OA
ATOM     19  H   UNL     1       1.043  -4.458 -31.456  1.00  0.00     0.293 HD
ENDBRANCH  17  18
ENDBRANCH   2  12
BRANCH   8  20
ATOM     20  O   UNL     1      10.674  -6.317 -25.868  1.00  0.00    -0.507 OA
ATOM     21  H   UNL     1      11.634  -6.353 -25.545  1.00  0.00     0.293 HD
ENDBRANCH   8  20
BRANCH   6  22
ATOM     22  O   UNL     1      11.994  -3.934 -29.856  1.00  0.00    -0.508 OA
ATOM     23  H   UNL     1      12.112  -2.928 -29.814  1.00  0.00     0.293 HD
ENDBRANCH   6  22
TORSDOF 4
ENDMDL
MODEL 6
REMARK VINA RESULT:    -4.861      1.574      3.203
REMARK INTER + INTRA:          -5.858
REMARK INTER:                  -5.558
REMARK INTRA:                  -0.300
REMARK UNBOUND:                -0.287
REMARK SMILES O=C1C[C@@H](c2ccc(O)cc2)Oc2cc(O)cc(O)c21
REMARK SMILES IDX 3 1 4 2 12 3 13 4 14 5 15 6 17 7 18 8 20 9 2 10 1 11 5 12
REMARK SMILES IDX 6 13 11 14 7 15 10 16 8 17 9 18 19 20 16 22
REMARK H PARENT 9 19 19 21 16 23
REMARK Flexibility Score: inf
ROOT
ATOM      1  C   UNL     1       6.530  -5.322 -31.389  1.00  0.00     0.131 C 
ATOM      2  C   UNL     1       6.859  -5.998 -30.049  1.00  0.00     0.211 C 
ATOM      3  O   UNL     1       5.877  -5.668 -29.063  1.00  0.00    -0.484 OA
ATOM      4  C   UNL     1       4.508  -5.652 -29.356  1.00  0.00     0.138 A 
ATOM      5  C   UNL     1       3.582  -5.640 -28.310  1.00  0.00     0.093 A 
ATOM      6  C   UNL     1       2.210  -5.649 -28.583  1.00  0.00     0.123 A 
ATOM      7  C   UNL     1       1.765  -5.662 -29.908  1.00  0.00     0.093 A 
ATOM      8  C   UNL     1       2.684  -5.654 -30.968  1.00  0.00     0.133 A 
ATOM      9  C   UNL     1       4.068  -5.643 -30.694  1.00  0.00     0.102 A 
ATOM     10  C   UNL     1       5.098  -5.583 -31.759  1.00  0.00     0.174 C 
ATOM     11  O   UNL     1       4.786  -5.695 -32.975  1.00  0.00    -0.294 OA
ENDROOT
BRANCH   2  12
ATOM     12  C   UNL     1       8.231  -5.592 -29.568  1.00  0.00    -0.007 A 
ATOM     13  C   UNL     1       8.671  -5.963 -28.286  1.00  0.00     0.011 A 
ATOM     14  C   UNL     1       9.106  -4.888 -30.415  1.00  0.00     0.011 A 
ATOM     15  C   UNL     1       9.953  -5.615 -27.850  1.00  0.00     0.046 A 
ATOM     16  C   UNL     1      10.388  -4.541 -29.976  1.00  0.00     0.046 A 
ATOM     17  C   UNL     1      10.815  -4.901 -28.694  1.00  0.00     0.115 A 
BRANCH  17  18
ATOM     18  O   UNL     1      12.093  -4.549 -28.270  1.00  0.00    -0.508 OA
ATOM     19  H   UNL     1      12.842  -4.374 -28.931  1.00  0.00     0.293 HD
ENDBRANCH  17  18
ENDBRANCH   2  12
BRANCH   8  20
ATOM     20  O   UNL     1       2.219  -5.650 -32.284  1.00  0.00    -0.507 OA
ATOM     21  H   UNL     1       1.323  -5.245 -32.530  1.00  0.00     0.293 HD
ENDBRANCH   8  20
BRANCH   6  22
ATOM     22  O   UNL     1       1.279  -5.647 -27.546  1.00  0.00    -0.508 OA
ATOM     23  H   UNL     1       1.274  -4.920 -26.840  1.00  0.00     0.293 HD
ENDBRANCH   6  22
TORSDOF 4
ENDMDL
MODEL 7
REMARK VINA RESULT:    -4.541      2.120      6.687
REMARK INTER + INTRA:          -5.492
REMARK INTER:                  -5.183
REMARK INTRA:                  -0.309
REMARK UNBOUND:                -0.287
REMARK SMILES O=C1C[C@@H](c2ccc(O)cc2)Oc2cc(O)cc(O)c21
REMARK SMILES IDX 3 1 4 2 12 3 13 4 14 5 15 6 17 7 18 8 20 9 2 10 1 11 5 12
REMARK SMILES IDX 6 13 11 14 7 15 10 16 8 17 9 18 19 20 16 22
REMARK H PARENT 9 19 19 21 16 23
REMARK Flexibility Score: inf
ROOT
ATOM      1  C   UNL     1       6.950  -5.360 -29.561  1.00  0.00     0.131 C 
ATOM      2  C   UNL     1       7.119  -5.750 -31.038  1.00  0.00     0.211 C 
ATOM      3  O   UNL     1       8.130  -4.950 -31.657  1.00  0.00    -0.484 OA
ATOM      4  C   UNL     1       9.341  -4.657 -31.016  1.00  0.00     0.138 A 
ATOM      5  C   UNL     1      10.409  -4.155 -31.764  1.00  0.00     0.093 A 
ATOM      6  C   UNL     1      11.633  -3.879 -31.146  1.00  0.00     0.123 A 
ATOM      7  C   UNL     1      11.785  -4.100 -29.774  1.00  0.00     0.093 A 
ATOM      8  C   UNL     1      10.714  -4.586 -29.008  1.00  0.00     0.133 A 
ATOM      9  C   UNL     1       9.478  -4.862 -29.630  1.00  0.00     0.102 A 
ATOM     10  C   UNL     1       8.287  -5.329 -28.879  1.00  0.00     0.174 C 
ATOM     11  O   UNL     1       8.367  -5.650 -27.664  1.00  0.00    -0.294 OA
ENDROOT
BRANCH   2  12
ATOM     12  C   UNL     1       5.815  -5.603 -31.783  1.00  0.00    -0.007 A 
ATOM     13  C   UNL     1       5.811  -5.435 -33.178  1.00  0.00     0.011 A 
ATOM     14  C   UNL     1       4.588  -5.690 -31.100  1.00  0.00     0.011 A 
ATOM     15  C   UNL     1       4.604  -5.329 -33.874  1.00  0.00     0.046 A 
ATOM     16  C   UNL     1       3.381  -5.584 -31.800  1.00  0.00     0.046 A 
ATOM     17  C   UNL     1       3.385  -5.403 -33.187  1.00  0.00     0.115 A 
BRANCH  17  18
ATOM     18  O   UNL     1       2.176  -5.299 -33.870  1.00  0.00    -0.508 OA
ATOM     19  H   UNL     1       2.136  -4.971 -34.828  1.00  0.00     0.293 HD
ENDBRANCH  17  18
ENDBRANCH   2  12
BRANCH   8  20
ATOM     20  O   UNL     1      10.881  -4.784 -27.637  1.00  0.00    -0.507 OA
ATOM     21  H   UNL     1      10.791  -5.702 -27.217  1.00  0.00     0.293 HD
ENDBRANCH   8  20
BRANCH   6  22
ATOM     22  O   UNL     1      12.708  -3.387 -31.885  1.00  0.00    -0.508 OA
ATOM     23  H   UNL     1      12.612  -3.154 -32.866  1.00  0.00     0.293 HD
ENDBRANCH   6  22
TORSDOF 4
ENDMDL
MODEL 8
REMARK VINA RESULT:    -4.388      2.358      3.779
REMARK INTER + INTRA:          -5.316
REMARK INTER:                  -5.022
REMARK INTRA:                  -0.294
REMARK UNBOUND:                -0.287
REMARK SMILES O=C1C[C@@H](c2ccc(O)cc2)Oc2cc(O)cc(O)c21
REMARK SMILES IDX 3 1 4 2 12 3 13 4 14 5 15 6 17 7 18 8 20 9 2 10 1 11 5 12
REMARK SMILES IDX 6 13 11 14 7 15 10 16 8 17 9 18 19 20 16 22
REMARK H PARENT 9 19 19 21 16 23
REMARK Flexibility Score: inf
ROOT
ATOM      1  C   UNL     1       3.699  -6.106 -28.378  1.00  0.00     0.131 C 
ATOM      2  C   UNL     1       4.461  -5.107 -29.263  1.00  0.00     0.211 C 
ATOM      3  O   UNL     1       4.361  -5.477 -30.641  1.00  0.00    -0.484 OA
ATOM      4  C   UNL     1       3.156  -5.916 -31.206  1.00  0.00     0.138 A 
ATOM      5  C   UNL     1       3.026  -5.958 -32.596  1.00  0.00     0.093 A 
ATOM      6  C   UNL     1       1.823  -6.370 -33.179  1.00  0.00     0.123 A 
ATOM      7  C   UNL     1       0.751  -6.747 -32.366  1.00  0.00     0.093 A 
ATOM      8  C   UNL     1       0.874  -6.728 -30.968  1.00  0.00     0.133 A 
ATOM      9  C   UNL     1       2.088  -6.315 -30.380  1.00  0.00     0.102 A 
ATOM     10  C   UNL     1       2.312  -6.316 -28.914  1.00  0.00     0.174 C 
ATOM     11  O   UNL     1       1.367  -6.542 -28.110  1.00  0.00    -0.294 OA
ENDROOT
BRANCH   2  12
ATOM     12  C   UNL     1       5.911  -5.027 -28.852  1.00  0.00    -0.007 A 
ATOM     13  C   UNL     1       6.423  -5.911 -27.887  1.00  0.00     0.011 A 
ATOM     14  C   UNL     1       6.779  -4.109 -29.470  1.00  0.00     0.011 A 
ATOM     15  C   UNL     1       7.772  -5.859 -27.527  1.00  0.00     0.046 A 
ATOM     16  C   UNL     1       8.129  -4.060 -29.108  1.00  0.00     0.046 A 
ATOM     17  C   UNL     1       8.630  -4.932 -28.136  1.00  0.00     0.115 A 
BRANCH  17  18
ATOM     18  O   UNL     1       9.976  -4.872 -27.785  1.00  0.00    -0.508 OA
ATOM     19  H   UNL     1      10.298  -5.157 -26.867  1.00  0.00     0.293 HD
ENDBRANCH  17  18
ENDBRANCH   2  12
BRANCH   8  20
ATOM     20  O   UNL     1      -0.203  -7.125 -30.175  1.00  0.00    -0.507 OA
ATOM     21  H   UNL     1      -0.084  -7.767 -29.399  1.00  0.00     0.293 HD
ENDBRANCH   8  20
BRANCH   6  22
ATOM     22  O   UNL     1       1.680  -6.407 -34.565  1.00  0.00    -0.508 OA
ATOM     23  H   UNL     1       0.777  -6.554 -35.001  1.00  0.00     0.293 HD
ENDBRANCH   6  22
TORSDOF 4
ENDMDL
