MODEL 1
REMARK VINA RESULT:    -2.638      0.000      0.000
REMARK INTER + INTRA:          -2.983
REMARK INTER:                  -3.178
REMARK INTRA:                   0.195
REMARK UNBOUND:                 0.195
REMARK SMILES O=c1c(O)c(-c2ccc(O)c(O)c2)oc2cc(O)cc(O)c12
REMARK SMILES IDX 5 1 3 2 2 3 1 4 22 5 20 6 19 7 17 8 16 9 15 10 14 11 6 12
REMARK SMILES IDX 7 13 8 14 9 15 13 16 11 17 10 18 12 20 4 22 21 24 18 26
REMARK H PARENT 10 19 12 21 4 23 21 25 18 27
REMARK Flexibility Score: inf
ROOT
ATOM      1  C   UNL     1       4.308   9.147  12.503  1.00  0.00     0.180 A 
ATOM      2  C   UNL     1       2.962   9.001  12.892  1.00  0.00     0.208 A 
ATOM      3  C   UNL     1       2.100  10.104  12.777  1.00  0.00     0.238 A 
ATOM      4  O   UNL     1       0.890   9.981  13.112  1.00  0.00    -0.285 OA
ATOM      5  C   UNL     1       2.599  11.331  12.299  1.00  0.00     0.111 A 
ATOM      6  C   UNL     1       1.797  12.490  12.157  1.00  0.00     0.134 A 
ATOM      7  C   UNL     1       2.371  13.679  11.682  1.00  0.00     0.093 A 
ATOM      8  C   UNL     1       3.729  13.731  11.347  1.00  0.00     0.123 A 
ATOM      9  C   UNL     1       4.522  12.591  11.484  1.00  0.00     0.094 A 
ATOM     10  C   UNL     1       3.969  11.397  11.954  1.00  0.00     0.146 A 
ATOM     11  O   UNL     1       4.746  10.326  12.070  1.00  0.00    -0.452 OA
ENDROOT
BRANCH   1  12
ATOM     12  C   UNL     1       5.274   8.027  12.576  1.00  0.00     0.025 A 
ATOM     13  C   UNL     1       4.873   6.699  12.350  1.00  0.00     0.016 A 
ATOM     14  C   UNL     1       5.808   5.662  12.400  1.00  0.00     0.051 A 
ATOM     15  C   UNL     1       7.154   5.933  12.662  1.00  0.00     0.157 A 
ATOM     16  C   UNL     1       6.631   8.299  12.819  1.00  0.00     0.062 A 
ATOM     17  C   UNL     1       7.570   7.259  12.870  1.00  0.00     0.158 A 
BRANCH  15  18
ATOM     18  O   UNL     1       8.062   4.876  12.709  1.00  0.00    -0.504 OA
ATOM     19  H   UNL     1       7.783   3.919  12.526  1.00  0.00     0.293 HD
ENDBRANCH  15  18
BRANCH  17  20
ATOM     20  O   UNL     1       8.911   7.538  13.126  1.00  0.00    -0.504 OA
ATOM     21  H   UNL     1       9.188   8.259  13.782  1.00  0.00     0.293 HD
ENDBRANCH  17  20
ENDBRANCH   1  12
BRANCH   2  22
ATOM     22  O   UNL     1       2.505   7.787  13.409  1.00  0.00    -0.502 OA
ATOM     23  H   UNL     1       2.181   7.032  12.816  1.00  0.00     0.293 HD
ENDBRANCH   2  22
BRANCH   6  24
ATOM     24  O   UNL     1       0.441  12.470  12.484  1.00  0.00    -0.507 OA
ATOM     25  H   UNL     1      -0.088  13.324  12.617  1.00  0.00     0.293 HD
ENDBRANCH   6  24
BRANCH   8  26
ATOM     26  O   UNL     1       4.299  14.912  10.876  1.00  0.00    -0.508 OA
ATOM     27  H   UNL     1       4.456  15.704  11.487  1.00  0.00     0.293 HD
ENDBRANCH   8  26
TORSDOF 6
ENDMDL
MODEL 2
REMARK VINA RESULT:    -2.057      1.298      6.558
REMARK INTER + INTRA:          -2.283
REMARK INTER:                  -2.254
REMARK INTRA:                  -0.029
REMARK UNBOUND:                 0.195
REMARK SMILES O=c1c(O)c(-c2ccc(O)c(O)c2)oc2cc(O)cc(O)c12
REMARK SMILES IDX 5 1 3 2 2 3 1 4 22 5 20 6 19 7 17 8 16 9 15 10 14 11 6 12
REMARK SMILES IDX 7 13 8 14 9 15 13 16 11 17 10 18 12 20 4 22 21 24 18 26
REMARK H PARENT 10 19 12 21 4 23 21 25 18 27
REMARK Flexibility Score: inf
ROOT
ATOM      1  C   UNL     1       3.821  10.286  12.096  1.00  0.00     0.180 A 
ATOM      2  C   UNL     1       2.973   9.408  12.799  1.00  0.00     0.208 A 
ATOM      3  C   UNL     1       3.422   8.106  13.072  1.00  0.00     0.238 A 
ATOM      4  O   UNL     1       2.674   7.315  13.710  1.00  0.00    -0.285 OA
ATOM      5  C   UNL     1       4.694   7.699  12.625  1.00  0.00     0.111 A 
ATOM      6  C   UNL     1       5.219   6.404  12.856  1.00  0.00     0.134 A 
ATOM      7  C   UNL     1       6.492   6.072  12.369  1.00  0.00     0.093 A 
ATOM      8  C   UNL     1       7.249   7.009  11.657  1.00  0.00     0.123 A 
ATOM      9  C   UNL     1       6.736   8.287  11.427  1.00  0.00     0.094 A 
ATOM     10  C   UNL     1       5.471   8.637  11.906  1.00  0.00     0.146 A 
ATOM     11  O   UNL     1       5.010   9.862  11.677  1.00  0.00    -0.452 OA
ENDROOT
BRANCH   1  12
ATOM     12  C   UNL     1       3.429  11.680  11.787  1.00  0.00     0.025 A 
ATOM     13  C   UNL     1       2.218  11.972  11.134  1.00  0.00     0.016 A 
ATOM     14  C   UNL     1       1.858  13.297  10.875  1.00  0.00     0.051 A 
ATOM     15  C   UNL     1       2.690  14.347  11.272  1.00  0.00     0.157 A 
ATOM     16  C   UNL     1       4.253  12.739  12.203  1.00  0.00     0.062 A 
ATOM     17  C   UNL     1       3.893  14.069  11.943  1.00  0.00     0.158 A 
BRANCH  15  18
ATOM     18  O   UNL     1       2.304  15.659  10.996  1.00  0.00    -0.504 OA
ATOM     19  H   UNL     1       1.332  15.943  10.990  1.00  0.00     0.293 HD
ENDBRANCH  15  18
BRANCH  17  20
ATOM     20  O   UNL     1       4.724  15.112  12.348  1.00  0.00    -0.504 OA
ATOM     21  H   UNL     1       4.818  15.368  13.324  1.00  0.00     0.293 HD
ENDBRANCH  17  20
ENDBRANCH   1  12
BRANCH   2  22
ATOM     22  O   UNL     1       1.697   9.821  13.188  1.00  0.00    -0.502 OA
ATOM     23  H   UNL     1       1.015   9.181  13.578  1.00  0.00     0.293 HD
ENDBRANCH   2  22
BRANCH   6  24
ATOM     24  O   UNL     1       4.487   5.448  13.561  1.00  0.00    -0.507 OA
ATOM     25  H   UNL     1       4.503   5.404  14.573  1.00  0.00     0.293 HD
ENDBRANCH   6  24
BRANCH   8  26
ATOM     26  O   UNL     1       8.513   6.679  11.173  1.00  0.00    -0.508 OA
ATOM     27  H   UNL     1       8.703   6.629  10.179  1.00  0.00     0.293 HD
ENDBRANCH   8  26
TORSDOF 6
ENDMDL
MODEL 3
REMARK VINA RESULT:    -2.054      0.755      1.357
REMARK INTER + INTRA:          -2.279
REMARK INTER:                  -2.775
REMARK INTRA:                   0.496
REMARK UNBOUND:                 0.195
REMARK SMILES O=c1c(O)c(-c2ccc(O)c(O)c2)oc2cc(O)cc(O)c12
REMARK SMILES IDX 5 1 3 2 2 3 1 4 22 5 20 6 19 7 17 8 16 9 15 10 14 11 6 12
REMARK SMILES IDX 7 13 8 14 9 15 13 16 11 17 10 18 12 20 4 22 21 24 18 26
REMARK H PARENT 10 19 12 21 4 23 21 25 18 27
REMARK Flexibility Score: inf
ROOT
ATOM      1  C   UNL     1       4.271   9.383  12.268  1.00  0.00     0.180 A 
ATOM      2  C   UNL     1       2.938   9.182  12.677  1.00  0.00     0.208 A 
ATOM      3  C   UNL     1       2.042  10.262  12.626  1.00  0.00     0.238 A 
ATOM      4  O   UNL     1       0.844  10.091  12.980  1.00  0.00    -0.285 OA
ATOM      5  C   UNL     1       2.496  11.523  12.187  1.00  0.00     0.111 A 
ATOM      6  C   UNL     1       1.659  12.662  12.110  1.00  0.00     0.134 A 
ATOM      7  C   UNL     1       2.188  13.886  11.672  1.00  0.00     0.093 A 
ATOM      8  C   UNL     1       3.536  13.991  11.311  1.00  0.00     0.123 A 
ATOM      9  C   UNL     1       4.365  12.869  11.385  1.00  0.00     0.094 A 
ATOM     10  C   UNL     1       3.856  11.642  11.817  1.00  0.00     0.146 A 
ATOM     11  O   UNL     1       4.665  10.590  11.874  1.00  0.00    -0.452 OA
ENDROOT
BRANCH   1  12
ATOM     12  C   UNL     1       5.269   8.290  12.274  1.00  0.00     0.025 A 
ATOM     13  C   UNL     1       6.516   8.433  11.643  1.00  0.00     0.016 A 
ATOM     14  C   UNL     1       7.452   7.395  11.685  1.00  0.00     0.051 A 
ATOM     15  C   UNL     1       7.163   6.209  12.365  1.00  0.00     0.157 A 
ATOM     16  C   UNL     1       4.990   7.104  12.975  1.00  0.00     0.062 A 
ATOM     17  C   UNL     1       5.927   6.062  13.016  1.00  0.00     0.158 A 
BRANCH  15  18
ATOM     18  O   UNL     1       8.116   5.190  12.385  1.00  0.00    -0.504 OA
ATOM     19  H   UNL     1       8.134   4.486  13.113  1.00  0.00     0.293 HD
ENDBRANCH  15  18
BRANCH  17  20
ATOM     20  O   UNL     1       5.635   4.884  13.702  1.00  0.00    -0.504 OA
ATOM     21  H   UNL     1       6.310   4.131  13.777  1.00  0.00     0.293 HD
ENDBRANCH  17  20
ENDBRANCH   1  12
BRANCH   2  22
ATOM     22  O   UNL     1       2.527   7.935  13.154  1.00  0.00    -0.502 OA
ATOM     23  H   UNL     1       2.667   7.648  14.115  1.00  0.00     0.293 HD
ENDBRANCH   2  22
BRANCH   6  24
ATOM     24  O   UNL     1       0.311  12.590  12.464  1.00  0.00    -0.507 OA
ATOM     25  H   UNL     1      -0.423  12.877  11.828  1.00  0.00     0.293 HD
ENDBRANCH   6  24
BRANCH   8  26
ATOM     26  O   UNL     1       4.062  15.205  10.877  1.00  0.00    -0.508 OA
ATOM     27  H   UNL     1       3.474  15.920  10.466  1.00  0.00     0.293 HD
ENDBRANCH   8  26
TORSDOF 6
ENDMDL
MODEL 4
REMARK VINA RESULT:    -1.457      1.562      6.683
REMARK INTER + INTRA:          -1.560
REMARK INTER:                  -2.004
REMARK INTRA:                   0.444
REMARK UNBOUND:                 0.195
REMARK SMILES O=c1c(O)c(-c2ccc(O)c(O)c2)oc2cc(O)cc(O)c12
REMARK SMILES IDX 5 1 3 2 2 3 1 4 22 5 20 6 19 7 17 8 16 9 15 10 14 11 6 12
REMARK SMILES IDX 7 13 8 14 9 15 13 16 11 17 10 18 12 20 4 22 21 24 18 26
REMARK H PARENT 10 19 12 21 4 23 21 25 18 27
REMARK Flexibility Score: inf
ROOT
ATOM      1  C   UNL     1       4.623   9.936  11.978  1.00  0.00     0.180 A 
ATOM      2  C   UNL     1       4.013   8.703  11.673  1.00  0.00     0.208 A 
ATOM      3  C   UNL     1       4.721   7.516  11.922  1.00  0.00     0.238 A 
ATOM      4  O   UNL     1       4.180   6.406  11.662  1.00  0.00    -0.285 OA
ATOM      5  C   UNL     1       6.027   7.581  12.449  1.00  0.00     0.111 A 
ATOM      6  C   UNL     1       6.808   6.433  12.723  1.00  0.00     0.134 A 
ATOM      7  C   UNL     1       8.104   6.581  13.239  1.00  0.00     0.093 A 
ATOM      8  C   UNL     1       8.633   7.853  13.484  1.00  0.00     0.123 A 
ATOM      9  C   UNL     1       7.866   8.988  13.215  1.00  0.00     0.094 A 
ATOM     10  C   UNL     1       6.572   8.861  12.703  1.00  0.00     0.146 A 
ATOM     11  O   UNL     1       5.862   9.958  12.461  1.00  0.00    -0.452 OA
ENDROOT
BRANCH   1  12
ATOM     12  C   UNL     1       3.934  11.228  11.764  1.00  0.00     0.025 A 
ATOM     13  C   UNL     1       2.729  11.306  11.044  1.00  0.00     0.016 A 
ATOM     14  C   UNL     1       2.085  12.534  10.875  1.00  0.00     0.051 A 
ATOM     15  C   UNL     1       2.624  13.698  11.431  1.00  0.00     0.157 A 
ATOM     16  C   UNL     1       4.462  12.397  12.339  1.00  0.00     0.062 A 
ATOM     17  C   UNL     1       3.817  13.630  12.169  1.00  0.00     0.158 A 
BRANCH  15  18
ATOM     18  O   UNL     1       1.959  14.910  11.242  1.00  0.00    -0.504 OA
ATOM     19  H   UNL     1       2.393  15.799  11.457  1.00  0.00     0.293 HD
ENDBRANCH  15  18
BRANCH  17  20
ATOM     20  O   UNL     1       4.357  14.786  12.732  1.00  0.00    -0.504 OA
ATOM     21  H   UNL     1       3.813  15.636  12.824  1.00  0.00     0.293 HD
ENDBRANCH  17  20
ENDBRANCH   1  12
BRANCH   2  22
ATOM     22  O   UNL     1       2.737   8.668  11.106  1.00  0.00    -0.502 OA
ATOM     23  H   UNL     1       2.090   7.907  11.272  1.00  0.00     0.293 HD
ENDBRANCH   2  22
BRANCH   6  24
ATOM     24  O   UNL     1       6.310   5.151  12.489  1.00  0.00    -0.507 OA
ATOM     25  H   UNL     1       6.382   4.415  13.182  1.00  0.00     0.293 HD
ENDBRANCH   6  24
BRANCH   8  26
ATOM     26  O   UNL     1       9.920   8.001  13.996  1.00  0.00    -0.508 OA
ATOM     27  H   UNL     1      10.734   7.991  13.392  1.00  0.00     0.293 HD
ENDBRANCH   8  26
TORSDOF 6
ENDMDL
MODEL 5
REMARK VINA RESULT:    -0.650      1.577      2.375
REMARK INTER + INTRA:          -0.588
REMARK INTER:                  -0.800
REMARK INTRA:                   0.212
REMARK UNBOUND:                 0.195
REMARK SMILES O=c1c(O)c(-c2ccc(O)c(O)c2)oc2cc(O)cc(O)c12
REMARK SMILES IDX 5 1 3 2 2 3 1 4 22 5 20 6 19 7 17 8 16 9 15 10 14 11 6 12
REMARK SMILES IDX 7 13 8 14 9 15 13 16 11 17 10 18 12 20 4 22 21 24 18 26
REMARK H PARENT 10 19 12 21 4 23 21 25 18 27
REMARK Flexibility Score: inf
ROOT
ATOM      1  C   UNL     1       3.313  10.924  11.793  1.00  0.00     0.180 A 
ATOM      2  C   UNL     1       1.910  11.002  11.706  1.00  0.00     0.208 A 
ATOM      3  C   UNL     1       1.315  12.245  11.436  1.00  0.00     0.238 A 
ATOM      4  O   UNL     1       0.059  12.324  11.345  1.00  0.00    -0.285 OA
ATOM      5  C   UNL     1       2.127  13.386  11.279  1.00  0.00     0.111 A 
ATOM      6  C   UNL     1       1.606  14.675  11.010  1.00  0.00     0.134 A 
ATOM      7  C   UNL     1       2.480  15.764  10.876  1.00  0.00     0.093 A 
ATOM      8  C   UNL     1       3.862  15.589  11.007  1.00  0.00     0.123 A 
ATOM      9  C   UNL     1       4.380  14.320  11.272  1.00  0.00     0.094 A 
ATOM     10  C   UNL     1       3.526  13.222  11.407  1.00  0.00     0.146 A 
ATOM     11  O   UNL     1       4.045  12.025  11.654  1.00  0.00    -0.452 OA
ENDROOT
BRANCH   1  12
ATOM     12  C   UNL     1       4.015   9.647  12.055  1.00  0.00     0.025 A 
ATOM     13  C   UNL     1       3.460   8.665  12.894  1.00  0.00     0.016 A 
ATOM     14  C   UNL     1       4.131   7.457  13.106  1.00  0.00     0.051 A 
ATOM     15  C   UNL     1       5.354   7.206  12.478  1.00  0.00     0.157 A 
ATOM     16  C   UNL     1       5.235   9.383  11.409  1.00  0.00     0.062 A 
ATOM     17  C   UNL     1       5.909   8.173  11.622  1.00  0.00     0.158 A 
BRANCH  15  18
ATOM     18  O   UNL     1       6.000   5.993  12.712  1.00  0.00    -0.504 OA
ATOM     19  H   UNL     1       6.715   5.636  12.091  1.00  0.00     0.293 HD
ENDBRANCH  15  18
BRANCH  17  20
ATOM     20  O   UNL     1       7.125   7.926  10.986  1.00  0.00    -0.504 OA
ATOM     21  H   UNL     1       7.349   7.016  10.603  1.00  0.00     0.293 HD
ENDBRANCH  17  20
ENDBRANCH   1  12
BRANCH   2  22
ATOM     22  O   UNL     1       1.125   9.865  11.914  1.00  0.00    -0.502 OA
ATOM     23  H   UNL     1       0.798   9.592  12.834  1.00  0.00     0.293 HD
ENDBRANCH   2  22
BRANCH   6  24
ATOM     24  O   UNL     1       0.233  14.882  10.875  1.00  0.00    -0.507 OA
ATOM     25  H   UNL     1      -0.437  14.434  11.489  1.00  0.00     0.293 HD
ENDBRANCH   6  24
BRANCH   8  26
ATOM     26  O   UNL     1       4.731  16.670  10.875  1.00  0.00    -0.508 OA
ATOM     27  H   UNL     1       4.435  17.537  10.442  1.00  0.00     0.293 HD
ENDBRANCH   8  26
TORSDOF 6
ENDMDL
