MODEL 1
REMARK VINA RESULT:    -2.510      0.000      0.000
REMARK INTER + INTRA:          -3.124
REMARK INTER:                  -3.390
REMARK INTRA:                   0.266
REMARK UNBOUND:                 0.266
REMARK SMILES CC(=O)CCC=C(C)CCC=C(C)C
REMARK SMILES IDX 7 1 6 2 8 3 9 4 10 5 11 6 13 7 12 8 14 9 5 10 4 11 2 12 3 13
REMARK SMILES IDX 1 14
REMARK H PARENT
REMARK Flexibility Score: inf
ROOT
ATOM      1  C   UNL     1      -3.508   5.434   8.312  1.00  0.00    -0.077 C 
ATOM      2  C   UNL     1      -3.882   4.211   7.868  1.00  0.00    -0.028 C 
ATOM      3  C   UNL     1      -2.842   6.368   7.331  1.00  0.00     0.039 C 
ENDROOT
BRANCH   1   4
ATOM      4  C   UNL     1      -3.726   5.910   9.736  1.00  0.00     0.034 C 
BRANCH   4   5
ATOM      5  C   UNL     1      -2.973   7.218  10.006  1.00  0.00     0.032 C 
BRANCH   5   6
ATOM      6  C   UNL     1      -1.488   6.970  10.096  1.00  0.00    -0.028 C 
ATOM      7  C   UNL     1       0.903   7.534  10.102  1.00  0.00     0.039 C 
ATOM      8  C   UNL     1      -0.543   7.924   9.941  1.00  0.00    -0.080 C 
ATOM      9  C   UNL     1      -0.896   9.352   9.599  1.00  0.00     0.039 C 
ENDBRANCH   5   6
ENDBRANCH   4   5
ENDBRANCH   1   4
BRANCH   2  10
ATOM     10  C   UNL     1      -4.540   3.134   8.699  1.00  0.00     0.035 C 
BRANCH  10  11
ATOM     11  C   UNL     1      -6.048   3.111   8.434  1.00  0.00     0.079 C 
BRANCH  11  12
ATOM     12  C   UNL     1      -6.793   3.841   9.521  1.00  0.00     0.130 C 
ATOM     13  O   UNL     1      -6.350   4.896   9.948  1.00  0.00    -0.300 OA
ATOM     14  C   UNL     1      -8.062   3.293  10.103  1.00  0.00     0.087 C 
ENDBRANCH  11  12
ENDBRANCH  10  11
ENDBRANCH   2  10
TORSDOF 6
ENDMDL
MODEL 2
REMARK VINA RESULT:    -1.869      2.764      6.877
REMARK INTER + INTRA:          -2.258
REMARK INTER:                  -1.647
REMARK INTRA:                  -0.611
REMARK UNBOUND:                 0.266
REMARK SMILES CC(=O)CCC=C(C)CCC=C(C)C
REMARK SMILES IDX 7 1 6 2 8 3 9 4 10 5 11 6 13 7 12 8 14 9 5 10 4 11 2 12 3 13
REMARK SMILES IDX 1 14
REMARK H PARENT
REMARK Flexibility Score: inf
ROOT
ATOM      1  C   UNL     1      -2.773   6.743   9.352  1.00  0.00    -0.077 C 
ATOM      2  C   UNL     1      -2.018   7.775   9.797  1.00  0.00    -0.028 C 
ATOM      3  C   UNL     1      -4.112   6.513  10.008  1.00  0.00     0.039 C 
ENDROOT
BRANCH   1   4
ATOM      4  C   UNL     1      -2.342   5.816   8.231  1.00  0.00     0.034 C 
BRANCH   4   5
ATOM      5  C   UNL     1      -3.520   5.471   7.313  1.00  0.00     0.032 C 
BRANCH   5   6
ATOM      6  C   UNL     1      -3.527   3.999   6.985  1.00  0.00    -0.028 C 
ATOM      7  C   UNL     1      -4.275   1.661   7.095  1.00  0.00     0.039 C 
ATOM      8  C   UNL     1      -4.353   3.093   7.555  1.00  0.00    -0.080 C 
ATOM      9  C   UNL     1      -5.330   3.473   8.643  1.00  0.00     0.039 C 
ENDBRANCH   5   6
ENDBRANCH   4   5
ENDBRANCH   1   4
BRANCH   2  10
ATOM     10  C   UNL     1      -0.647   8.153   9.286  1.00  0.00     0.035 C 
BRANCH  10  11
ATOM     11  C   UNL     1       0.435   7.454  10.113  1.00  0.00     0.079 C 
BRANCH  11  12
ATOM     12  C   UNL     1       1.710   8.256  10.111  1.00  0.00     0.130 C 
ATOM     13  O   UNL     1       1.652   9.476  10.106  1.00  0.00    -0.300 OA
ATOM     14  C   UNL     1       3.053   7.588  10.102  1.00  0.00     0.087 C 
ENDBRANCH  11  12
ENDBRANCH  10  11
ENDBRANCH   2  10
TORSDOF 6
ENDMDL
MODEL 3
REMARK VINA RESULT:    -1.620      1.846      5.214
REMARK INTER + INTRA:          -1.922
REMARK INTER:                  -2.578
REMARK INTRA:                   0.656
REMARK UNBOUND:                 0.266
REMARK SMILES CC(=O)CCC=C(C)CCC=C(C)C
REMARK SMILES IDX 7 1 6 2 8 3 9 4 10 5 11 6 13 7 12 8 14 9 5 10 4 11 2 12 3 13
REMARK SMILES IDX 1 14
REMARK H PARENT
REMARK Flexibility Score: inf
ROOT
ATOM      1  C   UNL     1      -5.754   3.951   9.716  1.00  0.00    -0.077 C 
ATOM      2  C   UNL     1      -5.245   5.147  10.095  1.00  0.00    -0.028 C 
ATOM      3  C   UNL     1      -7.248   3.761   9.797  1.00  0.00     0.039 C 
ENDROOT
BRANCH   1   4
ATOM      4  C   UNL     1      -4.901   2.801   9.215  1.00  0.00     0.034 C 
BRANCH   4   5
ATOM      5  C   UNL     1      -4.436   3.043   7.773  1.00  0.00     0.032 C 
BRANCH   5   6
ATOM      6  C   UNL     1      -4.068   4.491   7.567  1.00  0.00    -0.028 C 
ATOM      7  C   UNL     1      -3.179   6.453   6.385  1.00  0.00     0.039 C 
ATOM      8  C   UNL     1      -3.443   4.972   6.470  1.00  0.00    -0.080 C 
ATOM      9  C   UNL     1      -2.993   4.071   5.344  1.00  0.00     0.039 C 
ENDBRANCH   5   6
ENDBRANCH   4   5
ENDBRANCH   1   4
BRANCH   2  10
ATOM     10  C   UNL     1      -3.781   5.521  10.106  1.00  0.00     0.035 C 
BRANCH  10  11
ATOM     11  C   UNL     1      -3.626   7.044  10.108  1.00  0.00     0.079 C 
BRANCH  11  12
ATOM     12  C   UNL     1      -2.198   7.436   9.837  1.00  0.00     0.130 C 
ATOM     13  O   UNL     1      -1.420   6.605   9.396  1.00  0.00    -0.300 OA
ATOM     14  C   UNL     1      -1.703   8.826  10.111  1.00  0.00     0.087 C 
ENDBRANCH  11  12
ENDBRANCH  10  11
ENDBRANCH   2  10
TORSDOF 6
ENDMDL
MODEL 4
REMARK VINA RESULT:    -0.165      1.752      2.717
REMARK INTER + INTRA:           0.044
REMARK INTER:                   0.551
REMARK INTRA:                  -0.508
REMARK UNBOUND:                 0.266
REMARK SMILES CC(=O)CCC=C(C)CCC=C(C)C
REMARK SMILES IDX 7 1 6 2 8 3 9 4 10 5 11 6 13 7 12 8 14 9 5 10 4 11 2 12 3 13
REMARK SMILES IDX 1 14
REMARK H PARENT
REMARK Flexibility Score: inf
ROOT
ATOM      1  C   UNL     1      -4.145   6.378  10.114  1.00  0.00    -0.077 C 
ATOM      2  C   UNL     1      -5.119   5.437  10.099  1.00  0.00    -0.028 C 
ATOM      3  C   UNL     1      -4.563   7.827  10.125  1.00  0.00     0.039 C 
ENDROOT
BRANCH   1   4
ATOM      4  C   UNL     1      -2.664   6.047  10.123  1.00  0.00     0.034 C 
BRANCH   4   5
ATOM      5  C   UNL     1      -1.968   6.582   8.866  1.00  0.00     0.032 C 
BRANCH   5   6
ATOM      6  C   UNL     1      -1.464   7.985   9.092  1.00  0.00    -0.028 C 
ATOM      7  C   UNL     1       0.124   9.739   9.757  1.00  0.00     0.039 C 
ATOM      8  C   UNL     1      -0.262   8.288   9.633  1.00  0.00    -0.080 C 
ATOM      9  C   UNL     1       0.687   7.220  10.124  1.00  0.00     0.039 C 
ENDBRANCH   5   6
ENDBRANCH   4   5
ENDBRANCH   1   4
BRANCH   2  10
ATOM     10  C   UNL     1      -4.902   3.942  10.065  1.00  0.00     0.035 C 
BRANCH  10  11
ATOM     11  C   UNL     1      -5.621   3.333   8.858  1.00  0.00     0.079 C 
BRANCH  11  12
ATOM     12  C   UNL     1      -4.635   2.956   7.783  1.00  0.00     0.130 C 
ATOM     13  O   UNL     1      -4.550   1.791   7.427  1.00  0.00    -0.300 OA
ATOM     14  C   UNL     1      -3.742   3.981   7.148  1.00  0.00     0.087 C 
ENDBRANCH  11  12
ENDBRANCH  10  11
ENDBRANCH   2  10
TORSDOF 6
ENDMDL
MODEL 5
REMARK VINA RESULT:     0.354      2.458      5.881
REMARK INTER + INTRA:           0.745
REMARK INTER:                   1.427
REMARK INTRA:                  -0.682
REMARK UNBOUND:                 0.266
REMARK SMILES CC(=O)CCC=C(C)CCC=C(C)C
REMARK SMILES IDX 7 1 6 2 8 3 9 4 10 5 11 6 13 7 12 8 14 9 5 10 4 11 2 12 3 13
REMARK SMILES IDX 1 14
REMARK H PARENT
REMARK Flexibility Score: inf
ROOT
ATOM      1  C   UNL     1      -4.017   5.608   9.767  1.00  0.00    -0.077 C 
ATOM      2  C   UNL     1      -3.167   6.600  10.122  1.00  0.00    -0.028 C 
ATOM      3  C   UNL     1      -5.498   5.872   9.881  1.00  0.00     0.039 C 
ENDROOT
BRANCH   1   4
ATOM      4  C   UNL     1      -3.556   4.254   9.261  1.00  0.00     0.034 C 
BRANCH   4   5
ATOM      5  C   UNL     1      -4.483   3.729   8.158  1.00  0.00     0.032 C 
BRANCH   5   6
ATOM      6  C   UNL     1      -3.728   3.558   6.863  1.00  0.00    -0.028 C 
ATOM      7  C   UNL     1      -2.522   4.254   4.839  1.00  0.00     0.039 C 
ATOM      8  C   UNL     1      -3.303   4.578   6.085  1.00  0.00    -0.080 C 
ATOM      9  C   UNL     1      -3.603   6.021   6.421  1.00  0.00     0.039 C 
ENDBRANCH   5   6
ENDBRANCH   4   5
ENDBRANCH   1   4
BRANCH   2  10
ATOM     10  C   UNL     1      -1.658   6.521  10.098  1.00  0.00     0.035 C 
BRANCH  10  11
ATOM     11  C   UNL     1      -1.094   7.524   9.088  1.00  0.00     0.079 C 
BRANCH  11  12
ATOM     12  C   UNL     1      -0.237   8.553   9.778  1.00  0.00     0.130 C 
ATOM     13  O   UNL     1      -0.718   9.637  10.068  1.00  0.00    -0.300 OA
ATOM     14  C   UNL     1       1.201   8.280  10.106  1.00  0.00     0.087 C 
ENDBRANCH  11  12
ENDBRANCH  10  11
ENDBRANCH   2  10
TORSDOF 6
ENDMDL
