MODEL 1
REMARK VINA RESULT:    33.862      0.000      0.000
REMARK INTER + INTRA:          34.852
REMARK INTER:                  34.852
REMARK INTRA:                   0.000
REMARK UNBOUND:                 0.000
REMARK SMILES C=C1[C@H](O)C[C@]23C[C@H]1C(C)(C)[C@@H]2CC[C@@H]3C
REMARK SMILES IDX 16 1 15 2 14 3 13 4 12 5 6 6 7 7 8 8 9 9 10 10 11 11 2 12
REMARK SMILES IDX 1 13 3 14 5 15 4 16
REMARK H PARENT 4 17
REMARK Flexibility Score: inf
ROOT
ATOM      1  C   UNL     1     -22.447  30.895  -9.079  1.00  0.00     0.008 C 
ATOM      2  C   UNL     1     -23.709  31.675  -8.685  1.00  0.00    -0.008 C 
ATOM      3  C   UNL     1     -24.333  32.480  -9.865  1.00  0.00     0.004 C 
ATOM      4  C   UNL     1     -25.863  32.539  -9.609  1.00  0.00     0.005 C 
ATOM      5  C   UNL     1     -25.975  31.937  -8.220  1.00  0.00     0.002 C 
ATOM      6  C   UNL     1     -24.906  30.851  -8.159  1.00  0.00    -0.020 C 
ATOM      7  C   UNL     1     -25.037  30.473  -6.691  1.00  0.00     0.016 C 
ATOM      8  C   UNL     1     -26.574  30.243  -6.617  1.00  0.00     0.023 C 
ATOM      9  C   UNL     1     -27.222  31.375  -7.510  1.00  0.00    -0.025 C 
ATOM     10  C   UNL     1     -27.864  32.443  -6.592  1.00  0.00     0.012 C 
ATOM     11  C   UNL     1     -28.309  30.915  -8.515  1.00  0.00     0.012 C 
ATOM     12  C   UNL     1     -26.833  28.869  -7.192  1.00  0.00    -0.045 C 
ATOM     13  C   UNL     1     -27.792  28.083  -6.682  1.00  0.00     0.011 C 
ATOM     14  C   UNL     1     -26.025  28.417  -8.395  1.00  0.00     0.140 C 
ATOM     15  C   UNL     1     -25.209  29.574  -9.059  1.00  0.00     0.044 C 
ENDROOT
BRANCH  14  16
ATOM     16  O   UNL     1     -25.142  27.398  -7.996  1.00  0.00    -0.389 OA
ATOM     17  H   UNL     1     -24.922  26.866  -8.805  1.00  0.00     0.211 HD
ENDBRANCH  14  16
TORSDOF 1
ENDMDL
MODEL 2
REMARK VINA RESULT:    34.495      6.878      8.318
REMARK INTER + INTRA:          35.504
REMARK INTER:                  35.504
REMARK INTRA:                   0.000
REMARK UNBOUND:                 0.000
REMARK SMILES C=C1[C@H](O)C[C@]23C[C@H]1C(C)(C)[C@@H]2CC[C@@H]3C
REMARK SMILES IDX 16 1 15 2 14 3 13 4 12 5 6 6 7 7 8 8 9 9 10 10 11 11 2 12
REMARK SMILES IDX 1 13 3 14 5 15 4 16
REMARK H PARENT 4 17
REMARK Flexibility Score: inf
ROOT
ATOM      1  C   UNL     1     -21.417  26.835  -8.903  1.00  0.00     0.008 C 
ATOM      2  C   UNL     1     -21.022  27.151  -7.454  1.00  0.00    -0.008 C 
ATOM      3  C   UNL     1     -22.210  27.668  -6.587  1.00  0.00     0.004 C 
ATOM      4  C   UNL     1     -21.933  27.213  -5.129  1.00  0.00     0.005 C 
ATOM      5  C   UNL     1     -20.531  26.642  -5.236  1.00  0.00     0.002 C 
ATOM      6  C   UNL     1     -20.462  25.984  -6.610  1.00  0.00    -0.020 C 
ATOM      7  C   UNL     1     -18.985  25.619  -6.624  1.00  0.00     0.016 C 
ATOM      8  C   UNL     1     -18.885  24.885  -5.256  1.00  0.00     0.023 C 
ATOM      9  C   UNL     1     -19.792  25.709  -4.257  1.00  0.00    -0.025 C 
ATOM     10  C   UNL     1     -18.888  26.518  -3.297  1.00  0.00     0.012 C 
ATOM     11  C   UNL     1     -20.772  24.883  -3.385  1.00  0.00     0.012 C 
ATOM     12  C   UNL     1     -19.428  23.491  -5.475  1.00  0.00    -0.045 C 
ATOM     13  C   UNL     1     -18.888  22.439  -4.841  1.00  0.00     0.011 C 
ATOM     14  C   UNL     1     -20.632  23.310  -6.380  1.00  0.00     0.140 C 
ATOM     15  C   UNL     1     -21.331  24.658  -6.752  1.00  0.00     0.044 C 
ENDROOT
BRANCH  14  16
ATOM     16  O   UNL     1     -20.224  22.660  -7.559  1.00  0.00    -0.389 OA
ATOM     17  H   UNL     1     -20.717  21.800  -7.606  1.00  0.00     0.211 HD
ENDBRANCH  14  16
TORSDOF 1
ENDMDL
MODEL 3
REMARK VINA RESULT:    34.924      7.106      9.013
REMARK INTER + INTRA:          35.945
REMARK INTER:                  35.945
REMARK INTRA:                   0.000
REMARK UNBOUND:                 0.000
REMARK SMILES C=C1[C@H](O)C[C@]23C[C@H]1C(C)(C)[C@@H]2CC[C@@H]3C
REMARK SMILES IDX 16 1 15 2 14 3 13 4 12 5 6 6 7 7 8 8 9 9 10 10 11 11 2 12
REMARK SMILES IDX 1 13 3 14 5 15 4 16
REMARK H PARENT 4 17
REMARK Flexibility Score: inf
ROOT
ATOM      1  C   UNL     1     -20.106  22.419  -7.971  1.00  0.00     0.008 C 
ATOM      2  C   UNL     1     -20.335  22.968  -6.556  1.00  0.00    -0.008 C 
ATOM      3  C   UNL     1     -19.342  22.395  -5.501  1.00  0.00     0.004 C 
ATOM      4  C   UNL     1     -19.140  23.497  -4.428  1.00  0.00     0.005 C 
ATOM      5  C   UNL     1     -20.169  24.535  -4.842  1.00  0.00     0.002 C 
ATOM      6  C   UNL     1     -20.196  24.495  -6.367  1.00  0.00    -0.020 C 
ATOM      7  C   UNL     1     -21.360  25.444  -6.606  1.00  0.00     0.016 C 
ATOM      8  C   UNL     1     -20.901  26.648  -5.734  1.00  0.00     0.023 C 
ATOM      9  C   UNL     1     -20.263  26.017  -4.433  1.00  0.00    -0.025 C 
ATOM     10  C   UNL     1     -21.238  26.202  -3.245  1.00  0.00     0.012 C 
ATOM     11  C   UNL     1     -18.889  26.591  -3.998  1.00  0.00     0.012 C 
ATOM     12  C   UNL     1     -19.872  27.400  -6.546  1.00  0.00    -0.045 C 
ATOM     13  C   UNL     1     -19.800  28.738  -6.489  1.00  0.00     0.011 C 
ATOM     14  C   UNL     1     -18.883  26.610  -7.384  1.00  0.00     0.140 C 
ATOM     15  C   UNL     1     -18.892  25.079  -7.067  1.00  0.00     0.044 C 
ENDROOT
BRANCH  14  16
ATOM     16  O   UNL     1     -19.182  26.802  -8.745  1.00  0.00    -0.389 OA
ATOM     17  H   UNL     1     -20.121  26.512  -8.884  1.00  0.00     0.211 HD
ENDBRANCH  14  16
TORSDOF 1
ENDMDL
MODEL 4
REMARK VINA RESULT:    36.331      1.725      3.352
REMARK INTER + INTRA:          37.393
REMARK INTER:                  37.393
REMARK INTRA:                   0.000
REMARK UNBOUND:                 0.000
REMARK SMILES C=C1[C@H](O)C[C@]23C[C@H]1C(C)(C)[C@@H]2CC[C@@H]3C
REMARK SMILES IDX 16 1 15 2 14 3 13 4 12 5 6 6 7 7 8 8 9 9 10 10 11 11 2 12
REMARK SMILES IDX 1 13 3 14 5 15 4 16
REMARK H PARENT 4 17
REMARK Flexibility Score: inf
ROOT
ATOM      1  C   UNL     1     -25.065  33.878  -9.413  1.00  0.00     0.008 C 
ATOM      2  C   UNL     1     -24.494  32.468  -9.618  1.00  0.00    -0.008 C 
ATOM      3  C   UNL     1     -23.037  32.307  -9.086  1.00  0.00     0.004 C 
ATOM      4  C   UNL     1     -22.884  30.830  -8.636  1.00  0.00     0.005 C 
ATOM      5  C   UNL     1     -24.187  30.216  -9.115  1.00  0.00     0.002 C 
ATOM      6  C   UNL     1     -25.242  31.303  -8.933  1.00  0.00    -0.020 C 
ATOM      7  C   UNL     1     -26.419  30.603  -9.594  1.00  0.00     0.016 C 
ATOM      8  C   UNL     1     -26.373  29.243  -8.841  1.00  0.00     0.023 C 
ATOM      9  C   UNL     1     -24.840  28.886  -8.691  1.00  0.00    -0.025 C 
ATOM     10  C   UNL     1     -24.481  27.753  -9.683  1.00  0.00     0.012 C 
ATOM     11  C   UNL     1     -24.378  28.431  -7.282  1.00  0.00     0.012 C 
ATOM     12  C   UNL     1     -27.021  29.474  -7.494  1.00  0.00    -0.045 C 
ATOM     13  C   UNL     1     -27.771  28.520  -6.923  1.00  0.00     0.011 C 
ATOM     14  C   UNL     1     -26.760  30.784  -6.774  1.00  0.00     0.140 C 
ATOM     15  C   UNL     1     -25.607  31.622  -7.416  1.00  0.00     0.044 C 
ENDROOT
BRANCH  14  16
ATOM     16  O   UNL     1     -27.941  31.548  -6.774  1.00  0.00    -0.389 OA
ATOM     17  H   UNL     1     -28.694  30.925  -6.596  1.00  0.00     0.211 HD
ENDBRANCH  14  16
TORSDOF 1
ENDMDL
