MODEL 1
REMARK VINA RESULT:    -4.702      0.000      0.000
REMARK INTER + INTRA:         -10.568
REMARK INTER:                  -9.100
REMARK INTRA:                  -1.468
REMARK UNBOUND:                -1.468
REMARK SMILES CCCCCCCCCCCCCCCCCC(=O)[O-]
REMARK SMILES IDX 10 1 11 2 12 3 13 4 14 5 15 6 16 7 17 8 18 9 19 10 20 11
REMARK SMILES IDX 9 12 8 13 7 14 6 15 5 16 4 17 3 18 2 19 1 20
REMARK H PARENT
REMARK Flexibility Score: inf
ROOT
ATOM      1  C   UNL     1      -0.034   3.341  -4.423  1.00  0.00     0.000 C 
ENDROOT
BRANCH   1   2
ATOM      2  C   UNL     1      -1.389   2.674  -4.126  1.00  0.00     0.000 C 
BRANCH   2   3
ATOM      3  C   UNL     1      -1.577   2.356  -2.635  1.00  0.00     0.000 C 
BRANCH   3   4
ATOM      4  C   UNL     1      -3.036   2.525  -2.174  1.00  0.00     0.000 C 
BRANCH   4   5
ATOM      5  C   UNL     1      -4.032   2.526  -3.343  1.00  0.00     0.000 C 
BRANCH   5   6
ATOM      6  C   UNL     1      -4.883   1.249  -3.400  1.00  0.00     0.000 C 
BRANCH   6   7
ATOM      7  C   UNL     1      -4.224   0.190  -4.293  1.00  0.00     0.006 C 
BRANCH   7   8
ATOM      8  C   UNL     1      -3.648  -0.956  -3.455  1.00  0.00     0.053 C 
BRANCH   8   9
ATOM      9  C   UNL     1      -4.495  -2.181  -3.588  1.00  0.00     0.041 C 
ATOM     10  O   UNL     1      -4.423  -3.098  -2.728  1.00  0.00    -0.550 OA
ATOM     11  O   UNL     1      -5.403  -2.287  -4.635  1.00  0.00    -0.550 OA
ENDBRANCH   8   9
ENDBRANCH   7   8
ENDBRANCH   6   7
ENDBRANCH   5   6
ENDBRANCH   4   5
ENDBRANCH   3   4
ENDBRANCH   2   3
ENDBRANCH   1   2
BRANCH   1  12
ATOM     12  C   UNL     1       0.743   3.695  -3.146  1.00  0.00     0.000 C 
BRANCH  12  13
ATOM     13  C   UNL     1       2.262   3.496  -3.304  1.00  0.00    -0.000 C 
BRANCH  13  14
ATOM     14  C   UNL     1       2.677   2.018  -3.239  1.00  0.00    -0.000 C 
BRANCH  14  15
ATOM     15  C   UNL     1       3.683   1.637  -4.338  1.00  0.00    -0.000 C 
BRANCH  15  16
ATOM     16  C   UNL     1       4.095   2.840  -5.202  1.00  0.00    -0.000 C 
BRANCH  16  17
ATOM     17  C   UNL     1       3.650   2.694  -6.669  1.00  0.00    -0.000 C 
BRANCH  17  18
ATOM     18  C   UNL     1       4.770   3.045  -7.661  1.00  0.00    -0.000 C 
BRANCH  18  19
ATOM     19  C   UNL     1       5.409   1.798  -8.292  1.00  0.00    -0.003 C 
ATOM     20  C   UNL     1       4.376   0.694  -8.494  1.00  0.00     0.004 C 
ENDBRANCH  18  19
ENDBRANCH  17  18
ENDBRANCH  16  17
ENDBRANCH  15  16
ENDBRANCH  14  15
ENDBRANCH  13  14
ENDBRANCH  12  13
ENDBRANCH   1  12
TORSDOF 16
ENDMDL
MODEL 2
REMARK VINA RESULT:    -4.674      3.678      8.295
REMARK INTER + INTRA:         -10.514
REMARK INTER:                  -9.001
REMARK INTRA:                  -1.513
REMARK UNBOUND:                -1.468
REMARK SMILES CCCCCCCCCCCCCCCCCC(=O)[O-]
REMARK SMILES IDX 10 1 11 2 12 3 13 4 14 5 15 6 16 7 17 8 18 9 19 10 20 11
REMARK SMILES IDX 9 12 8 13 7 14 6 15 5 16 4 17 3 18 2 19 1 20
REMARK H PARENT
REMARK Flexibility Score: inf
ROOT
ATOM      1  C   UNL     1      -1.005   3.621  -4.612  1.00  0.00     0.000 C 
ENDROOT
BRANCH   1   2
ATOM      2  C   UNL     1       0.521   3.418  -4.611  1.00  0.00     0.000 C 
BRANCH   2   3
ATOM      3  C   UNL     1       1.191   3.978  -3.347  1.00  0.00     0.000 C 
BRANCH   3   4
ATOM      4  C   UNL     1       2.642   3.492  -3.181  1.00  0.00     0.000 C 
BRANCH   4   5
ATOM      5  C   UNL     1       2.776   1.967  -3.314  1.00  0.00     0.000 C 
BRANCH   5   6
ATOM      6  C   UNL     1       3.765   1.552  -4.413  1.00  0.00     0.000 C 
BRANCH   6   7
ATOM      7  C   UNL     1       4.191   2.762  -5.254  1.00  0.00     0.006 C 
BRANCH   7   8
ATOM      8  C   UNL     1       3.654   2.654  -6.685  1.00  0.00     0.053 C 
BRANCH   8   9
ATOM      9  C   UNL     1       4.549   1.792  -7.518  1.00  0.00     0.041 C 
ATOM     10  O   UNL     1       5.586   2.277  -8.043  1.00  0.00    -0.550 OA
ATOM     11  O   UNL     1       4.266   0.440  -7.671  1.00  0.00    -0.550 OA
ENDBRANCH   8   9
ENDBRANCH   7   8
ENDBRANCH   6   7
ENDBRANCH   5   6
ENDBRANCH   4   5
ENDBRANCH   3   4
ENDBRANCH   2   3
ENDBRANCH   1   2
BRANCH   1  12
ATOM     12  C   UNL     1      -1.765   2.394  -4.085  1.00  0.00     0.000 C 
BRANCH  12  13
ATOM     13  C   UNL     1      -2.028   2.468  -2.569  1.00  0.00    -0.000 C 
BRANCH  13  14
ATOM     14  C   UNL     1      -3.517   2.644  -2.233  1.00  0.00    -0.000 C 
BRANCH  14  15
ATOM     15  C   UNL     1      -4.420   2.546  -3.474  1.00  0.00    -0.000 C 
BRANCH  15  16
ATOM     16  C   UNL     1      -5.739   1.810  -3.186  1.00  0.00    -0.000 C 
BRANCH  16  17
ATOM     17  C   UNL     1      -5.777   0.401  -3.804  1.00  0.00    -0.000 C 
BRANCH  17  18
ATOM     18  C   UNL     1      -4.420  -0.023  -4.387  1.00  0.00    -0.000 C 
BRANCH  18  19
ATOM     19  C   UNL     1      -3.643  -0.958  -3.448  1.00  0.00    -0.003 C 
ATOM     20  C   UNL     1      -4.273  -2.348  -3.412  1.00  0.00     0.004 C 
ENDBRANCH  18  19
ENDBRANCH  17  18
ENDBRANCH  16  17
ENDBRANCH  15  16
ENDBRANCH  14  15
ENDBRANCH  13  14
ENDBRANCH  12  13
ENDBRANCH   1  12
TORSDOF 16
ENDMDL
MODEL 3
REMARK VINA RESULT:    -4.552      1.206      1.749
REMARK INTER + INTRA:         -10.279
REMARK INTER:                  -8.580
REMARK INTRA:                  -1.699
REMARK UNBOUND:                -1.468
REMARK SMILES CCCCCCCCCCCCCCCCCC(=O)[O-]
REMARK SMILES IDX 10 1 11 2 12 3 13 4 14 5 15 6 16 7 17 8 18 9 19 10 20 11
REMARK SMILES IDX 9 12 8 13 7 14 6 15 5 16 4 17 3 18 2 19 1 20
REMARK H PARENT
REMARK Flexibility Score: inf
ROOT
ATOM      1  C   UNL     1      -1.458   3.185  -4.110  1.00  0.00     0.000 C 
ENDROOT
BRANCH   1   2
ATOM      2  C   UNL     1      -1.735   2.140  -3.015  1.00  0.00     0.000 C 
BRANCH   2   3
ATOM      3  C   UNL     1      -2.860   2.568  -2.061  1.00  0.00     0.000 C 
BRANCH   3   4
ATOM      4  C   UNL     1      -4.190   2.826  -2.792  1.00  0.00     0.000 C 
BRANCH   4   5
ATOM      5  C   UNL     1      -4.984   1.537  -3.053  1.00  0.00     0.000 C 
BRANCH   5   6
ATOM      6  C   UNL     1      -4.933   1.097  -4.524  1.00  0.00     0.000 C 
BRANCH   6   7
ATOM      7  C   UNL     1      -4.416  -0.341  -4.650  1.00  0.00     0.006 C 
BRANCH   7   8
ATOM      8  C   UNL     1      -3.845  -0.839  -3.319  1.00  0.00     0.053 C 
BRANCH   8   9
ATOM      9  C   UNL     1      -3.646  -2.321  -3.355  1.00  0.00     0.041 C 
ATOM     10  O   UNL     1      -2.542  -2.804  -3.722  1.00  0.00    -0.550 OA
ATOM     11  O   UNL     1      -4.664  -3.170  -2.934  1.00  0.00    -0.550 OA
ENDBRANCH   8   9
ENDBRANCH   7   8
ENDBRANCH   6   7
ENDBRANCH   5   6
ENDBRANCH   4   5
ENDBRANCH   3   4
ENDBRANCH   2   3
ENDBRANCH   1   2
BRANCH   1  12
ATOM     12  C   UNL     1       0.031   3.277  -4.477  1.00  0.00     0.000 C 
BRANCH  12  13
ATOM     13  C   UNL     1       0.808   4.241  -3.562  1.00  0.00    -0.000 C 
BRANCH  13  14
ATOM     14  C   UNL     1       2.116   3.633  -3.033  1.00  0.00    -0.000 C 
BRANCH  14  15
ATOM     15  C   UNL     1       2.298   2.163  -3.451  1.00  0.00    -0.000 C 
BRANCH  15  16
ATOM     16  C   UNL     1       3.739   1.848  -3.883  1.00  0.00    -0.000 C 
BRANCH  16  17
ATOM     17  C   UNL     1       3.901   1.807  -5.413  1.00  0.00    -0.000 C 
BRANCH  17  18
ATOM     18  C   UNL     1       4.007   3.210  -6.032  1.00  0.00    -0.000 C 
BRANCH  18  19
ATOM     19  C   UNL     1       2.791   3.564  -6.900  1.00  0.00    -0.003 C 
ATOM     20  C   UNL     1       3.082   3.323  -8.378  1.00  0.00     0.004 C 
ENDBRANCH  18  19
ENDBRANCH  17  18
ENDBRANCH  16  17
ENDBRANCH  15  16
ENDBRANCH  14  15
ENDBRANCH  13  14
ENDBRANCH  12  13
ENDBRANCH   1  12
TORSDOF 16
ENDMDL
MODEL 4
REMARK VINA RESULT:    -4.545      1.733      3.441
REMARK INTER + INTRA:         -10.264
REMARK INTER:                  -8.164
REMARK INTRA:                  -2.100
REMARK UNBOUND:                -1.468
REMARK SMILES CCCCCCCCCCCCCCCCCC(=O)[O-]
REMARK SMILES IDX 10 1 11 2 12 3 13 4 14 5 15 6 16 7 17 8 18 9 19 10 20 11
REMARK SMILES IDX 9 12 8 13 7 14 6 15 5 16 4 17 3 18 2 19 1 20
REMARK H PARENT
REMARK Flexibility Score: inf
ROOT
ATOM      1  C   UNL     1      -2.564   4.978  -5.148  1.00  0.00     0.000 C 
ENDROOT
BRANCH   1   2
ATOM      2  C   UNL     1      -4.024   5.411  -4.926  1.00  0.00     0.000 C 
BRANCH   2   3
ATOM      3  C   UNL     1      -5.011   4.238  -5.030  1.00  0.00     0.000 C 
BRANCH   3   4
ATOM      4  C   UNL     1      -5.690   3.915  -3.687  1.00  0.00     0.000 C 
BRANCH   4   5
ATOM      5  C   UNL     1      -4.984   2.787  -2.920  1.00  0.00     0.000 C 
BRANCH   5   6
ATOM      6  C   UNL     1      -5.509   1.394  -3.296  1.00  0.00     0.000 C 
BRANCH   6   7
ATOM      7  C   UNL     1      -4.495   0.642  -4.168  1.00  0.00     0.006 C 
BRANCH   7   8
ATOM      8  C   UNL     1      -3.536  -0.186  -3.307  1.00  0.00     0.053 C 
BRANCH   8   9
ATOM      9  C   UNL     1      -3.788  -1.648  -3.500  1.00  0.00     0.041 C 
ATOM     10  O   UNL     1      -4.959  -2.070  -3.690  1.00  0.00    -0.550 OA
ATOM     11  O   UNL     1      -2.722  -2.540  -3.520  1.00  0.00    -0.550 OA
ENDBRANCH   8   9
ENDBRANCH   7   8
ENDBRANCH   6   7
ENDBRANCH   5   6
ENDBRANCH   4   5
ENDBRANCH   3   4
ENDBRANCH   2   3
ENDBRANCH   1   2
BRANCH   1  12
ATOM     12  C   UNL     1      -2.450   3.577  -5.769  1.00  0.00     0.000 C 
BRANCH  12  13
ATOM     13  C   UNL     1      -1.573   2.629  -4.931  1.00  0.00    -0.000 C 
BRANCH  13  14
ATOM     14  C   UNL     1      -1.583   2.977  -3.434  1.00  0.00    -0.000 C 
BRANCH  14  15
ATOM     15  C   UNL     1      -0.190   2.863  -2.791  1.00  0.00    -0.000 C 
BRANCH  15  16
ATOM     16  C   UNL     1       0.712   4.062  -3.122  1.00  0.00    -0.000 C 
BRANCH  16  17
ATOM     17  C   UNL     1       2.066   3.636  -3.717  1.00  0.00    -0.000 C 
BRANCH  17  18
ATOM     18  C   UNL     1       2.420   2.177  -3.389  1.00  0.00    -0.000 C 
BRANCH  18  19
ATOM     19  C   UNL     1       3.698   1.707  -4.102  1.00  0.00    -0.003 C 
ATOM     20  C   UNL     1       4.376   2.862  -4.832  1.00  0.00     0.004 C 
ENDBRANCH  18  19
ENDBRANCH  17  18
ENDBRANCH  16  17
ENDBRANCH  15  16
ENDBRANCH  14  15
ENDBRANCH  13  14
ENDBRANCH  12  13
ENDBRANCH   1  12
TORSDOF 16
ENDMDL
MODEL 5
REMARK VINA RESULT:    -4.527      1.482      2.286
REMARK INTER + INTRA:         -10.230
REMARK INTER:                  -8.275
REMARK INTRA:                  -1.955
REMARK UNBOUND:                -1.468
REMARK SMILES CCCCCCCCCCCCCCCCCC(=O)[O-]
REMARK SMILES IDX 10 1 11 2 12 3 13 4 14 5 15 6 16 7 17 8 18 9 19 10 20 11
REMARK SMILES IDX 9 12 8 13 7 14 6 15 5 16 4 17 3 18 2 19 1 20
REMARK H PARENT
REMARK Flexibility Score: inf
ROOT
ATOM      1  C   UNL     1       1.154   4.706  -4.573  1.00  0.00     0.000 C 
ENDROOT
BRANCH   1   2
ATOM      2  C   UNL     1       0.846   3.695  -5.691  1.00  0.00     0.000 C 
BRANCH   2   3
ATOM      3  C   UNL     1      -0.533   3.921  -6.330  1.00  0.00     0.000 C 
BRANCH   3   4
ATOM      4  C   UNL     1      -1.673   3.916  -5.295  1.00  0.00     0.000 C 
BRANCH   4   5
ATOM      5  C   UNL     1      -1.851   2.550  -4.616  1.00  0.00     0.000 C 
BRANCH   5   6
ATOM      6  C   UNL     1      -2.042   2.664  -3.096  1.00  0.00     0.000 C 
BRANCH   6   7
ATOM      7  C   UNL     1      -3.295   1.906  -2.641  1.00  0.00     0.006 C 
BRANCH   7   8
ATOM      8  C   UNL     1      -3.395   0.542  -3.332  1.00  0.00     0.053 C 
BRANCH   8   9
ATOM      9  C   UNL     1      -4.710   0.403  -4.030  1.00  0.00     0.041 C 
ATOM     10  O   UNL     1      -5.779   0.701  -3.435  1.00  0.00    -0.550 OA
ATOM     11  O   UNL     1      -4.752  -0.009  -5.358  1.00  0.00    -0.550 OA
ENDBRANCH   8   9
ENDBRANCH   7   8
ENDBRANCH   6   7
ENDBRANCH   5   6
ENDBRANCH   4   5
ENDBRANCH   3   4
ENDBRANCH   2   3
ENDBRANCH   1   2
BRANCH   1  12
ATOM     12  C   UNL     1       1.427   4.028  -3.221  1.00  0.00     0.000 C 
BRANCH  12  13
ATOM     13  C   UNL     1       1.613   2.506  -3.350  1.00  0.00    -0.000 C 
BRANCH  13  14
ATOM     14  C   UNL     1       3.065   2.063  -3.115  1.00  0.00    -0.000 C 
BRANCH  14  15
ATOM     15  C   UNL     1       3.864   1.937  -4.424  1.00  0.00    -0.000 C 
BRANCH  15  16
ATOM     16  C   UNL     1       4.568   3.247  -4.812  1.00  0.00    -0.000 C 
BRANCH  16  17
ATOM     17  C   UNL     1       4.799   3.367  -6.329  1.00  0.00    -0.000 C 
BRANCH  17  18
ATOM     18  C   UNL     1       3.966   2.357  -7.133  1.00  0.00    -0.000 C 
BRANCH  18  19
ATOM     19  C   UNL     1       4.700   1.852  -8.384  1.00  0.00    -0.003 C 
ATOM     20  C   UNL     1       4.423   0.371  -8.623  1.00  0.00     0.004 C 
ENDBRANCH  18  19
ENDBRANCH  17  18
ENDBRANCH  16  17
ENDBRANCH  15  16
ENDBRANCH  14  15
ENDBRANCH  13  14
ENDBRANCH  12  13
ENDBRANCH   1  12
TORSDOF 16
ENDMDL
MODEL 6
REMARK VINA RESULT:    -4.522      3.399      7.724
REMARK INTER + INTRA:         -10.219
REMARK INTER:                  -8.416
REMARK INTRA:                  -1.803
REMARK UNBOUND:                -1.468
REMARK SMILES CCCCCCCCCCCCCCCCCC(=O)[O-]
REMARK SMILES IDX 10 1 11 2 12 3 13 4 14 5 15 6 16 7 17 8 18 9 19 10 20 11
REMARK SMILES IDX 9 12 8 13 7 14 6 15 5 16 4 17 3 18 2 19 1 20
REMARK H PARENT
REMARK Flexibility Score: inf
ROOT
ATOM      1  C   UNL     1      -1.077   3.370  -6.413  1.00  0.00     0.000 C 
ENDROOT
BRANCH   1   2
ATOM      2  C   UNL     1      -0.473   3.809  -7.759  1.00  0.00     0.000 C 
BRANCH   2   3
ATOM      3  C   UNL     1       0.957   4.351  -7.617  1.00  0.00     0.000 C 
BRANCH   3   4
ATOM      4  C   UNL     1       1.956   3.637  -8.546  1.00  0.00     0.000 C 
BRANCH   4   5
ATOM      5  C   UNL     1       3.246   3.221  -7.823  1.00  0.00     0.000 C 
BRANCH   5   6
ATOM      6  C   UNL     1       3.244   3.605  -6.337  1.00  0.00     0.000 C 
BRANCH   6   7
ATOM      7  C   UNL     1       3.790   2.462  -5.472  1.00  0.00     0.006 C 
BRANCH   7   8
ATOM      8  C   UNL     1       4.390   2.996  -4.168  1.00  0.00     0.053 C 
BRANCH   8   9
ATOM      9  C   UNL     1       3.963   2.150  -3.010  1.00  0.00     0.041 C 
ATOM     10  O   UNL     1       4.705   2.040  -1.998  1.00  0.00    -0.550 OA
ATOM     11  O   UNL     1       2.722   1.525  -3.026  1.00  0.00    -0.550 OA
ENDBRANCH   8   9
ENDBRANCH   7   8
ENDBRANCH   6   7
ENDBRANCH   5   6
ENDBRANCH   4   5
ENDBRANCH   3   4
ENDBRANCH   2   3
ENDBRANCH   1   2
BRANCH   1  12
ATOM     12  C   UNL     1      -0.033   3.314  -5.287  1.00  0.00     0.000 C 
BRANCH  12  13
ATOM     13  C   UNL     1      -0.453   4.128  -4.050  1.00  0.00    -0.000 C 
BRANCH  13  14
ATOM     14  C   UNL     1      -0.266   3.353  -2.737  1.00  0.00    -0.000 C 
BRANCH  14  15
ATOM     15  C   UNL     1      -1.251   2.180  -2.596  1.00  0.00    -0.000 C 
BRANCH  15  16
ATOM     16  C   UNL     1      -2.654   2.638  -2.168  1.00  0.00    -0.000 C 
BRANCH  16  17
ATOM     17  C   UNL     1      -3.713   2.399  -3.259  1.00  0.00    -0.000 C 
BRANCH  17  18
ATOM     18  C   UNL     1      -3.326   1.260  -4.215  1.00  0.00    -0.000 C 
BRANCH  18  19
ATOM     19  C   UNL     1      -3.895  -0.098  -3.775  1.00  0.00    -0.003 C 
ATOM     20  C   UNL     1      -5.416  -0.122  -3.901  1.00  0.00     0.004 C 
ENDBRANCH  18  19
ENDBRANCH  17  18
ENDBRANCH  16  17
ENDBRANCH  15  16
ENDBRANCH  14  15
ENDBRANCH  13  14
ENDBRANCH  12  13
ENDBRANCH   1  12
TORSDOF 16
ENDMDL
MODEL 7
REMARK VINA RESULT:    -4.503      4.231      7.844
REMARK INTER + INTRA:         -10.183
REMARK INTER:                  -8.101
REMARK INTRA:                  -2.082
REMARK UNBOUND:                -1.468
REMARK SMILES CCCCCCCCCCCCCCCCCC(=O)[O-]
REMARK SMILES IDX 10 1 11 2 12 3 13 4 14 5 15 6 16 7 17 8 18 9 19 10 20 11
REMARK SMILES IDX 9 12 8 13 7 14 6 15 5 16 4 17 3 18 2 19 1 20
REMARK H PARENT
REMARK Flexibility Score: inf
ROOT
ATOM      1  C   UNL     1      -2.069   2.627  -6.018  1.00  0.00     0.000 C 
ENDROOT
BRANCH   1   2
ATOM      2  C   UNL     1      -1.104   3.463  -6.877  1.00  0.00     0.000 C 
BRANCH   2   3
ATOM      3  C   UNL     1      -0.345   4.517  -6.056  1.00  0.00     0.000 C 
BRANCH   3   4
ATOM      4  C   UNL     1      -0.910   4.680  -4.634  1.00  0.00     0.000 C 
BRANCH   4   5
ATOM      5  C   UNL     1       0.182   4.644  -3.554  1.00  0.00     0.000 C 
BRANCH   5   6
ATOM      6  C   UNL     1       0.790   3.245  -3.371  1.00  0.00     0.000 C 
BRANCH   6   7
ATOM      7  C   UNL     1       2.266   3.229  -3.787  1.00  0.00     0.006 C 
BRANCH   7   8
ATOM      8  C   UNL     1       2.965   1.962  -3.286  1.00  0.00     0.053 C 
BRANCH   8   9
ATOM      9  C   UNL     1       4.333   2.285  -2.773  1.00  0.00     0.041 C 
ATOM     10  O   UNL     1       5.244   2.631  -3.571  1.00  0.00    -0.550 OA
ATOM     11  O   UNL     1       4.587   2.254  -1.407  1.00  0.00    -0.550 OA
ENDBRANCH   8   9
ENDBRANCH   7   8
ENDBRANCH   6   7
ENDBRANCH   5   6
ENDBRANCH   4   5
ENDBRANCH   3   4
ENDBRANCH   2   3
ENDBRANCH   1   2
BRANCH   1  12
ATOM     12  C   UNL     1      -3.433   2.419  -6.693  1.00  0.00     0.000 C 
BRANCH  12  13
ATOM     13  C   UNL     1      -4.489   3.434  -6.218  1.00  0.00    -0.000 C 
BRANCH  13  14
ATOM     14  C   UNL     1      -4.196   3.982  -4.813  1.00  0.00    -0.000 C 
BRANCH  14  15
ATOM     15  C   UNL     1      -5.303   3.641  -3.801  1.00  0.00    -0.000 C 
BRANCH  15  16
ATOM     16  C   UNL     1      -4.792   2.776  -2.638  1.00  0.00    -0.000 C 
BRANCH  16  17
ATOM     17  C   UNL     1      -3.262   2.609  -2.654  1.00  0.00    -0.000 C 
BRANCH  17  18
ATOM     18  C   UNL     1      -2.830   1.170  -2.981  1.00  0.00    -0.000 C 
BRANCH  18  19
ATOM     19  C   UNL     1      -3.965   0.342  -3.602  1.00  0.00    -0.003 C 
ATOM     20  C   UNL     1      -3.707  -1.153  -3.439  1.00  0.00     0.004 C 
ENDBRANCH  18  19
ENDBRANCH  17  18
ENDBRANCH  16  17
ENDBRANCH  15  16
ENDBRANCH  14  15
ENDBRANCH  13  14
ENDBRANCH  12  13
ENDBRANCH   1  12
TORSDOF 16
ENDMDL
MODEL 8
REMARK VINA RESULT:    -4.497      3.937      8.476
REMARK INTER + INTRA:         -10.171
REMARK INTER:                  -8.342
REMARK INTRA:                  -1.829
REMARK UNBOUND:                -1.468
REMARK SMILES CCCCCCCCCCCCCCCCCC(=O)[O-]
REMARK SMILES IDX 10 1 11 2 12 3 13 4 14 5 15 6 16 7 17 8 18 9 19 10 20 11
REMARK SMILES IDX 9 12 8 13 7 14 6 15 5 16 4 17 3 18 2 19 1 20
REMARK H PARENT
REMARK Flexibility Score: inf
ROOT
ATOM      1  C   UNL     1       0.341   4.334  -4.822  1.00  0.00     0.000 C 
ENDROOT
BRANCH   1   2
ATOM      2  C   UNL     1       1.216   4.040  -3.590  1.00  0.00     0.000 C 
BRANCH   2   3
ATOM      3  C   UNL     1       1.478   2.539  -3.396  1.00  0.00     0.000 C 
BRANCH   3   4
ATOM      4  C   UNL     1       2.970   2.218  -3.195  1.00  0.00     0.000 C 
BRANCH   4   5
ATOM      5  C   UNL     1       3.718   2.015  -4.521  1.00  0.00     0.000 C 
BRANCH   5   6
ATOM      6  C   UNL     1       4.491   3.266  -4.964  1.00  0.00     0.000 C 
BRANCH   6   7
ATOM      7  C   UNL     1       4.821   3.206  -6.461  1.00  0.00     0.006 C 
BRANCH   7   8
ATOM      8  C   UNL     1       3.988   2.131  -7.166  1.00  0.00     0.053 C 
BRANCH   8   9
ATOM      9  C   UNL     1       4.828   1.374  -8.145  1.00  0.00     0.041 C 
ATOM     10  O   UNL     1       5.959   1.813  -8.482  1.00  0.00    -0.550 OA
ATOM     11  O   UNL     1       4.383   0.157  -8.648  1.00  0.00    -0.550 OA
ENDBRANCH   8   9
ENDBRANCH   7   8
ENDBRANCH   6   7
ENDBRANCH   5   6
ENDBRANCH   4   5
ENDBRANCH   3   4
ENDBRANCH   2   3
ENDBRANCH   1   2
BRANCH   1  12
ATOM     12  C   UNL     1      -1.155   4.120  -4.549  1.00  0.00     0.000 C 
BRANCH  12  13
ATOM     13  C   UNL     1      -1.708   2.859  -5.237  1.00  0.00    -0.000 C 
BRANCH  13  14
ATOM     14  C   UNL     1      -2.376   1.888  -4.251  1.00  0.00    -0.000 C 
BRANCH  14  15
ATOM     15  C   UNL     1      -2.100   2.253  -2.783  1.00  0.00    -0.000 C 
BRANCH  15  16
ATOM     16  C   UNL     1      -3.388   2.551  -1.998  1.00  0.00    -0.000 C 
BRANCH  16  17
ATOM     17  C   UNL     1      -4.658   2.321  -2.837  1.00  0.00    -0.000 C 
BRANCH  17  18
ATOM     18  C   UNL     1      -5.668   3.471  -2.703  1.00  0.00    -0.000 C 
BRANCH  18  19
ATOM     19  C   UNL     1      -5.983   4.137  -4.051  1.00  0.00    -0.003 C 
ATOM     20  C   UNL     1      -4.787   4.933  -4.564  1.00  0.00     0.004 C 
ENDBRANCH  18  19
ENDBRANCH  17  18
ENDBRANCH  16  17
ENDBRANCH  15  16
ENDBRANCH  14  15
ENDBRANCH  13  14
ENDBRANCH  12  13
ENDBRANCH   1  12
TORSDOF 16
ENDMDL
MODEL 9
REMARK VINA RESULT:    -4.464      4.305      7.715
REMARK INTER + INTRA:         -10.108
REMARK INTER:                  -7.616
REMARK INTRA:                  -2.492
REMARK UNBOUND:                -1.468
REMARK SMILES CCCCCCCCCCCCCCCCCC(=O)[O-]
REMARK SMILES IDX 10 1 11 2 12 3 13 4 14 5 15 6 16 7 17 8 18 9 19 10 20 11
REMARK SMILES IDX 9 12 8 13 7 14 6 15 5 16 4 17 3 18 2 19 1 20
REMARK H PARENT
REMARK Flexibility Score: inf
ROOT
ATOM      1  C   UNL     1       0.789   6.410  -5.619  1.00  0.00     0.000 C 
ENDROOT
BRANCH   1   2
ATOM      2  C   UNL     1       0.203   6.148  -4.220  1.00  0.00     0.000 C 
BRANCH   2   3
ATOM      3  C   UNL     1       1.121   5.278  -3.348  1.00  0.00     0.000 C 
BRANCH   3   4
ATOM      4  C   UNL     1       0.466   3.943  -2.949  1.00  0.00     0.000 C 
BRANCH   4   5
ATOM      5  C   UNL     1       1.322   2.725  -3.327  1.00  0.00     0.000 C 
BRANCH   5   6
ATOM      6  C   UNL     1       2.187   2.971  -4.573  1.00  0.00     0.000 C 
BRANCH   6   7
ATOM      7  C   UNL     1       3.547   2.274  -4.444  1.00  0.00     0.006 C 
BRANCH   7   8
ATOM      8  C   UNL     1       3.870   1.963  -2.979  1.00  0.00     0.053 C 
BRANCH   8   9
ATOM      9  C   UNL     1       5.176   2.579  -2.588  1.00  0.00     0.041 C 
ATOM     10  O   UNL     1       5.723   3.433  -3.335  1.00  0.00    -0.550 OA
ATOM     11  O   UNL     1       5.764   2.248  -1.373  1.00  0.00    -0.550 OA
ENDBRANCH   8   9
ENDBRANCH   7   8
ENDBRANCH   6   7
ENDBRANCH   5   6
ENDBRANCH   4   5
ENDBRANCH   3   4
ENDBRANCH   2   3
ENDBRANCH   1   2
BRANCH   1  12
ATOM     12  C   UNL     1       0.379   5.341  -6.642  1.00  0.00     0.000 C 
BRANCH  12  13
ATOM     13  C   UNL     1      -1.064   4.847  -6.434  1.00  0.00    -0.000 C 
BRANCH  13  14
ATOM     14  C   UNL     1      -1.142   3.337  -6.161  1.00  0.00    -0.000 C 
BRANCH  14  15
ATOM     15  C   UNL     1      -2.511   2.904  -5.609  1.00  0.00    -0.000 C 
BRANCH  15  16
ATOM     16  C   UNL     1      -2.921   3.701  -4.360  1.00  0.00    -0.000 C 
BRANCH  16  17
ATOM     17  C   UNL     1      -3.256   2.794  -3.163  1.00  0.00    -0.000 C 
BRANCH  17  18
ATOM     18  C   UNL     1      -2.439   1.492  -3.165  1.00  0.00    -0.000 C 
BRANCH  18  19
ATOM     19  C   UNL     1      -3.326   0.240  -3.243  1.00  0.00    -0.003 C 
ATOM     20  C   UNL     1      -4.760   0.605  -3.616  1.00  0.00     0.004 C 
ENDBRANCH  18  19
ENDBRANCH  17  18
ENDBRANCH  16  17
ENDBRANCH  15  16
ENDBRANCH  14  15
ENDBRANCH  13  14
ENDBRANCH  12  13
ENDBRANCH   1  12
TORSDOF 16
ENDMDL
