MODEL 1
REMARK VINA RESULT:    -5.107      0.000      0.000
REMARK INTER + INTRA:          -8.023
REMARK INTER:                  -7.795
REMARK INTRA:                  -0.228
REMARK UNBOUND:                -0.228
REMARK SMILES CC1=CCC[C@H](C)C(=O)C[C@@H](C(C)C)C(=O)C1
REMARK SMILES IDX 8 1 9 2 6 3 7 4 5 5 4 6 3 7 2 8 1 9 10 11 11 12 15 13 16 14
REMARK SMILES IDX 17 15 12 17 13 18 14 19
REMARK H PARENT
REMARK Flexibility Score: 70.00
ROOT
ATOM      1  C   UNL     1      -9.062  33.220  22.448  1.00  0.00     0.136 C 
ATOM      2  O   UNL     1      -8.703  34.190  21.795  1.00  0.00    -0.299 OA
ENDROOT
BRANCH   1   3
ATOM      3  C   UNL     1      -8.776  31.822  21.935  1.00  0.00     0.053 C 
ATOM      4  C   UNL     1      -9.317  31.652  20.508  1.00  0.00     0.016 C 
BRANCH   3   5
ATOM      5  C   UNL     1      -7.259  31.533  21.990  1.00  0.00     0.015 C 
BRANCH   5   6
ATOM      6  C   UNL     1      -6.856  30.784  23.276  1.00  0.00     0.028 C 
BRANCH   6   7
ATOM      7  C   UNL     1      -7.975  29.906  23.774  1.00  0.00    -0.028 C 
ATOM      8  C   UNL     1      -8.569  30.014  24.985  1.00  0.00    -0.070 CG0
ATOM      9  C   UNL     1      -9.636  29.008  25.340  1.00  0.00     0.039 C 
ATOM     10  G   UNL     1      -8.207  31.084  26.003  1.00  0.00     0.000 G0
ENDBRANCH   6   7
ENDBRANCH   5   6
ENDBRANCH   3   5
ENDBRANCH   1   3
BRANCH   1  11
ATOM     11  C   UNL     1      -9.786  33.440  23.757  1.00  0.00     0.087 C 
BRANCH  11  12
ATOM     12  C   UNL     1      -8.821  33.477  24.970  1.00  0.00     0.066 C 
BRANCH  12  13
ATOM     13  C   UNL     1      -9.097  32.316  25.919  1.00  0.00     0.140 C 
ATOM     14  O   UNL     1     -10.118  32.340  26.594  1.00  0.00    -0.299 OA
BRANCH  13  15
ATOM     15  C   UNL     1      -8.190  31.109  25.997  1.00  0.00     0.106 CG0
ATOM     16  G   UNL     1      -8.575  30.033  24.994  1.00  0.00     0.000 G0
ENDBRANCH  13  15
ENDBRANCH  12  13
BRANCH  12  17
ATOM     17  C   UNL     1      -8.835  34.848  25.721  1.00  0.00    -0.006 C 
ATOM     18  C   UNL     1      -8.401  36.016  24.818  1.00  0.00     0.008 C 
ATOM     19  C   UNL     1      -7.916  34.811  26.956  1.00  0.00     0.008 C 
ENDBRANCH  12  17
ENDBRANCH  11  12
ENDBRANCH   1  11
TORSDOF 1
ENDMDL
MODEL 2
REMARK VINA RESULT:    -5.013      2.367      5.288
REMARK INTER + INTRA:          -7.880
REMARK INTER:                  -7.790
REMARK INTRA:                  -0.090
REMARK UNBOUND:                -0.228
REMARK SMILES CC1=CCC[C@H](C)C(=O)C[C@@H](C(C)C)C(=O)C1
REMARK SMILES IDX 8 1 9 2 6 3 7 4 5 5 4 6 3 7 2 8 1 9 10 11 11 12 15 13 16 14
REMARK SMILES IDX 17 15 12 17 13 18 14 19
REMARK H PARENT
REMARK Flexibility Score: 70.00
ROOT
ATOM      1  C   UNL     1      -8.688  33.139  25.479  1.00  0.00     0.136 C 
ATOM      2  O   UNL     1      -8.252  32.508  26.432  1.00  0.00    -0.299 OA
ENDROOT
BRANCH   1   3
ATOM      3  C   UNL     1      -8.587  34.652  25.472  1.00  0.00     0.053 C 
ATOM      4  C   UNL     1      -8.250  35.175  26.876  1.00  0.00     0.016 C 
BRANCH   3   5
ATOM      5  C   UNL     1      -7.530  35.112  24.442  1.00  0.00     0.015 C 
BRANCH   5   6
ATOM      6  C   UNL     1      -8.168  35.827  23.234  1.00  0.00     0.028 C 
BRANCH   6   7
ATOM      7  C   UNL     1      -7.499  35.429  21.944  1.00  0.00    -0.028 C 
ATOM      8  C   UNL     1      -7.875  34.395  21.158  1.00  0.00    -0.070 CG0
ATOM      9  C   UNL     1      -7.050  34.104  19.929  1.00  0.00     0.039 C 
ATOM     10  G   UNL     1      -9.074  33.509  21.459  1.00  0.00     0.000 G0
ENDBRANCH   6   7
ENDBRANCH   5   6
ENDBRANCH   3   5
ENDBRANCH   1   3
BRANCH   1  11
ATOM     11  C   UNL     1      -9.323  32.392  24.329  1.00  0.00     0.087 C 
BRANCH  11  12
ATOM     12  C   UNL     1      -8.271  31.818  23.343  1.00  0.00     0.066 C 
BRANCH  12  13
ATOM     13  C   UNL     1      -8.668  32.103  21.899  1.00  0.00     0.140 C 
ATOM     14  O   UNL     1      -8.715  31.171  21.108  1.00  0.00    -0.299 OA
BRANCH  13  15
ATOM     15  C   UNL     1      -9.074  33.484  21.436  1.00  0.00     0.106 CG0
ATOM     16  G   UNL     1      -7.873  34.372  21.149  1.00  0.00     0.000 G0
ENDBRANCH  13  15
ENDBRANCH  12  13
BRANCH  12  17
ATOM     17  C   UNL     1      -7.987  30.298  23.570  1.00  0.00    -0.006 C 
ATOM     18  C   UNL     1      -8.728  29.739  24.797  1.00  0.00     0.008 C 
ATOM     19  C   UNL     1      -6.478  30.038  23.744  1.00  0.00     0.008 C 
ENDBRANCH  12  17
ENDBRANCH  11  12
ENDBRANCH   1  11
TORSDOF 1
ENDMDL
MODEL 3
REMARK VINA RESULT:    -4.890      2.014      5.303
REMARK INTER + INTRA:          -7.691
REMARK INTER:                  -7.523
REMARK INTRA:                  -0.169
REMARK UNBOUND:                -0.228
REMARK SMILES CC1=CCC[C@H](C)C(=O)C[C@@H](C(C)C)C(=O)C1
REMARK SMILES IDX 8 1 9 2 6 3 7 4 5 5 4 6 3 7 2 8 1 9 10 11 11 12 15 13 16 14
REMARK SMILES IDX 17 15 12 17 13 18 14 19
REMARK H PARENT
REMARK Flexibility Score: 70.00
ROOT
ATOM      1  C   UNL     1      -8.537  31.307  26.488  1.00  0.00     0.136 C 
ATOM      2  O   UNL     1      -7.672  30.557  26.920  1.00  0.00    -0.299 OA
ENDROOT
BRANCH   1   3
ATOM      3  C   UNL     1      -8.995  32.485  27.326  1.00  0.00     0.053 C 
ATOM      4  C   UNL     1      -9.154  32.070  28.796  1.00  0.00     0.016 C 
BRANCH   3   5
ATOM      5  C   UNL     1      -8.001  33.659  27.186  1.00  0.00     0.015 C 
BRANCH   5   6
ATOM      6  C   UNL     1      -8.652  34.900  26.545  1.00  0.00     0.028 C 
BRANCH   6   7
ATOM      7  C   UNL     1      -7.957  35.286  25.265  1.00  0.00    -0.028 C 
ATOM      8  C   UNL     1      -8.335  34.899  24.025  1.00  0.00    -0.070 CG0
ATOM      9  C   UNL     1      -7.483  35.332  22.859  1.00  0.00     0.039 C 
ATOM     10  G   UNL     1      -9.562  34.042  23.755  1.00  0.00     0.000 G0
ENDBRANCH   6   7
ENDBRANCH   5   6
ENDBRANCH   3   5
ENDBRANCH   1   3
BRANCH   1  11
ATOM     11  C   UNL     1      -9.131  31.038  25.124  1.00  0.00     0.087 C 
BRANCH  11  12
ATOM     12  C   UNL     1      -8.313  31.696  23.982  1.00  0.00     0.066 C 
BRANCH  12  13
ATOM     13  C   UNL     1      -9.174  32.673  23.190  1.00  0.00     0.140 C 
ATOM     14  O   UNL     1      -9.615  32.320  22.105  1.00  0.00    -0.299 OA
BRANCH  13  15
ATOM     15  C   UNL     1      -9.557  34.030  23.736  1.00  0.00     0.106 CG0
ATOM     16  G   UNL     1      -8.343  34.896  24.033  1.00  0.00     0.000 G0
ENDBRANCH  13  15
ENDBRANCH  12  13
BRANCH  12  17
ATOM     17  C   UNL     1      -7.622  30.652  23.047  1.00  0.00    -0.006 C 
ATOM     18  C   UNL     1      -8.387  29.317  22.991  1.00  0.00     0.008 C 
ATOM     19  C   UNL     1      -6.177  30.374  23.501  1.00  0.00     0.008 C 
ENDBRANCH  12  17
ENDBRANCH  11  12
ENDBRANCH   1  11
TORSDOF 1
ENDMDL
MODEL 4
REMARK VINA RESULT:    -4.851      1.647      4.016
REMARK INTER + INTRA:          -7.631
REMARK INTER:                  -7.704
REMARK INTRA:                   0.073
REMARK UNBOUND:                -0.228
REMARK SMILES CC1=CCC[C@H](C)C(=O)C[C@@H](C(C)C)C(=O)C1
REMARK SMILES IDX 8 1 9 2 6 3 7 4 5 5 4 6 3 7 2 8 1 9 10 11 11 12 15 13 16 14
REMARK SMILES IDX 17 15 12 17 13 18 14 19
REMARK H PARENT
REMARK Flexibility Score: 70.00
ROOT
ATOM      1  C   UNL     1      -8.759  33.835  24.658  1.00  0.00     0.136 C 
ATOM      2  O   UNL     1      -9.962  33.802  24.438  1.00  0.00    -0.299 OA
ENDROOT
BRANCH   1   3
ATOM      3  C   UNL     1      -8.243  34.535  25.901  1.00  0.00     0.053 C 
ATOM      4  C   UNL     1      -8.777  35.973  25.970  1.00  0.00     0.016 C 
BRANCH   3   5
ATOM      5  C   UNL     1      -8.635  33.737  27.165  1.00  0.00     0.015 C 
BRANCH   5   6
ATOM      6  C   UNL     1      -7.827  32.432  27.304  1.00  0.00     0.028 C 
BRANCH   6   7
ATOM      7  C   UNL     1      -8.693  31.222  27.069  1.00  0.00    -0.028 C 
ATOM      8  C   UNL     1      -8.604  30.395  26.002  1.00  0.00    -0.070 CG0
ATOM      9  C   UNL     1      -9.596  29.263  25.900  1.00  0.00     0.039 C 
ATOM     10  G   UNL     1      -7.567  30.558  24.902  1.00  0.00     0.000 G0
ENDBRANCH   6   7
ENDBRANCH   5   6
ENDBRANCH   3   5
ENDBRANCH   1   3
BRANCH   1  11
ATOM     11  C   UNL     1      -7.813  33.177  23.681  1.00  0.00     0.087 C 
BRANCH  11  12
ATOM     12  C   UNL     1      -8.486  32.027  22.887  1.00  0.00     0.066 C 
BRANCH  12  13
ATOM     13  C   UNL     1      -8.186  30.676  23.527  1.00  0.00     0.140 C 
ATOM     14  O   UNL     1      -8.404  29.660  22.882  1.00  0.00    -0.299 OA
BRANCH  13  15
ATOM     15  C   UNL     1      -7.560  30.559  24.899  1.00  0.00     0.106 CG0
ATOM     16  G   UNL     1      -8.602  30.387  25.994  1.00  0.00     0.000 G0
ENDBRANCH  13  15
ENDBRANCH  12  13
BRANCH  12  17
ATOM     17  C   UNL     1      -8.118  32.036  21.368  1.00  0.00    -0.006 C 
ATOM     18  C   UNL     1      -7.503  33.374  20.921  1.00  0.00     0.008 C 
ATOM     19  C   UNL     1      -9.356  31.747  20.498  1.00  0.00     0.008 C 
ENDBRANCH  12  17
ENDBRANCH  11  12
ENDBRANCH   1  11
TORSDOF 1
ENDMDL
MODEL 5
REMARK VINA RESULT:    -4.593      1.753      4.164
REMARK INTER + INTRA:          -7.238
REMARK INTER:                  -7.509
REMARK INTRA:                   0.270
REMARK UNBOUND:                -0.228
REMARK SMILES CC1=CCC[C@H](C)C(=O)C[C@@H](C(C)C)C(=O)C1
REMARK SMILES IDX 8 1 9 2 6 3 7 4 5 5 4 6 3 7 2 8 1 9 10 11 11 12 15 13 16 14
REMARK SMILES IDX 17 15 12 17 13 18 14 19
REMARK H PARENT
REMARK Flexibility Score: 70.00
ROOT
ATOM      1  C   UNL     1      -7.900  33.516  23.109  1.00  0.00     0.136 C 
ATOM      2  O   UNL     1      -8.889  33.259  22.436  1.00  0.00    -0.299 OA
ENDROOT
BRANCH   1   3
ATOM      3  C   UNL     1      -7.434  34.953  23.240  1.00  0.00     0.053 C 
ATOM      4  C   UNL     1      -7.599  35.695  21.906  1.00  0.00     0.016 C 
BRANCH   3   5
ATOM      5  C   UNL     1      -8.210  35.666  24.370  1.00  0.00     0.015 C 
BRANCH   5   6
ATOM      6  C   UNL     1      -9.136  34.701  25.138  1.00  0.00     0.028 C 
BRANCH   6   7
ATOM      7  C   UNL     1      -8.598  34.401  26.513  1.00  0.00    -0.028 C 
ATOM      8  C   UNL     1      -8.667  33.201  27.132  1.00  0.00    -0.070 CG0
ATOM      9  C   UNL     1      -8.128  33.098  28.537  1.00  0.00     0.039 C 
ATOM     10  G   UNL     1      -9.271  31.962  26.489  1.00  0.00     0.000 G0
ENDBRANCH   6   7
ENDBRANCH   5   6
ENDBRANCH   3   5
ENDBRANCH   1   3
BRANCH   1  11
ATOM     11  C   UNL     1      -7.163  32.388  23.795  1.00  0.00     0.087 C 
BRANCH  11  12
ATOM     12  C   UNL     1      -8.105  31.224  24.199  1.00  0.00     0.066 C 
BRANCH  12  13
ATOM     13  C   UNL     1      -8.238  31.136  25.716  1.00  0.00     0.140 C 
ATOM     14  O   UNL     1      -7.450  30.433  26.334  1.00  0.00    -0.299 OA
BRANCH  13  15
ATOM     15  C   UNL     1      -9.264  31.942  26.480  1.00  0.00     0.106 CG0
ATOM     16  G   UNL     1      -8.659  33.178  27.128  1.00  0.00     0.000 G0
ENDBRANCH  13  15
ENDBRANCH  12  13
BRANCH  12  17
ATOM     17  C   UNL     1      -7.682  29.853  23.580  1.00  0.00    -0.006 C 
ATOM     18  C   UNL     1      -6.248  29.878  23.022  1.00  0.00     0.008 C 
ATOM     19  C   UNL     1      -8.644  29.437  22.451  1.00  0.00     0.008 C 
ENDBRANCH  12  17
ENDBRANCH  11  12
ENDBRANCH   1  11
TORSDOF 1
ENDMDL
MODEL 6
REMARK VINA RESULT:    -4.448      1.528      3.725
REMARK INTER + INTRA:          -7.016
REMARK INTER:                  -7.570
REMARK INTRA:                   0.553
REMARK UNBOUND:                -0.228
REMARK SMILES CC1=CCC[C@H](C)C(=O)C[C@@H](C(C)C)C(=O)C1
REMARK SMILES IDX 8 1 9 2 6 3 7 4 5 5 4 6 3 7 2 8 1 9 10 11 11 12 15 13 16 14
REMARK SMILES IDX 17 15 12 17 13 18 14 19
REMARK H PARENT
REMARK Flexibility Score: 70.00
ROOT
ATOM      1  C   UNL     1      -9.391  32.273  25.621  1.00  0.00     0.136 C 
ATOM      2  O   UNL     1      -9.749  32.681  26.718  1.00  0.00    -0.299 OA
ENDROOT
BRANCH   1   3
ATOM      3  C   UNL     1      -8.298  31.226  25.530  1.00  0.00     0.053 C 
ATOM      4  C   UNL     1      -7.834  30.809  26.933  1.00  0.00     0.016 C 
BRANCH   3   5
ATOM      5  C   UNL     1      -8.795  30.004  24.725  1.00  0.00     0.015 C 
BRANCH   5   6
ATOM      6  C   UNL     1      -7.906  29.714  23.499  1.00  0.00     0.028 C 
BRANCH   6   7
ATOM      7  C   UNL     1      -8.601  30.091  22.216  1.00  0.00    -0.028 C 
ATOM      8  C   UNL     1      -8.584  31.321  21.654  1.00  0.00    -0.070 CG0
ATOM      9  C   UNL     1      -9.389  31.534  20.396  1.00  0.00     0.039 C 
ATOM     10  G   UNL     1      -7.810  32.495  22.233  1.00  0.00     0.000 G0
ENDBRANCH   6   7
ENDBRANCH   5   6
ENDBRANCH   3   5
ENDBRANCH   1   3
BRANCH   1  11
ATOM     11  C   UNL     1     -10.050  32.827  24.378  1.00  0.00     0.087 C 
BRANCH  11  12
ATOM     12  C   UNL     1      -9.291  34.051  23.800  1.00  0.00     0.066 C 
BRANCH  12  13
ATOM     13  C   UNL     1      -8.681  33.720  22.442  1.00  0.00     0.140 C 
ATOM     14  O   UNL     1      -8.861  34.496  21.514  1.00  0.00    -0.299 OA
BRANCH  13  15
ATOM     15  C   UNL     1      -7.805  32.506  22.230  1.00  0.00     0.106 CG0
ATOM     16  G   UNL     1      -8.579  31.331  21.654  1.00  0.00     0.000 G0
ENDBRANCH  13  15
ENDBRANCH  12  13
BRANCH  12  17
ATOM     17  C   UNL     1      -8.221  34.626  24.784  1.00  0.00    -0.006 C 
ATOM     18  C   UNL     1      -8.760  35.806  25.613  1.00  0.00     0.008 C 
ATOM     19  C   UNL     1      -6.964  35.090  24.024  1.00  0.00     0.008 C 
ENDBRANCH  12  17
ENDBRANCH  11  12
ENDBRANCH   1  11
TORSDOF 1
ENDMDL
MODEL 7
REMARK VINA RESULT:    -4.425      2.155      4.943
REMARK INTER + INTRA:          -6.982
REMARK INTER:                  -7.372
REMARK INTRA:                   0.390
REMARK UNBOUND:                -0.228
REMARK SMILES CC1=CCC[C@H](C)C(=O)C[C@@H](C(C)C)C(=O)C1
REMARK SMILES IDX 8 1 9 2 6 3 7 4 5 5 4 6 3 7 2 8 1 9 10 11 11 12 15 13 16 14
REMARK SMILES IDX 17 15 12 17 13 18 14 19
REMARK H PARENT
REMARK Flexibility Score: 70.00
ROOT
ATOM      1  C   UNL     1      -8.162  30.865  24.565  1.00  0.00     0.136 C 
ATOM      2  O   UNL     1      -7.054  30.386  24.367  1.00  0.00    -0.299 OA
ENDROOT
BRANCH   1   3
ATOM      3  C   UNL     1      -8.826  30.687  25.917  1.00  0.00     0.053 C 
ATOM      4  C   UNL     1      -7.876  29.980  26.894  1.00  0.00     0.016 C 
BRANCH   3   5
ATOM      5  C   UNL     1      -9.277  32.056  26.476  1.00  0.00     0.015 C 
BRANCH   5   6
ATOM      6  C   UNL     1      -8.125  33.080  26.505  1.00  0.00     0.028 C 
BRANCH   6   7
ATOM      7  C   UNL     1      -8.641  34.491  26.386  1.00  0.00    -0.028 C 
ATOM      8  C   UNL     1      -8.391  35.327  25.353  1.00  0.00    -0.070 CG0
ATOM      9  C   UNL     1      -8.942  36.729  25.430  1.00  0.00     0.039 C 
ATOM     10  G   UNL     1      -7.577  34.928  24.132  1.00  0.00     0.000 G0
ENDBRANCH   6   7
ENDBRANCH   5   6
ENDBRANCH   3   5
ENDBRANCH   1   3
BRANCH   1  11
ATOM     11  C   UNL     1      -8.845  31.626  23.452  1.00  0.00     0.087 C 
BRANCH  11  12
ATOM     12  C   UNL     1      -7.915  32.679  22.796  1.00  0.00     0.066 C 
BRANCH  12  13
ATOM     13  C   UNL     1      -8.357  34.094  23.154  1.00  0.00     0.140 C 
ATOM     14  O   UNL     1      -9.407  34.516  22.688  1.00  0.00    -0.299 OA
BRANCH  13  15
ATOM     15  C   UNL     1      -7.579  34.958  24.121  1.00  0.00     0.106 CG0
ATOM     16  G   UNL     1      -8.398  35.332  25.347  1.00  0.00     0.000 G0
ENDBRANCH  13  15
ENDBRANCH  12  13
BRANCH  12  17
ATOM     17  C   UNL     1      -7.779  32.495  21.250  1.00  0.00    -0.006 C 
ATOM     18  C   UNL     1      -7.339  33.789  20.541  1.00  0.00     0.008 C 
ATOM     19  C   UNL     1      -9.107  32.020  20.631  1.00  0.00     0.008 C 
ENDBRANCH  12  17
ENDBRANCH  11  12
ENDBRANCH   1  11
TORSDOF 1
ENDMDL
MODEL 8
REMARK VINA RESULT:    -4.419      1.821      3.933
REMARK INTER + INTRA:          -6.973
REMARK INTER:                  -7.675
REMARK INTRA:                   0.702
REMARK UNBOUND:                -0.228
REMARK SMILES CC1=CCC[C@H](C)C(=O)C[C@@H](C(C)C)C(=O)C1
REMARK SMILES IDX 8 1 9 2 6 3 7 4 5 5 4 6 3 7 2 8 1 9 10 11 11 12 15 13 16 14
REMARK SMILES IDX 17 15 12 17 13 18 14 19
REMARK H PARENT
REMARK Flexibility Score: 70.00
ROOT
ATOM      1  C   UNL     1      -8.856  32.664  21.260  1.00  0.00     0.136 C 
ATOM      2  O   UNL     1      -9.150  32.094  20.218  1.00  0.00    -0.299 OA
ENDROOT
BRANCH   1   3
ATOM      3  C   UNL     1      -7.678  33.617  21.286  1.00  0.00     0.053 C 
ATOM      4  C   UNL     1      -7.109  33.809  19.873  1.00  0.00     0.016 C 
BRANCH   3   5
ATOM      5  C   UNL     1      -8.098  34.971  21.902  1.00  0.00     0.015 C 
BRANCH   5   6
ATOM      6  C   UNL     1      -7.248  35.340  23.133  1.00  0.00     0.028 C 
BRANCH   6   7
ATOM      7  C   UNL     1      -8.068  35.306  24.397  1.00  0.00    -0.028 C 
ATOM      8  C   UNL     1      -8.261  34.215  25.172  1.00  0.00    -0.070 CG0
ATOM      9  C   UNL     1      -9.164  34.351  26.372  1.00  0.00     0.039 C 
ATOM     10  G   UNL     1      -7.626  32.863  24.886  1.00  0.00     0.000 G0
ENDBRANCH   6   7
ENDBRANCH   5   6
ENDBRANCH   3   5
ENDBRANCH   1   3
BRANCH   1  11
ATOM     11  C   UNL     1      -9.679  32.401  22.500  1.00  0.00     0.087 C 
BRANCH  11  12
ATOM     12  C   UNL     1      -9.099  31.250  23.363  1.00  0.00     0.066 C 
BRANCH  12  13
ATOM     13  C   UNL     1      -8.647  31.765  24.724  1.00  0.00     0.140 C 
ATOM     14  O   UNL     1      -9.073  31.216  25.731  1.00  0.00    -0.299 OA
BRANCH  13  15
ATOM     15  C   UNL     1      -7.635  32.880  24.865  1.00  0.00     0.106 CG0
ATOM     16  G   UNL     1      -8.291  34.216  25.181  1.00  0.00     0.000 G0
ENDBRANCH  13  15
ENDBRANCH  12  13
BRANCH  12  17
ATOM     17  C   UNL     1      -7.960  30.460  22.641  1.00  0.00    -0.006 C 
ATOM     18  C   UNL     1      -8.337  28.991  22.381  1.00  0.00     0.008 C 
ATOM     19  C   UNL     1      -6.657  30.497  23.461  1.00  0.00     0.008 C 
ENDBRANCH  12  17
ENDBRANCH  11  12
ENDBRANCH   1  11
TORSDOF 1
ENDMDL
MODEL 9
REMARK VINA RESULT:    -3.826      1.760      3.036
REMARK INTER + INTRA:          -6.067
REMARK INTER:                  -7.140
REMARK INTRA:                   1.073
REMARK UNBOUND:                -0.228
REMARK SMILES CC1=CCC[C@H](C)C(=O)C[C@@H](C(C)C)C(=O)C1
REMARK SMILES IDX 8 1 9 2 6 3 7 4 5 5 4 6 3 7 2 8 1 9 10 11 11 12 15 13 16 14
REMARK SMILES IDX 17 15 12 17 13 18 14 19
REMARK H PARENT
REMARK Flexibility Score: 70.00
ROOT
ATOM      1  C   UNL     1      -8.446  34.569  24.153  1.00  0.00     0.136 C 
ATOM      2  O   UNL     1      -7.530  35.112  24.757  1.00  0.00    -0.299 OA
ENDROOT
BRANCH   1   3
ATOM      3  C   UNL     1      -8.650  34.862  22.680  1.00  0.00     0.053 C 
ATOM      4  C   UNL     1      -7.340  35.343  22.040  1.00  0.00     0.016 C 
BRANCH   3   5
ATOM      5  C   UNL     1      -9.193  33.609  21.956  1.00  0.00     0.015 C 
BRANCH   5   6
ATOM      6  C   UNL     1      -8.155  32.999  20.993  1.00  0.00     0.028 C 
BRANCH   6   7
ATOM      7  C   UNL     1      -7.189  32.102  21.723  1.00  0.00    -0.028 C 
ATOM      8  C   UNL     1      -7.527  31.207  22.679  1.00  0.00    -0.070 CG0
ATOM      9  C   UNL     1      -6.417  30.435  23.348  1.00  0.00     0.039 C 
ATOM     10  G   UNL     1      -8.960  30.954  23.119  1.00  0.00     0.000 G0
ENDBRANCH   6   7
ENDBRANCH   5   6
ENDBRANCH   3   5
ENDBRANCH   1   3
BRANCH   1  11
ATOM     11  C   UNL     1      -9.355  33.617  24.896  1.00  0.00     0.087 C 
BRANCH  11  12
ATOM     12  C   UNL     1      -8.613  32.343  25.376  1.00  0.00     0.066 C 
BRANCH  12  13
ATOM     13  C   UNL     1      -9.113  31.110  24.631  1.00  0.00     0.140 C 
ATOM     14  O   UNL     1      -9.720  30.252  25.258  1.00  0.00    -0.299 OA
BRANCH  13  15
ATOM     15  C   UNL     1      -8.946  30.952  23.137  1.00  0.00     0.106 CG0
ATOM     16  G   UNL     1      -7.515  31.203  22.687  1.00  0.00     0.000 G0
ENDBRANCH  13  15
ENDBRANCH  12  13
BRANCH  12  17
ATOM     17  C   UNL     1      -8.681  32.144  26.925  1.00  0.00    -0.006 C 
ATOM     18  C   UNL     1      -8.436  33.452  27.697  1.00  0.00     0.008 C 
ATOM     19  C   UNL     1      -7.654  31.095  27.393  1.00  0.00     0.008 C 
ENDBRANCH  12  17
ENDBRANCH  11  12
ENDBRANCH   1  11
TORSDOF 1
ENDMDL
