MODEL 1
REMARK VINA RESULT:    -6.975      0.000      0.000
REMARK INTER + INTRA:          -8.465
REMARK INTER:                  -8.199
REMARK INTRA:                  -0.266
REMARK UNBOUND:                -0.266
REMARK SMILES O=c1cc(-c2ccc(O)c(O)c2)oc2cc(O)cc(O)c12
REMARK SMILES IDX 4 1 3 2 2 3 1 4 21 5 19 6 18 7 16 8 15 9 14 10 13 11 5 12
REMARK SMILES IDX 6 13 7 14 8 15 12 16 10 17 9 18 11 20 20 22 17 24
REMARK H PARENT 9 19 11 21 20 23 17 25
REMARK Flexibility Score: inf
ROOT
ATOM      1  C   UNL     1       9.819  11.486 -16.165  1.00  0.00     0.138 A 
ATOM      2  C   UNL     1      10.545  10.331 -16.485  1.00  0.00     0.100 A 
ATOM      3  C   UNL     1      10.274   9.138 -15.815  1.00  0.00     0.197 A 
ATOM      4  O   UNL     1      10.983   8.133 -16.080  1.00  0.00    -0.289 OA
ATOM      5  C   UNL     1       9.250   9.096 -14.839  1.00  0.00     0.107 A 
ATOM      6  C   UNL     1       8.859   7.926 -14.120  1.00  0.00     0.134 A 
ATOM      7  C   UNL     1       7.911   8.032 -13.095  1.00  0.00     0.093 A 
ATOM      8  C   UNL     1       7.296   9.252 -12.804  1.00  0.00     0.123 A 
ATOM      9  C   UNL     1       7.632  10.389 -13.536  1.00  0.00     0.094 A 
ATOM     10  C   UNL     1       8.599  10.324 -14.542  1.00  0.00     0.146 A 
ATOM     11  O   UNL     1       8.901  11.434 -15.207  1.00  0.00    -0.456 OA
ENDROOT
BRANCH   1  12
ATOM     12  C   UNL     1      10.065  12.782 -16.849  1.00  0.00     0.021 A 
ATOM     13  C   UNL     1      10.901  13.735 -16.244  1.00  0.00     0.016 A 
ATOM     14  C   UNL     1      11.142  14.965 -16.863  1.00  0.00     0.051 A 
ATOM     15  C   UNL     1      10.547  15.267 -18.091  1.00  0.00     0.157 A 
ATOM     16  C   UNL     1       9.457  13.096 -18.081  1.00  0.00     0.062 A 
ATOM     17  C   UNL     1       9.698  14.331 -18.702  1.00  0.00     0.158 A 
BRANCH  15  18
ATOM     18  O   UNL     1      10.808  16.501 -18.685  1.00  0.00    -0.504 OA
ATOM     19  H   UNL     1      10.365  16.786 -19.550  1.00  0.00     0.293 HD
ENDBRANCH  15  18
BRANCH  17  20
ATOM     20  O   UNL     1       9.091  14.630 -19.920  1.00  0.00    -0.504 OA
ATOM     21  H   UNL     1       8.531  15.466 -20.044  1.00  0.00     0.293 HD
ENDBRANCH  17  20
ENDBRANCH   1  12
BRANCH   6  22
ATOM     22  O   UNL     1       9.348   6.645 -14.389  1.00  0.00    -0.507 OA
ATOM     23  H   UNL     1       9.916   6.400 -15.185  1.00  0.00     0.293 HD
ENDBRANCH   6  22
BRANCH   8  24
ATOM     24  O   UNL     1       6.343   9.344 -11.791  1.00  0.00    -0.508 OA
ATOM     25  H   UNL     1       6.258  10.176 -11.218  1.00  0.00     0.293 HD
ENDBRANCH   8  24
TORSDOF 5
ENDMDL
MODEL 2
REMARK VINA RESULT:    -6.860      1.745      7.451
REMARK INTER + INTRA:          -8.330
REMARK INTER:                  -8.064
REMARK INTRA:                  -0.265
REMARK UNBOUND:                -0.266
REMARK SMILES O=c1cc(-c2ccc(O)c(O)c2)oc2cc(O)cc(O)c12
REMARK SMILES IDX 4 1 3 2 2 3 1 4 21 5 19 6 18 7 16 8 15 9 14 10 13 11 5 12
REMARK SMILES IDX 6 13 7 14 8 15 12 16 10 17 9 18 11 20 20 22 17 24
REMARK H PARENT 9 19 11 21 20 23 17 25
REMARK Flexibility Score: inf
ROOT
ATOM      1  C   UNL     1       9.929  12.502 -17.153  1.00  0.00     0.138 A 
ATOM      2  C   UNL     1      10.675  13.586 -16.670  1.00  0.00     0.100 A 
ATOM      3  C   UNL     1      10.692  14.785 -17.383  1.00  0.00     0.197 A 
ATOM      4  O   UNL     1      11.419  15.719 -16.958  1.00  0.00    -0.289 OA
ATOM      5  C   UNL     1       9.933  14.906 -18.572  1.00  0.00     0.107 A 
ATOM      6  C   UNL     1       9.842  16.093 -19.360  1.00  0.00     0.134 A 
ATOM      7  C   UNL     1       9.154  16.060 -20.579  1.00  0.00     0.093 A 
ATOM      8  C   UNL     1       8.503  14.901 -21.009  1.00  0.00     0.123 A 
ATOM      9  C   UNL     1       8.540  13.753 -20.220  1.00  0.00     0.094 A 
ATOM     10  C   UNL     1       9.247  13.744 -19.016  1.00  0.00     0.146 A 
ATOM     11  O   UNL     1       9.270  12.624 -18.300  1.00  0.00    -0.456 OA
ENDROOT
BRANCH   1  12
ATOM     12  C   UNL     1       9.875  11.204 -16.433  1.00  0.00     0.021 A 
ATOM     13  C   UNL     1       8.958  11.034 -15.382  1.00  0.00     0.016 A 
ATOM     14  C   UNL     1       8.892   9.825 -14.684  1.00  0.00     0.051 A 
ATOM     15  C   UNL     1       9.745   8.769 -15.017  1.00  0.00     0.157 A 
ATOM     16  C   UNL     1      10.741  10.141 -16.757  1.00  0.00     0.062 A 
ATOM     17  C   UNL     1      10.677   8.928 -16.056  1.00  0.00     0.158 A 
BRANCH  15  18
ATOM     18  O   UNL     1       9.655   7.574 -14.304  1.00  0.00    -0.504 OA
ATOM     19  H   UNL     1       8.921   7.406 -13.626  1.00  0.00     0.293 HD
ENDBRANCH  15  18
BRANCH  17  20
ATOM     20  O   UNL     1      11.539   7.883 -16.385  1.00  0.00    -0.504 OA
ATOM     21  H   UNL     1      12.394   8.043 -16.904  1.00  0.00     0.293 HD
ENDBRANCH  17  20
ENDBRANCH   1  12
BRANCH   6  22
ATOM     22  O   UNL     1      10.383  17.325 -18.982  1.00  0.00    -0.507 OA
ATOM     23  H   UNL     1       9.845  18.151 -18.773  1.00  0.00     0.293 HD
ENDBRANCH   6  22
BRANCH   8  24
ATOM     24  O   UNL     1       7.807  14.882 -22.216  1.00  0.00    -0.508 OA
ATOM     25  H   UNL     1       7.226  14.095 -22.480  1.00  0.00     0.293 HD
ENDBRANCH   8  24
TORSDOF 5
ENDMDL
MODEL 3
REMARK VINA RESULT:    -6.765      2.740      7.844
REMARK INTER + INTRA:          -8.218
REMARK INTER:                  -7.949
REMARK INTRA:                  -0.269
REMARK UNBOUND:                -0.266
REMARK SMILES O=c1cc(-c2ccc(O)c(O)c2)oc2cc(O)cc(O)c12
REMARK SMILES IDX 4 1 3 2 2 3 1 4 21 5 19 6 18 7 16 8 15 9 14 10 13 11 5 12
REMARK SMILES IDX 6 13 7 14 8 15 12 16 10 17 9 18 11 20 20 22 17 24
REMARK H PARENT 9 19 11 21 20 23 17 25
REMARK Flexibility Score: inf
ROOT
ATOM      1  C   UNL     1       9.418  12.314 -18.282  1.00  0.00     0.138 A 
ATOM      2  C   UNL     1      10.012  13.294 -17.475  1.00  0.00     0.100 A 
ATOM      3  C   UNL     1      10.101  14.607 -17.936  1.00  0.00     0.197 A 
ATOM      4  O   UNL     1      10.695  15.451 -17.216  1.00  0.00    -0.289 OA
ATOM      5  C   UNL     1       9.566  14.946 -19.201  1.00  0.00     0.107 A 
ATOM      6  C   UNL     1       9.564  16.261 -19.757  1.00  0.00     0.134 A 
ATOM      7  C   UNL     1       9.110  16.455 -21.068  1.00  0.00     0.093 A 
ATOM      8  C   UNL     1       8.602  15.393 -21.820  1.00  0.00     0.123 A 
ATOM      9  C   UNL     1       8.550  14.115 -21.266  1.00  0.00     0.094 A 
ATOM     10  C   UNL     1       9.027  13.882 -19.974  1.00  0.00     0.146 A 
ATOM     11  O   UNL     1       8.972  12.647 -19.488  1.00  0.00    -0.456 OA
ENDROOT
BRANCH   1  12
ATOM     12  C   UNL     1       9.294  10.901 -17.840  1.00  0.00     0.021 A 
ATOM     13  C   UNL     1       8.026  10.299 -17.796  1.00  0.00     0.016 A 
ATOM     14  C   UNL     1       7.882   8.973 -17.377  1.00  0.00     0.051 A 
ATOM     15  C   UNL     1       9.000   8.230 -16.986  1.00  0.00     0.157 A 
ATOM     16  C   UNL     1      10.416  10.152 -17.434  1.00  0.00     0.062 A 
ATOM     17  C   UNL     1      10.273   8.822 -17.012  1.00  0.00     0.158 A 
BRANCH  15  18
ATOM     18  O   UNL     1       8.826   6.909 -16.575  1.00  0.00    -0.504 OA
ATOM     19  H   UNL     1       9.044   6.606 -15.633  1.00  0.00     0.293 HD
ENDBRANCH  15  18
BRANCH  17  20
ATOM     20  O   UNL     1      11.390   8.091 -16.612  1.00  0.00    -0.504 OA
ATOM     21  H   UNL     1      11.328   7.103 -16.393  1.00  0.00     0.293 HD
ENDBRANCH  17  20
ENDBRANCH   1  12
BRANCH   6  22
ATOM     22  O   UNL     1       9.969  17.404 -19.062  1.00  0.00    -0.507 OA
ATOM     23  H   UNL     1       9.600  17.697 -18.170  1.00  0.00     0.293 HD
ENDBRANCH   6  22
BRANCH   8  24
ATOM     24  O   UNL     1       8.138  15.598 -23.118  1.00  0.00    -0.508 OA
ATOM     25  H   UNL     1       7.280  16.106 -23.300  1.00  0.00     0.293 HD
ENDBRANCH   8  24
TORSDOF 5
ENDMDL
MODEL 4
REMARK VINA RESULT:    -6.669      2.460      3.693
REMARK INTER + INTRA:          -8.105
REMARK INTER:                  -7.789
REMARK INTRA:                  -0.316
REMARK UNBOUND:                -0.266
REMARK SMILES O=c1cc(-c2ccc(O)c(O)c2)oc2cc(O)cc(O)c12
REMARK SMILES IDX 4 1 3 2 2 3 1 4 21 5 19 6 18 7 16 8 15 9 14 10 13 11 5 12
REMARK SMILES IDX 6 13 7 14 8 15 12 16 10 17 9 18 11 20 20 22 17 24
REMARK H PARENT 9 19 11 21 20 23 17 25
REMARK Flexibility Score: inf
ROOT
ATOM      1  C   UNL     1       8.902  13.343 -18.721  1.00  0.00     0.138 A 
ATOM      2  C   UNL     1       9.398  12.080 -19.075  1.00  0.00     0.100 A 
ATOM      3  C   UNL     1       9.569  11.105 -18.092  1.00  0.00     0.197 A 
ATOM      4  O   UNL     1      10.073  10.003 -18.429  1.00  0.00    -0.289 OA
ATOM      5  C   UNL     1       9.212  11.388 -16.752  1.00  0.00     0.107 A 
ATOM      6  C   UNL     1       9.305  10.458 -15.672  1.00  0.00     0.134 A 
ATOM      7  C   UNL     1       9.033  10.888 -14.368  1.00  0.00     0.093 A 
ATOM      8  C   UNL     1       8.614  12.195 -14.111  1.00  0.00     0.123 A 
ATOM      9  C   UNL     1       8.468  13.095 -15.165  1.00  0.00     0.094 A 
ATOM     10  C   UNL     1       8.765  12.708 -16.473  1.00  0.00     0.146 A 
ATOM     11  O   UNL     1       8.626  13.600 -17.448  1.00  0.00    -0.456 OA
ENDROOT
BRANCH   1  12
ATOM     12  C   UNL     1       8.699  14.416 -19.727  1.00  0.00     0.021 A 
ATOM     13  C   UNL     1       8.788  14.108 -21.096  1.00  0.00     0.016 A 
ATOM     14  C   UNL     1       8.609  15.102 -22.062  1.00  0.00     0.051 A 
ATOM     15  C   UNL     1       8.346  16.420 -21.680  1.00  0.00     0.157 A 
ATOM     16  C   UNL     1       8.445  15.749 -19.347  1.00  0.00     0.062 A 
ATOM     17  C   UNL     1       8.266  16.747 -20.316  1.00  0.00     0.158 A 
BRANCH  15  18
ATOM     18  O   UNL     1       8.169  17.389 -22.667  1.00  0.00    -0.504 OA
ATOM     19  H   UNL     1       7.503  18.145 -22.565  1.00  0.00     0.293 HD
ENDBRANCH  15  18
BRANCH  17  20
ATOM     20  O   UNL     1       8.016  18.062 -19.928  1.00  0.00    -0.504 OA
ATOM     21  H   UNL     1       8.757  18.669 -19.599  1.00  0.00     0.293 HD
ENDBRANCH  17  20
ENDBRANCH   1  12
BRANCH   6  22
ATOM     22  O   UNL     1       9.631   9.109 -15.830  1.00  0.00    -0.507 OA
ATOM     23  H   UNL     1      10.468   8.766 -16.276  1.00  0.00     0.293 HD
ENDBRANCH   6  22
BRANCH   8  24
ATOM     24  O   UNL     1       8.331  12.609 -12.810  1.00  0.00    -0.508 OA
ATOM     25  H   UNL     1       7.385  12.605 -12.447  1.00  0.00     0.293 HD
ENDBRANCH   8  24
TORSDOF 5
ENDMDL
MODEL 5
REMARK VINA RESULT:    -6.567      2.907      7.266
REMARK INTER + INTRA:          -7.985
REMARK INTER:                  -7.696
REMARK INTRA:                  -0.289
REMARK UNBOUND:                -0.266
REMARK SMILES O=c1cc(-c2ccc(O)c(O)c2)oc2cc(O)cc(O)c12
REMARK SMILES IDX 4 1 3 2 2 3 1 4 21 5 19 6 18 7 16 8 15 9 14 10 13 11 5 12
REMARK SMILES IDX 6 13 7 14 8 15 12 16 10 17 9 18 11 20 20 22 17 24
REMARK H PARENT 9 19 11 21 20 23 17 25
REMARK Flexibility Score: inf
ROOT
ATOM      1  C   UNL     1       7.904   8.292 -15.341  1.00  0.00     0.138 A 
ATOM      2  C   UNL     1       7.515   8.509 -14.012  1.00  0.00     0.100 A 
ATOM      3  C   UNL     1       7.731   9.756 -13.425  1.00  0.00     0.197 A 
ATOM      4  O   UNL     1       7.428   9.903 -12.213  1.00  0.00    -0.289 OA
ATOM      5  C   UNL     1       8.312  10.800 -14.184  1.00  0.00     0.107 A 
ATOM      6  C   UNL     1       8.543  12.124 -13.703  1.00  0.00     0.134 A 
ATOM      7  C   UNL     1       9.231  13.040 -14.509  1.00  0.00     0.093 A 
ATOM      8  C   UNL     1       9.644  12.699 -15.799  1.00  0.00     0.123 A 
ATOM      9  C   UNL     1       9.375  11.425 -16.297  1.00  0.00     0.094 A 
ATOM     10  C   UNL     1       8.721  10.478 -15.507  1.00  0.00     0.146 A 
ATOM     11  O   UNL     1       8.497   9.271 -16.015  1.00  0.00    -0.456 OA
ENDROOT
BRANCH   1  12
ATOM     12  C   UNL     1       7.696   6.985 -16.015  1.00  0.00     0.021 A 
ATOM     13  C   UNL     1       7.560   6.942 -17.413  1.00  0.00     0.016 A 
ATOM     14  C   UNL     1       7.356   5.725 -18.070  1.00  0.00     0.051 A 
ATOM     15  C   UNL     1       7.277   4.534 -17.344  1.00  0.00     0.157 A 
ATOM     16  C   UNL     1       7.604   5.782 -15.287  1.00  0.00     0.062 A 
ATOM     17  C   UNL     1       7.398   4.561 -15.946  1.00  0.00     0.158 A 
BRANCH  15  18
ATOM     18  O   UNL     1       7.075   3.335 -18.029  1.00  0.00    -0.504 OA
ATOM     19  H   UNL     1       7.563   3.118 -18.889  1.00  0.00     0.293 HD
ENDBRANCH  15  18
BRANCH  17  20
ATOM     20  O   UNL     1       7.307   3.378 -15.215  1.00  0.00    -0.504 OA
ATOM     21  H   UNL     1       7.261   3.381 -14.202  1.00  0.00     0.293 HD
ENDBRANCH  17  20
ENDBRANCH   1  12
BRANCH   6  22
ATOM     22  O   UNL     1       8.097  12.593 -12.465  1.00  0.00    -0.507 OA
ATOM     23  H   UNL     1       8.253  12.130 -11.583  1.00  0.00     0.293 HD
ENDBRANCH   6  22
BRANCH   8  24
ATOM     24  O   UNL     1      10.315  13.621 -16.598  1.00  0.00    -0.508 OA
ATOM     25  H   UNL     1       9.830  14.399 -17.031  1.00  0.00     0.293 HD
ENDBRANCH   8  24
TORSDOF 5
ENDMDL
MODEL 6
REMARK VINA RESULT:    -6.495      1.991      7.401
REMARK INTER + INTRA:          -7.900
REMARK INTER:                  -7.634
REMARK INTRA:                  -0.266
REMARK UNBOUND:                -0.266
REMARK SMILES O=c1cc(-c2ccc(O)c(O)c2)oc2cc(O)cc(O)c12
REMARK SMILES IDX 4 1 3 2 2 3 1 4 21 5 19 6 18 7 16 8 15 9 14 10 13 11 5 12
REMARK SMILES IDX 6 13 7 14 8 15 12 16 10 17 9 18 11 20 20 22 17 24
REMARK H PARENT 9 19 11 21 20 23 17 25
REMARK Flexibility Score: inf
ROOT
ATOM      1  C   UNL     1       9.036  11.863 -18.033  1.00  0.00     0.138 A 
ATOM      2  C   UNL     1       8.207  11.638 -19.141  1.00  0.00     0.100 A 
ATOM      3  C   UNL     1       7.970  12.672 -20.047  1.00  0.00     0.197 A 
ATOM      4  O   UNL     1       7.173  12.458 -20.997  1.00  0.00    -0.289 OA
ATOM      5  C   UNL     1       8.592  13.929 -19.858  1.00  0.00     0.107 A 
ATOM      6  C   UNL     1       8.456  15.044 -20.739  1.00  0.00     0.134 A 
ATOM      7  C   UNL     1       9.026  16.273 -20.388  1.00  0.00     0.093 A 
ATOM      8  C   UNL     1       9.777  16.413 -19.218  1.00  0.00     0.123 A 
ATOM      9  C   UNL     1       9.960  15.316 -18.379  1.00  0.00     0.094 A 
ATOM     10  C   UNL     1       9.376  14.085 -18.683  1.00  0.00     0.146 A 
ATOM     11  O   UNL     1       9.564  13.068 -17.849  1.00  0.00    -0.456 OA
ENDROOT
BRANCH   1  12
ATOM     12  C   UNL     1       9.324  10.797 -17.039  1.00  0.00     0.021 A 
ATOM     13  C   UNL     1       8.589  10.753 -15.842  1.00  0.00     0.016 A 
ATOM     14  C   UNL     1       8.846   9.766 -14.886  1.00  0.00     0.051 A 
ATOM     15  C   UNL     1       9.843   8.812 -15.106  1.00  0.00     0.157 A 
ATOM     16  C   UNL     1      10.336   9.841 -17.250  1.00  0.00     0.062 A 
ATOM     17  C   UNL     1      10.595   8.851 -16.291  1.00  0.00     0.158 A 
BRANCH  15  18
ATOM     18  O   UNL     1      10.074   7.837 -14.135  1.00  0.00    -0.504 OA
ATOM     19  H   UNL     1       9.594   6.946 -14.143  1.00  0.00     0.293 HD
ENDBRANCH  15  18
BRANCH  17  20
ATOM     20  O   UNL     1      11.600   7.910 -16.511  1.00  0.00    -0.504 OA
ATOM     21  H   UNL     1      12.427   7.870 -15.927  1.00  0.00     0.293 HD
ENDBRANCH  17  20
ENDBRANCH   1  12
BRANCH   6  22
ATOM     22  O   UNL     1       7.800  14.989 -21.972  1.00  0.00    -0.507 OA
ATOM     23  H   UNL     1       6.869  14.630 -22.114  1.00  0.00     0.293 HD
ENDBRANCH   6  22
BRANCH   8  24
ATOM     24  O   UNL     1      10.352  17.637 -18.884  1.00  0.00    -0.508 OA
ATOM     25  H   UNL     1      11.028  18.088 -19.490  1.00  0.00     0.293 HD
ENDBRANCH   8  24
TORSDOF 5
ENDMDL
MODEL 7
REMARK VINA RESULT:    -6.417      5.871      8.517
REMARK INTER + INTRA:          -7.809
REMARK INTER:                  -7.521
REMARK INTRA:                  -0.287
REMARK UNBOUND:                -0.266
REMARK SMILES O=c1cc(-c2ccc(O)c(O)c2)oc2cc(O)cc(O)c12
REMARK SMILES IDX 4 1 3 2 2 3 1 4 21 5 19 6 18 7 16 8 15 9 14 10 13 11 5 12
REMARK SMILES IDX 6 13 7 14 8 15 12 16 10 17 9 18 11 20 20 22 17 24
REMARK H PARENT 9 19 11 21 20 23 17 25
REMARK Flexibility Score: inf
ROOT
ATOM      1  C   UNL     1       8.288  17.481 -18.416  1.00  0.00     0.138 A 
ATOM      2  C   UNL     1       8.377  16.188 -17.883  1.00  0.00     0.100 A 
ATOM      3  C   UNL     1       8.534  15.098 -18.740  1.00  0.00     0.197 A 
ATOM      4  O   UNL     1       8.548  13.945 -18.238  1.00  0.00    -0.289 OA
ATOM      5  C   UNL     1       8.633  15.310 -20.136  1.00  0.00     0.107 A 
ATOM      6  C   UNL     1       8.836  14.278 -21.102  1.00  0.00     0.134 A 
ATOM      7  C   UNL     1       8.802  14.595 -22.466  1.00  0.00     0.093 A 
ATOM      8  C   UNL     1       8.634  15.913 -22.896  1.00  0.00     0.123 A 
ATOM      9  C   UNL     1       8.489  16.934 -21.960  1.00  0.00     0.094 A 
ATOM     10  C   UNL     1       8.484  16.647 -20.593  1.00  0.00     0.146 A 
ATOM     11  O   UNL     1       8.329  17.648 -19.733  1.00  0.00    -0.456 OA
ENDROOT
BRANCH   1  12
ATOM     12  C   UNL     1       8.122  18.676 -17.549  1.00  0.00     0.021 A 
ATOM     13  C   UNL     1       8.646  19.912 -17.968  1.00  0.00     0.016 A 
ATOM     14  C   UNL     1       8.509  21.049 -17.167  1.00  0.00     0.051 A 
ATOM     15  C   UNL     1       7.856  20.972 -15.934  1.00  0.00     0.157 A 
ATOM     16  C   UNL     1       7.475  18.601 -16.300  1.00  0.00     0.062 A 
ATOM     17  C   UNL     1       7.339  19.742 -15.496  1.00  0.00     0.158 A 
BRANCH  15  18
ATOM     18  O   UNL     1       7.733  22.125 -15.159  1.00  0.00    -0.504 OA
ATOM     19  H   UNL     1       7.863  23.051 -15.548  1.00  0.00     0.293 HD
ENDBRANCH  15  18
BRANCH  17  20
ATOM     20  O   UNL     1       6.697  19.656 -14.262  1.00  0.00    -0.504 OA
ATOM     21  H   UNL     1       5.717  19.892 -14.154  1.00  0.00     0.293 HD
ENDBRANCH  17  20
ENDBRANCH   1  12
BRANCH   6  22
ATOM     22  O   UNL     1       9.098  12.944 -20.777  1.00  0.00    -0.507 OA
ATOM     23  H   UNL     1       9.786  12.639 -20.107  1.00  0.00     0.293 HD
ENDBRANCH   6  22
BRANCH   8  24
ATOM     24  O   UNL     1       8.616  16.220 -24.256  1.00  0.00    -0.508 OA
ATOM     25  H   UNL     1       7.841  16.721 -24.675  1.00  0.00     0.293 HD
ENDBRANCH   8  24
TORSDOF 5
ENDMDL
MODEL 8
REMARK VINA RESULT:    -6.356      2.098      3.943
REMARK INTER + INTRA:          -7.737
REMARK INTER:                  -7.474
REMARK INTRA:                  -0.264
REMARK UNBOUND:                -0.266
REMARK SMILES O=c1cc(-c2ccc(O)c(O)c2)oc2cc(O)cc(O)c12
REMARK SMILES IDX 4 1 3 2 2 3 1 4 21 5 19 6 18 7 16 8 15 9 14 10 13 11 5 12
REMARK SMILES IDX 6 13 7 14 8 15 12 16 10 17 9 18 11 20 20 22 17 24
REMARK H PARENT 9 19 11 21 20 23 17 25
REMARK Flexibility Score: inf
ROOT
ATOM      1  C   UNL     1       9.066  12.550 -18.065  1.00  0.00     0.138 A 
ATOM      2  C   UNL     1       8.211  12.487 -16.956  1.00  0.00     0.100 A 
ATOM      3  C   UNL     1       8.320  11.423 -16.061  1.00  0.00     0.197 A 
ATOM      4  O   UNL     1       7.499  11.359 -15.110  1.00  0.00    -0.289 OA
ATOM      5  C   UNL     1       9.312  10.433 -16.262  1.00  0.00     0.107 A 
ATOM      6  C   UNL     1       9.543   9.326 -15.391  1.00  0.00     0.134 A 
ATOM      7  C   UNL     1      10.477   8.347 -15.755  1.00  0.00     0.093 A 
ATOM      8  C   UNL     1      11.230   8.467 -16.925  1.00  0.00     0.123 A 
ATOM      9  C   UNL     1      11.050   9.573 -17.753  1.00  0.00     0.094 A 
ATOM     10  C   UNL     1      10.103  10.549 -17.437  1.00  0.00     0.146 A 
ATOM     11  O   UNL     1       9.952  11.580 -18.261  1.00  0.00    -0.456 OA
ENDROOT
BRANCH   1  12
ATOM     12  C   UNL     1       8.994  13.661 -19.049  1.00  0.00     0.021 A 
ATOM     13  C   UNL     1       8.422  13.430 -20.312  1.00  0.00     0.016 A 
ATOM     14  C   UNL     1       8.350  14.457 -21.257  1.00  0.00     0.051 A 
ATOM     15  C   UNL     1       8.853  15.727 -20.963  1.00  0.00     0.157 A 
ATOM     16  C   UNL     1       9.511  14.940 -18.761  1.00  0.00     0.062 A 
ATOM     17  C   UNL     1       9.440  15.970 -19.710  1.00  0.00     0.158 A 
BRANCH  15  18
ATOM     18  O   UNL     1       8.764  16.731 -21.926  1.00  0.00    -0.504 OA
ATOM     19  H   UNL     1       9.551  17.327 -22.156  1.00  0.00     0.293 HD
ENDBRANCH  15  18
BRANCH  17  20
ATOM     20  O   UNL     1       9.955  17.231 -19.415  1.00  0.00    -0.504 OA
ATOM     21  H   UNL     1       9.888  17.627 -18.484  1.00  0.00     0.293 HD
ENDBRANCH  17  20
ENDBRANCH   1  12
BRANCH   6  22
ATOM     22  O   UNL     1       8.907   9.155 -14.159  1.00  0.00    -0.507 OA
ATOM     23  H   UNL     1       9.335   9.321 -13.261  1.00  0.00     0.293 HD
ENDBRANCH   6  22
BRANCH   8  24
ATOM     24  O   UNL     1      12.167   7.496 -17.270  1.00  0.00    -0.508 OA
ATOM     25  H   UNL     1      11.940   6.508 -17.248  1.00  0.00     0.293 HD
ENDBRANCH   8  24
TORSDOF 5
ENDMDL
MODEL 9
REMARK VINA RESULT:    -6.262      1.703      2.182
REMARK INTER + INTRA:          -7.627
REMARK INTER:                  -7.353
REMARK INTRA:                  -0.274
REMARK UNBOUND:                -0.266
REMARK SMILES O=c1cc(-c2ccc(O)c(O)c2)oc2cc(O)cc(O)c12
REMARK SMILES IDX 4 1 3 2 2 3 1 4 21 5 19 6 18 7 16 8 15 9 14 10 13 11 5 12
REMARK SMILES IDX 6 13 7 14 8 15 12 16 10 17 9 18 11 20 20 22 17 24
REMARK H PARENT 9 19 11 21 20 23 17 25
REMARK Flexibility Score: inf
ROOT
ATOM      1  C   UNL     1       8.745  11.631 -17.448  1.00  0.00     0.138 A 
ATOM      2  C   UNL     1       9.902  10.841 -17.398  1.00  0.00     0.100 A 
ATOM      3  C   UNL     1      10.061   9.913 -16.368  1.00  0.00     0.197 A 
ATOM      4  O   UNL     1      11.136   9.262 -16.315  1.00  0.00    -0.289 OA
ATOM      5  C   UNL     1       9.040   9.756 -15.400  1.00  0.00     0.107 A 
ATOM      6  C   UNL     1       9.075   8.814 -14.328  1.00  0.00     0.134 A 
ATOM      7  C   UNL     1       8.060   8.830 -13.364  1.00  0.00     0.093 A 
ATOM      8  C   UNL     1       6.982   9.712 -13.465  1.00  0.00     0.123 A 
ATOM      9  C   UNL     1       6.912  10.599 -14.537  1.00  0.00     0.094 A 
ATOM     10  C   UNL     1       7.925  10.632 -15.497  1.00  0.00     0.146 A 
ATOM     11  O   UNL     1       7.828  11.503 -16.496  1.00  0.00    -0.456 OA
ENDROOT
BRANCH   1  12
ATOM     12  C   UNL     1       8.525  12.632 -18.522  1.00  0.00     0.021 A 
ATOM     13  C   UNL     1       9.392  13.733 -18.631  1.00  0.00     0.016 A 
ATOM     14  C   UNL     1       9.201  14.693 -19.629  1.00  0.00     0.051 A 
ATOM     15  C   UNL     1       8.138  14.575 -20.529  1.00  0.00     0.157 A 
ATOM     16  C   UNL     1       7.448  12.525 -19.424  1.00  0.00     0.062 A 
ATOM     17  C   UNL     1       7.255  13.489 -20.425  1.00  0.00     0.158 A 
BRANCH  15  18
ATOM     18  O   UNL     1       7.975  15.548 -21.515  1.00  0.00    -0.504 OA
ATOM     19  H   UNL     1       7.372  16.351 -21.383  1.00  0.00     0.293 HD
ENDBRANCH  15  18
BRANCH  17  20
ATOM     20  O   UNL     1       6.186  13.373 -21.312  1.00  0.00    -0.504 OA
ATOM     21  H   UNL     1       6.306  12.986 -22.241  1.00  0.00     0.293 HD
ENDBRANCH  17  20
ENDBRANCH   1  12
BRANCH   6  22
ATOM     22  O   UNL     1      10.060   7.834 -14.182  1.00  0.00    -0.507 OA
ATOM     23  H   UNL     1       9.882   6.844 -14.107  1.00  0.00     0.293 HD
ENDBRANCH   6  22
BRANCH   8  24
ATOM     24  O   UNL     1       5.969   9.710 -12.508  1.00  0.00    -0.508 OA
ATOM     25  H   UNL     1       5.589  10.574 -12.137  1.00  0.00     0.293 HD
ENDBRANCH   8  24
TORSDOF 5
ENDMDL
