MODEL 1
REMARK VINA RESULT:    -3.989      0.000      0.000
REMARK INTER + INTRA:          -5.942
REMARK INTER:                  -5.622
REMARK INTRA:                  -0.320
REMARK UNBOUND:                -0.320
REMARK SMILES CCCCCCCCC(=O)[O-]
REMARK SMILES IDX 6 1 7 2 8 3 9 4 10 5 11 6 5 7 4 8 3 9 2 10 1 11
REMARK H PARENT
REMARK Flexibility Score: inf
ROOT
ATOM      1  C   UNL     1      -5.422  -3.843   5.510  1.00  0.00     0.000 C 
ENDROOT
BRANCH   1   2
ATOM      2  C   UNL     1      -6.465  -3.339   4.497  1.00  0.00     0.006 C 
BRANCH   2   3
ATOM      3  C   UNL     1      -6.605  -1.812   4.521  1.00  0.00     0.053 C 
BRANCH   3   4
ATOM      4  C   UNL     1      -7.096  -1.277   3.210  1.00  0.00     0.041 C 
ATOM      5  O   UNL     1      -6.844  -0.089   2.876  1.00  0.00    -0.550 OA
ATOM      6  O   UNL     1      -7.855  -2.082   2.371  1.00  0.00    -0.550 OA
ENDBRANCH   3   4
ENDBRANCH   2   3
ENDBRANCH   1   2
BRANCH   1   7
ATOM      7  C   UNL     1      -5.354  -2.968   6.771  1.00  0.00     0.000 C 
BRANCH   7   8
ATOM      8  C   UNL     1      -3.924  -2.490   7.083  1.00  0.00    -0.000 C 
BRANCH   8   9
ATOM      9  C   UNL     1      -3.902  -1.199   7.917  1.00  0.00    -0.000 C 
BRANCH   9  10
ATOM     10  C   UNL     1      -3.583   0.043   7.073  1.00  0.00    -0.003 C 
ATOM     11  C   UNL     1      -2.650   0.991   7.821  1.00  0.00     0.004 C 
ENDBRANCH   9  10
ENDBRANCH   8   9
ENDBRANCH   7   8
ENDBRANCH   1   7
TORSDOF 7
ENDMDL
MODEL 2
REMARK VINA RESULT:    -3.958      3.079      5.689
REMARK INTER + INTRA:          -5.898
REMARK INTER:                  -5.636
REMARK INTRA:                  -0.262
REMARK UNBOUND:                -0.320
REMARK SMILES CCCCCCCCC(=O)[O-]
REMARK SMILES IDX 6 1 7 2 8 3 9 4 10 5 11 6 5 7 4 8 3 9 2 10 1 11
REMARK H PARENT
REMARK Flexibility Score: inf
ROOT
ATOM      1  C   UNL     1      -3.822  -0.804   8.722  1.00  0.00     0.000 C 
ENDROOT
BRANCH   1   2
ATOM      2  C   UNL     1      -3.183   0.022   7.592  1.00  0.00     0.006 C 
BRANCH   2   3
ATOM      3  C   UNL     1      -2.467   1.271   8.120  1.00  0.00     0.053 C 
BRANCH   3   4
ATOM      4  C   UNL     1      -3.285   2.510   7.914  1.00  0.00     0.041 C 
ATOM      5  O   UNL     1      -3.998   2.634   6.884  1.00  0.00    -0.550 OA
ATOM      6  O   UNL     1      -3.236   3.539   8.847  1.00  0.00    -0.550 OA
ENDBRANCH   3   4
ENDBRANCH   2   3
ENDBRANCH   1   2
BRANCH   1   7
ATOM      7  C   UNL     1      -3.847  -2.308   8.412  1.00  0.00     0.000 C 
BRANCH   7   8
ATOM      8  C   UNL     1      -3.863  -2.602   6.901  1.00  0.00    -0.000 C 
BRANCH   8   9
ATOM      9  C   UNL     1      -5.282  -2.832   6.359  1.00  0.00    -0.000 C 
BRANCH   9  10
ATOM     10  C   UNL     1      -5.334  -3.937   5.294  1.00  0.00    -0.003 C 
ATOM     11  C   UNL     1      -6.650  -3.897   4.524  1.00  0.00     0.004 C 
ENDBRANCH   9  10
ENDBRANCH   8   9
ENDBRANCH   7   8
ENDBRANCH   1   7
TORSDOF 7
ENDMDL
MODEL 3
REMARK VINA RESULT:    -3.915      1.573      2.628
REMARK INTER + INTRA:          -5.837
REMARK INTER:                  -5.372
REMARK INTRA:                  -0.466
REMARK UNBOUND:                -0.320
REMARK SMILES CCCCCCCCC(=O)[O-]
REMARK SMILES IDX 6 1 7 2 8 3 9 4 10 5 11 6 5 7 4 8 3 9 2 10 1 11
REMARK H PARENT
REMARK Flexibility Score: inf
ROOT
ATOM      1  C   UNL     1      -4.007  -2.397   6.880  1.00  0.00     0.000 C 
ENDROOT
BRANCH   1   2
ATOM      2  C   UNL     1      -5.350  -3.081   6.568  1.00  0.00     0.006 C 
BRANCH   2   3
ATOM      3  C   UNL     1      -5.327  -3.813   5.221  1.00  0.00     0.053 C 
BRANCH   3   4
ATOM      4  C   UNL     1      -6.670  -3.795   4.555  1.00  0.00     0.041 C 
ATOM      5  O   UNL     1      -6.998  -2.829   3.818  1.00  0.00    -0.550 OA
ATOM      6  O   UNL     1      -7.569  -4.832   4.773  1.00  0.00    -0.550 OA
ENDBRANCH   3   4
ENDBRANCH   2   3
ENDBRANCH   1   2
BRANCH   1   7
ATOM      7  C   UNL     1      -3.886  -1.981   8.354  1.00  0.00     0.000 C 
BRANCH   7   8
ATOM      8  C   UNL     1      -3.609  -0.476   8.523  1.00  0.00    -0.000 C 
BRANCH   8   9
ATOM      9  C   UNL     1      -3.356   0.232   7.183  1.00  0.00    -0.000 C 
BRANCH   9  10
ATOM     10  C   UNL     1      -4.262   1.456   6.983  1.00  0.00    -0.003 C 
ATOM     11  C   UNL     1      -5.469   1.109   6.116  1.00  0.00     0.004 C 
ENDBRANCH   9  10
ENDBRANCH   8   9
ENDBRANCH   7   8
ENDBRANCH   1   7
TORSDOF 7
ENDMDL
MODEL 4
REMARK VINA RESULT:    -3.911      2.188      4.733
REMARK INTER + INTRA:          -5.831
REMARK INTER:                  -5.460
REMARK INTRA:                  -0.371
REMARK UNBOUND:                -0.320
REMARK SMILES CCCCCCCCC(=O)[O-]
REMARK SMILES IDX 6 1 7 2 8 3 9 4 10 5 11 6 5 7 4 8 3 9 2 10 1 11
REMARK H PARENT
REMARK Flexibility Score: inf
ROOT
ATOM      1  C   UNL     1      -3.847  -1.891   8.476  1.00  0.00     0.000 C 
ENDROOT
BRANCH   1   2
ATOM      2  C   UNL     1      -3.669  -0.362   8.467  1.00  0.00     0.006 C 
BRANCH   2   3
ATOM      3  C   UNL     1      -3.338   0.174   7.068  1.00  0.00     0.053 C 
BRANCH   3   4
ATOM      4  C   UNL     1      -4.146   1.391   6.734  1.00  0.00     0.041 C 
ATOM      5  O   UNL     1      -3.753   2.531   7.097  1.00  0.00    -0.550 OA
ATOM      6  O   UNL     1      -5.347   1.263   6.047  1.00  0.00    -0.550 OA
ENDBRANCH   3   4
ENDBRANCH   2   3
ENDBRANCH   1   2
BRANCH   1   7
ATOM      7  C   UNL     1      -3.940  -2.482   7.061  1.00  0.00     0.000 C 
BRANCH   7   8
ATOM      8  C   UNL     1      -5.352  -2.998   6.727  1.00  0.00    -0.000 C 
BRANCH   8   9
ATOM      9  C   UNL     1      -5.364  -3.938   5.512  1.00  0.00    -0.000 C 
BRANCH   9  10
ATOM     10  C   UNL     1      -6.421  -3.541   4.470  1.00  0.00    -0.003 C 
ATOM     11  C   UNL     1      -6.673  -2.036   4.491  1.00  0.00     0.004 C 
ENDBRANCH   9  10
ENDBRANCH   8   9
ENDBRANCH   7   8
ENDBRANCH   1   7
TORSDOF 7
ENDMDL
MODEL 5
REMARK VINA RESULT:    -3.878     11.121     12.618
REMARK INTER + INTRA:          -5.785
REMARK INTER:                  -5.171
REMARK INTRA:                  -0.614
REMARK UNBOUND:                -0.320
REMARK SMILES CCCCCCCCC(=O)[O-]
REMARK SMILES IDX 6 1 7 2 8 3 9 4 10 5 11 6 5 7 4 8 3 9 2 10 1 11
REMARK H PARENT
REMARK Flexibility Score: inf
ROOT
ATOM      1  C   UNL     1      -5.290  -1.182  -5.493  1.00  0.00     0.000 C 
ENDROOT
BRANCH   1   2
ATOM      2  C   UNL     1      -4.119  -1.522  -6.431  1.00  0.00     0.006 C 
BRANCH   2   3
ATOM      3  C   UNL     1      -3.538  -0.273  -7.108  1.00  0.00     0.053 C 
BRANCH   3   4
ATOM      4  C   UNL     1      -2.198  -0.545  -7.721  1.00  0.00     0.041 C 
ATOM      5  O   UNL     1      -1.978  -1.641  -8.301  1.00  0.00    -0.550 OA
ATOM      6  O   UNL     1      -1.185   0.400  -7.626  1.00  0.00    -0.550 OA
ENDBRANCH   3   4
ENDBRANCH   2   3
ENDBRANCH   1   2
BRANCH   1   7
ATOM      7  C   UNL     1      -4.950  -0.052  -4.509  1.00  0.00     0.000 C 
BRANCH   7   8
ATOM      8  C   UNL     1      -6.173   0.814  -4.158  1.00  0.00    -0.000 C 
BRANCH   8   9
ATOM      9  C   UNL     1      -7.371   0.548  -5.082  1.00  0.00    -0.000 C 
BRANCH   9  10
ATOM     10  C   UNL     1      -7.677   1.735  -6.008  1.00  0.00    -0.003 C 
ATOM     11  C   UNL     1      -6.977   1.575  -7.354  1.00  0.00     0.004 C 
ENDBRANCH   9  10
ENDBRANCH   8   9
ENDBRANCH   7   8
ENDBRANCH   1   7
TORSDOF 7
ENDMDL
MODEL 6
REMARK VINA RESULT:    -3.777     11.276     13.253
REMARK INTER + INTRA:          -5.642
REMARK INTER:                  -5.253
REMARK INTRA:                  -0.389
REMARK UNBOUND:                -0.320
REMARK SMILES CCCCCCCCC(=O)[O-]
REMARK SMILES IDX 6 1 7 2 8 3 9 4 10 5 11 6 5 7 4 8 3 9 2 10 1 11
REMARK H PARENT
REMARK Flexibility Score: inf
ROOT
ATOM      1  C   UNL     1      -4.179   0.127  -7.790  1.00  0.00     0.000 C 
ENDROOT
BRANCH   1   2
ATOM      2  C   UNL     1      -2.952  -0.695  -7.359  1.00  0.00     0.006 C 
BRANCH   2   3
ATOM      3  C   UNL     1      -1.635  -0.048  -7.806  1.00  0.00     0.053 C 
BRANCH   3   4
ATOM      4  C   UNL     1      -1.369  -0.277  -9.263  1.00  0.00     0.041 C 
ATOM      5  O   UNL     1      -1.238  -1.449  -9.706  1.00  0.00    -0.550 OA
ATOM      6  O   UNL     1      -1.236   0.804 -10.124  1.00  0.00    -0.550 OA
ENDBRANCH   3   4
ENDBRANCH   2   3
ENDBRANCH   1   2
BRANCH   1   7
ATOM      7  C   UNL     1      -5.362  -0.027  -6.823  1.00  0.00     0.000 C 
BRANCH   7   8
ATOM      8  C   UNL     1      -4.953  -0.663  -5.482  1.00  0.00    -0.000 C 
BRANCH   8   9
ATOM      9  C   UNL     1      -5.147   0.291  -4.293  1.00  0.00    -0.000 C 
BRANCH   9  10
ATOM     10  C   UNL     1      -6.560   0.889  -4.242  1.00  0.00    -0.003 C 
ATOM     11  C   UNL     1      -7.594  -0.174  -3.884  1.00  0.00     0.004 C 
ENDBRANCH   9  10
ENDBRANCH   8   9
ENDBRANCH   7   8
ENDBRANCH   1   7
TORSDOF 7
ENDMDL
MODEL 7
REMARK VINA RESULT:    -3.758      1.494      2.749
REMARK INTER + INTRA:          -5.616
REMARK INTER:                  -5.360
REMARK INTRA:                  -0.256
REMARK UNBOUND:                -0.320
REMARK SMILES CCCCCCCCC(=O)[O-]
REMARK SMILES IDX 6 1 7 2 8 3 9 4 10 5 11 6 5 7 4 8 3 9 2 10 1 11
REMARK H PARENT
REMARK Flexibility Score: inf
ROOT
ATOM      1  C   UNL     1      -3.994  -2.388   7.647  1.00  0.00     0.000 C 
ENDROOT
BRANCH   1   2
ATOM      2  C   UNL     1      -5.314  -2.599   6.885  1.00  0.00     0.006 C 
BRANCH   2   3
ATOM      3  C   UNL     1      -5.132  -3.489   5.649  1.00  0.00     0.053 C 
BRANCH   3   4
ATOM      4  C   UNL     1      -6.322  -3.426   4.739  1.00  0.00     0.041 C 
ATOM      5  O   UNL     1      -6.617  -2.350   4.155  1.00  0.00    -0.550 OA
ATOM      6  O   UNL     1      -7.120  -4.549   4.560  1.00  0.00    -0.550 OA
ENDBRANCH   3   4
ENDBRANCH   2   3
ENDBRANCH   1   2
BRANCH   1   7
ATOM      7  C   UNL     1      -3.901  -0.996   8.292  1.00  0.00     0.000 C 
BRANCH   7   8
ATOM      8  C   UNL     1      -3.751   0.129   7.253  1.00  0.00    -0.000 C 
BRANCH   8   9
ATOM      9  C   UNL     1      -2.516   1.008   7.508  1.00  0.00    -0.000 C 
BRANCH   9  10
ATOM     10  C   UNL     1      -2.558   1.701   8.877  1.00  0.00    -0.003 C 
ATOM     11  C   UNL     1      -3.282   3.041   8.792  1.00  0.00     0.004 C 
ENDBRANCH   9  10
ENDBRANCH   8   9
ENDBRANCH   7   8
ENDBRANCH   1   7
TORSDOF 7
ENDMDL
MODEL 8
REMARK VINA RESULT:    -3.649      1.535      3.296
REMARK INTER + INTRA:          -5.463
REMARK INTER:                  -4.814
REMARK INTRA:                  -0.649
REMARK UNBOUND:                -0.320
REMARK SMILES CCCCCCCCC(=O)[O-]
REMARK SMILES IDX 6 1 7 2 8 3 9 4 10 5 11 6 5 7 4 8 3 9 2 10 1 11
REMARK H PARENT
REMARK Flexibility Score: inf
ROOT
ATOM      1  C   UNL     1      -5.579   1.304   6.869  1.00  0.00     0.000 C 
ENDROOT
BRANCH   1   2
ATOM      2  C   UNL     1      -5.945   1.029   5.400  1.00  0.00     0.006 C 
BRANCH   2   3
ATOM      3  C   UNL     1      -6.992  -0.084   5.263  1.00  0.00     0.053 C 
BRANCH   3   4
ATOM      4  C   UNL     1      -6.936  -0.736   3.914  1.00  0.00     0.041 C 
ATOM      5  O   UNL     1      -6.980  -1.991   3.815  1.00  0.00    -0.550 OA
ATOM      6  O   UNL     1      -6.807   0.041   2.770  1.00  0.00    -0.550 OA
ENDBRANCH   3   4
ENDBRANCH   2   3
ENDBRANCH   1   2
BRANCH   1   7
ATOM      7  C   UNL     1      -4.083   1.599   7.058  1.00  0.00     0.000 C 
BRANCH   7   8
ATOM      8  C   UNL     1      -3.238   0.319   7.183  1.00  0.00    -0.000 C 
BRANCH   8   9
ATOM      9  C   UNL     1      -3.947  -0.781   7.988  1.00  0.00    -0.000 C 
BRANCH   9  10
ATOM     10  C   UNL     1      -3.678  -2.186   7.430  1.00  0.00    -0.003 C 
ATOM     11  C   UNL     1      -4.878  -2.703   6.642  1.00  0.00     0.004 C 
ENDBRANCH   9  10
ENDBRANCH   8   9
ENDBRANCH   7   8
ENDBRANCH   1   7
TORSDOF 7
ENDMDL
MODEL 9
REMARK VINA RESULT:    -3.599     10.864     13.032
REMARK INTER + INTRA:          -5.391
REMARK INTER:                  -4.655
REMARK INTRA:                  -0.736
REMARK UNBOUND:                -0.320
REMARK SMILES CCCCCCCCC(=O)[O-]
REMARK SMILES IDX 6 1 7 2 8 3 9 4 10 5 11 6 5 7 4 8 3 9 2 10 1 11
REMARK H PARENT
REMARK Flexibility Score: inf
ROOT
ATOM      1  C   UNL     1      -5.945  -0.708  -7.858  1.00  0.00     0.000 C 
ENDROOT
BRANCH   1   2
ATOM      2  C   UNL     1      -4.528  -1.286  -7.690  1.00  0.00     0.006 C 
BRANCH   2   3
ATOM      3  C   UNL     1      -3.500  -0.203  -7.337  1.00  0.00     0.053 C 
BRANCH   3   4
ATOM      4  C   UNL     1      -2.129  -0.558  -7.825  1.00  0.00     0.041 C 
ATOM      5  O   UNL     1      -1.941  -1.626  -8.466  1.00  0.00    -0.550 OA
ATOM      6  O   UNL     1      -1.054   0.277  -7.548  1.00  0.00    -0.550 OA
ENDBRANCH   3   4
ENDBRANCH   2   3
ENDBRANCH   1   2
BRANCH   1   7
ATOM      7  C   UNL     1      -5.991   0.813  -7.646  1.00  0.00     0.000 C 
BRANCH   7   8
ATOM      8  C   UNL     1      -7.115   1.243  -6.687  1.00  0.00    -0.000 C 
BRANCH   8   9
ATOM      9  C   UNL     1      -7.172   0.377  -5.419  1.00  0.00    -0.000 C 
BRANCH   9  10
ATOM     10  C   UNL     1      -6.031   0.689  -4.440  1.00  0.00    -0.003 C 
ATOM     11  C   UNL     1      -5.222  -0.565  -4.123  1.00  0.00     0.004 C 
ENDBRANCH   9  10
ENDBRANCH   8   9
ENDBRANCH   7   8
ENDBRANCH   1   7
TORSDOF 7
ENDMDL
