MODEL 1
REMARK VINA RESULT:    -3.240      0.000      0.000
REMARK INTER + INTRA:         -15.317
REMARK INTER:                  -8.544
REMARK INTRA:                  -6.773
REMARK UNBOUND:                -6.773
REMARK SMILES CCCCCCCCCCCCCCCCCCCCCCCCCCCCCC(=O)[O-]
REMARK SMILES IDX 16 1 17 2 18 3 19 4 20 5 21 6 22 7 23 8 24 9 25 10 26 11
REMARK SMILES IDX 27 12 28 13 29 14 30 15 31 16 32 17 15 18 14 19 13 20 12 21
REMARK SMILES IDX 11 22 10 23 9 24 8 25 7 26 6 27 5 28 4 29 3 30 2 31 1 32
REMARK H PARENT
REMARK Flexibility Score: inf
ROOT
ATOM      1  C   UNL     1     -28.226   5.130 -37.860  1.00  0.00     0.000 C 
ENDROOT
BRANCH   1   2
ATOM      2  C   UNL     1     -26.897   4.888 -37.122  1.00  0.00     0.000 C 
BRANCH   2   3
ATOM      3  C   UNL     1     -26.978   4.916 -35.582  1.00  0.00     0.000 C 
BRANCH   3   4
ATOM      4  C   UNL     1     -28.037   3.996 -34.943  1.00  0.00     0.000 C 
BRANCH   4   5
ATOM      5  C   UNL     1     -27.555   3.232 -33.693  1.00  0.00     0.000 C 
BRANCH   5   6
ATOM      6  C   UNL     1     -27.609   1.701 -33.852  1.00  0.00     0.000 C 
BRANCH   6   7
ATOM      7  C   UNL     1     -27.286   1.229 -35.284  1.00  0.00     0.000 C 
BRANCH   7   8
ATOM      8  C   UNL     1     -25.829   0.785 -35.505  1.00  0.00     0.000 C 
BRANCH   8   9
ATOM      9  C   UNL     1     -25.066   1.688 -36.490  1.00  0.00     0.000 C 
BRANCH   9  10
ATOM     10  C   UNL     1     -24.031   2.581 -35.785  1.00  0.00     0.000 C 
BRANCH  10  11
ATOM     11  C   UNL     1     -23.658   2.066 -34.383  1.00  0.00     0.000 C 
BRANCH  11  12
ATOM     12  C   UNL     1     -24.084   3.026 -33.260  1.00  0.00     0.000 C 
BRANCH  12  13
ATOM     13  C   UNL     1     -23.586   4.475 -33.452  1.00  0.00     0.006 C 
BRANCH  13  14
ATOM     14  C   UNL     1     -24.549   5.503 -32.844  1.00  0.00     0.053 C 
BRANCH  14  15
ATOM     15  C   UNL     1     -24.515   5.432 -31.349  1.00  0.00     0.041 C 
ATOM     16  O   UNL     1     -23.425   5.578 -30.733  1.00  0.00    -0.550 OA
ATOM     17  O   UNL     1     -25.692   5.243 -30.634  1.00  0.00    -0.550 OA
ENDBRANCH  14  15
ENDBRANCH  13  14
ENDBRANCH  12  13
ENDBRANCH  11  12
ENDBRANCH  10  11
ENDBRANCH   9  10
ENDBRANCH   8   9
ENDBRANCH   7   8
ENDBRANCH   6   7
ENDBRANCH   5   6
ENDBRANCH   4   5
ENDBRANCH   3   4
ENDBRANCH   2   3
ENDBRANCH   1   2
BRANCH   1  18
ATOM     18  C   UNL     1     -28.587   4.003 -38.841  1.00  0.00     0.000 C 
BRANCH  18  19
ATOM     19  C   UNL     1     -27.948   2.656 -38.463  1.00  0.00     0.000 C 
BRANCH  19  20
ATOM     20  C   UNL     1     -28.265   1.514 -39.451  1.00  0.00     0.000 C 
BRANCH  20  21
ATOM     21  C   UNL     1     -27.937   0.129 -38.862  1.00  0.00     0.000 C 
BRANCH  21  22
ATOM     22  C   UNL     1     -29.189  -0.739 -38.659  1.00  0.00     0.000 C 
BRANCH  22  23
ATOM     23  C   UNL     1     -30.401  -0.219 -39.446  1.00  0.00     0.000 C 
BRANCH  23  24
ATOM     24  C   UNL     1     -31.716  -0.598 -38.750  1.00  0.00    -0.000 C 
BRANCH  24  25
ATOM     25  C   UNL     1     -32.650   0.610 -38.563  1.00  0.00    -0.000 C 
BRANCH  25  26
ATOM     26  C   UNL     1     -31.898   1.953 -38.629  1.00  0.00    -0.000 C 
BRANCH  26  27
ATOM     27  C   UNL     1     -31.708   2.595 -37.245  1.00  0.00    -0.000 C 
BRANCH  27  28
ATOM     28  C   UNL     1     -30.673   1.855 -36.382  1.00  0.00    -0.000 C 
BRANCH  28  29
ATOM     29  C   UNL     1     -31.293   1.393 -35.058  1.00  0.00    -0.000 C 
BRANCH  29  30
ATOM     30  C   UNL     1     -31.502  -0.129 -35.052  1.00  0.00    -0.000 C 
BRANCH  30  31
ATOM     31  C   UNL     1     -30.181  -0.905 -34.933  1.00  0.00    -0.003 C 
ATOM     32  C   UNL     1     -30.251  -2.291 -35.573  1.00  0.00     0.004 C 
ENDBRANCH  30  31
ENDBRANCH  29  30
ENDBRANCH  28  29
ENDBRANCH  27  28
ENDBRANCH  26  27
ENDBRANCH  25  26
ENDBRANCH  24  25
ENDBRANCH  23  24
ENDBRANCH  22  23
ENDBRANCH  21  22
ENDBRANCH  20  21
ENDBRANCH  19  20
ENDBRANCH  18  19
ENDBRANCH   1  18
TORSDOF 28
ENDMDL
MODEL 2
REMARK VINA RESULT:    -2.904      3.320      5.349
REMARK INTER + INTRA:         -14.431
REMARK INTER:                  -8.099
REMARK INTRA:                  -6.332
REMARK UNBOUND:                -6.773
REMARK SMILES CCCCCCCCCCCCCCCCCCCCCCCCCCCCCC(=O)[O-]
REMARK SMILES IDX 16 1 17 2 18 3 19 4 20 5 21 6 22 7 23 8 24 9 25 10 26 11
REMARK SMILES IDX 27 12 28 13 29 14 30 15 31 16 32 17 15 18 14 19 13 20 12 21
REMARK SMILES IDX 11 22 10 23 9 24 8 25 7 26 6 27 5 28 4 29 3 30 2 31 1 32
REMARK H PARENT
REMARK Flexibility Score: inf
ROOT
ATOM      1  C   UNL     1     -27.765   4.140 -37.736  1.00  0.00     0.000 C 
ENDROOT
BRANCH   1   2
ATOM      2  C   UNL     1     -26.500   4.686 -37.049  1.00  0.00     0.000 C 
BRANCH   2   3
ATOM      3  C   UNL     1     -26.747   5.653 -35.874  1.00  0.00     0.000 C 
BRANCH   3   4
ATOM      4  C   UNL     1     -26.367   5.129 -34.474  1.00  0.00     0.000 C 
BRANCH   4   5
ATOM      5  C   UNL     1     -27.166   3.893 -34.012  1.00  0.00     0.000 C 
BRANCH   5   6
ATOM      6  C   UNL     1     -26.277   2.681 -33.676  1.00  0.00     0.000 C 
BRANCH   6   7
ATOM      7  C   UNL     1     -24.776   2.949 -33.902  1.00  0.00     0.000 C 
BRANCH   7   8
ATOM      8  C   UNL     1     -24.138   2.135 -35.042  1.00  0.00     0.000 C 
BRANCH   8   9
ATOM      9  C   UNL     1     -25.075   1.053 -35.608  1.00  0.00     0.000 C 
BRANCH   9  10
ATOM     10  C   UNL     1     -25.246   1.166 -37.133  1.00  0.00     0.000 C 
BRANCH  10  11
ATOM     11  C   UNL     1     -26.564   0.543 -37.629  1.00  0.00     0.000 C 
BRANCH  11  12
ATOM     12  C   UNL     1     -26.750   0.670 -39.151  1.00  0.00     0.000 C 
BRANCH  12  13
ATOM     13  C   UNL     1     -27.886  -0.207 -39.719  1.00  0.00     0.006 C 
BRANCH  13  14
ATOM     14  C   UNL     1     -27.400  -1.613 -40.093  1.00  0.00     0.053 C 
BRANCH  14  15
ATOM     15  C   UNL     1     -28.127  -2.649 -39.294  1.00  0.00     0.041 C 
ATOM     16  O   UNL     1     -28.256  -3.820 -39.745  1.00  0.00    -0.550 OA
ATOM     17  O   UNL     1     -28.628  -2.334 -38.037  1.00  0.00    -0.550 OA
ENDBRANCH  14  15
ENDBRANCH  13  14
ENDBRANCH  12  13
ENDBRANCH  11  12
ENDBRANCH  10  11
ENDBRANCH   9  10
ENDBRANCH   8   9
ENDBRANCH   7   8
ENDBRANCH   6   7
ENDBRANCH   5   6
ENDBRANCH   4   5
ENDBRANCH   3   4
ENDBRANCH   2   3
ENDBRANCH   1   2
BRANCH   1  18
ATOM     18  C   UNL     1     -28.640   5.241 -38.356  1.00  0.00     0.000 C 
BRANCH  18  19
ATOM     19  C   UNL     1     -29.328   4.794 -39.657  1.00  0.00     0.000 C 
BRANCH  19  20
ATOM     20  C   UNL     1     -29.035   3.331 -40.049  1.00  0.00     0.000 C 
BRANCH  20  21
ATOM     21  C   UNL     1     -30.311   2.468 -40.061  1.00  0.00     0.000 C 
BRANCH  21  22
ATOM     22  C   UNL     1     -31.558   3.247 -39.614  1.00  0.00     0.000 C 
BRANCH  22  23
ATOM     23  C   UNL     1     -32.755   2.328 -39.327  1.00  0.00     0.000 C 
BRANCH  23  24
ATOM     24  C   UNL     1     -32.288   0.939 -38.868  1.00  0.00    -0.000 C 
BRANCH  24  25
ATOM     25  C   UNL     1     -32.869   0.549 -37.498  1.00  0.00    -0.000 C 
BRANCH  25  26
ATOM     26  C   UNL     1     -31.783   0.105 -36.500  1.00  0.00    -0.000 C 
BRANCH  26  27
ATOM     27  C   UNL     1     -30.361   0.417 -36.994  1.00  0.00    -0.000 C 
BRANCH  27  28
ATOM     28  C   UNL     1     -29.797   1.721 -36.407  1.00  0.00    -0.000 C 
BRANCH  28  29
ATOM     29  C   UNL     1     -30.130   1.838 -34.915  1.00  0.00    -0.000 C 
BRANCH  29  30
ATOM     30  C   UNL     1     -30.906   3.131 -34.626  1.00  0.00    -0.000 C 
BRANCH  30  31
ATOM     31  C   UNL     1     -31.061   4.018 -35.871  1.00  0.00    -0.003 C 
ATOM     32  C   UNL     1     -32.520   4.348 -36.184  1.00  0.00     0.004 C 
ENDBRANCH  30  31
ENDBRANCH  29  30
ENDBRANCH  28  29
ENDBRANCH  27  28
ENDBRANCH  26  27
ENDBRANCH  25  26
ENDBRANCH  24  25
ENDBRANCH  23  24
ENDBRANCH  22  23
ENDBRANCH  21  22
ENDBRANCH  20  21
ENDBRANCH  19  20
ENDBRANCH  18  19
ENDBRANCH   1  18
TORSDOF 28
ENDMDL
MODEL 3
REMARK VINA RESULT:    -2.835      2.045      4.020
REMARK INTER + INTRA:         -14.248
REMARK INTER:                  -7.880
REMARK INTRA:                  -6.368
REMARK UNBOUND:                -6.773
REMARK SMILES CCCCCCCCCCCCCCCCCCCCCCCCCCCCCC(=O)[O-]
REMARK SMILES IDX 16 1 17 2 18 3 19 4 20 5 21 6 22 7 23 8 24 9 25 10 26 11
REMARK SMILES IDX 27 12 28 13 29 14 30 15 31 16 32 17 15 18 14 19 13 20 12 21
REMARK SMILES IDX 11 22 10 23 9 24 8 25 7 26 6 27 5 28 4 29 3 30 2 31 1 32
REMARK H PARENT
REMARK Flexibility Score: inf
ROOT
ATOM      1  C   UNL     1     -29.328   4.037 -38.845  1.00  0.00     0.000 C 
ENDROOT
BRANCH   1   2
ATOM      2  C   UNL     1     -27.896   3.993 -38.280  1.00  0.00     0.000 C 
BRANCH   2   3
ATOM      3  C   UNL     1     -27.567   5.062 -37.219  1.00  0.00     0.000 C 
BRANCH   3   4
ATOM      4  C   UNL     1     -26.352   4.769 -36.317  1.00  0.00     0.000 C 
BRANCH   4   5
ATOM      5  C   UNL     1     -26.417   5.419 -34.919  1.00  0.00     0.000 C 
BRANCH   5   6
ATOM      6  C   UNL     1     -25.354   4.881 -33.943  1.00  0.00     0.000 C 
BRANCH   6   7
ATOM      7  C   UNL     1     -24.313   3.969 -34.623  1.00  0.00     0.000 C 
BRANCH   7   8
ATOM      8  C   UNL     1     -24.081   2.618 -33.923  1.00  0.00     0.000 C 
BRANCH   8   9
ATOM      9  C   UNL     1     -24.108   1.424 -34.892  1.00  0.00     0.000 C 
BRANCH   9  10
ATOM     10  C   UNL     1     -24.311   1.859 -36.353  1.00  0.00     0.000 C 
BRANCH  10  11
ATOM     11  C   UNL     1     -25.592   1.273 -36.975  1.00  0.00     0.000 C 
BRANCH  11  12
ATOM     12  C   UNL     1     -26.524   0.632 -35.933  1.00  0.00     0.000 C 
BRANCH  12  13
ATOM     13  C   UNL     1     -27.786   1.465 -35.625  1.00  0.00     0.006 C 
BRANCH  13  14
ATOM     14  C   UNL     1     -27.790   2.000 -34.187  1.00  0.00     0.053 C 
BRANCH  14  15
ATOM     15  C   UNL     1     -29.107   2.636 -33.868  1.00  0.00     0.041 C 
ATOM     16  O   UNL     1     -29.467   3.683 -34.471  1.00  0.00    -0.550 OA
ATOM     17  O   UNL     1     -29.954   2.053 -32.933  1.00  0.00    -0.550 OA
ENDBRANCH  14  15
ENDBRANCH  13  14
ENDBRANCH  12  13
ENDBRANCH  11  12
ENDBRANCH  10  11
ENDBRANCH   9  10
ENDBRANCH   8   9
ENDBRANCH   7   8
ENDBRANCH   6   7
ENDBRANCH   5   6
ENDBRANCH   4   5
ENDBRANCH   3   4
ENDBRANCH   2   3
ENDBRANCH   1   2
BRANCH   1  18
ATOM     18  C   UNL     1     -30.410   3.998 -37.753  1.00  0.00     0.000 C 
BRANCH  18  19
ATOM     19  C   UNL     1     -31.830   4.181 -38.315  1.00  0.00     0.000 C 
BRANCH  19  20
ATOM     20  C   UNL     1     -32.748   2.959 -38.106  1.00  0.00     0.000 C 
BRANCH  20  21
ATOM     21  C   UNL     1     -32.524   1.874 -39.176  1.00  0.00     0.000 C 
BRANCH  21  22
ATOM     22  C   UNL     1     -32.527   0.454 -38.590  1.00  0.00     0.000 C 
BRANCH  22  23
ATOM     23  C   UNL     1     -31.272  -0.345 -38.973  1.00  0.00     0.000 C 
BRANCH  23  24
ATOM     24  C   UNL     1     -29.995   0.405 -38.566  1.00  0.00    -0.000 C 
BRANCH  24  25
ATOM     25  C   UNL     1     -28.922   0.376 -39.669  1.00  0.00    -0.000 C 
BRANCH  25  26
ATOM     26  C   UNL     1     -28.211  -0.986 -39.767  1.00  0.00    -0.000 C 
BRANCH  26  27
ATOM     27  C   UNL     1     -27.884  -1.584 -38.389  1.00  0.00    -0.000 C 
BRANCH  27  28
ATOM     28  C   UNL     1     -28.412  -3.018 -38.221  1.00  0.00    -0.000 C 
BRANCH  28  29
ATOM     29  C   UNL     1     -28.647  -3.346 -36.742  1.00  0.00    -0.000 C 
BRANCH  29  30
ATOM     30  C   UNL     1     -28.994  -2.079 -35.947  1.00  0.00    -0.000 C 
BRANCH  30  31
ATOM     31  C   UNL     1     -30.502  -1.940 -35.686  1.00  0.00    -0.003 C 
ATOM     32  C   UNL     1     -30.885  -0.557 -35.160  1.00  0.00     0.004 C 
ENDBRANCH  30  31
ENDBRANCH  29  30
ENDBRANCH  28  29
ENDBRANCH  27  28
ENDBRANCH  26  27
ENDBRANCH  25  26
ENDBRANCH  24  25
ENDBRANCH  23  24
ENDBRANCH  22  23
ENDBRANCH  21  22
ENDBRANCH  20  21
ENDBRANCH  19  20
ENDBRANCH  18  19
ENDBRANCH   1  18
TORSDOF 28
ENDMDL
MODEL 4
REMARK VINA RESULT:    -2.788      3.084      6.317
REMARK INTER + INTRA:         -14.125
REMARK INTER:                  -7.790
REMARK INTRA:                  -6.335
REMARK UNBOUND:                -6.773
REMARK SMILES CCCCCCCCCCCCCCCCCCCCCCCCCCCCCC(=O)[O-]
REMARK SMILES IDX 16 1 17 2 18 3 19 4 20 5 21 6 22 7 23 8 24 9 25 10 26 11
REMARK SMILES IDX 27 12 28 13 29 14 30 15 31 16 32 17 15 18 14 19 13 20 12 21
REMARK SMILES IDX 11 22 10 23 9 24 8 25 7 26 6 27 5 28 4 29 3 30 2 31 1 32
REMARK H PARENT
REMARK Flexibility Score: inf
ROOT
ATOM      1  C   UNL     1     -30.793   3.117 -36.578  1.00  0.00     0.000 C 
ENDROOT
BRANCH   1   2
ATOM      2  C   UNL     1     -30.721   4.333 -37.519  1.00  0.00     0.000 C 
BRANCH   2   3
ATOM      3  C   UNL     1     -29.581   4.302 -38.557  1.00  0.00     0.000 C 
BRANCH   3   4
ATOM      4  C   UNL     1     -28.318   5.111 -38.200  1.00  0.00     0.000 C 
BRANCH   4   5
ATOM      5  C   UNL     1     -27.257   4.328 -37.400  1.00  0.00     0.000 C 
BRANCH   5   6
ATOM      6  C   UNL     1     -26.613   5.150 -36.268  1.00  0.00     0.000 C 
BRANCH   6   7
ATOM      7  C   UNL     1     -27.174   4.806 -34.874  1.00  0.00     0.000 C 
BRANCH   7   8
ATOM      8  C   UNL     1     -27.764   3.390 -34.746  1.00  0.00     0.000 C 
BRANCH   8   9
ATOM      9  C   UNL     1     -27.666   2.823 -33.319  1.00  0.00     0.000 C 
BRANCH   9  10
ATOM     10  C   UNL     1     -28.013   1.326 -33.258  1.00  0.00     0.000 C 
BRANCH  10  11
ATOM     11  C   UNL     1     -28.793   0.846 -34.496  1.00  0.00     0.000 C 
BRANCH  11  12
ATOM     12  C   UNL     1     -30.156   0.227 -34.142  1.00  0.00     0.000 C 
BRANCH  12  13
ATOM     13  C   UNL     1     -30.736  -0.684 -35.245  1.00  0.00     0.006 C 
BRANCH  13  14
ATOM     14  C   UNL     1     -29.700  -1.686 -35.772  1.00  0.00     0.053 C 
BRANCH  14  15
ATOM     15  C   UNL     1     -30.023  -3.069 -35.301  1.00  0.00     0.041 C 
ATOM     16  O   UNL     1     -29.305  -4.043 -35.658  1.00  0.00    -0.550 OA
ATOM     17  O   UNL     1     -31.091  -3.280 -34.438  1.00  0.00    -0.550 OA
ENDBRANCH  14  15
ENDBRANCH  13  14
ENDBRANCH  12  13
ENDBRANCH  11  12
ENDBRANCH  10  11
ENDBRANCH   9  10
ENDBRANCH   8   9
ENDBRANCH   7   8
ENDBRANCH   6   7
ENDBRANCH   5   6
ENDBRANCH   4   5
ENDBRANCH   3   4
ENDBRANCH   2   3
ENDBRANCH   1   2
BRANCH   1  18
ATOM     18  C   UNL     1     -32.142   2.384 -36.638  1.00  0.00     0.000 C 
BRANCH  18  19
ATOM     19  C   UNL     1     -32.951   2.726 -37.901  1.00  0.00     0.000 C 
BRANCH  19  20
ATOM     20  C   UNL     1     -32.874   1.651 -39.005  1.00  0.00     0.000 C 
BRANCH  20  21
ATOM     21  C   UNL     1     -32.685   0.237 -38.425  1.00  0.00     0.000 C 
BRANCH  21  22
ATOM     22  C   UNL     1     -31.398  -0.440 -38.921  1.00  0.00     0.000 C 
BRANCH  22  23
ATOM     23  C   UNL     1     -30.301   0.573 -39.282  1.00  0.00     0.000 C 
BRANCH  23  24
ATOM     24  C   UNL     1     -28.904  -0.022 -39.059  1.00  0.00    -0.000 C 
BRANCH  24  25
ATOM     25  C   UNL     1     -28.064   0.808 -38.073  1.00  0.00    -0.000 C 
BRANCH  25  26
ATOM     26  C   UNL     1     -26.738   0.118 -37.699  1.00  0.00    -0.000 C 
BRANCH  26  27
ATOM     27  C   UNL     1     -25.657   1.115 -37.250  1.00  0.00    -0.000 C 
BRANCH  27  28
ATOM     28  C   UNL     1     -25.361   1.033 -35.743  1.00  0.00    -0.000 C 
BRANCH  28  29
ATOM     29  C   UNL     1     -24.300   2.063 -35.337  1.00  0.00    -0.000 C 
BRANCH  29  30
ATOM     30  C   UNL     1     -23.830   1.826 -33.894  1.00  0.00    -0.000 C 
BRANCH  30  31
ATOM     31  C   UNL     1     -23.130   3.055 -33.292  1.00  0.00    -0.003 C 
ATOM     32  C   UNL     1     -23.834   4.366 -33.641  1.00  0.00     0.004 C 
ENDBRANCH  30  31
ENDBRANCH  29  30
ENDBRANCH  28  29
ENDBRANCH  27  28
ENDBRANCH  26  27
ENDBRANCH  25  26
ENDBRANCH  24  25
ENDBRANCH  23  24
ENDBRANCH  22  23
ENDBRANCH  21  22
ENDBRANCH  20  21
ENDBRANCH  19  20
ENDBRANCH  18  19
ENDBRANCH   1  18
TORSDOF 28
ENDMDL
MODEL 5
REMARK VINA RESULT:    -2.778      3.373      7.953
REMARK INTER + INTRA:         -14.097
REMARK INTER:                  -8.753
REMARK INTRA:                  -5.345
REMARK UNBOUND:                -6.773
REMARK SMILES CCCCCCCCCCCCCCCCCCCCCCCCCCCCCC(=O)[O-]
REMARK SMILES IDX 16 1 17 2 18 3 19 4 20 5 21 6 22 7 23 8 24 9 25 10 26 11
REMARK SMILES IDX 27 12 28 13 29 14 30 15 31 16 32 17 15 18 14 19 13 20 12 21
REMARK SMILES IDX 11 22 10 23 9 24 8 25 7 26 6 27 5 28 4 29 3 30 2 31 1 32
REMARK H PARENT
REMARK Flexibility Score: inf
ROOT
ATOM      1  C   UNL     1     -28.311   1.510 -38.258  1.00  0.00     0.000 C 
ENDROOT
BRANCH   1   2
ATOM      2  C   UNL     1     -29.216   0.295 -38.527  1.00  0.00     0.000 C 
BRANCH   2   3
ATOM      3  C   UNL     1     -30.549   0.604 -39.238  1.00  0.00     0.000 C 
BRANCH   3   4
ATOM      4  C   UNL     1     -31.770  -0.215 -38.774  1.00  0.00     0.000 C 
BRANCH   4   5
ATOM      5  C   UNL     1     -33.066   0.604 -38.601  1.00  0.00     0.000 C 
BRANCH   5   6
ATOM      6  C   UNL     1     -32.822   2.121 -38.494  1.00  0.00     0.000 C 
BRANCH   6   7
ATOM      7  C   UNL     1     -32.643   2.605 -37.042  1.00  0.00     0.000 C 
BRANCH   7   8
ATOM      8  C   UNL     1     -31.302   3.304 -36.755  1.00  0.00     0.000 C 
BRANCH   8   9
ATOM      9  C   UNL     1     -30.532   2.674 -35.581  1.00  0.00     0.000 C 
BRANCH   9  10
ATOM     10  C   UNL     1     -31.294   1.500 -34.943  1.00  0.00     0.000 C 
BRANCH  10  11
ATOM     11  C   UNL     1     -30.561   0.156 -35.108  1.00  0.00     0.000 C 
BRANCH  11  12
ATOM     12  C   UNL     1     -31.514  -1.015 -35.399  1.00  0.00     0.000 C 
BRANCH  12  13
ATOM     13  C   UNL     1     -32.572  -1.250 -34.300  1.00  0.00     0.006 C 
BRANCH  13  14
ATOM     14  C   UNL     1     -32.087  -2.237 -33.231  1.00  0.00     0.053 C 
BRANCH  14  15
ATOM     15  C   UNL     1     -32.617  -3.609 -33.505  1.00  0.00     0.041 C 
ATOM     16  O   UNL     1     -33.837  -3.773 -33.781  1.00  0.00    -0.550 OA
ATOM     17  O   UNL     1     -31.760  -4.703 -33.493  1.00  0.00    -0.550 OA
ENDBRANCH  14  15
ENDBRANCH  13  14
ENDBRANCH  12  13
ENDBRANCH  11  12
ENDBRANCH  10  11
ENDBRANCH   9  10
ENDBRANCH   8   9
ENDBRANCH   7   8
ENDBRANCH   6   7
ENDBRANCH   5   6
ENDBRANCH   4   5
ENDBRANCH   3   4
ENDBRANCH   2   3
ENDBRANCH   1   2
BRANCH   1  18
ATOM     18  C   UNL     1     -28.690   2.743 -39.094  1.00  0.00     0.000 C 
BRANCH  18  19
ATOM     19  C   UNL     1     -28.079   4.045 -38.547  1.00  0.00     0.000 C 
BRANCH  19  20
ATOM     20  C   UNL     1     -27.262   3.858 -37.252  1.00  0.00     0.000 C 
BRANCH  20  21
ATOM     21  C   UNL     1     -26.779   5.200 -36.671  1.00  0.00     0.000 C 
BRANCH  21  22
ATOM     22  C   UNL     1     -26.991   5.299 -35.152  1.00  0.00     0.000 C 
BRANCH  22  23
ATOM     23  C   UNL     1     -27.333   3.943 -34.516  1.00  0.00     0.000 C 
BRANCH  23  24
ATOM     24  C   UNL     1     -27.383   4.048 -32.985  1.00  0.00    -0.000 C 
BRANCH  24  25
ATOM     25  C   UNL     1     -26.055   3.634 -32.326  1.00  0.00    -0.000 C 
BRANCH  25  26
ATOM     26  C   UNL     1     -25.161   4.843 -31.989  1.00  0.00    -0.000 C 
BRANCH  26  27
ATOM     27  C   UNL     1     -24.057   5.073 -33.034  1.00  0.00    -0.000 C 
BRANCH  27  28
ATOM     28  C   UNL     1     -23.427   3.763 -33.534  1.00  0.00    -0.000 C 
BRANCH  28  29
ATOM     29  C   UNL     1     -23.717   3.550 -35.025  1.00  0.00    -0.000 C 
BRANCH  29  30
ATOM     30  C   UNL     1     -23.662   2.059 -35.387  1.00  0.00    -0.000 C 
BRANCH  30  31
ATOM     31  C   UNL     1     -25.006   1.529 -35.911  1.00  0.00    -0.003 C 
ATOM     32  C   UNL     1     -24.845   0.595 -37.110  1.00  0.00     0.004 C 
ENDBRANCH  30  31
ENDBRANCH  29  30
ENDBRANCH  28  29
ENDBRANCH  27  28
ENDBRANCH  26  27
ENDBRANCH  25  26
ENDBRANCH  24  25
ENDBRANCH  23  24
ENDBRANCH  22  23
ENDBRANCH  21  22
ENDBRANCH  20  21
ENDBRANCH  19  20
ENDBRANCH  18  19
ENDBRANCH   1  18
TORSDOF 28
ENDMDL
MODEL 6
REMARK VINA RESULT:    -2.776      3.782      8.355
REMARK INTER + INTRA:         -14.094
REMARK INTER:                  -8.978
REMARK INTRA:                  -5.116
REMARK UNBOUND:                -6.773
REMARK SMILES CCCCCCCCCCCCCCCCCCCCCCCCCCCCCC(=O)[O-]
REMARK SMILES IDX 16 1 17 2 18 3 19 4 20 5 21 6 22 7 23 8 24 9 25 10 26 11
REMARK SMILES IDX 27 12 28 13 29 14 30 15 31 16 32 17 15 18 14 19 13 20 12 21
REMARK SMILES IDX 11 22 10 23 9 24 8 25 7 26 6 27 5 28 4 29 3 30 2 31 1 32
REMARK H PARENT
REMARK Flexibility Score: inf
ROOT
ATOM      1  C   UNL     1     -28.303   1.029 -39.261  1.00  0.00     0.000 C 
ENDROOT
BRANCH   1   2
ATOM      2  C   UNL     1     -28.991  -0.174 -38.591  1.00  0.00     0.000 C 
BRANCH   2   3
ATOM      3  C   UNL     1     -30.200  -0.756 -39.352  1.00  0.00     0.000 C 
BRANCH   3   4
ATOM      4  C   UNL     1     -31.575  -0.567 -38.682  1.00  0.00     0.000 C 
BRANCH   4   5
ATOM      5  C   UNL     1     -32.175   0.846 -38.831  1.00  0.00     0.000 C 
BRANCH   5   6
ATOM      6  C   UNL     1     -32.571   1.488 -37.488  1.00  0.00     0.000 C 
BRANCH   6   7
ATOM      7  C   UNL     1     -31.373   2.089 -36.727  1.00  0.00     0.000 C 
BRANCH   7   8
ATOM      8  C   UNL     1     -31.117   1.478 -35.337  1.00  0.00     0.000 C 
BRANCH   8   9
ATOM      9  C   UNL     1     -30.234   0.218 -35.386  1.00  0.00     0.000 C 
BRANCH   9  10
ATOM     10  C   UNL     1     -30.830  -0.947 -34.577  1.00  0.00     0.000 C 
BRANCH  10  11
ATOM     11  C   UNL     1     -32.319  -1.185 -34.887  1.00  0.00     0.000 C 
BRANCH  11  12
ATOM     12  C   UNL     1     -33.126  -1.617 -33.651  1.00  0.00     0.000 C 
BRANCH  12  13
ATOM     13  C   UNL     1     -32.660  -2.953 -33.034  1.00  0.00     0.006 C 
BRANCH  13  14
ATOM     14  C   UNL     1     -33.483  -4.144 -33.543  1.00  0.00     0.053 C 
BRANCH  14  15
ATOM     15  C   UNL     1     -34.314  -4.717 -32.439  1.00  0.00     0.041 C 
ATOM     16  O   UNL     1     -34.994  -5.762 -32.634  1.00  0.00    -0.550 OA
ATOM     17  O   UNL     1     -34.311  -4.122 -31.183  1.00  0.00    -0.550 OA
ENDBRANCH  14  15
ENDBRANCH  13  14
ENDBRANCH  12  13
ENDBRANCH  11  12
ENDBRANCH  10  11
ENDBRANCH   9  10
ENDBRANCH   8   9
ENDBRANCH   7   8
ENDBRANCH   6   7
ENDBRANCH   5   6
ENDBRANCH   4   5
ENDBRANCH   3   4
ENDBRANCH   2   3
ENDBRANCH   1   2
BRANCH   1  18
ATOM     18  C   UNL     1     -28.026   2.186 -38.288  1.00  0.00     0.000 C 
BRANCH  18  19
ATOM     19  C   UNL     1     -28.366   3.563 -38.885  1.00  0.00     0.000 C 
BRANCH  19  20
ATOM     20  C   UNL     1     -28.319   4.717 -37.863  1.00  0.00     0.000 C 
BRANCH  20  21
ATOM     21  C   UNL     1     -26.989   4.751 -37.087  1.00  0.00     0.000 C 
BRANCH  21  22
ATOM     22  C   UNL     1     -27.191   4.930 -35.574  1.00  0.00     0.000 C 
BRANCH  22  23
ATOM     23  C   UNL     1     -28.135   3.875 -34.977  1.00  0.00     0.000 C 
BRANCH  23  24
ATOM     24  C   UNL     1     -27.371   2.902 -34.068  1.00  0.00    -0.000 C 
BRANCH  24  25
ATOM     25  C   UNL     1     -26.957   1.615 -34.803  1.00  0.00    -0.000 C 
BRANCH  25  26
ATOM     26  C   UNL     1     -25.431   1.401 -34.805  1.00  0.00    -0.000 C 
BRANCH  26  27
ATOM     27  C   UNL     1     -24.743   2.048 -36.017  1.00  0.00    -0.000 C 
BRANCH  27  28
ATOM     28  C   UNL     1     -23.837   3.228 -35.629  1.00  0.00    -0.000 C 
BRANCH  28  29
ATOM     29  C   UNL     1     -23.657   3.303 -34.108  1.00  0.00    -0.000 C 
BRANCH  29  30
ATOM     30  C   UNL     1     -24.027   4.697 -33.581  1.00  0.00    -0.000 C 
BRANCH  30  31
ATOM     31  C   UNL     1     -24.680   4.648 -32.190  1.00  0.00    -0.003 C 
ATOM     32  C   UNL     1     -24.273   5.826 -31.305  1.00  0.00     0.004 C 
ENDBRANCH  30  31
ENDBRANCH  29  30
ENDBRANCH  28  29
ENDBRANCH  27  28
ENDBRANCH  26  27
ENDBRANCH  25  26
ENDBRANCH  24  25
ENDBRANCH  23  24
ENDBRANCH  22  23
ENDBRANCH  21  22
ENDBRANCH  20  21
ENDBRANCH  19  20
ENDBRANCH  18  19
ENDBRANCH   1  18
TORSDOF 28
ENDMDL
MODEL 7
REMARK VINA RESULT:    -2.770      4.007      8.457
REMARK INTER + INTRA:         -14.078
REMARK INTER:                  -9.129
REMARK INTRA:                  -4.949
REMARK UNBOUND:                -6.773
REMARK SMILES CCCCCCCCCCCCCCCCCCCCCCCCCCCCCC(=O)[O-]
REMARK SMILES IDX 16 1 17 2 18 3 19 4 20 5 21 6 22 7 23 8 24 9 25 10 26 11
REMARK SMILES IDX 27 12 28 13 29 14 30 15 31 16 32 17 15 18 14 19 13 20 12 21
REMARK SMILES IDX 11 22 10 23 9 24 8 25 7 26 6 27 5 28 4 29 3 30 2 31 1 32
REMARK H PARENT
REMARK Flexibility Score: inf
ROOT
ATOM      1  C   UNL     1     -28.835  -1.258 -37.934  1.00  0.00     0.000 C 
ENDROOT
BRANCH   1   2
ATOM      2  C   UNL     1     -29.852  -0.684 -38.938  1.00  0.00     0.000 C 
BRANCH   2   3
ATOM      3  C   UNL     1     -31.329  -0.749 -38.498  1.00  0.00     0.000 C 
BRANCH   3   4
ATOM      4  C   UNL     1     -32.106   0.582 -38.538  1.00  0.00     0.000 C 
BRANCH   4   5
ATOM      5  C   UNL     1     -31.254   1.833 -38.241  1.00  0.00     0.000 C 
BRANCH   5   6
ATOM      6  C   UNL     1     -31.479   2.407 -36.830  1.00  0.00     0.000 C 
BRANCH   6   7
ATOM      7  C   UNL     1     -30.525   1.812 -35.775  1.00  0.00     0.000 C 
BRANCH   7   8
ATOM      8  C   UNL     1     -31.185   0.836 -34.784  1.00  0.00     0.000 C 
BRANCH   8   9
ATOM      9  C   UNL     1     -30.446  -0.509 -34.679  1.00  0.00     0.000 C 
BRANCH   9  10
ATOM     10  C   UNL     1     -31.384  -1.711 -34.882  1.00  0.00     0.000 C 
BRANCH  10  11
ATOM     11  C   UNL     1     -32.856  -1.372 -34.589  1.00  0.00     0.000 C 
BRANCH  11  12
ATOM     12  C   UNL     1     -33.466  -2.256 -33.487  1.00  0.00     0.000 C 
BRANCH  12  13
ATOM     13  C   UNL     1     -33.108  -3.751 -33.614  1.00  0.00     0.006 C 
BRANCH  13  14
ATOM     14  C   UNL     1     -34.337  -4.656 -33.460  1.00  0.00     0.053 C 
BRANCH  14  15
ATOM     15  C   UNL     1     -34.362  -5.279 -32.100  1.00  0.00     0.041 C 
ATOM     16  O   UNL     1     -34.655  -4.583 -31.090  1.00  0.00    -0.550 OA
ATOM     17  O   UNL     1     -34.100  -6.636 -31.949  1.00  0.00    -0.550 OA
ENDBRANCH  14  15
ENDBRANCH  13  14
ENDBRANCH  12  13
ENDBRANCH  11  12
ENDBRANCH  10  11
ENDBRANCH   9  10
ENDBRANCH   8   9
ENDBRANCH   7   8
ENDBRANCH   6   7
ENDBRANCH   5   6
ENDBRANCH   4   5
ENDBRANCH   3   4
ENDBRANCH   2   3
ENDBRANCH   1   2
BRANCH   1  18
ATOM     18  C   UNL     1     -27.864  -0.201 -37.386  1.00  0.00     0.000 C 
BRANCH  18  19
ATOM     19  C   UNL     1     -27.655   0.976 -38.353  1.00  0.00     0.000 C 
BRANCH  19  20
ATOM     20  C   UNL     1     -27.410   2.328 -37.651  1.00  0.00     0.000 C 
BRANCH  20  21
ATOM     21  C   UNL     1     -28.081   3.498 -38.394  1.00  0.00     0.000 C 
BRANCH  21  22
ATOM     22  C   UNL     1     -28.034   4.811 -37.596  1.00  0.00     0.000 C 
BRANCH  22  23
ATOM     23  C   UNL     1     -26.637   5.108 -37.032  1.00  0.00     0.000 C 
BRANCH  23  24
ATOM     24  C   UNL     1     -26.728   5.878 -35.707  1.00  0.00    -0.000 C 
BRANCH  24  25
ATOM     25  C   UNL     1     -26.772   4.943 -34.486  1.00  0.00    -0.000 C 
BRANCH  25  26
ATOM     26  C   UNL     1     -25.416   4.854 -33.761  1.00  0.00    -0.000 C 
BRANCH  26  27
ATOM     27  C   UNL     1     -24.953   3.404 -33.544  1.00  0.00    -0.000 C 
BRANCH  27  28
ATOM     28  C   UNL     1     -24.905   2.593 -34.850  1.00  0.00    -0.000 C 
BRANCH  28  29
ATOM     29  C   UNL     1     -23.814   3.125 -35.786  1.00  0.00    -0.000 C 
BRANCH  29  30
ATOM     30  C   UNL     1     -23.667   2.227 -37.023  1.00  0.00    -0.000 C 
BRANCH  30  31
ATOM     31  C   UNL     1     -23.122   0.832 -36.679  1.00  0.00    -0.003 C 
ATOM     32  C   UNL     1     -24.145  -0.277 -36.917  1.00  0.00     0.004 C 
ENDBRANCH  30  31
ENDBRANCH  29  30
ENDBRANCH  28  29
ENDBRANCH  27  28
ENDBRANCH  26  27
ENDBRANCH  25  26
ENDBRANCH  24  25
ENDBRANCH  23  24
ENDBRANCH  22  23
ENDBRANCH  21  22
ENDBRANCH  20  21
ENDBRANCH  19  20
ENDBRANCH  18  19
ENDBRANCH   1  18
TORSDOF 28
ENDMDL
MODEL 8
REMARK VINA RESULT:    -2.708      1.661      4.251
REMARK INTER + INTRA:         -13.913
REMARK INTER:                  -7.654
REMARK INTRA:                  -6.259
REMARK UNBOUND:                -6.773
REMARK SMILES CCCCCCCCCCCCCCCCCCCCCCCCCCCCCC(=O)[O-]
REMARK SMILES IDX 16 1 17 2 18 3 19 4 20 5 21 6 22 7 23 8 24 9 25 10 26 11
REMARK SMILES IDX 27 12 28 13 29 14 30 15 31 16 32 17 15 18 14 19 13 20 12 21
REMARK SMILES IDX 11 22 10 23 9 24 8 25 7 26 6 27 5 28 4 29 3 30 2 31 1 32
REMARK H PARENT
REMARK Flexibility Score: inf
ROOT
ATOM      1  C   UNL     1     -30.370   1.130 -39.705  1.00  0.00     0.000 C 
ENDROOT
BRANCH   1   2
ATOM      2  C   UNL     1     -29.032   0.816 -39.013  1.00  0.00     0.000 C 
BRANCH   2   3
ATOM      3  C   UNL     1     -28.204   2.042 -38.578  1.00  0.00     0.000 C 
BRANCH   3   4
ATOM      4  C   UNL     1     -28.798   3.420 -38.934  1.00  0.00     0.000 C 
BRANCH   4   5
ATOM      5  C   UNL     1     -28.933   4.389 -37.741  1.00  0.00     0.000 C 
BRANCH   5   6
ATOM      6  C   UNL     1     -27.993   5.606 -37.832  1.00  0.00     0.000 C 
BRANCH   6   7
ATOM      7  C   UNL     1     -26.891   5.603 -36.753  1.00  0.00     0.000 C 
BRANCH   7   8
ATOM      8  C   UNL     1     -26.699   4.258 -36.029  1.00  0.00     0.000 C 
BRANCH   8   9
ATOM      9  C   UNL     1     -25.477   3.471 -36.533  1.00  0.00     0.000 C 
BRANCH   9  10
ATOM     10  C   UNL     1     -25.450   2.027 -36.003  1.00  0.00     0.000 C 
BRANCH  10  11
ATOM     11  C   UNL     1     -26.516   1.771 -34.923  1.00  0.00     0.000 C 
BRANCH  11  12
ATOM     12  C   UNL     1     -25.920   1.652 -33.509  1.00  0.00     0.000 C 
BRANCH  12  13
ATOM     13  C   UNL     1     -26.172   2.886 -32.617  1.00  0.00     0.006 C 
BRANCH  13  14
ATOM     14  C   UNL     1     -24.864   3.516 -32.120  1.00  0.00     0.053 C 
BRANCH  14  15
ATOM     15  C   UNL     1     -24.326   4.475 -33.135  1.00  0.00     0.041 C 
ATOM     16  O   UNL     1     -24.865   5.605 -33.287  1.00  0.00    -0.550 OA
ATOM     17  O   UNL     1     -23.207   4.139 -33.887  1.00  0.00    -0.550 OA
ENDBRANCH  14  15
ENDBRANCH  13  14
ENDBRANCH  12  13
ENDBRANCH  11  12
ENDBRANCH  10  11
ENDBRANCH   9  10
ENDBRANCH   8   9
ENDBRANCH   7   8
ENDBRANCH   6   7
ENDBRANCH   5   6
ENDBRANCH   4   5
ENDBRANCH   3   4
ENDBRANCH   2   3
ENDBRANCH   1   2
BRANCH   1  18
ATOM     18  C   UNL     1     -31.581   0.505 -38.994  1.00  0.00     0.000 C 
BRANCH  18  19
ATOM     19  C   UNL     1     -32.752   1.489 -38.833  1.00  0.00     0.000 C 
BRANCH  19  20
ATOM     20  C   UNL     1     -32.515   2.859 -39.502  1.00  0.00     0.000 C 
BRANCH  20  21
ATOM     21  C   UNL     1     -32.537   4.014 -38.483  1.00  0.00     0.000 C 
BRANCH  21  22
ATOM     22  C   UNL     1     -32.911   3.548 -37.068  1.00  0.00     0.000 C 
BRANCH  22  23
ATOM     23  C   UNL     1     -32.118   4.283 -35.977  1.00  0.00     0.000 C 
BRANCH  23  24
ATOM     24  C   UNL     1     -31.552   3.297 -34.945  1.00  0.00    -0.000 C 
BRANCH  24  25
ATOM     25  C   UNL     1     -30.532   2.324 -35.562  1.00  0.00    -0.000 C 
BRANCH  25  26
ATOM     26  C   UNL     1     -30.986   0.855 -35.469  1.00  0.00    -0.000 C 
BRANCH  26  27
ATOM     27  C   UNL     1     -29.811  -0.134 -35.536  1.00  0.00    -0.000 C 
BRANCH  27  28
ATOM     28  C   UNL     1     -30.193  -1.469 -36.194  1.00  0.00    -0.000 C 
BRANCH  28  29
ATOM     29  C   UNL     1     -28.965  -2.371 -36.358  1.00  0.00    -0.000 C 
BRANCH  29  30
ATOM     30  C   UNL     1     -27.685  -1.535 -36.498  1.00  0.00    -0.000 C 
BRANCH  30  31
ATOM     31  C   UNL     1     -26.879  -1.895 -37.757  1.00  0.00    -0.003 C 
ATOM     32  C   UNL     1     -25.505  -1.226 -37.790  1.00  0.00     0.004 C 
ENDBRANCH  30  31
ENDBRANCH  29  30
ENDBRANCH  28  29
ENDBRANCH  27  28
ENDBRANCH  26  27
ENDBRANCH  25  26
ENDBRANCH  24  25
ENDBRANCH  23  24
ENDBRANCH  22  23
ENDBRANCH  21  22
ENDBRANCH  20  21
ENDBRANCH  19  20
ENDBRANCH  18  19
ENDBRANCH   1  18
TORSDOF 28
ENDMDL
MODEL 9
REMARK VINA RESULT:    -2.681      3.189      7.365
REMARK INTER + INTRA:         -13.843
REMARK INTER:                  -7.895
REMARK INTRA:                  -5.948
REMARK UNBOUND:                -6.773
REMARK SMILES CCCCCCCCCCCCCCCCCCCCCCCCCCCCCC(=O)[O-]
REMARK SMILES IDX 16 1 17 2 18 3 19 4 20 5 21 6 22 7 23 8 24 9 25 10 26 11
REMARK SMILES IDX 27 12 28 13 29 14 30 15 31 16 32 17 15 18 14 19 13 20 12 21
REMARK SMILES IDX 11 22 10 23 9 24 8 25 7 26 6 27 5 28 4 29 3 30 2 31 1 32
REMARK H PARENT
REMARK Flexibility Score: inf
ROOT
ATOM      1  C   UNL     1     -28.116   1.845 -38.568  1.00  0.00     0.000 C 
ENDROOT
BRANCH   1   2
ATOM      2  C   UNL     1     -28.942   0.580 -38.864  1.00  0.00     0.000 C 
BRANCH   2   3
ATOM      3  C   UNL     1     -30.349   0.827 -39.445  1.00  0.00     0.000 C 
BRANCH   3   4
ATOM      4  C   UNL     1     -31.460  -0.123 -38.954  1.00  0.00     0.000 C 
BRANCH   4   5
ATOM      5  C   UNL     1     -32.763   0.581 -38.520  1.00  0.00     0.000 C 
BRANCH   5   6
ATOM      6  C   UNL     1     -32.755   2.099 -38.781  1.00  0.00     0.000 C 
BRANCH   6   7
ATOM      7  C   UNL     1     -32.839   2.935 -37.489  1.00  0.00     0.000 C 
BRANCH   7   8
ATOM      8  C   UNL     1     -31.672   3.917 -37.277  1.00  0.00     0.000 C 
BRANCH   8   9
ATOM      9  C   UNL     1     -30.877   3.639 -35.989  1.00  0.00     0.000 C 
BRANCH   9  10
ATOM     10  C   UNL     1     -31.231   2.280 -35.363  1.00  0.00     0.000 C 
BRANCH  10  11
ATOM     11  C   UNL     1     -30.116   1.234 -35.544  1.00  0.00     0.000 C 
BRANCH  11  12
ATOM     12  C   UNL     1     -30.634  -0.213 -35.468  1.00  0.00     0.000 C 
BRANCH  12  13
ATOM     13  C   UNL     1     -29.631  -1.206 -34.844  1.00  0.00     0.006 C 
BRANCH  13  14
ATOM     14  C   UNL     1     -28.476  -1.539 -35.798  1.00  0.00     0.053 C 
BRANCH  14  15
ATOM     15  C   UNL     1     -28.797  -2.760 -36.603  1.00  0.00     0.041 C 
ATOM     16  O   UNL     1     -29.134  -3.828 -36.024  1.00  0.00    -0.550 OA
ATOM     17  O   UNL     1     -28.761  -2.709 -37.991  1.00  0.00    -0.550 OA
ENDBRANCH  14  15
ENDBRANCH  13  14
ENDBRANCH  12  13
ENDBRANCH  11  12
ENDBRANCH  10  11
ENDBRANCH   9  10
ENDBRANCH   8   9
ENDBRANCH   7   8
ENDBRANCH   6   7
ENDBRANCH   5   6
ENDBRANCH   4   5
ENDBRANCH   3   4
ENDBRANCH   2   3
ENDBRANCH   1   2
BRANCH   1  18
ATOM     18  C   UNL     1     -28.640   3.094 -39.296  1.00  0.00     0.000 C 
BRANCH  18  19
ATOM     19  C   UNL     1     -28.266   4.402 -38.578  1.00  0.00     0.000 C 
BRANCH  19  20
ATOM     20  C   UNL     1     -27.421   4.199 -37.304  1.00  0.00     0.000 C 
BRANCH  20  21
ATOM     21  C   UNL     1     -26.862   5.527 -36.760  1.00  0.00     0.000 C 
BRANCH  21  22
ATOM     22  C   UNL     1     -26.697   5.519 -35.232  1.00  0.00     0.000 C 
BRANCH  22  23
ATOM     23  C   UNL     1     -26.834   4.111 -34.633  1.00  0.00     0.000 C 
BRANCH  23  24
ATOM     24  C   UNL     1     -25.991   3.970 -33.357  1.00  0.00    -0.000 C 
BRANCH  24  25
ATOM     25  C   UNL     1     -24.756   3.077 -33.566  1.00  0.00    -0.000 C 
BRANCH  25  26
ATOM     26  C   UNL     1     -23.794   3.638 -34.631  1.00  0.00    -0.000 C 
BRANCH  26  27
ATOM     27  C   UNL     1     -23.757   2.782 -35.907  1.00  0.00    -0.000 C 
BRANCH  27  28
ATOM     28  C   UNL     1     -24.188   1.326 -35.661  1.00  0.00    -0.000 C 
BRANCH  28  29
ATOM     29  C   UNL     1     -25.345   0.933 -36.587  1.00  0.00    -0.000 C 
BRANCH  29  30
ATOM     30  C   UNL     1     -24.823   0.240 -37.854  1.00  0.00    -0.000 C 
BRANCH  30  31
ATOM     31  C   UNL     1     -25.608  -1.035 -38.196  1.00  0.00    -0.003 C 
ATOM     32  C   UNL     1     -25.831  -1.207 -39.698  1.00  0.00     0.004 C 
ENDBRANCH  30  31
ENDBRANCH  29  30
ENDBRANCH  28  29
ENDBRANCH  27  28
ENDBRANCH  26  27
ENDBRANCH  25  26
ENDBRANCH  24  25
ENDBRANCH  23  24
ENDBRANCH  22  23
ENDBRANCH  21  22
ENDBRANCH  20  21
ENDBRANCH  19  20
ENDBRANCH  18  19
ENDBRANCH   1  18
TORSDOF 28
ENDMDL
