MODEL 1
REMARK VINA RESULT:    -4.100      0.000      0.000
REMARK INTER + INTRA:          -5.785
REMARK INTER:                  -5.299
REMARK INTRA:                  -0.486
REMARK UNBOUND:                -0.486
REMARK SMILES C=CC(=O)CCCCC
REMARK SMILES IDX 6 1 7 2 8 3 9 4 5 5 3 6 4 7 2 8 1 9
REMARK H PARENT
REMARK Flexibility Score: inf
ROOT
ATOM      1  C   UNL     1      32.571  40.088  85.131  1.00  0.00     0.008 C 
ENDROOT
BRANCH   1   2
ATOM      2  C   UNL     1      31.892  40.887  84.000  1.00  0.00     0.000 C 
BRANCH   2   3
ATOM      3  C   UNL     1      32.884  41.645  83.102  1.00  0.00    -0.003 C 
ATOM      4  C   UNL     1      33.645  40.730  82.145  1.00  0.00     0.004 C 
ENDBRANCH   2   3
ENDBRANCH   1   2
BRANCH   1   5
ATOM      5  C   UNL     1      33.617  40.919  85.884  1.00  0.00     0.080 C 
BRANCH   5   6
ATOM      6  C   UNL     1      34.939  40.210  85.905  1.00  0.00     0.155 C 
ATOM      7  O   UNL     1      35.807  40.544  86.757  1.00  0.00    -0.295 OA
BRANCH   6   8
ATOM      8  C   UNL     1      35.231  39.166  84.905  1.00  0.00     0.039 C 
ATOM      9  C   UNL     1      36.356  39.154  84.192  1.00  0.00     0.012 C 
ENDBRANCH   6   8
ENDBRANCH   5   6
ENDBRANCH   1   5
TORSDOF 5
ENDMDL
MODEL 2
REMARK VINA RESULT:    -3.945      1.758      2.236
REMARK INTER + INTRA:          -5.584
REMARK INTER:                  -5.067
REMARK INTRA:                  -0.518
REMARK UNBOUND:                -0.486
REMARK SMILES C=CC(=O)CCCCC
REMARK SMILES IDX 6 1 7 2 8 3 9 4 5 5 3 6 4 7 2 8 1 9
REMARK H PARENT
REMARK Flexibility Score: inf
ROOT
ATOM      1  C   UNL     1      33.888  40.328  85.713  1.00  0.00     0.008 C 
ENDROOT
BRANCH   1   2
ATOM      2  C   UNL     1      32.472  40.033  85.176  1.00  0.00     0.000 C 
BRANCH   2   3
ATOM      3  C   UNL     1      31.941  41.113  84.218  1.00  0.00    -0.003 C 
ATOM      4  C   UNL     1      32.585  41.056  82.835  1.00  0.00     0.004 C 
ENDBRANCH   2   3
ENDBRANCH   1   2
BRANCH   1   5
ATOM      5  C   UNL     1      34.945  39.395  85.108  1.00  0.00     0.080 C 
BRANCH   5   6
ATOM      6  C   UNL     1      36.067  40.189  84.507  1.00  0.00     0.155 C 
ATOM      7  O   UNL     1      37.050  39.584  83.998  1.00  0.00    -0.295 OA
BRANCH   6   8
ATOM      8  C   UNL     1      36.036  41.663  84.555  1.00  0.00     0.039 C 
ATOM      9  C   UNL     1      36.000  42.414  83.456  1.00  0.00     0.012 C 
ENDBRANCH   6   8
ENDBRANCH   5   6
ENDBRANCH   1   5
TORSDOF 5
ENDMDL
MODEL 3
REMARK VINA RESULT:    -3.943      1.583      3.526
REMARK INTER + INTRA:          -5.581
REMARK INTER:                  -5.127
REMARK INTRA:                  -0.454
REMARK UNBOUND:                -0.486
REMARK SMILES C=CC(=O)CCCCC
REMARK SMILES IDX 6 1 7 2 8 3 9 4 5 5 3 6 4 7 2 8 1 9
REMARK H PARENT
REMARK Flexibility Score: inf
ROOT
ATOM      1  C   UNL     1      34.756  39.775  85.540  1.00  0.00     0.008 C 
ENDROOT
BRANCH   1   2
ATOM      2  C   UNL     1      35.603  38.942  84.557  1.00  0.00     0.000 C 
BRANCH   2   3
ATOM      3  C   UNL     1      37.007  39.521  84.313  1.00  0.00    -0.003 C 
ATOM      4  C   UNL     1      37.028  41.047  84.272  1.00  0.00     0.004 C 
ENDBRANCH   2   3
ENDBRANCH   1   2
BRANCH   1   5
ATOM      5  C   UNL     1      33.275  39.820  85.139  1.00  0.00     0.080 C 
BRANCH   5   6
ATOM      6  C   UNL     1      32.979  41.064  84.355  1.00  0.00     0.155 C 
ATOM      7  O   UNL     1      32.802  42.153  84.966  1.00  0.00    -0.295 OA
BRANCH   6   8
ATOM      8  C   UNL     1      32.851  40.997  82.886  1.00  0.00     0.039 C 
ATOM      9  C   UNL     1      33.894  40.782  82.087  1.00  0.00     0.012 C 
ENDBRANCH   6   8
ENDBRANCH   5   6
ENDBRANCH   1   5
TORSDOF 5
ENDMDL
MODEL 4
REMARK VINA RESULT:    -3.867      1.413      2.431
REMARK INTER + INTRA:          -5.483
REMARK INTER:                  -4.879
REMARK INTRA:                  -0.604
REMARK UNBOUND:                -0.486
REMARK SMILES C=CC(=O)CCCCC
REMARK SMILES IDX 6 1 7 2 8 3 9 4 5 5 3 6 4 7 2 8 1 9
REMARK H PARENT
REMARK Flexibility Score: inf
ROOT
ATOM      1  C   UNL     1      33.722  42.391  82.989  1.00  0.00     0.008 C 
ENDROOT
BRANCH   1   2
ATOM      2  C   UNL     1      32.941  41.067  82.867  1.00  0.00     0.000 C 
BRANCH   2   3
ATOM      3  C   UNL     1      31.904  40.860  83.984  1.00  0.00    -0.003 C 
ATOM      4  C   UNL     1      32.462  40.104  85.187  1.00  0.00     0.004 C 
ENDBRANCH   2   3
ENDBRANCH   1   2
BRANCH   1   5
ATOM      5  C   UNL     1      35.241  42.177  82.932  1.00  0.00     0.080 C 
BRANCH   5   6
ATOM      6  C   UNL     1      35.723  41.483  84.172  1.00  0.00     0.155 C 
ATOM      7  O   UNL     1      35.514  42.012  85.297  1.00  0.00    -0.295 OA
BRANCH   6   8
ATOM      8  C   UNL     1      36.475  40.218  84.063  1.00  0.00     0.039 C 
ATOM      9  C   UNL     1      35.876  39.028  84.079  1.00  0.00     0.012 C 
ENDBRANCH   6   8
ENDBRANCH   5   6
ENDBRANCH   1   5
TORSDOF 5
ENDMDL
MODEL 5
REMARK VINA RESULT:    -3.864      1.674      2.799
REMARK INTER + INTRA:          -5.479
REMARK INTER:                  -4.980
REMARK INTRA:                  -0.499
REMARK UNBOUND:                -0.486
REMARK SMILES C=CC(=O)CCCCC
REMARK SMILES IDX 6 1 7 2 8 3 9 4 5 5 3 6 4 7 2 8 1 9
REMARK H PARENT
REMARK Flexibility Score: inf
ROOT
ATOM      1  C   UNL     1      32.733  41.551  83.025  1.00  0.00     0.008 C 
ENDROOT
BRANCH   1   2
ATOM      2  C   UNL     1      31.785  40.794  83.977  1.00  0.00     0.000 C 
BRANCH   2   3
ATOM      3  C   UNL     1      32.474  40.283  85.253  1.00  0.00    -0.003 C 
ATOM      4  C   UNL     1      33.049  41.406  86.115  1.00  0.00     0.004 C 
ENDBRANCH   2   3
ENDBRANCH   1   2
BRANCH   1   5
ATOM      5  C   UNL     1      33.906  40.680  82.558  1.00  0.00     0.080 C 
BRANCH   5   6
ATOM      6  C   UNL     1      35.195  41.167  83.152  1.00  0.00     0.155 C 
ATOM      7  O   UNL     1      35.536  42.370  82.987  1.00  0.00    -0.295 OA
BRANCH   6   8
ATOM      8  C   UNL     1      36.072  40.230  83.880  1.00  0.00     0.039 C 
ATOM      9  C   UNL     1      35.785  38.936  84.009  1.00  0.00     0.012 C 
ENDBRANCH   6   8
ENDBRANCH   5   6
ENDBRANCH   1   5
TORSDOF 5
ENDMDL
MODEL 6
REMARK VINA RESULT:    -3.804      2.183      3.993
REMARK INTER + INTRA:          -5.402
REMARK INTER:                  -4.788
REMARK INTRA:                  -0.614
REMARK UNBOUND:                -0.486
REMARK SMILES C=CC(=O)CCCCC
REMARK SMILES IDX 6 1 7 2 8 3 9 4 5 5 3 6 4 7 2 8 1 9
REMARK H PARENT
REMARK Flexibility Score: inf
ROOT
ATOM      1  C   UNL     1      35.488  42.327  83.275  1.00  0.00     0.008 C 
ENDROOT
BRANCH   1   2
ATOM      2  C   UNL     1      35.930  41.500  84.500  1.00  0.00     0.000 C 
BRANCH   2   3
ATOM      3  C   UNL     1      36.713  40.229  84.134  1.00  0.00    -0.003 C 
ATOM      4  C   UNL     1      35.896  38.950  84.309  1.00  0.00     0.004 C 
ENDBRANCH   2   3
ENDBRANCH   1   2
BRANCH   1   5
ATOM      5  C   UNL     1      33.971  42.555  83.245  1.00  0.00     0.080 C 
BRANCH   5   6
ATOM      6  C   UNL     1      33.245  41.253  83.069  1.00  0.00     0.155 C 
ATOM      7  O   UNL     1      33.521  40.519  82.082  1.00  0.00    -0.295 OA
BRANCH   6   8
ATOM      8  C   UNL     1      32.187  40.865  84.022  1.00  0.00     0.039 C 
ATOM      9  C   UNL     1      32.436  40.141  85.111  1.00  0.00     0.012 C 
ENDBRANCH   6   8
ENDBRANCH   5   6
ENDBRANCH   1   5
TORSDOF 5
ENDMDL
MODEL 7
REMARK VINA RESULT:    -3.757      1.532      2.711
REMARK INTER + INTRA:          -5.341
REMARK INTER:                  -4.849
REMARK INTRA:                  -0.492
REMARK UNBOUND:                -0.486
REMARK SMILES C=CC(=O)CCCCC
REMARK SMILES IDX 6 1 7 2 8 3 9 4 5 5 3 6 4 7 2 8 1 9
REMARK H PARENT
REMARK Flexibility Score: inf
ROOT
ATOM      1  C   UNL     1      34.618  40.781  82.775  1.00  0.00     0.008 C 
ENDROOT
BRANCH   1   2
ATOM      2  C   UNL     1      33.088  40.823  82.968  1.00  0.00     0.000 C 
BRANCH   2   3
ATOM      3  C   UNL     1      32.657  41.298  84.365  1.00  0.00    -0.003 C 
ATOM      4  C   UNL     1      32.200  40.157  85.272  1.00  0.00     0.004 C 
ENDBRANCH   2   3
ENDBRANCH   1   2
BRANCH   1   5
ATOM      5  C   UNL     1      35.274  39.645  83.571  1.00  0.00     0.080 C 
BRANCH   5   6
ATOM      6  C   UNL     1      36.436  40.162  84.367  1.00  0.00     0.155 C 
ATOM      7  O   UNL     1      37.587  39.691  84.157  1.00  0.00    -0.295 OA
BRANCH   6   8
ATOM      8  C   UNL     1      36.218  41.177  85.416  1.00  0.00     0.039 C 
ATOM      9  C   UNL     1      35.773  40.863  86.631  1.00  0.00     0.012 C 
ENDBRANCH   6   8
ENDBRANCH   5   6
ENDBRANCH   1   5
TORSDOF 5
ENDMDL
MODEL 8
REMARK VINA RESULT:    -3.732      2.250      3.601
REMARK INTER + INTRA:          -5.309
REMARK INTER:                  -4.725
REMARK INTRA:                  -0.584
REMARK UNBOUND:                -0.486
REMARK SMILES C=CC(=O)CCCCC
REMARK SMILES IDX 6 1 7 2 8 3 9 4 5 5 3 6 4 7 2 8 1 9
REMARK H PARENT
REMARK Flexibility Score: inf
ROOT
ATOM      1  C   UNL     1      34.752  39.400  84.559  1.00  0.00     0.008 C 
ENDROOT
BRANCH   1   2
ATOM      2  C   UNL     1      33.884  40.089  85.631  1.00  0.00     0.000 C 
BRANCH   2   3
ATOM      3  C   UNL     1      32.386  40.117  85.285  1.00  0.00    -0.003 C 
ATOM      4  C   UNL     1      31.777  41.515  85.373  1.00  0.00     0.004 C 
ENDBRANCH   2   3
ENDBRANCH   1   2
BRANCH   1   5
ATOM      5  C   UNL     1      35.554  40.408  83.724  1.00  0.00     0.080 C 
BRANCH   5   6
ATOM      6  C   UNL     1      34.649  41.164  82.797  1.00  0.00     0.155 C 
ATOM      7  O   UNL     1      34.013  40.538  81.906  1.00  0.00    -0.295 OA
BRANCH   6   8
ATOM      8  C   UNL     1      34.545  42.633  82.903  1.00  0.00     0.039 C 
ATOM      9  C   UNL     1      34.840  43.291  84.023  1.00  0.00     0.012 C 
ENDBRANCH   6   8
ENDBRANCH   5   6
ENDBRANCH   1   5
TORSDOF 5
ENDMDL
MODEL 9
REMARK VINA RESULT:    -3.653      2.274      3.613
REMARK INTER + INTRA:          -5.207
REMARK INTER:                  -4.690
REMARK INTRA:                  -0.517
REMARK UNBOUND:                -0.486
REMARK SMILES C=CC(=O)CCCCC
REMARK SMILES IDX 6 1 7 2 8 3 9 4 5 5 3 6 4 7 2 8 1 9
REMARK H PARENT
REMARK Flexibility Score: inf
ROOT
ATOM      1  C   UNL     1      33.238  40.028  84.882  1.00  0.00     0.008 C 
ENDROOT
BRANCH   1   2
ATOM      2  C   UNL     1      34.653  39.717  85.410  1.00  0.00     0.000 C 
BRANCH   2   3
ATOM      3  C   UNL     1      35.520  38.925  84.416  1.00  0.00    -0.003 C 
ATOM      4  C   UNL     1      36.984  39.358  84.421  1.00  0.00     0.004 C 
ENDBRANCH   2   3
ENDBRANCH   1   2
BRANCH   1   5
ATOM      5  C   UNL     1      33.105  41.476  84.391  1.00  0.00     0.080 C 
BRANCH   5   6
ATOM      6  C   UNL     1      33.788  41.649  83.067  1.00  0.00     0.155 C 
ATOM      7  O   UNL     1      33.550  40.831  82.137  1.00  0.00    -0.295 OA
BRANCH   6   8
ATOM      8  C   UNL     1      34.763  42.740  82.877  1.00  0.00     0.039 C 
ATOM      9  C   UNL     1      35.924  42.782  83.529  1.00  0.00     0.012 C 
ENDBRANCH   6   8
ENDBRANCH   5   6
ENDBRANCH   1   5
TORSDOF 5
ENDMDL
