MODEL 1
REMARK VINA RESULT:    -4.051      0.000      0.000
REMARK INTER + INTRA:          -4.384
REMARK INTER:                  -4.288
REMARK INTRA:                  -0.096
REMARK UNBOUND:                -0.096
REMARK SMILES C=C(C)[C@@H]1CC=C(C)C(=O)C1
REMARK SMILES IDX 8 1 7 2 6 3 5 4 4 5 11 6 9 7 10 8 2 9 1 10 3 11
REMARK H PARENT
REMARK Flexibility Score: inf
ROOT
ATOM      1  C   UNL     1      28.717  33.122  21.466  1.00  0.00     0.048 C 
ATOM      2  C   UNL     1      28.760  32.145  22.612  1.00  0.00    -0.012 C 
ATOM      3  C   UNL     1      29.080  30.856  22.403  1.00  0.00    -0.019 C 
ATOM      4  C   UNL     1      29.121  29.867  23.537  1.00  0.00     0.036 C 
ATOM      5  C   UNL     1      28.006  30.192  24.551  1.00  0.00     0.025 C 
ATOM      6  C   UNL     1      28.213  31.618  25.104  1.00  0.00     0.089 C 
ATOM      7  C   UNL     1      28.390  32.605  23.978  1.00  0.00     0.158 C 
ATOM      8  O   UNL     1      28.334  33.839  24.226  1.00  0.00    -0.295 OA
ENDROOT
BRANCH   5   9
ATOM      9  C   UNL     1      27.953  29.153  25.661  1.00  0.00    -0.077 C 
ATOM     10  C   UNL     1      29.073  28.808  26.315  1.00  0.00     0.008 C 
ATOM     11  C   UNL     1      26.645  28.526  26.090  1.00  0.00     0.039 C 
ENDBRANCH   5   9
TORSDOF 1
ENDMDL
MODEL 2
REMARK VINA RESULT:    -3.934      2.186      4.646
REMARK INTER + INTRA:          -4.260
REMARK INTER:                  -4.161
REMARK INTRA:                  -0.099
REMARK UNBOUND:                -0.096
REMARK SMILES C=C(C)[C@@H]1CC=C(C)C(=O)C1
REMARK SMILES IDX 8 1 7 2 6 3 5 4 4 5 11 6 9 7 10 8 2 9 1 10 3 11
REMARK H PARENT
REMARK Flexibility Score: inf
ROOT
ATOM      1  C   UNL     1      27.596  26.638  26.780  1.00  0.00     0.048 C 
ATOM      2  C   UNL     1      27.730  27.773  25.797  1.00  0.00    -0.012 C 
ATOM      3  C   UNL     1      28.766  27.820  24.942  1.00  0.00    -0.019 C 
ATOM      4  C   UNL     1      28.916  28.950  23.959  1.00  0.00     0.036 C 
ATOM      5  C   UNL     1      28.432  30.265  24.600  1.00  0.00     0.025 C 
ATOM      6  C   UNL     1      26.947  30.126  25.001  1.00  0.00     0.089 C 
ATOM      7  C   UNL     1      26.732  28.875  25.814  1.00  0.00     0.158 C 
ATOM      8  O   UNL     1      25.641  28.719  26.426  1.00  0.00    -0.295 OA
ENDROOT
BRANCH   5   9
ATOM      9  C   UNL     1      28.662  31.448  23.671  1.00  0.00    -0.077 C 
ATOM     10  C   UNL     1      29.125  31.247  22.427  1.00  0.00     0.008 C 
ATOM     11  C   UNL     1      28.329  32.861  24.096  1.00  0.00     0.039 C 
ENDBRANCH   5   9
TORSDOF 1
ENDMDL
MODEL 3
REMARK VINA RESULT:    -3.907      3.014      5.607
REMARK INTER + INTRA:          -4.232
REMARK INTER:                  -4.135
REMARK INTRA:                  -0.097
REMARK UNBOUND:                -0.096
REMARK SMILES C=C(C)[C@@H]1CC=C(C)C(=O)C1
REMARK SMILES IDX 8 1 7 2 6 3 5 4 4 5 11 6 9 7 10 8 2 9 1 10 3 11
REMARK H PARENT
REMARK Flexibility Score: inf
ROOT
ATOM      1  C   UNL     1      26.576  25.485  27.156  1.00  0.00     0.048 C 
ATOM      2  C   UNL     1      27.143  26.707  26.482  1.00  0.00    -0.012 C 
ATOM      3  C   UNL     1      26.503  27.887  26.550  1.00  0.00    -0.019 C 
ATOM      4  C   UNL     1      27.055  29.115  25.877  1.00  0.00     0.036 C 
ATOM      5  C   UNL     1      27.729  28.722  24.548  1.00  0.00     0.025 C 
ATOM      6  C   UNL     1      28.878  27.729  24.828  1.00  0.00     0.089 C 
ATOM      7  C   UNL     1      28.397  26.588  25.689  1.00  0.00     0.158 C 
ATOM      8  O   UNL     1      29.124  25.568  25.823  1.00  0.00    -0.295 OA
ENDROOT
BRANCH   5   9
ATOM      9  C   UNL     1      28.211  29.950  23.790  1.00  0.00    -0.077 C 
ATOM     10  C   UNL     1      28.833  29.811  22.609  1.00  0.00     0.008 C 
ATOM     11  C   UNL     1      27.961  31.347  24.314  1.00  0.00     0.039 C 
ENDBRANCH   5   9
TORSDOF 1
ENDMDL
MODEL 4
REMARK VINA RESULT:    -3.842      7.493     10.233
REMARK INTER + INTRA:          -4.163
REMARK INTER:                  -4.064
REMARK INTRA:                  -0.098
REMARK UNBOUND:                -0.096
REMARK SMILES C=C(C)[C@@H]1CC=C(C)C(=O)C1
REMARK SMILES IDX 8 1 7 2 6 3 5 4 4 5 11 6 9 7 10 8 2 9 1 10 3 11
REMARK H PARENT
REMARK Flexibility Score: inf
ROOT
ATOM      1  C   UNL     1      26.631  35.870  19.371  1.00  0.00     0.048 C 
ATOM      2  C   UNL     1      26.435  37.353  19.551  1.00  0.00    -0.012 C 
ATOM      3  C   UNL     1      27.135  38.232  18.812  1.00  0.00    -0.019 C 
ATOM      4  C   UNL     1      26.954  39.716  18.985  1.00  0.00     0.036 C 
ATOM      5  C   UNL     1      26.706  40.040  20.471  1.00  0.00     0.025 C 
ATOM      6  C   UNL     1      25.434  39.308  20.953  1.00  0.00     0.089 C 
ATOM      7  C   UNL     1      25.497  37.844  20.596  1.00  0.00     0.158 C 
ATOM      8  O   UNL     1      24.667  37.049  21.112  1.00  0.00    -0.295 OA
ENDROOT
BRANCH   5   9
ATOM      9  C   UNL     1      26.618  41.542  20.700  1.00  0.00    -0.077 C 
ATOM     10  C   UNL     1      26.218  42.020  21.889  1.00  0.00     0.008 C 
ATOM     11  C   UNL     1      27.024  42.527  19.626  1.00  0.00     0.039 C 
ENDBRANCH   5   9
TORSDOF 1
ENDMDL
MODEL 5
REMARK VINA RESULT:    -3.838      7.338      9.332
REMARK INTER + INTRA:          -4.158
REMARK INTER:                  -4.069
REMARK INTRA:                  -0.089
REMARK UNBOUND:                -0.096
REMARK SMILES C=C(C)[C@@H]1CC=C(C)C(=O)C1
REMARK SMILES IDX 8 1 7 2 6 3 5 4 4 5 11 6 9 7 10 8 2 9 1 10 3 11
REMARK H PARENT
REMARK Flexibility Score: inf
ROOT
ATOM      1  C   UNL     1      26.504  41.645  21.344  1.00  0.00     0.048 C 
ATOM      2  C   UNL     1      26.279  40.313  20.677  1.00  0.00    -0.012 C 
ATOM      3  C   UNL     1      25.541  39.362  21.277  1.00  0.00    -0.019 C 
ATOM      4  C   UNL     1      25.312  38.025  20.625  1.00  0.00     0.036 C 
ATOM      5  C   UNL     1      26.577  37.596  19.857  1.00  0.00     0.025 C 
ATOM      6  C   UNL     1      26.902  38.648  18.773  1.00  0.00     0.089 C 
ATOM      7  C   UNL     1      26.926  40.033  19.367  1.00  0.00     0.158 C 
ATOM      8  O   UNL     1      27.402  40.985  18.692  1.00  0.00    -0.295 OA
ENDROOT
BRANCH   5   9
ATOM      9  C   UNL     1      26.418  36.203  19.268  1.00  0.00    -0.077 C 
ATOM     10  C   UNL     1      27.423  35.316  19.354  1.00  0.00     0.008 C 
ATOM     11  C   UNL     1      25.123  35.763  18.623  1.00  0.00     0.039 C 
ENDBRANCH   5   9
TORSDOF 1
ENDMDL
MODEL 6
REMARK VINA RESULT:    -3.825      8.218     10.485
REMARK INTER + INTRA:          -4.145
REMARK INTER:                  -4.046
REMARK INTRA:                  -0.099
REMARK UNBOUND:                -0.096
REMARK SMILES C=C(C)[C@@H]1CC=C(C)C(=O)C1
REMARK SMILES IDX 8 1 7 2 6 3 5 4 4 5 11 6 9 7 10 8 2 9 1 10 3 11
REMARK H PARENT
REMARK Flexibility Score: inf
ROOT
ATOM      1  C   UNL     1      24.196  37.032  21.209  1.00  0.00     0.048 C 
ATOM      2  C   UNL     1      25.306  37.914  20.699  1.00  0.00    -0.012 C 
ATOM      3  C   UNL     1      25.505  39.137  21.222  1.00  0.00    -0.019 C 
ATOM      4  C   UNL     1      26.605  40.032  20.719  1.00  0.00     0.036 C 
ATOM      5  C   UNL     1      26.771  39.848  19.197  1.00  0.00     0.025 C 
ATOM      6  C   UNL     1      27.126  38.376  18.892  1.00  0.00     0.089 C 
ATOM      7  C   UNL     1      26.153  37.444  19.570  1.00  0.00     0.158 C 
ATOM      8  O   UNL     1      26.139  36.226  19.246  1.00  0.00    -0.295 OA
ENDROOT
BRANCH   5   9
ATOM      9  C   UNL     1      27.807  40.810  18.636  1.00  0.00    -0.077 C 
ATOM     10  C   UNL     1      28.931  40.338  18.073  1.00  0.00     0.008 C 
ATOM     11  C   UNL     1      27.582  42.306  18.649  1.00  0.00     0.039 C 
ENDBRANCH   5   9
TORSDOF 1
ENDMDL
MODEL 7
REMARK VINA RESULT:    -3.763      7.703      9.780
REMARK INTER + INTRA:          -4.080
REMARK INTER:                  -3.982
REMARK INTRA:                  -0.098
REMARK UNBOUND:                -0.096
REMARK SMILES C=C(C)[C@@H]1CC=C(C)C(=O)C1
REMARK SMILES IDX 8 1 7 2 6 3 5 4 4 5 11 6 9 7 10 8 2 9 1 10 3 11
REMARK H PARENT
REMARK Flexibility Score: inf
ROOT
ATOM      1  C   UNL     1      27.354  42.605  19.271  1.00  0.00     0.048 C 
ATOM      2  C   UNL     1      27.280  41.105  19.388  1.00  0.00    -0.012 C 
ATOM      3  C   UNL     1      27.951  40.317  18.530  1.00  0.00    -0.019 C 
ATOM      4  C   UNL     1      27.882  38.816  18.630  1.00  0.00     0.036 C 
ATOM      5  C   UNL     1      26.467  38.389  19.067  1.00  0.00     0.025 C 
ATOM      6  C   UNL     1      26.142  39.012  20.442  1.00  0.00     0.089 C 
ATOM      7  C   UNL     1      26.411  40.495  20.430  1.00  0.00     0.158 C 
ATOM      8  O   UNL     1      25.984  41.206  21.379  1.00  0.00    -0.295 OA
ENDROOT
BRANCH   5   9
ATOM      9  C   UNL     1      26.330  36.874  19.082  1.00  0.00    -0.077 C 
ATOM     10  C   UNL     1      27.382  36.105  19.406  1.00  0.00     0.008 C 
ATOM     11  C   UNL     1      25.008  36.199  18.789  1.00  0.00     0.039 C 
ENDBRANCH   5   9
TORSDOF 1
ENDMDL
MODEL 8
REMARK VINA RESULT:    -3.722      6.872      8.518
REMARK INTER + INTRA:          -4.036
REMARK INTER:                  -3.938
REMARK INTRA:                  -0.098
REMARK UNBOUND:                -0.096
REMARK SMILES C=C(C)[C@@H]1CC=C(C)C(=O)C1
REMARK SMILES IDX 8 1 7 2 6 3 5 4 4 5 11 6 9 7 10 8 2 9 1 10 3 11
REMARK H PARENT
REMARK Flexibility Score: inf
ROOT
ATOM      1  C   UNL     1      23.180  38.813  22.042  1.00  0.00     0.048 C 
ATOM      2  C   UNL     1      24.317  38.253  21.226  1.00  0.00    -0.012 C 
ATOM      3  C   UNL     1      24.194  37.069  20.601  1.00  0.00    -0.019 C 
ATOM      4  C   UNL     1      25.323  36.494  19.788  1.00  0.00     0.036 C 
ATOM      5  C   UNL     1      26.670  36.836  20.453  1.00  0.00     0.025 C 
ATOM      6  C   UNL     1      26.827  38.370  20.538  1.00  0.00     0.089 C 
ATOM      7  C   UNL     1      25.604  38.996  21.160  1.00  0.00     0.158 C 
ATOM      8  O   UNL     1      25.647  40.201  21.526  1.00  0.00    -0.295 OA
ENDROOT
BRANCH   5   9
ATOM      9  C   UNL     1      27.830  36.187  19.714  1.00  0.00    -0.077 C 
ATOM     10  C   UNL     1      27.770  34.889  19.374  1.00  0.00     0.008 C 
ATOM     11  C   UNL     1      29.046  36.985  19.299  1.00  0.00     0.039 C 
ENDBRANCH   5   9
TORSDOF 1
ENDMDL
MODEL 9
REMARK VINA RESULT:    -3.496      7.889     10.541
REMARK INTER + INTRA:          -3.796
REMARK INTER:                  -3.699
REMARK INTRA:                  -0.097
REMARK UNBOUND:                -0.096
REMARK SMILES C=C(C)[C@@H]1CC=C(C)C(=O)C1
REMARK SMILES IDX 8 1 7 2 6 3 5 4 4 5 11 6 9 7 10 8 2 9 1 10 3 11
REMARK H PARENT
REMARK Flexibility Score: inf
ROOT
ATOM      1  C   UNL     1      26.956  43.542  21.122  1.00  0.00     0.048 C 
ATOM      2  C   UNL     1      26.740  42.112  20.699  1.00  0.00    -0.012 C 
ATOM      3  C   UNL     1      26.132  41.239  21.522  1.00  0.00    -0.019 C 
ATOM      4  C   UNL     1      25.914  39.806  21.116  1.00  0.00     0.036 C 
ATOM      5  C   UNL     1      27.111  39.315  20.279  1.00  0.00     0.025 C 
ATOM      6  C   UNL     1      27.249  40.191  19.015  1.00  0.00     0.089 C 
ATOM      7  C   UNL     1      27.254  41.654  19.381  1.00  0.00     0.158 C 
ATOM      8  O   UNL     1      27.594  42.505  18.515  1.00  0.00    -0.295 OA
ENDROOT
BRANCH   5   9
ATOM      9  C   UNL     1      26.973  37.839  19.935  1.00  0.00    -0.077 C 
ATOM     10  C   UNL     1      26.293  37.463  18.840  1.00  0.00     0.008 C 
ATOM     11  C   UNL     1      27.634  36.769  20.775  1.00  0.00     0.039 C 
ENDBRANCH   5   9
TORSDOF 1
ENDMDL
