MODEL 1
REMARK VINA RESULT:    -5.095      0.000      0.000
REMARK INTER + INTRA:          -7.850
REMARK INTER:                  -6.882
REMARK INTRA:                  -0.968
REMARK UNBOUND:                -0.968
REMARK SMILES O=c1c(-c2ccc(O)cc2)coc2c([C@H]3O[C@H](CO)[C@H](O)[C@@H](O)[C@H]3O)c(O)ccc12
REMARK SMILES IDX 3 1 11 2 12 3 13 4 30 5 2 6 1 7 29 8 28 9 26 10 14 11 4 12
REMARK SMILES IDX 5 13 6 14 7 15 10 16 9 17 8 18 15 20 24 21 16 22 22 23 17 24
REMARK SMILES IDX 20 25 25 26 23 28 18 30 19 31 21 33 27 35
REMARK H PARENT 8 19 25 27 23 29 19 32 21 34 27 36
REMARK Flexibility Score: inf
ROOT
ATOM      1  C   UNL     1       7.796   8.007  -2.846  1.00  0.00     0.065 A 
ATOM      2  C   UNL     1       7.602   6.633  -3.044  1.00  0.00     0.208 A 
ATOM      3  O   UNL     1       7.170   6.166  -4.209  1.00  0.00    -0.463 OA
ATOM      4  C   UNL     1       6.893   6.948  -5.250  1.00  0.00     0.147 A 
ATOM      5  C   UNL     1       7.061   8.347  -5.138  1.00  0.00     0.066 A 
ATOM      6  C   UNL     1       7.510   8.877  -3.915  1.00  0.00     0.200 A 
ATOM      7  O   UNL     1       7.638  10.125  -3.769  1.00  0.00    -0.288 OA
ATOM      8  C   UNL     1       6.781   9.170  -6.240  1.00  0.00     0.020 A 
ATOM      9  C   UNL     1       6.358   8.610  -7.443  1.00  0.00     0.047 A 
ATOM     10  C   UNL     1       6.194   7.225  -7.568  1.00  0.00     0.125 A 
ATOM     11  C   UNL     1       6.435   6.377  -6.461  1.00  0.00     0.069 A 
ENDROOT
BRANCH   1  12
ATOM     12  C   UNL     1       8.286   8.504  -1.536  1.00  0.00    -0.011 A 
ATOM     13  C   UNL     1       7.387   8.758  -0.484  1.00  0.00     0.013 A 
ATOM     14  C   UNL     1       7.854   9.235   0.745  1.00  0.00     0.047 A 
ATOM     15  C   UNL     1       9.222   9.468   0.937  1.00  0.00     0.115 A 
ATOM     16  C   UNL     1       9.657   8.747  -1.337  1.00  0.00     0.013 A 
ATOM     17  C   UNL     1      10.119   9.223  -0.106  1.00  0.00     0.047 A 
BRANCH  15  18
ATOM     18  O   UNL     1       9.697   9.941   2.158  1.00  0.00    -0.508 OA
ATOM     19  H   UNL     1       9.084  10.395   2.825  1.00  0.00     0.293 HD
ENDBRANCH  15  18
ENDBRANCH   1  12
BRANCH  11  20
ATOM     20  C   UNL     1       6.286   4.864  -6.575  1.00  0.00     0.188 C 
ATOM     21  C   UNL     1       7.578   4.240  -7.141  1.00  0.00     0.179 C 
ATOM     22  O   UNL     1       5.156   4.540  -7.376  1.00  0.00    -0.362 OA
ATOM     23  C   UNL     1       7.416   2.714  -7.212  1.00  0.00     0.177 C 
ATOM     24  C   UNL     1       4.910   3.141  -7.440  1.00  0.00     0.176 C 
ATOM     25  C   UNL     1       6.133   2.359  -7.987  1.00  0.00     0.177 C 
BRANCH  21  26
ATOM     26  O   UNL     1       7.841   4.761  -8.422  1.00  0.00    -0.387 OA
ATOM     27  H   UNL     1       8.666   4.318  -8.751  1.00  0.00     0.211 HD
ENDBRANCH  21  26
BRANCH  23  28
ATOM     28  O   UNL     1       8.539   2.154  -7.843  1.00  0.00    -0.387 OA
ATOM     29  H   UNL     1       9.210   2.878  -7.942  1.00  0.00     0.211 HD
ENDBRANCH  23  28
BRANCH  24  30
ATOM     30  C   UNL     1       4.339   2.595  -6.108  1.00  0.00     0.191 C 
BRANCH  30  31
ATOM     31  O   UNL     1       3.017   3.026  -5.916  1.00  0.00    -0.394 OA
ATOM     32  H   UNL     1       2.496   2.707  -6.700  1.00  0.00     0.210 HD
ENDBRANCH  30  31
ENDBRANCH  24  30
BRANCH  25  33
ATOM     33  O   UNL     1       5.892   0.976  -7.925  1.00  0.00    -0.388 OA
ATOM     34  H   UNL     1       5.882   0.724  -6.964  1.00  0.00     0.211 HD
ENDBRANCH  25  33
ENDBRANCH  11  20
BRANCH  10  35
ATOM     35  O   UNL     1       5.795   6.697  -8.796  1.00  0.00    -0.507 OA
ATOM     36  H   UNL     1       5.625   7.287  -9.602  1.00  0.00     0.293 HD
ENDBRANCH  10  35
TORSDOF 9
ENDMDL
MODEL 2
REMARK VINA RESULT:    -4.834      2.236      8.317
REMARK INTER + INTRA:          -7.498
REMARK INTER:                  -6.651
REMARK INTRA:                  -0.847
REMARK UNBOUND:                -0.968
REMARK SMILES O=c1c(-c2ccc(O)cc2)coc2c([C@H]3O[C@H](CO)[C@H](O)[C@@H](O)[C@H]3O)c(O)ccc12
REMARK SMILES IDX 3 1 11 2 12 3 13 4 30 5 2 6 1 7 29 8 28 9 26 10 14 11 4 12
REMARK SMILES IDX 5 13 6 14 7 15 10 16 9 17 8 18 15 20 24 21 16 22 22 23 17 24
REMARK SMILES IDX 20 25 25 26 23 28 18 30 19 31 21 33 27 35
REMARK H PARENT 8 19 25 27 23 29 19 32 21 34 27 36
REMARK Flexibility Score: inf
ROOT
ATOM      1  C   UNL     1       6.557   4.996  -6.446  1.00  0.00     0.065 A 
ATOM      2  C   UNL     1       5.924   5.242  -5.219  1.00  0.00     0.208 A 
ATOM      3  O   UNL     1       6.439   6.100  -4.347  1.00  0.00    -0.463 OA
ATOM      4  C   UNL     1       7.567   6.774  -4.565  1.00  0.00     0.147 A 
ATOM      5  C   UNL     1       8.269   6.587  -5.779  1.00  0.00     0.066 A 
ATOM      6  C   UNL     1       7.756   5.678  -6.722  1.00  0.00     0.200 A 
ATOM      7  O   UNL     1       8.376   5.462  -7.800  1.00  0.00    -0.288 OA
ATOM      8  C   UNL     1       9.450   7.307  -6.013  1.00  0.00     0.020 A 
ATOM      9  C   UNL     1       9.919   8.213  -5.066  1.00  0.00     0.047 A 
ATOM     10  C   UNL     1       9.229   8.412  -3.864  1.00  0.00     0.125 A 
ATOM     11  C   UNL     1       8.054   7.672  -3.587  1.00  0.00     0.069 A 
ENDROOT
BRANCH   1  12
ATOM     12  C   UNL     1       5.958   4.036  -7.407  1.00  0.00    -0.011 A 
ATOM     13  C   UNL     1       5.164   4.491  -8.474  1.00  0.00     0.013 A 
ATOM     14  C   UNL     1       4.596   3.582  -9.371  1.00  0.00     0.047 A 
ATOM     15  C   UNL     1       4.809   2.206  -9.210  1.00  0.00     0.115 A 
ATOM     16  C   UNL     1       6.163   2.654  -7.249  1.00  0.00     0.013 A 
ATOM     17  C   UNL     1       5.592   1.747  -8.148  1.00  0.00     0.047 A 
BRANCH  15  18
ATOM     18  O   UNL     1       4.248   1.292 -10.098  1.00  0.00    -0.508 OA
ATOM     19  H   UNL     1       3.810   1.592 -10.961  1.00  0.00     0.293 HD
ENDBRANCH  15  18
ENDBRANCH   1  12
BRANCH  11  20
ATOM     20  C   UNL     1       7.270   7.884  -2.297  1.00  0.00     0.188 C 
ATOM     21  C   UNL     1       6.120   8.885  -2.527  1.00  0.00     0.179 C 
ATOM     22  O   UNL     1       8.141   8.319  -1.259  1.00  0.00    -0.362 OA
ATOM     23  C   UNL     1       5.324   9.052  -1.225  1.00  0.00     0.177 C 
ATOM     24  C   UNL     1       7.482   8.443  -0.005  1.00  0.00     0.176 C 
ATOM     25  C   UNL     1       6.278   9.419  -0.072  1.00  0.00     0.177 C 
BRANCH  21  26
ATOM     26  O   UNL     1       6.639  10.125  -2.944  1.00  0.00    -0.387 OA
ATOM     27  H   UNL     1       7.619  10.094  -2.793  1.00  0.00     0.211 HD
ENDBRANCH  21  26
BRANCH  23  28
ATOM     28  O   UNL     1       4.355  10.055  -1.394  1.00  0.00    -0.387 OA
ATOM     29  H   UNL     1       4.334  10.585  -0.555  1.00  0.00     0.211 HD
ENDBRANCH  23  28
BRANCH  24  30
ATOM     30  C   UNL     1       7.156   7.060   0.612  1.00  0.00     0.191 C 
BRANCH  30  31
ATOM     31  O   UNL     1       8.324   6.299   0.780  1.00  0.00    -0.394 OA
ATOM     32  H   UNL     1       8.108   5.583   1.433  1.00  0.00     0.210 HD
ENDBRANCH  30  31
ENDBRANCH  24  30
BRANCH  25  33
ATOM     33  O   UNL     1       5.587   9.423   1.152  1.00  0.00    -0.388 OA
ATOM     34  H   UNL     1       5.780   8.557   1.599  1.00  0.00     0.211 HD
ENDBRANCH  25  33
ENDBRANCH  11  20
BRANCH  10  35
ATOM     35  O   UNL     1       9.712   9.349  -2.950  1.00  0.00    -0.507 OA
ATOM     36  H   UNL     1      10.694   9.593  -2.904  1.00  0.00     0.293 HD
ENDBRANCH  10  35
TORSDOF 9
ENDMDL
MODEL 3
REMARK VINA RESULT:    -4.762      2.249      3.110
REMARK INTER + INTRA:          -7.400
REMARK INTER:                  -6.568
REMARK INTRA:                  -0.833
REMARK UNBOUND:                -0.968
REMARK SMILES O=c1c(-c2ccc(O)cc2)coc2c([C@H]3O[C@H](CO)[C@H](O)[C@@H](O)[C@H]3O)c(O)ccc12
REMARK SMILES IDX 3 1 11 2 12 3 13 4 30 5 2 6 1 7 29 8 28 9 26 10 14 11 4 12
REMARK SMILES IDX 5 13 6 14 7 15 10 16 9 17 8 18 15 20 24 21 16 22 22 23 17 24
REMARK SMILES IDX 20 25 25 26 23 28 18 30 19 31 21 33 27 35
REMARK H PARENT 8 19 25 27 23 29 19 32 21 34 27 36
REMARK Flexibility Score: inf
ROOT
ATOM      1  C   UNL     1       6.884   7.100  -3.653  1.00  0.00     0.065 A 
ATOM      2  C   UNL     1       5.917   6.349  -4.338  1.00  0.00     0.208 A 
ATOM      3  O   UNL     1       6.235   5.661  -5.427  1.00  0.00    -0.463 OA
ATOM      4  C   UNL     1       7.463   5.634  -5.941  1.00  0.00     0.147 A 
ATOM      5  C   UNL     1       8.499   6.362  -5.312  1.00  0.00     0.066 A 
ATOM      6  C   UNL     1       8.197   7.109  -4.160  1.00  0.00     0.200 A 
ATOM      7  O   UNL     1       9.090   7.798  -3.594  1.00  0.00    -0.288 OA
ATOM      8  C   UNL     1       9.797   6.322  -5.846  1.00  0.00     0.020 A 
ATOM      9  C   UNL     1      10.066   5.556  -6.978  1.00  0.00     0.047 A 
ATOM     10  C   UNL     1       9.049   4.826  -7.605  1.00  0.00     0.125 A 
ATOM     11  C   UNL     1       7.725   4.877  -7.107  1.00  0.00     0.069 A 
ENDROOT
BRANCH   1  12
ATOM     12  C   UNL     1       6.505   7.856  -2.433  1.00  0.00    -0.011 A 
ATOM     13  C   UNL     1       7.001   7.477  -1.173  1.00  0.00     0.013 A 
ATOM     14  C   UNL     1       6.634   8.188  -0.026  1.00  0.00     0.047 A 
ATOM     15  C   UNL     1       5.764   9.283  -0.123  1.00  0.00     0.115 A 
ATOM     16  C   UNL     1       5.628   8.952  -2.522  1.00  0.00     0.013 A 
ATOM     17  C   UNL     1       5.263   9.660  -1.373  1.00  0.00     0.047 A 
BRANCH  15  18
ATOM     18  O   UNL     1       5.393   9.998   1.012  1.00  0.00    -0.508 OA
ATOM     19  H   UNL     1       4.797   9.591   1.724  1.00  0.00     0.293 HD
ENDBRANCH  15  18
ENDBRANCH   1  12
BRANCH  11  20
ATOM     20  C   UNL     1       6.603   4.074  -7.756  1.00  0.00     0.188 C 
ATOM     21  C   UNL     1       6.585   2.635  -7.203  1.00  0.00     0.179 C 
ATOM     22  O   UNL     1       6.745   4.088  -9.172  1.00  0.00    -0.362 OA
ATOM     23  C   UNL     1       5.425   1.860  -7.844  1.00  0.00     0.177 C 
ATOM     24  C   UNL     1       5.672   3.433  -9.838  1.00  0.00     0.176 C 
ATOM     25  C   UNL     1       5.512   1.961  -9.378  1.00  0.00     0.177 C 
BRANCH  21  26
ATOM     26  O   UNL     1       7.809   1.999  -7.481  1.00  0.00    -0.387 OA
ATOM     27  H   UNL     1       7.740   1.072  -7.131  1.00  0.00     0.211 HD
ENDBRANCH  21  26
BRANCH  23  28
ATOM     28  O   UNL     1       5.480   0.516  -7.439  1.00  0.00    -0.387 OA
ATOM     29  H   UNL     1       6.343   0.389  -6.964  1.00  0.00     0.211 HD
ENDBRANCH  23  28
BRANCH  24  30
ATOM     30  C   UNL     1       4.369   4.270  -9.788  1.00  0.00     0.191 C 
BRANCH  30  31
ATOM     31  O   UNL     1       4.621   5.609 -10.123  1.00  0.00    -0.394 OA
ATOM     32  H   UNL     1       4.033   5.826 -10.893  1.00  0.00     0.210 HD
ENDBRANCH  30  31
ENDBRANCH  24  30
BRANCH  25  33
ATOM     33  O   UNL     1       4.374   1.388  -9.972  1.00  0.00    -0.388 OA
ATOM     34  H   UNL     1       4.602   1.200 -10.919  1.00  0.00     0.211 HD
ENDBRANCH  25  33
ENDBRANCH  11  20
BRANCH  10  35
ATOM     35  O   UNL     1       9.361   4.047  -8.720  1.00  0.00    -0.507 OA
ATOM     36  H   UNL     1       8.642   3.671  -9.327  1.00  0.00     0.293 HD
ENDBRANCH  10  35
TORSDOF 9
ENDMDL
MODEL 4
REMARK VINA RESULT:    -4.739      2.370      8.389
REMARK INTER + INTRA:          -7.370
REMARK INTER:                  -6.256
REMARK INTRA:                  -1.114
REMARK UNBOUND:                -0.968
REMARK SMILES O=c1c(-c2ccc(O)cc2)coc2c([C@H]3O[C@H](CO)[C@H](O)[C@@H](O)[C@H]3O)c(O)ccc12
REMARK SMILES IDX 3 1 11 2 12 3 13 4 30 5 2 6 1 7 29 8 28 9 26 10 14 11 4 12
REMARK SMILES IDX 5 13 6 14 7 15 10 16 9 17 8 18 15 20 24 21 16 22 22 23 17 24
REMARK SMILES IDX 20 25 25 26 23 28 18 30 19 31 21 33 27 35
REMARK H PARENT 8 19 25 27 23 29 19 32 21 34 27 36
REMARK Flexibility Score: inf
ROOT
ATOM      1  C   UNL     1       6.396   3.476  -7.567  1.00  0.00     0.065 A 
ATOM      2  C   UNL     1       5.673   4.078  -6.527  1.00  0.00     0.208 A 
ATOM      3  O   UNL     1       6.102   5.197  -5.957  1.00  0.00    -0.463 OA
ATOM      4  C   UNL     1       7.223   5.816  -6.319  1.00  0.00     0.147 A 
ATOM      5  C   UNL     1       8.014   5.279  -7.361  1.00  0.00     0.066 A 
ATOM      6  C   UNL     1       7.594   4.089  -7.982  1.00  0.00     0.200 A 
ATOM      7  O   UNL     1       8.293   3.563  -8.892  1.00  0.00    -0.288 OA
ATOM      8  C   UNL     1       9.189   5.939  -7.750  1.00  0.00     0.020 A 
ATOM      9  C   UNL     1       9.566   7.126  -7.127  1.00  0.00     0.047 A 
ATOM     10  C   UNL     1       8.788   7.672  -6.099  1.00  0.00     0.125 A 
ATOM     11  C   UNL     1       7.617   7.007  -5.663  1.00  0.00     0.069 A 
ENDROOT
BRANCH   1  12
ATOM     12  C   UNL     1       5.893   2.228  -8.193  1.00  0.00    -0.011 A 
ATOM     13  C   UNL     1       5.120   2.276  -9.367  1.00  0.00     0.013 A 
ATOM     14  C   UNL     1       4.641   1.098  -9.947  1.00  0.00     0.047 A 
ATOM     15  C   UNL     1       4.923  -0.143  -9.359  1.00  0.00     0.115 A 
ATOM     16  C   UNL     1       6.166   0.980  -7.606  1.00  0.00     0.013 A 
ATOM     17  C   UNL     1       5.685  -0.197  -8.188  1.00  0.00     0.047 A 
BRANCH  15  18
ATOM     18  O   UNL     1       4.452  -1.323  -9.929  1.00  0.00    -0.508 OA
ATOM     19  H   UNL     1       4.159  -2.106  -9.358  1.00  0.00     0.293 HD
ENDBRANCH  15  18
ENDBRANCH   1  12
BRANCH  11  20
ATOM     20  C   UNL     1       6.739   7.589  -4.561  1.00  0.00     0.188 C 
ATOM     21  C   UNL     1       5.641   8.485  -5.168  1.00  0.00     0.179 C 
ATOM     22  O   UNL     1       7.536   8.303  -3.623  1.00  0.00    -0.362 OA
ATOM     23  C   UNL     1       4.748   9.028  -4.043  1.00  0.00     0.177 C 
ATOM     24  C   UNL     1       6.782   8.789  -2.519  1.00  0.00     0.176 C 
ATOM     25  C   UNL     1       5.618   9.710  -2.969  1.00  0.00     0.177 C 
BRANCH  21  26
ATOM     26  O   UNL     1       6.228   9.547  -5.880  1.00  0.00    -0.387 OA
ATOM     27  H   UNL     1       7.172   9.294  -6.053  1.00  0.00     0.211 HD
ENDBRANCH  21  26
BRANCH  23  28
ATOM     28  O   UNL     1       3.826   9.943  -4.577  1.00  0.00    -0.387 OA
ATOM     29  H   UNL     1       3.449   9.532  -5.398  1.00  0.00     0.211 HD
ENDBRANCH  23  28
BRANCH  24  30
ATOM     30  C   UNL     1       6.368   7.647  -1.558  1.00  0.00     0.191 C 
BRANCH  30  31
ATOM     31  O   UNL     1       6.332   8.099  -0.230  1.00  0.00    -0.394 OA
ATOM     32  H   UNL     1       7.067   7.634   0.250  1.00  0.00     0.210 HD
ENDBRANCH  30  31
ENDBRANCH  24  30
BRANCH  25  33
ATOM     33  O   UNL     1       4.831  10.073  -1.862  1.00  0.00    -0.388 OA
ATOM     34  H   UNL     1       5.453  10.370  -1.147  1.00  0.00     0.211 HD
ENDBRANCH  25  33
ENDBRANCH  11  20
BRANCH  10  35
ATOM     35  O   UNL     1       9.180   8.877  -5.516  1.00  0.00    -0.507 OA
ATOM     36  H   UNL     1       8.560   9.677  -5.473  1.00  0.00     0.293 HD
ENDBRANCH  10  35
TORSDOF 9
ENDMDL
MODEL 5
REMARK VINA RESULT:    -4.396      2.680      4.017
REMARK INTER + INTRA:          -6.905
REMARK INTER:                  -6.469
REMARK INTRA:                  -0.437
REMARK UNBOUND:                -0.968
REMARK SMILES O=c1c(-c2ccc(O)cc2)coc2c([C@H]3O[C@H](CO)[C@H](O)[C@@H](O)[C@H]3O)c(O)ccc12
REMARK SMILES IDX 3 1 11 2 12 3 13 4 30 5 2 6 1 7 29 8 28 9 26 10 14 11 4 12
REMARK SMILES IDX 5 13 6 14 7 15 10 16 9 17 8 18 15 20 24 21 16 22 22 23 17 24
REMARK SMILES IDX 20 25 25 26 23 28 18 30 19 31 21 33 27 35
REMARK H PARENT 8 19 25 27 23 29 19 32 21 34 27 36
REMARK Flexibility Score: inf
ROOT
ATOM      1  C   UNL     1       6.787   6.683  -5.375  1.00  0.00     0.065 A 
ATOM      2  C   UNL     1       6.278   5.385  -5.528  1.00  0.00     0.208 A 
ATOM      3  O   UNL     1       6.763   4.568  -6.454  1.00  0.00    -0.463 OA
ATOM      4  C   UNL     1       7.742   4.911  -7.289  1.00  0.00     0.147 A 
ATOM      5  C   UNL     1       8.314   6.201  -7.203  1.00  0.00     0.066 A 
ATOM      6  C   UNL     1       7.819   7.096  -6.238  1.00  0.00     0.200 A 
ATOM      7  O   UNL     1       8.284   8.267  -6.157  1.00  0.00    -0.288 OA
ATOM      8  C   UNL     1       9.355   6.556  -8.075  1.00  0.00     0.020 A 
ATOM      9  C   UNL     1       9.834   5.638  -9.006  1.00  0.00     0.047 A 
ATOM     10  C   UNL     1       9.280   4.356  -9.096  1.00  0.00     0.125 A 
ATOM     11  C   UNL     1       8.206   3.984  -8.253  1.00  0.00     0.069 A 
ENDROOT
BRANCH   1  12
ATOM     12  C   UNL     1       6.233   7.576  -4.327  1.00  0.00    -0.011 A 
ATOM     13  C   UNL     1       6.512   7.346  -2.968  1.00  0.00     0.013 A 
ATOM     14  C   UNL     1       5.980   8.185  -1.985  1.00  0.00     0.047 A 
ATOM     15  C   UNL     1       5.159   9.262  -2.346  1.00  0.00     0.115 A 
ATOM     16  C   UNL     1       5.404   8.656  -4.681  1.00  0.00     0.013 A 
ATOM     17  C   UNL     1       4.873   9.493  -3.695  1.00  0.00     0.047 A 
BRANCH  15  18
ATOM     18  O   UNL     1       4.625  10.105  -1.374  1.00  0.00    -0.508 OA
ATOM     19  H   UNL     1       4.728  11.112  -1.432  1.00  0.00     0.293 HD
ENDBRANCH  15  18
ENDBRANCH   1  12
BRANCH  11  20
ATOM     20  C   UNL     1       7.598   2.587  -8.313  1.00  0.00     0.188 C 
ATOM     21  C   UNL     1       6.316   2.598  -9.170  1.00  0.00     0.179 C 
ATOM     22  O   UNL     1       7.344   2.104  -7.000  1.00  0.00    -0.362 OA
ATOM     23  C   UNL     1       5.744   1.174  -9.246  1.00  0.00     0.177 C 
ATOM     24  C   UNL     1       6.864   0.765  -6.989  1.00  0.00     0.176 C 
ATOM     25  C   UNL     1       5.568   0.605  -7.826  1.00  0.00     0.177 C 
BRANCH  21  26
ATOM     26  O   UNL     1       5.369   3.473  -8.606  1.00  0.00    -0.387 OA
ATOM     27  H   UNL     1       5.227   3.181  -7.668  1.00  0.00     0.211 HD
ENDBRANCH  21  26
BRANCH  23  28
ATOM     28  O   UNL     1       4.511   1.201  -9.919  1.00  0.00    -0.387 OA
ATOM     29  H   UNL     1       4.521   0.457 -10.576  1.00  0.00     0.211 HD
ENDBRANCH  23  28
BRANCH  24  30
ATOM     30  C   UNL     1       7.983  -0.249  -7.332  1.00  0.00     0.191 C 
BRANCH  30  31
ATOM     31  O   UNL     1       7.711  -1.505  -6.766  1.00  0.00    -0.394 OA
ATOM     32  H   UNL     1       8.025  -1.468  -5.825  1.00  0.00     0.210 HD
ENDBRANCH  30  31
ENDBRANCH  24  30
BRANCH  25  33
ATOM     33  O   UNL     1       5.193  -0.749  -7.886  1.00  0.00    -0.388 OA
ATOM     34  H   UNL     1       4.942  -1.023  -6.965  1.00  0.00     0.211 HD
ENDBRANCH  25  33
ENDBRANCH  11  20
BRANCH  10  35
ATOM     35  O   UNL     1       9.804   3.452 -10.021  1.00  0.00    -0.507 OA
ATOM     36  H   UNL     1      10.685   2.978  -9.865  1.00  0.00     0.293 HD
ENDBRANCH  10  35
TORSDOF 9
ENDMDL
MODEL 6
REMARK VINA RESULT:    -4.368      2.711      4.030
REMARK INTER + INTRA:          -6.868
REMARK INTER:                  -5.828
REMARK INTRA:                  -1.040
REMARK UNBOUND:                -0.968
REMARK SMILES O=c1c(-c2ccc(O)cc2)coc2c([C@H]3O[C@H](CO)[C@H](O)[C@@H](O)[C@H]3O)c(O)ccc12
REMARK SMILES IDX 3 1 11 2 12 3 13 4 30 5 2 6 1 7 29 8 28 9 26 10 14 11 4 12
REMARK SMILES IDX 5 13 6 14 7 15 10 16 9 17 8 18 15 20 24 21 16 22 22 23 17 24
REMARK SMILES IDX 20 25 25 26 23 28 18 30 19 31 21 33 27 35
REMARK H PARENT 8 19 25 27 23 29 19 32 21 34 27 36
REMARK Flexibility Score: inf
ROOT
ATOM      1  C   UNL     1       6.710   6.434  -5.147  1.00  0.00     0.065 A 
ATOM      2  C   UNL     1       6.025   5.230  -5.364  1.00  0.00     0.208 A 
ATOM      3  O   UNL     1       6.457   4.352  -6.260  1.00  0.00    -0.463 OA
ATOM      4  C   UNL     1       7.545   4.544  -7.003  1.00  0.00     0.147 A 
ATOM      5  C   UNL     1       8.298   5.731  -6.848  1.00  0.00     0.066 A 
ATOM      6  C   UNL     1       7.864   6.688  -5.913  1.00  0.00     0.200 A 
ATOM      7  O   UNL     1       8.492   7.774  -5.773  1.00  0.00    -0.288 OA
ATOM      8  C   UNL     1       9.452   5.926  -7.622  1.00  0.00     0.020 A 
ATOM      9  C   UNL     1       9.864   4.949  -8.525  1.00  0.00     0.047 A 
ATOM     10  C   UNL     1       9.131   3.767  -8.682  1.00  0.00     0.125 A 
ATOM     11  C   UNL     1       7.944   3.561  -7.940  1.00  0.00     0.069 A 
ENDROOT
BRANCH   1  12
ATOM     12  C   UNL     1       6.210   7.398  -4.135  1.00  0.00    -0.011 A 
ATOM     13  C   UNL     1       6.571   7.268  -2.782  1.00  0.00     0.013 A 
ATOM     14  C   UNL     1       6.090   8.174  -1.832  1.00  0.00     0.047 A 
ATOM     15  C   UNL     1       5.238   9.217  -2.220  1.00  0.00     0.115 A 
ATOM     16  C   UNL     1       5.350   8.444  -4.515  1.00  0.00     0.013 A 
ATOM     17  C   UNL     1       4.871   9.347  -3.562  1.00  0.00     0.047 A 
BRANCH  15  18
ATOM     18  O   UNL     1       4.754  10.125  -1.281  1.00  0.00    -0.508 OA
ATOM     19  H   UNL     1       3.768  10.175  -1.053  1.00  0.00     0.293 HD
ENDBRANCH  15  18
ENDBRANCH   1  12
BRANCH  11  20
ATOM     20  C   UNL     1       7.138   2.274  -8.075  1.00  0.00     0.188 C 
ATOM     21  C   UNL     1       7.632   1.224  -7.059  1.00  0.00     0.179 C 
ATOM     22  O   UNL     1       7.213   1.785  -9.409  1.00  0.00    -0.362 OA
ATOM     23  C   UNL     1       6.782  -0.048  -7.190  1.00  0.00     0.177 C 
ATOM     24  C   UNL     1       6.402   0.635  -9.619  1.00  0.00     0.176 C 
ATOM     25  C   UNL     1       6.771  -0.522  -8.655  1.00  0.00     0.177 C 
BRANCH  21  26
ATOM     26  O   UNL     1       8.988   0.929  -7.294  1.00  0.00    -0.387 OA
ATOM     27  H   UNL     1       9.437   1.786  -7.516  1.00  0.00     0.211 HD
ENDBRANCH  21  26
BRANCH  23  28
ATOM     28  O   UNL     1       7.307  -1.050  -6.357  1.00  0.00    -0.387 OA
ATOM     29  H   UNL     1       8.277  -0.865  -6.253  1.00  0.00     0.211 HD
ENDBRANCH  23  28
BRANCH  24  30
ATOM     30  C   UNL     1       4.896   0.993  -9.652  1.00  0.00     0.191 C 
BRANCH  30  31
ATOM     31  O   UNL     1       4.135  -0.087 -10.125  1.00  0.00    -0.394 OA
ATOM     32  H   UNL     1       4.127  -0.769  -9.403  1.00  0.00     0.210 HD
ENDBRANCH  30  31
ENDBRANCH  24  30
BRANCH  25  33
ATOM     33  O   UNL     1       5.874  -1.592  -8.816  1.00  0.00    -0.388 OA
ATOM     34  H   UNL     1       6.314  -2.400  -8.443  1.00  0.00     0.211 HD
ENDBRANCH  25  33
ENDBRANCH  11  20
BRANCH  10  35
ATOM     35  O   UNL     1       9.589   2.798  -9.575  1.00  0.00    -0.507 OA
ATOM     36  H   UNL     1      10.556   2.495  -9.586  1.00  0.00     0.293 HD
ENDBRANCH  10  35
TORSDOF 9
ENDMDL
MODEL 7
REMARK VINA RESULT:    -4.365      2.226      7.931
REMARK INTER + INTRA:          -6.864
REMARK INTER:                  -6.373
REMARK INTRA:                  -0.490
REMARK UNBOUND:                -0.968
REMARK SMILES O=c1c(-c2ccc(O)cc2)coc2c([C@H]3O[C@H](CO)[C@H](O)[C@@H](O)[C@H]3O)c(O)ccc12
REMARK SMILES IDX 3 1 11 2 12 3 13 4 30 5 2 6 1 7 29 8 28 9 26 10 14 11 4 12
REMARK SMILES IDX 5 13 6 14 7 15 10 16 9 17 8 18 15 20 24 21 16 22 22 23 17 24
REMARK SMILES IDX 20 25 25 26 23 28 18 30 19 31 21 33 27 35
REMARK H PARENT 8 19 25 27 23 29 19 32 21 34 27 36
REMARK Flexibility Score: inf
ROOT
ATOM      1  C   UNL     1       6.628   4.581  -7.522  1.00  0.00     0.065 A 
ATOM      2  C   UNL     1       6.312   4.889  -6.190  1.00  0.00     0.208 A 
ATOM      3  O   UNL     1       6.780   5.989  -5.615  1.00  0.00    -0.463 OA
ATOM      4  C   UNL     1       7.567   6.861  -6.242  1.00  0.00     0.147 A 
ATOM      5  C   UNL     1       7.934   6.630  -7.587  1.00  0.00     0.066 A 
ATOM      6  C   UNL     1       7.463   5.469  -8.226  1.00  0.00     0.200 A 
ATOM      7  O   UNL     1       7.800   5.214  -9.416  1.00  0.00    -0.288 OA
ATOM      8  C   UNL     1       8.753   7.557  -8.251  1.00  0.00     0.020 A 
ATOM      9  C   UNL     1       9.186   8.706  -7.595  1.00  0.00     0.047 A 
ATOM     10  C   UNL     1       8.823   8.949  -6.265  1.00  0.00     0.125 A 
ATOM     11  C   UNL     1       8.027   8.013  -5.562  1.00  0.00     0.069 A 
ENDROOT
BRANCH   1  12
ATOM     12  C   UNL     1       6.087   3.347  -8.145  1.00  0.00    -0.011 A 
ATOM     13  C   UNL     1       6.644   2.091  -7.846  1.00  0.00     0.013 A 
ATOM     14  C   UNL     1       6.135   0.933  -8.443  1.00  0.00     0.047 A 
ATOM     15  C   UNL     1       5.069   1.016  -9.349  1.00  0.00     0.115 A 
ATOM     16  C   UNL     1       5.021   3.423  -9.059  1.00  0.00     0.013 A 
ATOM     17  C   UNL     1       4.516   2.263  -9.654  1.00  0.00     0.047 A 
BRANCH  15  18
ATOM     18  O   UNL     1       4.555  -0.131  -9.948  1.00  0.00    -0.508 OA
ATOM     19  H   UNL     1       4.716  -0.334 -10.927  1.00  0.00     0.293 HD
ENDBRANCH  15  18
ENDBRANCH   1  12
BRANCH  11  20
ATOM     20  C   UNL     1       7.599   8.263  -4.120  1.00  0.00     0.188 C 
ATOM     21  C   UNL     1       8.605   7.620  -3.144  1.00  0.00     0.179 C 
ATOM     22  O   UNL     1       6.280   7.775  -3.908  1.00  0.00    -0.362 OA
ATOM     23  C   UNL     1       8.172   7.917  -1.700  1.00  0.00     0.177 C 
ATOM     24  C   UNL     1       5.789   8.065  -2.604  1.00  0.00     0.176 C 
ATOM     25  C   UNL     1       6.707   7.488  -1.495  1.00  0.00     0.177 C 
BRANCH  21  26
ATOM     26  O   UNL     1       8.661   6.231  -3.359  1.00  0.00    -0.387 OA
ATOM     27  H   UNL     1       7.736   5.885  -3.263  1.00  0.00     0.211 HD
ENDBRANCH  21  26
BRANCH  23  28
ATOM     28  O   UNL     1       9.012   7.230  -0.809  1.00  0.00    -0.387 OA
ATOM     29  H   UNL     1       9.830   6.981  -1.313  1.00  0.00     0.211 HD
ENDBRANCH  23  28
BRANCH  24  30
ATOM     30  C   UNL     1       5.445   9.566  -2.441  1.00  0.00     0.191 C 
BRANCH  30  31
ATOM     31  O   UNL     1       4.456   9.749  -1.462  1.00  0.00    -0.394 OA
ATOM     32  H   UNL     1       4.756  10.504  -0.891  1.00  0.00     0.210 HD
ENDBRANCH  30  31
ENDBRANCH  24  30
BRANCH  25  33
ATOM     33  O   UNL     1       6.251   7.895  -0.229  1.00  0.00    -0.388 OA
ATOM     34  H   UNL     1       5.370   7.462  -0.082  1.00  0.00     0.211 HD
ENDBRANCH  25  33
ENDBRANCH  11  20
BRANCH  10  35
ATOM     35  O   UNL     1       9.252  10.125  -5.648  1.00  0.00    -0.507 OA
ATOM     36  H   UNL     1      10.226  10.287  -5.426  1.00  0.00     0.293 HD
ENDBRANCH  10  35
TORSDOF 9
ENDMDL
