MODEL 1
REMARK VINA RESULT:    -4.413      0.000      0.000
REMARK INTER + INTRA:          -6.310
REMARK INTER:                  -5.961
REMARK INTRA:                  -0.349
REMARK UNBOUND:                -0.349
REMARK SMILES CCCCCCCC(=O)[O-]
REMARK SMILES IDX 5 1 6 2 7 3 8 4 9 5 10 6 4 7 3 8 2 9 1 10
REMARK H PARENT
REMARK Flexibility Score: inf
ROOT
ATOM      1  C   UNL     1      25.130  36.782 147.517  1.00  0.00     0.000 C 
ENDROOT
BRANCH   1   2
ATOM      2  C   UNL     1      23.644  37.173 147.565  1.00  0.00     0.006 C 
BRANCH   2   3
ATOM      3  C   UNL     1      23.447  38.666 147.864  1.00  0.00     0.053 C 
BRANCH   3   4
ATOM      4  C   UNL     1      23.655  38.977 149.314  1.00  0.00     0.041 C 
ATOM      5  O   UNL     1      24.491  39.852 149.661  1.00  0.00    -0.550 OA
ATOM      6  O   UNL     1      22.948  38.279 150.285  1.00  0.00    -0.550 OA
ENDBRANCH   3   4
ENDBRANCH   2   3
ENDBRANCH   1   2
BRANCH   1   7
ATOM      7  C   UNL     1      25.339  35.260 147.451  1.00  0.00     0.000 C 
BRANCH   7   8
ATOM      8  C   UNL     1      24.034  34.494 147.177  1.00  0.00    -0.000 C 
BRANCH   8   9
ATOM      9  C   UNL     1      23.928  33.199 147.997  1.00  0.00    -0.003 C 
ATOM     10  C   UNL     1      24.255  33.409 149.475  1.00  0.00     0.004 C 
ENDBRANCH   8   9
ENDBRANCH   7   8
ENDBRANCH   1   7
TORSDOF 6
ENDMDL
MODEL 2
REMARK VINA RESULT:    -4.357      0.301      1.060
REMARK INTER + INTRA:          -6.234
REMARK INTER:                  -5.885
REMARK INTRA:                  -0.349
REMARK UNBOUND:                -0.349
REMARK SMILES CCCCCCCC(=O)[O-]
REMARK SMILES IDX 5 1 6 2 7 3 8 4 9 5 10 6 4 7 3 8 2 9 1 10
REMARK H PARENT
REMARK Flexibility Score: inf
ROOT
ATOM      1  C   UNL     1      25.292  36.562 147.408  1.00  0.00     0.000 C 
ENDROOT
BRANCH   1   2
ATOM      2  C   UNL     1      23.800  36.921 147.508  1.00  0.00     0.006 C 
BRANCH   2   3
ATOM      3  C   UNL     1      23.582  38.413 147.793  1.00  0.00     0.053 C 
BRANCH   3   4
ATOM      4  C   UNL     1      23.570  38.705 149.263  1.00  0.00     0.041 C 
ATOM      5  O   UNL     1      22.844  38.027 150.037  1.00  0.00    -0.550 OA
ATOM      6  O   UNL     1      24.336  39.744 149.773  1.00  0.00    -0.550 OA
ENDBRANCH   3   4
ENDBRANCH   2   3
ENDBRANCH   1   2
BRANCH   1   7
ATOM      7  C   UNL     1      25.535  35.043 147.392  1.00  0.00     0.000 C 
BRANCH   7   8
ATOM      8  C   UNL     1      24.258  34.243 147.087  1.00  0.00    -0.000 C 
BRANCH   8   9
ATOM      9  C   UNL     1      23.910  33.243 148.202  1.00  0.00    -0.003 C 
ATOM     10  C   UNL     1      24.486  33.649 149.558  1.00  0.00     0.004 C 
ENDBRANCH   8   9
ENDBRANCH   7   8
ENDBRANCH   1   7
TORSDOF 6
ENDMDL
MODEL 3
REMARK VINA RESULT:    -4.353      2.675      5.130
REMARK INTER + INTRA:          -6.228
REMARK INTER:                  -5.918
REMARK INTRA:                  -0.310
REMARK UNBOUND:                -0.349
REMARK SMILES CCCCCCCC(=O)[O-]
REMARK SMILES IDX 5 1 6 2 7 3 8 4 9 5 10 6 4 7 3 8 2 9 1 10
REMARK H PARENT
REMARK Flexibility Score: inf
ROOT
ATOM      1  C   UNL     1      25.107  36.962 147.616  1.00  0.00     0.000 C 
ENDROOT
BRANCH   1   2
ATOM      2  C   UNL     1      25.514  35.507 147.330  1.00  0.00     0.006 C 
BRANCH   2   3
ATOM      3  C   UNL     1      24.296  34.587 147.165  1.00  0.00     0.053 C 
BRANCH   3   4
ATOM      4  C   UNL     1      24.226  33.555 148.249  1.00  0.00     0.041 C 
ATOM      5  O   UNL     1      24.117  32.335 147.955  1.00  0.00    -0.550 OA
ATOM      6  O   UNL     1      24.248  33.942 149.582  1.00  0.00    -0.550 OA
ENDBRANCH   3   4
ENDBRANCH   2   3
ENDBRANCH   1   2
BRANCH   1   7
ATOM      7  C   UNL     1      23.582  37.156 147.639  1.00  0.00     0.000 C 
BRANCH   7   8
ATOM      8  C   UNL     1      23.173  38.639 147.648  1.00  0.00    -0.000 C 
BRANCH   8   9
ATOM      9  C   UNL     1      24.385  39.582 147.717  1.00  0.00    -0.003 C 
ATOM     10  C   UNL     1      23.985  41.057 147.707  1.00  0.00     0.004 C 
ENDBRANCH   8   9
ENDBRANCH   7   8
ENDBRANCH   1   7
TORSDOF 6
ENDMDL
MODEL 4
REMARK VINA RESULT:    -4.309      0.942      1.633
REMARK INTER + INTRA:          -6.170
REMARK INTER:                  -5.956
REMARK INTRA:                  -0.214
REMARK UNBOUND:                -0.349
REMARK SMILES CCCCCCCC(=O)[O-]
REMARK SMILES IDX 5 1 6 2 7 3 8 4 9 5 10 6 4 7 3 8 2 9 1 10
REMARK H PARENT
REMARK Flexibility Score: inf
ROOT
ATOM      1  C   UNL     1      23.451  36.467 147.400  1.00  0.00     0.000 C 
ENDROOT
BRANCH   1   2
ATOM      2  C   UNL     1      24.414  37.664 147.466  1.00  0.00     0.006 C 
BRANCH   2   3
ATOM      3  C   UNL     1      23.676  38.988 147.710  1.00  0.00     0.053 C 
BRANCH   3   4
ATOM      4  C   UNL     1      24.038  39.593 149.032  1.00  0.00     0.041 C 
ATOM      5  O   UNL     1      23.779  38.981 150.101  1.00  0.00    -0.550 OA
ATOM      6  O   UNL     1      24.633  40.847 149.084  1.00  0.00    -0.550 OA
ENDBRANCH   3   4
ENDBRANCH   2   3
ENDBRANCH   1   2
BRANCH   1   7
ATOM      7  C   UNL     1      24.175  35.118 147.546  1.00  0.00     0.000 C 
BRANCH   7   8
ATOM      8  C   UNL     1      24.708  34.883 148.970  1.00  0.00    -0.000 C 
BRANCH   8   9
ATOM      9  C   UNL     1      24.275  33.524 149.543  1.00  0.00    -0.003 C 
ATOM     10  C   UNL     1      24.219  32.427 148.481  1.00  0.00     0.004 C 
ENDBRANCH   8   9
ENDBRANCH   7   8
ENDBRANCH   1   7
TORSDOF 6
ENDMDL
MODEL 5
REMARK VINA RESULT:    -4.299      1.670      2.452
REMARK INTER + INTRA:          -6.156
REMARK INTER:                  -5.772
REMARK INTRA:                  -0.385
REMARK UNBOUND:                -0.349
REMARK SMILES CCCCCCCC(=O)[O-]
REMARK SMILES IDX 5 1 6 2 7 3 8 4 9 5 10 6 4 7 3 8 2 9 1 10
REMARK H PARENT
REMARK Flexibility Score: inf
ROOT
ATOM      1  C   UNL     1      24.303  34.610 147.284  1.00  0.00     0.000 C 
ENDROOT
BRANCH   1   2
ATOM      2  C   UNL     1      23.429  35.875 147.327  1.00  0.00     0.006 C 
BRANCH   2   3
ATOM      3  C   UNL     1      24.229  37.117 147.742  1.00  0.00     0.053 C 
BRANCH   3   4
ATOM      4  C   UNL     1      23.338  38.217 148.234  1.00  0.00     0.041 C 
ATOM      5  O   UNL     1      22.781  38.124 149.359  1.00  0.00    -0.550 OA
ATOM      6  O   UNL     1      23.098  39.328 147.437  1.00  0.00    -0.550 OA
ENDBRANCH   3   4
ENDBRANCH   2   3
ENDBRANCH   1   2
BRANCH   1   7
ATOM      7  C   UNL     1      24.007  33.648 148.447  1.00  0.00     0.000 C 
BRANCH   7   8
ATOM      8  C   UNL     1      25.001  33.804 149.611  1.00  0.00    -0.000 C 
BRANCH   8   9
ATOM      9  C   UNL     1      26.398  34.234 149.137  1.00  0.00    -0.003 C 
ATOM     10  C   UNL     1      27.175  34.998 150.209  1.00  0.00     0.004 C 
ENDBRANCH   8   9
ENDBRANCH   7   8
ENDBRANCH   1   7
TORSDOF 6
ENDMDL
MODEL 6
REMARK VINA RESULT:    -4.106      3.108      4.891
REMARK INTER + INTRA:          -5.896
REMARK INTER:                  -5.581
REMARK INTRA:                  -0.314
REMARK UNBOUND:                -0.349
REMARK SMILES CCCCCCCC(=O)[O-]
REMARK SMILES IDX 5 1 6 2 7 3 8 4 9 5 10 6 4 7 3 8 2 9 1 10
REMARK H PARENT
REMARK Flexibility Score: inf
ROOT
ATOM      1  C   UNL     1      26.320  36.363 147.366  1.00  0.00     0.000 C 
ENDROOT
BRANCH   1   2
ATOM      2  C   UNL     1      25.661  35.011 147.683  1.00  0.00     0.006 C 
BRANCH   2   3
ATOM      3  C   UNL     1      25.754  34.657 149.174  1.00  0.00     0.053 C 
BRANCH   3   4
ATOM      4  C   UNL     1      27.176  34.568 149.639  1.00  0.00     0.041 C 
ATOM      5  O   UNL     1      27.545  35.188 150.671  1.00  0.00    -0.550 OA
ATOM      6  O   UNL     1      28.100  33.826 148.915  1.00  0.00    -0.550 OA
ENDBRANCH   3   4
ENDBRANCH   2   3
ENDBRANCH   1   2
BRANCH   1   7
ATOM      7  C   UNL     1      25.498  37.557 147.878  1.00  0.00     0.000 C 
BRANCH   7   8
ATOM      8  C   UNL     1      24.024  37.491 147.442  1.00  0.00    -0.000 C 
BRANCH   8   9
ATOM      9  C   UNL     1      23.254  38.779 147.775  1.00  0.00    -0.003 C 
ATOM     10  C   UNL     1      24.114  40.034 147.630  1.00  0.00     0.004 C 
ENDBRANCH   8   9
ENDBRANCH   7   8
ENDBRANCH   1   7
TORSDOF 6
ENDMDL
MODEL 7
REMARK VINA RESULT:    -4.059      2.920      4.813
REMARK INTER + INTRA:          -5.831
REMARK INTER:                  -5.431
REMARK INTRA:                  -0.400
REMARK UNBOUND:                -0.349
REMARK SMILES CCCCCCCC(=O)[O-]
REMARK SMILES IDX 5 1 6 2 7 3 8 4 9 5 10 6 4 7 3 8 2 9 1 10
REMARK H PARENT
REMARK Flexibility Score: inf
ROOT
ATOM      1  C   UNL     1      27.293  36.131 149.076  1.00  0.00     0.000 C 
ENDROOT
BRANCH   1   2
ATOM      2  C   UNL     1      26.885  34.830 149.788  1.00  0.00     0.006 C 
BRANCH   2   3
ATOM      3  C   UNL     1      26.462  33.736 148.797  1.00  0.00     0.053 C 
BRANCH   3   4
ATOM      4  C   UNL     1      24.983  33.503 148.821  1.00  0.00     0.041 C 
ATOM      5  O   UNL     1      24.396  33.265 149.910  1.00  0.00    -0.550 OA
ATOM      6  O   UNL     1      24.256  33.518 147.638  1.00  0.00    -0.550 OA
ENDBRANCH   3   4
ENDBRANCH   2   3
ENDBRANCH   1   2
BRANCH   1   7
ATOM      7  C   UNL     1      26.130  37.130 148.957  1.00  0.00     0.000 C 
BRANCH   7   8
ATOM      8  C   UNL     1      25.491  37.132 147.558  1.00  0.00    -0.000 C 
BRANCH   8   9
ATOM      9  C   UNL     1      23.955  37.150 147.613  1.00  0.00    -0.003 C 
ATOM     10  C   UNL     1      23.383  38.566 147.646  1.00  0.00     0.004 C 
ENDBRANCH   8   9
ENDBRANCH   7   8
ENDBRANCH   1   7
TORSDOF 6
ENDMDL
MODEL 8
REMARK VINA RESULT:    -4.030      2.897      4.574
REMARK INTER + INTRA:          -5.792
REMARK INTER:                  -5.234
REMARK INTRA:                  -0.557
REMARK UNBOUND:                -0.349
REMARK SMILES CCCCCCCC(=O)[O-]
REMARK SMILES IDX 5 1 6 2 7 3 8 4 9 5 10 6 4 7 3 8 2 9 1 10
REMARK H PARENT
REMARK Flexibility Score: inf
ROOT
ATOM      1  C   UNL     1      23.590  35.666 147.258  1.00  0.00     0.000 C 
ENDROOT
BRANCH   1   2
ATOM      2  C   UNL     1      24.069  34.369 147.931  1.00  0.00     0.006 C 
BRANCH   2   3
ATOM      3  C   UNL     1      24.715  34.630 149.298  1.00  0.00     0.053 C 
BRANCH   3   4
ATOM      4  C   UNL     1      26.189  34.360 149.280  1.00  0.00     0.041 C 
ATOM      5  O   UNL     1      26.700  33.702 148.335  1.00  0.00    -0.550 OA
ATOM      6  O   UNL     1      26.993  34.808 150.319  1.00  0.00    -0.550 OA
ENDBRANCH   3   4
ENDBRANCH   2   3
ENDBRANCH   1   2
BRANCH   1   7
ATOM      7  C   UNL     1      23.614  36.871 148.213  1.00  0.00     0.000 C 
BRANCH   7   8
ATOM      8  C   UNL     1      24.308  38.100 147.600  1.00  0.00    -0.000 C 
BRANCH   8   9
ATOM      9  C   UNL     1      25.725  38.312 148.155  1.00  0.00    -0.003 C 
ATOM     10  C   UNL     1      26.788  37.548 147.367  1.00  0.00     0.004 C 
ENDBRANCH   8   9
ENDBRANCH   7   8
ENDBRANCH   1   7
TORSDOF 6
ENDMDL
MODEL 9
REMARK VINA RESULT:    -3.926      2.786      4.267
REMARK INTER + INTRA:          -5.652
REMARK INTER:                  -5.077
REMARK INTRA:                  -0.576
REMARK UNBOUND:                -0.349
REMARK SMILES CCCCCCCC(=O)[O-]
REMARK SMILES IDX 5 1 6 2 7 3 8 4 9 5 10 6 4 7 3 8 2 9 1 10
REMARK H PARENT
REMARK Flexibility Score: inf
ROOT
ATOM      1  C   UNL     1      24.047  38.453 147.464  1.00  0.00     0.000 C 
ENDROOT
BRANCH   1   2
ATOM      2  C   UNL     1      23.556  37.236 148.265  1.00  0.00     0.006 C 
BRANCH   2   3
ATOM      3  C   UNL     1      23.525  35.958 147.416  1.00  0.00     0.053 C 
BRANCH   3   4
ATOM      4  C   UNL     1      24.514  34.942 147.899  1.00  0.00     0.041 C 
ATOM      5  O   UNL     1      24.346  34.373 149.009  1.00  0.00    -0.550 OA
ATOM      6  O   UNL     1      25.638  34.647 147.138  1.00  0.00    -0.550 OA
ENDBRANCH   3   4
ENDBRANCH   2   3
ENDBRANCH   1   2
BRANCH   1   7
ATOM      7  C   UNL     1      25.419  38.959 147.940  1.00  0.00     0.000 C 
BRANCH   7   8
ATOM      8  C   UNL     1      26.581  38.094 147.424  1.00  0.00    -0.000 C 
BRANCH   8   9
ATOM      9  C   UNL     1      27.656  37.853 148.495  1.00  0.00    -0.003 C 
ATOM     10  C   UNL     1      27.175  36.933 149.616  1.00  0.00     0.004 C 
ENDBRANCH   8   9
ENDBRANCH   7   8
ENDBRANCH   1   7
TORSDOF 6
ENDMDL
