MODEL 1
REMARK VINA RESULT:    64.752      0.000      0.000
REMARK INTER + INTRA:          89.357
REMARK INTER:                  85.571
REMARK INTRA:                   3.786
REMARK UNBOUND:                 3.786
REMARK SMILES CC[C@H](C=C[C@@H](C)[C@@H]1CC[C@@H]2[C@H]3CC=C4C[C@@H](O)CC[C@@]4(C)[C@@H]3CC[C@]21C)C(C)C
REMARK SMILES IDX 6 1 7 2 5 3 4 4 3 5 2 6 1 7 28 8 29 9 30 10 8 11 9 12 26 13
REMARK SMILES IDX 10 14 11 15 25 16 27 17 12 18 24 19 23 20 13 21 21 22 14 23
REMARK SMILES IDX 15 24 20 25 22 26 16 27 19 28 17 29 18 30
REMARK H PARENT 18 31
REMARK Flexibility Score: inf
ROOT
ATOM      1  C   UNL     1     -30.049  31.871  -0.586  1.00  0.00     0.012 C 
ATOM      2  C   UNL     1     -29.068  31.235   0.419  1.00  0.00     0.012 C 
ENDROOT
BRANCH   1   3
ATOM      3  C   UNL     1     -31.016  30.817  -1.083  1.00  0.00    -0.028 C 
ATOM      4  C   UNL     1     -31.961  31.078  -2.002  1.00  0.00    -0.027 C 
BRANCH   4   5
ATOM      5  C   UNL     1     -32.919  30.006  -2.484  1.00  0.00     0.014 C 
BRANCH   5   6
ATOM      6  C   UNL     1     -33.137  28.919  -1.397  1.00  0.00     0.004 C 
ATOM      7  C   UNL     1     -34.491  28.205  -1.431  1.00  0.00     0.004 C 
ENDBRANCH   5   6
BRANCH   5   8
ATOM      8  C   UNL     1     -34.206  30.607  -3.138  1.00  0.00    -0.011 C 
ATOM      9  C   UNL     1     -35.495  30.442  -2.310  1.00  0.00     0.008 C 
ATOM     10  C   UNL     1     -34.421  30.114  -4.576  1.00  0.00     0.008 C 
ENDBRANCH   5   8
ENDBRANCH   4   5
ENDBRANCH   1   3
BRANCH   1  11
ATOM     11  C   UNL     1     -29.403  32.659  -1.782  1.00  0.00     0.002 C 
ATOM     12  C   UNL     1     -30.189  33.873  -2.344  1.00  0.00     0.005 C 
ATOM     13  C   UNL     1     -29.028  31.836  -3.043  1.00  0.00    -0.026 C 
ATOM     14  C   UNL     1     -29.782  34.005  -3.826  1.00  0.00     0.005 C 
ATOM     15  C   UNL     1     -28.672  32.975  -4.008  1.00  0.00    -0.001 C 
ATOM     16  C   UNL     1     -27.768  30.953  -2.888  1.00  0.00     0.007 C 
ATOM     17  C   UNL     1     -30.238  30.976  -3.526  1.00  0.00     0.012 C 
ATOM     18  C   UNL     1     -28.339  32.482  -5.432  1.00  0.00     0.000 C 
ATOM     19  C   UNL     1     -27.298  30.401  -4.254  1.00  0.00     0.005 C 
ATOM     20  C   UNL     1     -27.125  31.504  -5.353  1.00  0.00     0.003 C 
ATOM     21  C   UNL     1     -27.977  33.668  -6.338  1.00  0.00     0.031 C 
ATOM     22  C   UNL     1     -26.749  30.937  -6.777  1.00  0.00    -0.008 C 
ATOM     23  C   UNL     1     -27.363  33.241  -7.641  1.00  0.00    -0.027 C 
ATOM     24  C   UNL     1     -26.699  32.076  -7.811  1.00  0.00    -0.065 C 
ATOM     25  C   UNL     1     -25.342  30.269  -6.699  1.00  0.00     0.014 C 
ATOM     26  C   UNL     1     -27.789  29.891  -7.264  1.00  0.00     0.016 C 
ATOM     27  C   UNL     1     -26.026  31.820  -9.148  1.00  0.00     0.063 C 
ATOM     28  C   UNL     1     -24.732  29.942  -8.072  1.00  0.00     0.033 C 
ATOM     29  C   UNL     1     -24.643  31.192  -8.960  1.00  0.00     0.118 C 
BRANCH  29  30
ATOM     30  O   UNL     1     -23.770  32.137  -8.394  1.00  0.00    -0.393 OA
ATOM     31  H   UNL     1     -23.571  32.803  -9.103  1.00  0.00     0.210 HD
ENDBRANCH  29  30
ENDBRANCH   1  11
TORSDOF 6
ENDMDL
MODEL 2
REMARK VINA RESULT:    65.779      5.940      9.266
REMARK INTER + INTRA:          90.714
REMARK INTER:                  91.272
REMARK INTRA:                  -0.557
REMARK UNBOUND:                 3.786
REMARK SMILES CC[C@H](C=C[C@@H](C)[C@@H]1CC[C@@H]2[C@H]3CC=C4C[C@@H](O)CC[C@@]4(C)[C@@H]3CC[C@]21C)C(C)C
REMARK SMILES IDX 6 1 7 2 5 3 4 4 3 5 2 6 1 7 28 8 29 9 30 10 8 11 9 12 26 13
REMARK SMILES IDX 10 14 11 15 25 16 27 17 12 18 24 19 23 20 13 21 21 22 14 23
REMARK SMILES IDX 15 24 20 25 22 26 16 27 19 28 17 29 18 30
REMARK H PARENT 18 31
REMARK Flexibility Score: inf
ROOT
ATOM      1  C   UNL     1     -24.673  25.522  -7.025  1.00  0.00     0.012 C 
ATOM      2  C   UNL     1     -25.636  24.340  -6.798  1.00  0.00     0.012 C 
ENDROOT
BRANCH   1   3
ATOM      3  C   UNL     1     -23.469  25.371  -6.120  1.00  0.00    -0.028 C 
ATOM      4  C   UNL     1     -22.219  25.230  -6.595  1.00  0.00    -0.027 C 
BRANCH   4   5
ATOM      5  C   UNL     1     -21.029  25.080  -5.668  1.00  0.00     0.014 C 
BRANCH   5   6
ATOM      6  C   UNL     1     -20.478  23.629  -5.692  1.00  0.00     0.004 C 
ATOM      7  C   UNL     1     -19.673  23.242  -6.936  1.00  0.00     0.004 C 
ENDBRANCH   5   6
BRANCH   5   8
ATOM      8  C   UNL     1     -19.982  26.228  -5.852  1.00  0.00    -0.011 C 
ATOM      9  C   UNL     1     -19.197  26.187  -7.177  1.00  0.00     0.008 C 
ATOM     10  C   UNL     1     -19.022  26.346  -4.659  1.00  0.00     0.008 C 
ENDBRANCH   5   8
ENDBRANCH   4   5
ENDBRANCH   1   3
BRANCH   1  11
ATOM     11  C   UNL     1     -25.297  26.958  -6.906  1.00  0.00     0.002 C 
ATOM     12  C   UNL     1     -26.841  27.077  -7.010  1.00  0.00     0.005 C 
ATOM     13  C   UNL     1     -24.769  28.036  -7.889  1.00  0.00    -0.026 C 
ATOM     14  C   UNL     1     -27.132  28.485  -7.566  1.00  0.00     0.005 C 
ATOM     15  C   UNL     1     -25.768  29.167  -7.606  1.00  0.00    -0.001 C 
ATOM     16  C   UNL     1     -23.358  28.575  -7.560  1.00  0.00     0.007 C 
ATOM     17  C   UNL     1     -24.825  27.521  -9.361  1.00  0.00     0.012 C 
ATOM     18  C   UNL     1     -25.573  30.392  -8.524  1.00  0.00     0.000 C 
ATOM     19  C   UNL     1     -23.029  29.834  -8.397  1.00  0.00     0.005 C 
ATOM     20  C   UNL     1     -24.128  30.946  -8.320  1.00  0.00     0.003 C 
ATOM     21  C   UNL     1     -26.591  31.488  -8.176  1.00  0.00     0.031 C 
ATOM     22  C   UNL     1     -23.851  32.188  -9.254  1.00  0.00    -0.008 C 
ATOM     23  C   UNL     1     -26.272  32.807  -8.822  1.00  0.00    -0.027 C 
ATOM     24  C   UNL     1     -25.026  33.180  -9.190  1.00  0.00    -0.065 C 
ATOM     25  C   UNL     1     -22.558  32.910  -8.764  1.00  0.00     0.014 C 
ATOM     26  C   UNL     1     -23.668  31.754 -10.735  1.00  0.00     0.016 C 
ATOM     27  C   UNL     1     -24.825  34.587  -9.725  1.00  0.00     0.063 C 
ATOM     28  C   UNL     1     -22.342  34.294  -9.397  1.00  0.00     0.033 C 
ATOM     29  C   UNL     1     -23.548  35.215  -9.162  1.00  0.00     0.118 C 
BRANCH  29  30
ATOM     30  O   UNL     1     -23.714  35.469  -7.789  1.00  0.00    -0.393 OA
ATOM     31  H   UNL     1     -24.597  35.912  -7.686  1.00  0.00     0.210 HD
ENDBRANCH  29  30
ENDBRANCH   1  11
TORSDOF 6
ENDMDL
MODEL 3
REMARK VINA RESULT:    66.606      2.920      7.823
REMARK INTER + INTRA:          91.808
REMARK INTER:                  91.889
REMARK INTRA:                  -0.081
REMARK UNBOUND:                 3.786
REMARK SMILES CC[C@H](C=C[C@@H](C)[C@@H]1CC[C@@H]2[C@H]3CC=C4C[C@@H](O)CC[C@@]4(C)[C@@H]3CC[C@]21C)C(C)C
REMARK SMILES IDX 6 1 7 2 5 3 4 4 3 5 2 6 1 7 28 8 29 9 30 10 8 11 9 12 26 13
REMARK SMILES IDX 10 14 11 15 25 16 27 17 12 18 24 19 23 20 13 21 21 22 14 23
REMARK SMILES IDX 15 24 20 25 22 26 16 27 19 28 17 29 18 30
REMARK H PARENT 18 31
REMARK Flexibility Score: inf
ROOT
ATOM      1  C   UNL     1     -26.744  32.257  -2.904  1.00  0.00     0.012 C 
ATOM      2  C   UNL     1     -26.320  33.585  -3.561  1.00  0.00     0.012 C 
ENDROOT
BRANCH   1   3
ATOM      3  C   UNL     1     -26.767  31.162  -3.949  1.00  0.00    -0.028 C 
ATOM      4  C   UNL     1     -26.402  31.371  -5.226  1.00  0.00    -0.027 C 
BRANCH   4   5
ATOM      5  C   UNL     1     -26.435  30.259  -6.254  1.00  0.00     0.014 C 
BRANCH   5   6
ATOM      6  C   UNL     1     -27.469  29.167  -5.868  1.00  0.00     0.004 C 
ATOM      7  C   UNL     1     -27.841  28.178  -6.976  1.00  0.00     0.004 C 
ENDBRANCH   5   6
BRANCH   5   8
ATOM      8  C   UNL     1     -26.509  30.802  -7.719  1.00  0.00    -0.011 C 
ATOM      9  C   UNL     1     -25.147  31.110  -8.369  1.00  0.00     0.008 C 
ATOM     10  C   UNL     1     -27.457  32.002  -7.855  1.00  0.00     0.008 C 
ENDBRANCH   5   8
ENDBRANCH   4   5
ENDBRANCH   1   3
BRANCH   1  11
ATOM     11  C   UNL     1     -28.081  32.285  -2.081  1.00  0.00     0.002 C 
ATOM     12  C   UNL     1     -27.997  31.941  -0.570  1.00  0.00     0.005 C 
ATOM     13  C   UNL     1     -29.246  31.405  -2.604  1.00  0.00    -0.026 C 
ATOM     14  C   UNL     1     -29.369  31.354  -0.182  1.00  0.00     0.005 C 
ATOM     15  C   UNL     1     -30.226  31.534  -1.430  1.00  0.00    -0.001 C 
ATOM     16  C   UNL     1     -29.958  31.955  -3.861  1.00  0.00     0.007 C 
ATOM     17  C   UNL     1     -28.769  29.939  -2.847  1.00  0.00     0.012 C 
ATOM     18  C   UNL     1     -31.491  30.666  -1.598  1.00  0.00     0.000 C 
ATOM     19  C   UNL     1     -31.272  31.188  -4.143  1.00  0.00     0.005 C 
ATOM     20  C   UNL     1     -32.226  31.099  -2.905  1.00  0.00     0.003 C 
ATOM     21  C   UNL     1     -32.433  30.857  -0.399  1.00  0.00     0.031 C 
ATOM     22  C   UNL     1     -33.519  30.227  -3.153  1.00  0.00    -0.008 C 
ATOM     23  C   UNL     1     -33.799  30.277  -0.633  1.00  0.00    -0.027 C 
ATOM     24  C   UNL     1     -34.344  30.112  -1.859  1.00  0.00    -0.065 C 
ATOM     25  C   UNL     1     -34.393  30.920  -4.245  1.00  0.00     0.014 C 
ATOM     26  C   UNL     1     -33.155  28.792  -3.620  1.00  0.00     0.016 C 
ATOM     27  C   UNL     1     -35.780  29.625  -1.949  1.00  0.00     0.063 C 
ATOM     28  C   UNL     1     -35.810  30.338  -4.367  1.00  0.00     0.033 C 
ATOM     29  C   UNL     1     -36.556  30.386  -3.026  1.00  0.00     0.118 C 
BRANCH  29  30
ATOM     30  O   UNL     1     -36.748  31.717  -2.616  1.00  0.00    -0.393 OA
ATOM     31  H   UNL     1     -35.973  32.235  -2.957  1.00  0.00     0.210 HD
ENDBRANCH  29  30
ENDBRANCH   1  11
TORSDOF 6
ENDMDL
