MODEL 1
REMARK VINA RESULT:    -5.351      0.000      0.000
REMARK INTER + INTRA:          -6.038
REMARK INTER:                  -5.820
REMARK INTRA:                  -0.217
REMARK UNBOUND:                -0.217
REMARK SMILES O=C([O-])c1ccccc1O
REMARK SMILES IDX 4 1 9 2 5 3 8 4 6 5 7 6 2 7 1 8 3 9 10 10
REMARK H PARENT 10 11
REMARK Flexibility Score: inf
ROOT
ATOM      1  C   UNL     1     109.441 111.294 114.332  1.00  0.00     0.039 A 
ATOM      2  C   UNL     1     109.046 110.298 115.262  1.00  0.00     0.124 A 
ATOM      3  C   UNL     1     109.941 112.517 114.817  1.00  0.00     0.014 A 
ATOM      4  C   UNL     1     109.100 110.571 116.634  1.00  0.00     0.047 A 
ATOM      5  C   UNL     1     110.008 112.766 116.189  1.00  0.00     0.001 A 
ATOM      6  C   UNL     1     109.580 111.797 117.096  1.00  0.00     0.004 A 
ENDROOT
BRANCH   1   7
ATOM      7  C   UNL     1     109.311 111.110 112.869  1.00  0.00     0.075 C 
ATOM      8  O   UNL     1     109.295 112.112 112.106  1.00  0.00    -0.545 OA
ATOM      9  O   UNL     1     109.137 109.845 112.323  1.00  0.00    -0.545 OA
ENDBRANCH   1   7
BRANCH   2  10
ATOM     10  O   UNL     1     108.633 109.023 114.867  1.00  0.00    -0.507 OA
ATOM     11  H   UNL     1     107.686 108.688 114.975  1.00  0.00     0.293 HD
ENDBRANCH   2  10
TORSDOF 2
ENDMDL
MODEL 2
REMARK VINA RESULT:    -5.330      3.559      4.795
REMARK INTER + INTRA:          -6.014
REMARK INTER:                  -5.795
REMARK INTRA:                  -0.219
REMARK UNBOUND:                -0.217
REMARK SMILES O=C([O-])c1ccccc1O
REMARK SMILES IDX 4 1 9 2 5 3 8 4 6 5 7 6 2 7 1 8 3 9 10 10
REMARK H PARENT 10 11
REMARK Flexibility Score: inf
ROOT
ATOM      1  C   UNL     1     109.413 111.257 109.541  1.00  0.00     0.039 A 
ATOM      2  C   UNL     1     109.056 110.229 110.451  1.00  0.00     0.124 A 
ATOM      3  C   UNL     1     109.879 112.484 110.050  1.00  0.00     0.014 A 
ATOM      4  C   UNL     1     109.111 110.473 111.829  1.00  0.00     0.047 A 
ATOM      5  C   UNL     1     109.948 112.704 111.427  1.00  0.00     0.001 A 
ATOM      6  C   UNL     1     109.556 111.703 112.315  1.00  0.00     0.004 A 
ENDROOT
BRANCH   1   7
ATOM      7  C   UNL     1     109.279 111.102 108.075  1.00  0.00     0.075 C 
ATOM      8  O   UNL     1     109.220 112.120 107.336  1.00  0.00    -0.545 OA
ATOM      9  O   UNL     1     109.149 109.844 107.502  1.00  0.00    -0.545 OA
ENDBRANCH   1   7
BRANCH   2  10
ATOM     10  O   UNL     1     108.679 108.951 110.030  1.00  0.00    -0.507 OA
ATOM     11  H   UNL     1     108.444 108.203 110.668  1.00  0.00     0.293 HD
ENDBRANCH   2  10
TORSDOF 2
ENDMDL
MODEL 3
REMARK VINA RESULT:    -5.324      3.702      4.198
REMARK INTER + INTRA:          -6.008
REMARK INTER:                  -5.790
REMARK INTRA:                  -0.218
REMARK UNBOUND:                -0.217
REMARK SMILES O=C([O-])c1ccccc1O
REMARK SMILES IDX 4 1 9 2 5 3 8 4 6 5 7 6 2 7 1 8 3 9 10 10
REMARK H PARENT 10 11
REMARK Flexibility Score: inf
ROOT
ATOM      1  C   UNL     1     112.868 110.849 114.725  1.00  0.00     0.039 A 
ATOM      2  C   UNL     1     113.190 112.044 115.419  1.00  0.00     0.124 A 
ATOM      3  C   UNL     1     112.304 109.778 115.443  1.00  0.00     0.014 A 
ATOM      4  C   UNL     1     113.001 112.114 116.805  1.00  0.00     0.047 A 
ATOM      5  C   UNL     1     112.102 109.871 116.822  1.00  0.00     0.001 A 
ATOM      6  C   UNL     1     112.459 111.034 117.503  1.00  0.00     0.004 A 
ENDROOT
BRANCH   1   7
ATOM      7  C   UNL     1     113.139 110.672 113.282  1.00  0.00     0.075 C 
ATOM      8  O   UNL     1     113.242 111.678 112.531  1.00  0.00    -0.545 OA
ATOM      9  O   UNL     1     113.216 109.403 112.722  1.00  0.00    -0.545 OA
ENDBRANCH   1   7
BRANCH   2  10
ATOM     10  O   UNL     1     113.661 113.187 114.768  1.00  0.00    -0.507 OA
ATOM     11  H   UNL     1     113.063 113.826 114.264  1.00  0.00     0.293 HD
ENDBRANCH   2  10
TORSDOF 2
ENDMDL
MODEL 4
REMARK VINA RESULT:    -5.322      5.138      6.186
REMARK INTER + INTRA:          -6.005
REMARK INTER:                  -5.787
REMARK INTRA:                  -0.218
REMARK UNBOUND:                -0.217
REMARK SMILES O=C([O-])c1ccccc1O
REMARK SMILES IDX 4 1 9 2 5 3 8 4 6 5 7 6 2 7 1 8 3 9 10 10
REMARK H PARENT 10 11
REMARK Flexibility Score: inf
ROOT
ATOM      1  C   UNL     1     112.867 110.895 109.809  1.00  0.00     0.039 A 
ATOM      2  C   UNL     1     113.160 112.088 110.519  1.00  0.00     0.124 A 
ATOM      3  C   UNL     1     112.335 109.799 110.512  1.00  0.00     0.014 A 
ATOM      4  C   UNL     1     112.977 112.131 111.907  1.00  0.00     0.047 A 
ATOM      5  C   UNL     1     112.138 109.865 111.893  1.00  0.00     0.001 A 
ATOM      6  C   UNL     1     112.468 111.026 112.591  1.00  0.00     0.004 A 
ENDROOT
BRANCH   1   7
ATOM      7  C   UNL     1     113.134 110.748 108.361  1.00  0.00     0.075 C 
ATOM      8  O   UNL     1     113.200 111.767 107.624  1.00  0.00    -0.545 OA
ATOM      9  O   UNL     1     113.248 109.490 107.782  1.00  0.00    -0.545 OA
ENDBRANCH   1   7
BRANCH   2  10
ATOM     10  O   UNL     1     113.597 113.253 109.883  1.00  0.00    -0.507 OA
ATOM     11  H   UNL     1     113.442 113.443 108.903  1.00  0.00     0.293 HD
ENDBRANCH   2  10
TORSDOF 2
ENDMDL
MODEL 5
REMARK VINA RESULT:    -5.131      4.437      6.046
REMARK INTER + INTRA:          -5.798
REMARK INTER:                  -5.557
REMARK INTRA:                  -0.241
REMARK UNBOUND:                -0.217
REMARK SMILES O=C([O-])c1ccccc1O
REMARK SMILES IDX 4 1 9 2 5 3 8 4 6 5 7 6 2 7 1 8 3 9 10 10
REMARK H PARENT 10 11
REMARK Flexibility Score: inf
ROOT
ATOM      1  C   UNL     1     112.705 110.520 111.465  1.00  0.00     0.039 A 
ATOM      2  C   UNL     1     112.983 111.905 111.591  1.00  0.00     0.124 A 
ATOM      3  C   UNL     1     112.478 109.985 110.183  1.00  0.00     0.014 A 
ATOM      4  C   UNL     1     112.964 112.722 110.453  1.00  0.00     0.047 A 
ATOM      5  C   UNL     1     112.484 110.810 109.056  1.00  0.00     0.001 A 
ATOM      6  C   UNL     1     112.717 112.178 109.192  1.00  0.00     0.004 A 
ENDROOT
BRANCH   1   7
ATOM      7  C   UNL     1     112.606 109.621 112.636  1.00  0.00     0.075 C 
ATOM      8  O   UNL     1     113.156 108.488 112.611  1.00  0.00    -0.545 OA
ATOM      9  O   UNL     1     111.854 109.979 113.748  1.00  0.00    -0.545 OA
ENDBRANCH   1   7
BRANCH   2  10
ATOM     10  O   UNL     1     113.316 112.497 112.812  1.00  0.00    -0.507 OA
ATOM     11  H   UNL     1     112.696 113.116 113.316  1.00  0.00     0.293 HD
ENDBRANCH   2  10
TORSDOF 2
ENDMDL
MODEL 6
REMARK VINA RESULT:    -5.069      7.896      9.335
REMARK INTER + INTRA:          -5.731
REMARK INTER:                  -5.522
REMARK INTRA:                  -0.208
REMARK UNBOUND:                -0.217
REMARK SMILES O=C([O-])c1ccccc1O
REMARK SMILES IDX 4 1 9 2 5 3 8 4 6 5 7 6 2 7 1 8 3 9 10 10
REMARK H PARENT 10 11
REMARK Flexibility Score: inf
ROOT
ATOM      1  C   UNL     1     109.412 111.457 105.147  1.00  0.00     0.039 A 
ATOM      2  C   UNL     1     109.144 110.181 105.708  1.00  0.00     0.124 A 
ATOM      3  C   UNL     1     109.959 112.459 105.969  1.00  0.00     0.014 A 
ATOM      4  C   UNL     1     109.366 109.963 107.073  1.00  0.00     0.047 A 
ATOM      5  C   UNL     1     110.195 112.219 107.325  1.00  0.00     0.001 A 
ATOM      6  C   UNL     1     109.890 110.976 107.878  1.00  0.00     0.004 A 
ENDROOT
BRANCH   1   7
ATOM      7  C   UNL     1     109.103 111.785 103.738  1.00  0.00     0.075 C 
ATOM      8  O   UNL     1     108.921 110.862 102.900  1.00  0.00    -0.545 OA
ATOM      9  O   UNL     1     109.077 113.104 103.303  1.00  0.00    -0.545 OA
ENDBRANCH   1   7
BRANCH   2  10
ATOM     10  O   UNL     1     108.694 109.103 104.941  1.00  0.00    -0.507 OA
ATOM     11  H   UNL     1     108.415 108.217 105.339  1.00  0.00     0.293 HD
ENDBRANCH   2  10
TORSDOF 2
ENDMDL
MODEL 7
REMARK VINA RESULT:    -5.018      3.404      3.581
REMARK INTER + INTRA:          -5.675
REMARK INTER:                  -5.434
REMARK INTRA:                  -0.241
REMARK UNBOUND:                -0.217
REMARK SMILES O=C([O-])c1ccccc1O
REMARK SMILES IDX 4 1 9 2 5 3 8 4 6 5 7 6 2 7 1 8 3 9 10 10
REMARK H PARENT 10 11
REMARK Flexibility Score: inf
ROOT
ATOM      1  C   UNL     1     112.717 110.466 114.317  1.00  0.00     0.039 A 
ATOM      2  C   UNL     1     112.484 109.809 115.553  1.00  0.00     0.124 A 
ATOM      3  C   UNL     1     113.099 111.820 114.330  1.00  0.00     0.014 A 
ATOM      4  C   UNL     1     112.576 110.530 116.750  1.00  0.00     0.047 A 
ATOM      5  C   UNL     1     113.207 112.520 115.533  1.00  0.00     0.001 A 
ATOM      6  C   UNL     1     112.936 111.878 116.741  1.00  0.00     0.004 A 
ENDROOT
BRANCH   1   7
ATOM      7  C   UNL     1     112.536 109.791 113.013  1.00  0.00     0.075 C 
ATOM      8  O   UNL     1     113.145 108.716 112.769  1.00  0.00    -0.545 OA
ATOM      9  O   UNL     1     111.752 110.362 112.019  1.00  0.00    -0.545 OA
ENDBRANCH   1   7
BRANCH   2  10
ATOM     10  O   UNL     1     112.197 108.444 115.636  1.00  0.00    -0.507 OA
ATOM     11  H   UNL     1     112.563 107.759 114.989  1.00  0.00     0.293 HD
ENDBRANCH   2  10
TORSDOF 2
ENDMDL
MODEL 8
REMARK VINA RESULT:    -4.960      1.692      2.455
REMARK INTER + INTRA:          -5.612
REMARK INTER:                  -5.364
REMARK INTRA:                  -0.248
REMARK UNBOUND:                -0.217
REMARK SMILES O=C([O-])c1ccccc1O
REMARK SMILES IDX 4 1 9 2 5 3 8 4 6 5 7 6 2 7 1 8 3 9 10 10
REMARK H PARENT 10 11
REMARK Flexibility Score: inf
ROOT
ATOM      1  C   UNL     1     109.508 111.821 114.299  1.00  0.00     0.039 A 
ATOM      2  C   UNL     1     109.742 112.541 115.500  1.00  0.00     0.124 A 
ATOM      3  C   UNL     1     109.175 110.456 114.379  1.00  0.00     0.014 A 
ATOM      4  C   UNL     1     109.699 111.871 116.729  1.00  0.00     0.047 A 
ATOM      5  C   UNL     1     109.116 109.807 115.615  1.00  0.00     0.001 A 
ATOM      6  C   UNL     1     109.387 110.512 116.787  1.00  0.00     0.004 A 
ENDROOT
BRANCH   1   7
ATOM      7  C   UNL     1     109.640 112.443 112.963  1.00  0.00     0.075 C 
ATOM      8  O   UNL     1     109.164 113.590 112.751  1.00  0.00    -0.545 OA
ATOM      9  O   UNL     1     110.223 111.750 111.910  1.00  0.00    -0.545 OA
ENDBRANCH   1   7
BRANCH   2  10
ATOM     10  O   UNL     1     109.981 113.917 115.516  1.00  0.00    -0.507 OA
ATOM     11  H   UNL     1     109.388 114.578 115.998  1.00  0.00     0.293 HD
ENDBRANCH   2  10
TORSDOF 2
ENDMDL
MODEL 9
REMARK VINA RESULT:    -4.957      4.857      5.932
REMARK INTER + INTRA:          -5.609
REMARK INTER:                  -5.356
REMARK INTRA:                  -0.253
REMARK UNBOUND:                -0.217
REMARK SMILES O=C([O-])c1ccccc1O
REMARK SMILES IDX 4 1 9 2 5 3 8 4 6 5 7 6 2 7 1 8 3 9 10 10
REMARK H PARENT 10 11
REMARK Flexibility Score: inf
ROOT
ATOM      1  C   UNL     1     112.713 110.548 109.463  1.00  0.00     0.039 A 
ATOM      2  C   UNL     1     112.504 109.780 110.638  1.00  0.00     0.124 A 
ATOM      3  C   UNL     1     112.962 111.927 109.589  1.00  0.00     0.014 A 
ATOM      4  C   UNL     1     112.485 110.413 111.887  1.00  0.00     0.047 A 
ATOM      5  C   UNL     1     112.961 112.541 110.844  1.00  0.00     0.001 A 
ATOM      6  C   UNL     1     112.714 111.786 111.990  1.00  0.00     0.004 A 
ENDROOT
BRANCH   1   7
ATOM      7  C   UNL     1     112.642 109.960 108.108  1.00  0.00     0.075 C 
ATOM      8  O   UNL     1     112.019 110.560 107.192  1.00  0.00    -0.545 OA
ATOM      9  O   UNL     1     113.197 108.715 107.841  1.00  0.00    -0.545 OA
ENDBRANCH   1   7
BRANCH   2  10
ATOM     10  O   UNL     1     112.348 108.392 110.610  1.00  0.00    -0.507 OA
ATOM     11  H   UNL     1     111.480 107.925 110.831  1.00  0.00     0.293 HD
ENDBRANCH   2  10
TORSDOF 2
ENDMDL
