MODEL 1
REMARK VINA RESULT:    -4.739      0.000      0.000
REMARK INTER + INTRA:         -10.823
REMARK INTER:                  -8.894
REMARK INTRA:                  -1.929
REMARK UNBOUND:                -1.929
REMARK SMILES O=C([O-])CCCCCCCCCCCCCCC(=O)[O-]
REMARK SMILES IDX 10 1 9 2 8 3 7 4 6 5 5 6 4 7 2 8 1 9 3 10 11 11 12 12 13 13
REMARK SMILES IDX 14 14 15 15 16 16 17 17 18 18 19 19 20 20
REMARK H PARENT
REMARK Flexibility Score: inf
ROOT
ATOM      1  C   UNL     1      -9.018  -4.754  -4.745  1.00  0.00     0.000 C 
ENDROOT
BRANCH   1   2
ATOM      2  C   UNL     1      -9.829  -3.556  -5.265  1.00  0.00     0.000 C 
BRANCH   2   3
ATOM      3  C   UNL     1     -11.109  -3.362  -4.439  1.00  0.00     0.000 C 
BRANCH   3   4
ATOM      4  C   UNL     1     -11.035  -4.043  -3.062  1.00  0.00     0.000 C 
BRANCH   4   5
ATOM      5  C   UNL     1     -11.002  -3.031  -1.902  1.00  0.00     0.000 C 
BRANCH   5   6
ATOM      6  C   UNL     1      -9.911  -3.354  -0.869  1.00  0.00     0.006 C 
BRANCH   6   7
ATOM      7  C   UNL     1      -8.506  -3.372  -1.482  1.00  0.00     0.053 C 
BRANCH   7   8
ATOM      8  C   UNL     1      -8.122  -2.003  -1.949  1.00  0.00     0.041 C 
ATOM      9  O   UNL     1      -7.725  -1.825  -3.130  1.00  0.00    -0.550 OA
ATOM     10  O   UNL     1      -8.159  -0.932  -1.066  1.00  0.00    -0.550 OA
ENDBRANCH   7   8
ENDBRANCH   6   7
ENDBRANCH   5   6
ENDBRANCH   4   5
ENDBRANCH   3   4
ENDBRANCH   2   3
ENDBRANCH   1   2
BRANCH   1  11
ATOM     11  C   UNL     1      -9.157  -5.998  -5.638  1.00  0.00     0.000 C 
BRANCH  11  12
ATOM     12  C   UNL     1     -10.024  -5.738  -6.883  1.00  0.00     0.000 C 
BRANCH  12  13
ATOM     13  C   UNL     1      -9.234  -5.890  -8.194  1.00  0.00     0.000 C 
BRANCH  13  14
ATOM     14  C   UNL     1      -8.629  -4.561  -8.677  1.00  0.00     0.000 C 
BRANCH  14  15
ATOM     15  C   UNL     1      -7.091  -4.583  -8.689  1.00  0.00     0.000 C 
BRANCH  15  16
ATOM     16  C   UNL     1      -6.511  -5.864  -8.069  1.00  0.00     0.006 C 
BRANCH  16  17
ATOM     17  C   UNL     1      -5.606  -5.535  -6.877  1.00  0.00     0.053 C 
BRANCH  17  18
ATOM     18  C   UNL     1      -5.057  -6.790  -6.276  1.00  0.00     0.041 C 
ATOM     19  O   UNL     1      -5.725  -7.857  -6.318  1.00  0.00    -0.550 OA
ATOM     20  O   UNL     1      -3.791  -6.793  -5.707  1.00  0.00    -0.550 OA
ENDBRANCH  17  18
ENDBRANCH  16  17
ENDBRANCH  15  16
ENDBRANCH  14  15
ENDBRANCH  13  14
ENDBRANCH  12  13
ENDBRANCH  11  12
ENDBRANCH   1  11
TORSDOF 15
ENDMDL
MODEL 2
REMARK VINA RESULT:    -4.595      0.490      6.723
REMARK INTER + INTRA:         -10.553
REMARK INTER:                  -9.038
REMARK INTRA:                  -1.515
REMARK UNBOUND:                -1.929
REMARK SMILES O=C([O-])CCCCCCCCCCCCCCC(=O)[O-]
REMARK SMILES IDX 10 1 9 2 8 3 7 4 6 5 5 6 4 7 2 8 1 9 3 10 11 11 12 12 13 13
REMARK SMILES IDX 14 14 15 15 16 16 17 17 18 18 19 19 20 20
REMARK H PARENT
REMARK Flexibility Score: inf
ROOT
ATOM      1  C   UNL     1      -8.763  -5.602  -5.878  1.00  0.00     0.000 C 
ENDROOT
BRANCH   1   2
ATOM      2  C   UNL     1      -9.746  -5.663  -7.058  1.00  0.00     0.000 C 
BRANCH   2   3
ATOM      3  C   UNL     1      -8.996  -5.820  -8.389  1.00  0.00     0.000 C 
BRANCH   3   4
ATOM      4  C   UNL     1      -7.822  -4.835  -8.527  1.00  0.00     0.000 C 
BRANCH   4   5
ATOM      5  C   UNL     1      -6.652  -5.419  -9.338  1.00  0.00     0.000 C 
BRANCH   5   6
ATOM      6  C   UNL     1      -5.791  -6.391  -8.517  1.00  0.00     0.006 C 
BRANCH   6   7
ATOM      7  C   UNL     1      -5.429  -5.835  -7.134  1.00  0.00     0.053 C 
BRANCH   7   8
ATOM      8  C   UNL     1      -4.935  -6.931  -6.243  1.00  0.00     0.041 C 
ATOM      9  O   UNL     1      -3.796  -6.853  -5.713  1.00  0.00    -0.550 OA
ATOM     10  O   UNL     1      -5.714  -8.062  -6.035  1.00  0.00    -0.550 OA
ENDBRANCH   7   8
ENDBRANCH   6   7
ENDBRANCH   5   6
ENDBRANCH   4   5
ENDBRANCH   3   4
ENDBRANCH   2   3
ENDBRANCH   1   2
BRANCH   1  11
ATOM     11  C   UNL     1      -9.008  -4.393  -4.962  1.00  0.00     0.000 C 
BRANCH  11  12
ATOM     12  C   UNL     1     -10.229  -3.561  -5.394  1.00  0.00     0.000 C 
BRANCH  12  13
ATOM     13  C   UNL     1     -11.061  -3.069  -4.197  1.00  0.00     0.000 C 
BRANCH  13  14
ATOM     14  C   UNL     1     -10.962  -4.007  -2.982  1.00  0.00     0.000 C 
BRANCH  14  15
ATOM     15  C   UNL     1     -11.122  -3.262  -1.647  1.00  0.00     0.000 C 
BRANCH  15  16
ATOM     16  C   UNL     1      -9.864  -3.339  -0.769  1.00  0.00     0.006 C 
BRANCH  16  17
ATOM     17  C   UNL     1      -8.596  -3.369  -1.628  1.00  0.00     0.053 C 
BRANCH  17  18
ATOM     18  C   UNL     1      -8.102  -1.979  -1.880  1.00  0.00     0.041 C 
ATOM     19  O   UNL     1      -8.353  -1.059  -1.058  1.00  0.00    -0.550 OA
ATOM     20  O   UNL     1      -7.328  -1.709  -3.001  1.00  0.00    -0.550 OA
ENDBRANCH  17  18
ENDBRANCH  16  17
ENDBRANCH  15  16
ENDBRANCH  14  15
ENDBRANCH  13  14
ENDBRANCH  12  13
ENDBRANCH  11  12
ENDBRANCH   1  11
TORSDOF 15
ENDMDL
MODEL 3
REMARK VINA RESULT:    -4.575      2.360      5.962
REMARK INTER + INTRA:         -10.515
REMARK INTER:                  -9.274
REMARK INTRA:                  -1.242
REMARK UNBOUND:                -1.929
REMARK SMILES O=C([O-])CCCCCCCCCCCCCCC(=O)[O-]
REMARK SMILES IDX 10 1 9 2 8 3 7 4 6 5 5 6 4 7 2 8 1 9 3 10 11 11 12 12 13 13
REMARK SMILES IDX 14 14 15 15 16 16 17 17 18 18 19 19 20 20
REMARK H PARENT
REMARK Flexibility Score: inf
ROOT
ATOM      1  C   UNL     1      -7.545  -5.395  -7.070  1.00  0.00     0.000 C 
ENDROOT
BRANCH   1   2
ATOM      2  C   UNL     1      -7.454  -5.702  -5.567  1.00  0.00     0.000 C 
BRANCH   2   3
ATOM      3  C   UNL     1      -6.446  -6.829  -5.298  1.00  0.00     0.000 C 
BRANCH   3   4
ATOM      4  C   UNL     1      -5.249  -6.795  -6.263  1.00  0.00     0.000 C 
BRANCH   4   5
ATOM      5  C   UNL     1      -4.073  -5.965  -5.719  1.00  0.00     0.000 C 
BRANCH   5   6
ATOM      6  C   UNL     1      -4.217  -4.466  -6.025  1.00  0.00     0.006 C 
BRANCH   6   7
ATOM      7  C   UNL     1      -2.983  -3.657  -5.608  1.00  0.00     0.053 C 
BRANCH   7   8
ATOM      8  C   UNL     1      -3.276  -2.191  -5.664  1.00  0.00     0.041 C 
ATOM      9  O   UNL     1      -3.419  -1.531  -4.602  1.00  0.00    -0.550 OA
ATOM     10  O   UNL     1      -3.437  -1.562  -6.891  1.00  0.00    -0.550 OA
ENDBRANCH   7   8
ENDBRANCH   6   7
ENDBRANCH   5   6
ENDBRANCH   4   5
ENDBRANCH   3   4
ENDBRANCH   2   3
ENDBRANCH   1   2
BRANCH   1  11
ATOM     11  C   UNL     1      -8.930  -4.875  -7.488  1.00  0.00     0.000 C 
BRANCH  11  12
ATOM     12  C   UNL     1     -10.078  -5.736  -6.932  1.00  0.00     0.000 C 
BRANCH  12  13
ATOM     13  C   UNL     1     -11.125  -4.905  -6.171  1.00  0.00     0.000 C 
BRANCH  13  14
ATOM     14  C   UNL     1     -10.633  -3.483  -5.852  1.00  0.00     0.000 C 
BRANCH  14  15
ATOM     15  C   UNL     1      -9.994  -3.378  -4.458  1.00  0.00     0.000 C 
BRANCH  15  16
ATOM     16  C   UNL     1     -10.845  -4.040  -3.363  1.00  0.00     0.006 C 
BRANCH  16  17
ATOM     17  C   UNL     1     -10.646  -3.340  -2.015  1.00  0.00     0.053 C 
BRANCH  17  18
ATOM     18  C   UNL     1      -9.188  -3.180  -1.719  1.00  0.00     0.041 C 
ATOM     19  O   UNL     1      -8.688  -2.029  -1.609  1.00  0.00    -0.550 OA
ATOM     20  O   UNL     1      -8.391  -4.299  -1.522  1.00  0.00    -0.550 OA
ENDBRANCH  17  18
ENDBRANCH  16  17
ENDBRANCH  15  16
ENDBRANCH  14  15
ENDBRANCH  13  14
ENDBRANCH  12  13
ENDBRANCH  11  12
ENDBRANCH   1  11
TORSDOF 15
ENDMDL
MODEL 4
REMARK VINA RESULT:    -4.495      1.379      6.078
REMARK INTER + INTRA:         -10.366
REMARK INTER:                  -8.488
REMARK INTRA:                  -1.879
REMARK UNBOUND:                -1.929
REMARK SMILES O=C([O-])CCCCCCCCCCCCCCC(=O)[O-]
REMARK SMILES IDX 10 1 9 2 8 3 7 4 6 5 5 6 4 7 2 8 1 9 3 10 11 11 12 12 13 13
REMARK SMILES IDX 14 14 15 15 16 16 17 17 18 18 19 19 20 20
REMARK H PARENT
REMARK Flexibility Score: inf
ROOT
ATOM      1  C   UNL     1     -10.516  -4.835  -9.331  1.00  0.00     0.000 C 
ENDROOT
BRANCH   1   2
ATOM      2  C   UNL     1      -9.633  -3.617  -9.646  1.00  0.00     0.000 C 
BRANCH   2   3
ATOM      3  C   UNL     1      -8.144  -3.974  -9.528  1.00  0.00     0.000 C 
BRANCH   3   4
ATOM      4  C   UNL     1      -7.895  -5.491  -9.557  1.00  0.00     0.000 C 
BRANCH   4   5
ATOM      5  C   UNL     1      -7.363  -6.031  -8.218  1.00  0.00     0.000 C 
BRANCH   5   6
ATOM      6  C   UNL     1      -5.962  -5.498  -7.881  1.00  0.00     0.006 C 
BRANCH   6   7
ATOM      7  C   UNL     1      -5.757  -5.288  -6.376  1.00  0.00     0.053 C 
BRANCH   7   8
ATOM      8  C   UNL     1      -5.836  -6.594  -5.650  1.00  0.00     0.041 C 
ATOM      9  O   UNL     1      -4.939  -7.463  -5.808  1.00  0.00    -0.550 OA
ATOM     10  O   UNL     1      -6.926  -6.871  -4.835  1.00  0.00    -0.550 OA
ENDBRANCH   7   8
ENDBRANCH   6   7
ENDBRANCH   5   6
ENDBRANCH   4   5
ENDBRANCH   3   4
ENDBRANCH   2   3
ENDBRANCH   1   2
BRANCH   1  11
ATOM     11  C   UNL     1     -11.107  -4.790  -7.912  1.00  0.00     0.000 C 
BRANCH  11  12
ATOM     12  C   UNL     1     -10.798  -6.062  -7.102  1.00  0.00     0.000 C 
BRANCH  12  13
ATOM     13  C   UNL     1     -10.286  -5.750  -5.686  1.00  0.00     0.000 C 
BRANCH  13  14
ATOM     14  C   UNL     1      -9.431  -4.472  -5.634  1.00  0.00     0.000 C 
BRANCH  14  15
ATOM     15  C   UNL     1      -9.936  -3.467  -4.587  1.00  0.00     0.000 C 
BRANCH  15  16
ATOM     16  C   UNL     1     -10.738  -4.135  -3.460  1.00  0.00     0.006 C 
BRANCH  16  17
ATOM     17  C   UNL     1     -10.546  -3.392  -2.134  1.00  0.00     0.053 C 
BRANCH  17  18
ATOM     18  C   UNL     1      -9.090  -3.238  -1.826  1.00  0.00     0.041 C 
ATOM     19  O   UNL     1      -8.560  -2.096  -1.832  1.00  0.00    -0.550 OA
ATOM     20  O   UNL     1      -8.328  -4.349  -1.491  1.00  0.00    -0.550 OA
ENDBRANCH  17  18
ENDBRANCH  16  17
ENDBRANCH  15  16
ENDBRANCH  14  15
ENDBRANCH  13  14
ENDBRANCH  12  13
ENDBRANCH  11  12
ENDBRANCH   1  11
TORSDOF 15
ENDMDL
MODEL 5
REMARK VINA RESULT:    -4.494      1.596      2.342
REMARK INTER + INTRA:         -10.364
REMARK INTER:                  -8.964
REMARK INTRA:                  -1.400
REMARK UNBOUND:                -1.929
REMARK SMILES O=C([O-])CCCCCCCCCCCCCCC(=O)[O-]
REMARK SMILES IDX 10 1 9 2 8 3 7 4 6 5 5 6 4 7 2 8 1 9 3 10 11 11 12 12 13 13
REMARK SMILES IDX 14 14 15 15 16 16 17 17 18 18 19 19 20 20
REMARK H PARENT
REMARK Flexibility Score: inf
ROOT
ATOM      1  C   UNL     1      -8.857  -5.266  -5.245  1.00  0.00     0.000 C 
ENDROOT
BRANCH   1   2
ATOM      2  C   UNL     1     -10.270  -5.869  -5.246  1.00  0.00     0.000 C 
BRANCH   2   3
ATOM      3  C   UNL     1     -11.110  -5.297  -4.093  1.00  0.00     0.000 C 
BRANCH   3   4
ATOM      4  C   UNL     1     -10.499  -4.021  -3.491  1.00  0.00     0.000 C 
BRANCH   4   5
ATOM      5  C   UNL     1     -10.984  -3.752  -2.055  1.00  0.00     0.000 C 
BRANCH   5   6
ATOM      6  C   UNL     1      -9.853  -3.276  -1.130  1.00  0.00     0.006 C 
BRANCH   6   7
ATOM      7  C   UNL     1      -8.497  -3.208  -1.843  1.00  0.00     0.053 C 
BRANCH   7   8
ATOM      8  C   UNL     1      -7.997  -1.798  -1.880  1.00  0.00     0.041 C 
ATOM      9  O   UNL     1      -8.410  -0.957  -1.039  1.00  0.00    -0.550 OA
ATOM     10  O   UNL     1      -7.110  -1.401  -2.871  1.00  0.00    -0.550 OA
ENDBRANCH   7   8
ENDBRANCH   6   7
ENDBRANCH   5   6
ENDBRANCH   4   5
ENDBRANCH   3   4
ENDBRANCH   2   3
ENDBRANCH   1   2
BRANCH   1  11
ATOM     11  C   UNL     1      -8.422  -4.770  -6.634  1.00  0.00     0.000 C 
BRANCH  11  12
ATOM     12  C   UNL     1      -8.781  -5.761  -7.755  1.00  0.00     0.000 C 
BRANCH  12  13
ATOM     13  C   UNL     1      -7.562  -6.158  -8.604  1.00  0.00     0.000 C 
BRANCH  13  14
ATOM     14  C   UNL     1      -6.242  -5.604  -8.041  1.00  0.00     0.000 C 
BRANCH  14  15
ATOM     15  C   UNL     1      -5.497  -6.628  -7.168  1.00  0.00     0.000 C 
BRANCH  15  16
ATOM     16  C   UNL     1      -4.545  -5.968  -6.159  1.00  0.00     0.006 C 
BRANCH  16  17
ATOM     17  C   UNL     1      -4.718  -4.446  -6.156  1.00  0.00     0.053 C 
BRANCH  17  18
ATOM     18  C   UNL     1      -3.442  -3.775  -5.758  1.00  0.00     0.041 C 
ATOM     19  O   UNL     1      -3.385  -2.519  -5.680  1.00  0.00    -0.550 OA
ATOM     20  O   UNL     1      -2.328  -4.536  -5.430  1.00  0.00    -0.550 OA
ENDBRANCH  17  18
ENDBRANCH  16  17
ENDBRANCH  15  16
ENDBRANCH  14  15
ENDBRANCH  13  14
ENDBRANCH  12  13
ENDBRANCH  11  12
ENDBRANCH   1  11
TORSDOF 15
ENDMDL
MODEL 6
REMARK VINA RESULT:    -4.421      2.315      5.665
REMARK INTER + INTRA:         -10.226
REMARK INTER:                  -8.053
REMARK INTRA:                  -2.174
REMARK UNBOUND:                -1.929
REMARK SMILES O=C([O-])CCCCCCCCCCCCCCC(=O)[O-]
REMARK SMILES IDX 10 1 9 2 8 3 7 4 6 5 5 6 4 7 2 8 1 9 3 10 11 11 12 12 13 13
REMARK SMILES IDX 14 14 15 15 16 16 17 17 18 18 19 19 20 20
REMARK H PARENT
REMARK Flexibility Score: inf
ROOT
ATOM      1  C   UNL     1      -7.394  -4.723  -9.082  1.00  0.00     0.000 C 
ENDROOT
BRANCH   1   2
ATOM      2  C   UNL     1      -7.669  -6.189  -9.453  1.00  0.00     0.000 C 
BRANCH   2   3
ATOM      3  C   UNL     1      -6.671  -7.127  -8.757  1.00  0.00     0.000 C 
BRANCH   3   4
ATOM      4  C   UNL     1      -5.569  -6.365  -8.003  1.00  0.00     0.000 C 
BRANCH   4   5
ATOM      5  C   UNL     1      -5.359  -6.890  -6.572  1.00  0.00     0.000 C 
BRANCH   5   6
ATOM      6  C   UNL     1      -4.547  -5.919  -5.700  1.00  0.00     0.006 C 
BRANCH   6   7
ATOM      7  C   UNL     1      -4.536  -4.491  -6.261  1.00  0.00     0.053 C 
BRANCH   7   8
ATOM      8  C   UNL     1      -3.403  -3.709  -5.675  1.00  0.00     0.041 C 
ATOM      9  O   UNL     1      -2.270  -4.241  -5.539  1.00  0.00    -0.550 OA
ATOM     10  O   UNL     1      -3.610  -2.408  -5.238  1.00  0.00    -0.550 OA
ENDBRANCH   7   8
ENDBRANCH   6   7
ENDBRANCH   5   6
ENDBRANCH   4   5
ENDBRANCH   3   4
ENDBRANCH   2   3
ENDBRANCH   1   2
BRANCH   1  11
ATOM     11  C   UNL     1      -8.457  -3.760  -9.636  1.00  0.00     0.000 C 
BRANCH  11  12
ATOM     12  C   UNL     1      -9.862  -4.386  -9.669  1.00  0.00     0.000 C 
BRANCH  12  13
ATOM     13  C   UNL     1     -10.870  -3.620  -8.795  1.00  0.00     0.000 C 
BRANCH  13  14
ATOM     14  C   UNL     1     -10.677  -3.891  -7.293  1.00  0.00     0.000 C 
BRANCH  14  15
ATOM     15  C   UNL     1     -10.481  -5.384  -6.983  1.00  0.00     0.000 C 
BRANCH  15  16
ATOM     16  C   UNL     1      -9.303  -5.644  -6.031  1.00  0.00     0.006 C 
BRANCH  16  17
ATOM     17  C   UNL     1      -8.692  -4.327  -5.543  1.00  0.00     0.053 C 
BRANCH  17  18
ATOM     18  C   UNL     1      -9.097  -4.054  -4.129  1.00  0.00     0.041 C 
ATOM     19  O   UNL     1      -9.813  -4.882  -3.505  1.00  0.00    -0.550 OA
ATOM     20  O   UNL     1      -8.649  -2.909  -3.485  1.00  0.00    -0.550 OA
ENDBRANCH  17  18
ENDBRANCH  16  17
ENDBRANCH  15  16
ENDBRANCH  14  15
ENDBRANCH  13  14
ENDBRANCH  12  13
ENDBRANCH  11  12
ENDBRANCH   1  11
TORSDOF 15
ENDMDL
MODEL 7
REMARK VINA RESULT:    -4.212      1.852      6.027
REMARK INTER + INTRA:          -9.834
REMARK INTER:                  -8.470
REMARK INTRA:                  -1.364
REMARK UNBOUND:                -1.929
REMARK SMILES O=C([O-])CCCCCCCCCCCCCCC(=O)[O-]
REMARK SMILES IDX 10 1 9 2 8 3 7 4 6 5 5 6 4 7 2 8 1 9 3 10 11 11 12 12 13 13
REMARK SMILES IDX 14 14 15 15 16 16 17 17 18 18 19 19 20 20
REMARK H PARENT
REMARK Flexibility Score: inf
ROOT
ATOM      1  C   UNL     1      -8.395  -6.942  -9.295  1.00  0.00     0.000 C 
ENDROOT
BRANCH   1   2
ATOM      2  C   UNL     1      -7.409  -5.841  -9.716  1.00  0.00     0.000 C 
BRANCH   2   3
ATOM      3  C   UNL     1      -6.099  -5.945  -8.921  1.00  0.00     0.000 C 
BRANCH   3   4
ATOM      4  C   UNL     1      -6.327  -5.957  -7.401  1.00  0.00     0.000 C 
BRANCH   4   5
ATOM      5  C   UNL     1      -5.322  -6.854  -6.657  1.00  0.00     0.000 C 
BRANCH   5   6
ATOM      6  C   UNL     1      -4.173  -6.054  -6.023  1.00  0.00     0.006 C 
BRANCH   6   7
ATOM      7  C   UNL     1      -4.431  -4.542  -6.035  1.00  0.00     0.053 C 
BRANCH   7   8
ATOM      8  C   UNL     1      -3.182  -3.797  -5.682  1.00  0.00     0.041 C 
ATOM      9  O   UNL     1      -3.186  -2.539  -5.635  1.00  0.00    -0.550 OA
ATOM     10  O   UNL     1      -2.002  -4.490  -5.448  1.00  0.00    -0.550 OA
ENDBRANCH   7   8
ENDBRANCH   6   7
ENDBRANCH   5   6
ENDBRANCH   4   5
ENDBRANCH   3   4
ENDBRANCH   2   3
ENDBRANCH   1   2
BRANCH   1  11
ATOM     11  C   UNL     1      -9.814  -6.407  -9.046  1.00  0.00     0.000 C 
BRANCH  11  12
ATOM     12  C   UNL     1      -9.887  -5.468  -7.830  1.00  0.00     0.000 C 
BRANCH  12  13
ATOM     13  C   UNL     1     -10.695  -6.070  -6.667  1.00  0.00     0.000 C 
BRANCH  13  14
ATOM     14  C   UNL     1     -10.020  -5.851  -5.302  1.00  0.00     0.000 C 
BRANCH  14  15
ATOM     15  C   UNL     1      -9.024  -4.681  -5.318  1.00  0.00     0.000 C 
BRANCH  15  16
ATOM     16  C   UNL     1      -9.513  -3.473  -4.505  1.00  0.00     0.006 C 
BRANCH  16  17
ATOM     17  C   UNL     1      -9.952  -3.898  -3.100  1.00  0.00     0.053 C 
BRANCH  17  18
ATOM     18  C   UNL     1      -8.937  -3.476  -2.085  1.00  0.00     0.041 C 
ATOM     19  O   UNL     1      -8.713  -2.253  -1.885  1.00  0.00    -0.550 OA
ATOM     20  O   UNL     1      -8.271  -4.431  -1.328  1.00  0.00    -0.550 OA
ENDBRANCH  17  18
ENDBRANCH  16  17
ENDBRANCH  15  16
ENDBRANCH  14  15
ENDBRANCH  13  14
ENDBRANCH  12  13
ENDBRANCH  11  12
ENDBRANCH   1  11
TORSDOF 15
ENDMDL
MODEL 8
REMARK VINA RESULT:    -3.990      1.628      2.688
REMARK INTER + INTRA:          -9.419
REMARK INTER:                  -7.673
REMARK INTRA:                  -1.746
REMARK UNBOUND:                -1.929
REMARK SMILES O=C([O-])CCCCCCCCCCCCCCC(=O)[O-]
REMARK SMILES IDX 10 1 9 2 8 3 7 4 6 5 5 6 4 7 2 8 1 9 3 10 11 11 12 12 13 13
REMARK SMILES IDX 14 14 15 15 16 16 17 17 18 18 19 19 20 20
REMARK H PARENT
REMARK Flexibility Score: inf
ROOT
ATOM      1  C   UNL     1     -10.077  -4.005  -7.851  1.00  0.00     0.000 C 
ENDROOT
BRANCH   1   2
ATOM      2  C   UNL     1     -11.125  -4.970  -7.273  1.00  0.00     0.000 C 
BRANCH   2   3
ATOM      3  C   UNL     1     -10.462  -6.024  -6.374  1.00  0.00     0.000 C 
BRANCH   3   4
ATOM      4  C   UNL     1     -10.867  -5.884  -4.898  1.00  0.00     0.000 C 
BRANCH   4   5
ATOM      5  C   UNL     1     -10.610  -4.471  -4.344  1.00  0.00     0.000 C 
BRANCH   5   6
ATOM      6  C   UNL     1      -9.122  -4.212  -4.057  1.00  0.00     0.006 C 
BRANCH   6   7
ATOM      7  C   UNL     1      -8.908  -3.141  -2.980  1.00  0.00     0.053 C 
BRANCH   7   8
ATOM      8  C   UNL     1      -9.044  -3.739  -1.615  1.00  0.00     0.041 C 
ATOM      9  O   UNL     1     -10.019  -3.429  -0.882  1.00  0.00    -0.550 OA
ATOM     10  O   UNL     1      -8.070  -4.604  -1.135  1.00  0.00    -0.550 OA
ENDBRANCH   7   8
ENDBRANCH   6   7
ENDBRANCH   5   6
ENDBRANCH   4   5
ENDBRANCH   3   4
ENDBRANCH   2   3
ENDBRANCH   1   2
BRANCH   1  11
ATOM     11  C   UNL     1      -9.951  -4.112  -9.380  1.00  0.00     0.000 C 
BRANCH  11  12
ATOM     12  C   UNL     1      -8.590  -4.677  -9.823  1.00  0.00     0.000 C 
BRANCH  12  13
ATOM     13  C   UNL     1      -8.444  -6.176  -9.511  1.00  0.00     0.000 C 
BRANCH  13  14
ATOM     14  C   UNL     1      -7.076  -6.522  -8.898  1.00  0.00     0.000 C 
BRANCH  14  15
ATOM     15  C   UNL     1      -6.444  -5.333  -8.156  1.00  0.00     0.000 C 
BRANCH  15  16
ATOM     16  C   UNL     1      -6.887  -5.248  -6.687  1.00  0.00     0.006 C 
BRANCH  16  17
ATOM     17  C   UNL     1      -6.138  -6.271  -5.828  1.00  0.00     0.053 C 
BRANCH  17  18
ATOM     18  C   UNL     1      -4.671  -5.977  -5.823  1.00  0.00     0.041 C 
ATOM     19  O   UNL     1      -3.837  -6.921  -5.811  1.00  0.00    -0.550 OA
ATOM     20  O   UNL     1      -4.224  -4.664  -5.877  1.00  0.00    -0.550 OA
ENDBRANCH  17  18
ENDBRANCH  16  17
ENDBRANCH  15  16
ENDBRANCH  14  15
ENDBRANCH  13  14
ENDBRANCH  12  13
ENDBRANCH  11  12
ENDBRANCH   1  11
TORSDOF 15
ENDMDL
MODEL 9
REMARK VINA RESULT:    -3.913      1.677      3.173
REMARK INTER + INTRA:          -9.274
REMARK INTER:                  -7.685
REMARK INTRA:                  -1.590
REMARK UNBOUND:                -1.929
REMARK SMILES O=C([O-])CCCCCCCCCCCCCCC(=O)[O-]
REMARK SMILES IDX 10 1 9 2 8 3 7 4 6 5 5 6 4 7 2 8 1 9 3 10 11 11 12 12 13 13
REMARK SMILES IDX 14 14 15 15 16 16 17 17 18 18 19 19 20 20
REMARK H PARENT
REMARK Flexibility Score: inf
ROOT
ATOM      1  C   UNL     1      -9.729  -6.645  -8.609  1.00  0.00     0.000 C 
ENDROOT
BRANCH   1   2
ATOM      2  C   UNL     1     -10.745  -5.528  -8.320  1.00  0.00     0.000 C 
BRANCH   2   3
ATOM      3  C   UNL     1     -10.705  -5.121  -6.839  1.00  0.00     0.000 C 
BRANCH   3   4
ATOM      4  C   UNL     1     -10.928  -3.614  -6.633  1.00  0.00     0.000 C 
BRANCH   4   5
ATOM      5  C   UNL     1     -10.343  -3.104  -5.304  1.00  0.00     0.000 C 
BRANCH   5   6
ATOM      6  C   UNL     1      -9.815  -4.242  -4.417  1.00  0.00     0.006 C 
BRANCH   6   7
ATOM      7  C   UNL     1     -10.275  -4.115  -2.959  1.00  0.00     0.053 C 
BRANCH   7   8
ATOM      8  C   UNL     1      -9.166  -3.585  -2.106  1.00  0.00     0.041 C 
ATOM      9  O   UNL     1      -8.372  -4.377  -1.534  1.00  0.00    -0.550 OA
ATOM     10  O   UNL     1      -9.037  -2.217  -1.906  1.00  0.00    -0.550 OA
ENDBRANCH   7   8
ENDBRANCH   6   7
ENDBRANCH   5   6
ENDBRANCH   4   5
ENDBRANCH   3   4
ENDBRANCH   2   3
ENDBRANCH   1   2
BRANCH   1  11
ATOM     11  C   UNL     1      -8.543  -6.163  -9.460  1.00  0.00     0.000 C 
BRANCH  11  12
ATOM     12  C   UNL     1      -8.032  -4.776  -9.033  1.00  0.00     0.000 C 
BRANCH  12  13
ATOM     13  C   UNL     1      -6.786  -4.857  -8.135  1.00  0.00     0.000 C 
BRANCH  13  14
ATOM     14  C   UNL     1      -7.126  -5.239  -6.684  1.00  0.00     0.000 C 
BRANCH  14  15
ATOM     15  C   UNL     1      -6.266  -6.402  -6.164  1.00  0.00     0.000 C 
BRANCH  15  16
ATOM     16  C   UNL     1      -4.859  -6.424  -6.782  1.00  0.00     0.006 C 
BRANCH  16  17
ATOM     17  C   UNL     1      -3.781  -6.342  -5.696  1.00  0.00     0.053 C 
BRANCH  17  18
ATOM     18  C   UNL     1      -3.185  -4.971  -5.652  1.00  0.00     0.041 C 
ATOM     19  O   UNL     1      -1.962  -4.821  -5.391  1.00  0.00    -0.550 OA
ATOM     20  O   UNL     1      -3.969  -3.862  -5.942  1.00  0.00    -0.550 OA
ENDBRANCH  17  18
ENDBRANCH  16  17
ENDBRANCH  15  16
ENDBRANCH  14  15
ENDBRANCH  13  14
ENDBRANCH  12  13
ENDBRANCH  11  12
ENDBRANCH   1  11
TORSDOF 15
ENDMDL
