MODEL 1
REMARK VINA RESULT:    -3.255      0.000      0.000
REMARK INTER + INTRA:          -6.237
REMARK INTER:                  -4.968
REMARK INTRA:                  -1.269
REMARK UNBOUND:                -1.269
REMARK SMILES CCCCCCCCCCC(=O)[O-]
REMARK SMILES IDX 7 1 8 2 9 3 10 4 11 5 12 6 13 7 6 8 5 9 4 10 3 11 2 12 1 13
REMARK H PARENT
REMARK Flexibility Score: inf
ROOT
ATOM      1  C   UNL     1      58.778  25.257  51.201  1.00  0.00     0.000 C 
ENDROOT
BRANCH   1   2
ATOM      2  C   UNL     1      57.417  25.919  51.460  1.00  0.00     0.000 C 
BRANCH   2   3
ATOM      3  C   UNL     1      56.679  26.194  50.140  1.00  0.00     0.006 C 
BRANCH   3   4
ATOM      4  C   UNL     1      55.589  27.262  50.296  1.00  0.00     0.053 C 
BRANCH   4   5
ATOM      5  C   UNL     1      54.322  26.868  49.602  1.00  0.00     0.041 C 
ATOM      6  O   UNL     1      53.368  27.685  49.510  1.00  0.00    -0.550 OA
ATOM      7  O   UNL     1      54.182  25.586  49.084  1.00  0.00    -0.550 OA
ENDBRANCH   4   5
ENDBRANCH   3   4
ENDBRANCH   2   3
ENDBRANCH   1   2
BRANCH   1   8
ATOM      8  C   UNL     1      59.468  25.796  49.938  1.00  0.00     0.000 C 
BRANCH   8   9
ATOM      9  C   UNL     1      60.790  26.515  50.245  1.00  0.00    -0.000 C 
BRANCH   9  10
ATOM     10  C   UNL     1      60.712  27.999  49.856  1.00  0.00    -0.000 C 
BRANCH  10  11
ATOM     11  C   UNL     1      59.417  28.354  49.103  1.00  0.00    -0.000 C 
BRANCH  11  12
ATOM     12  C   UNL     1      58.611  29.515  49.716  1.00  0.00    -0.003 C 
ATOM     13  C   UNL     1      58.534  29.449  51.241  1.00  0.00     0.004 C 
ENDBRANCH  11  12
ENDBRANCH  10  11
ENDBRANCH   9  10
ENDBRANCH   8   9
ENDBRANCH   1   8
TORSDOF 9
ENDMDL
MODEL 2
REMARK VINA RESULT:    -3.137     11.821     13.367
REMARK INTER + INTRA:          -6.057
REMARK INTER:                  -5.299
REMARK INTRA:                  -0.758
REMARK UNBOUND:                -1.269
REMARK SMILES CCCCCCCCCCC(=O)[O-]
REMARK SMILES IDX 7 1 8 2 9 3 10 4 11 5 12 6 13 7 6 8 5 9 4 10 3 11 2 12 1 13
REMARK H PARENT
REMARK Flexibility Score: inf
ROOT
ATOM      1  C   UNL     1      60.540  31.347  60.073  1.00  0.00     0.000 C 
ENDROOT
BRANCH   1   2
ATOM      2  C   UNL     1      61.175  31.102  61.450  1.00  0.00     0.000 C 
BRANCH   2   3
ATOM      3  C   UNL     1      62.033  29.828  61.440  1.00  0.00     0.006 C 
BRANCH   3   4
ATOM      4  C   UNL     1      63.532  30.139  61.343  1.00  0.00     0.053 C 
BRANCH   4   5
ATOM      5  C   UNL     1      64.021  30.079  59.928  1.00  0.00     0.041 C 
ATOM      6  O   UNL     1      63.368  29.447  59.057  1.00  0.00    -0.550 OA
ATOM      7  O   UNL     1      65.217  30.694  59.579  1.00  0.00    -0.550 OA
ENDBRANCH   4   5
ENDBRANCH   3   4
ENDBRANCH   2   3
ENDBRANCH   1   2
BRANCH   1   8
ATOM      8  C   UNL     1      61.218  32.493  59.304  1.00  0.00     0.000 C 
BRANCH   8   9
ATOM      9  C   UNL     1      62.142  33.339  60.193  1.00  0.00    -0.000 C 
BRANCH   9  10
ATOM     10  C   UNL     1      61.561  34.745  60.407  1.00  0.00    -0.000 C 
BRANCH  10  11
ATOM     11  C   UNL     1      62.620  35.772  60.845  1.00  0.00    -0.000 C 
BRANCH  11  12
ATOM     12  C   UNL     1      63.986  35.170  61.222  1.00  0.00    -0.003 C 
ATOM     13  C   UNL     1      64.903  36.168  61.930  1.00  0.00     0.004 C 
ENDBRANCH  11  12
ENDBRANCH  10  11
ENDBRANCH   9  10
ENDBRANCH   8   9
ENDBRANCH   1   8
TORSDOF 9
ENDMDL
MODEL 3
REMARK VINA RESULT:    -3.099     12.303     13.653
REMARK INTER + INTRA:          -5.999
REMARK INTER:                  -5.303
REMARK INTRA:                  -0.696
REMARK UNBOUND:                -1.269
REMARK SMILES CCCCCCCCCCC(=O)[O-]
REMARK SMILES IDX 7 1 8 2 9 3 10 4 11 5 12 6 13 7 6 8 5 9 4 10 3 11 2 12 1 13
REMARK H PARENT
REMARK Flexibility Score: inf
ROOT
ATOM      1  C   UNL     1      61.159  31.110  61.472  1.00  0.00     0.000 C 
ENDROOT
BRANCH   1   2
ATOM      2  C   UNL     1      62.036  29.850  61.427  1.00  0.00     0.000 C 
BRANCH   2   3
ATOM      3  C   UNL     1      63.525  30.219  61.342  1.00  0.00     0.006 C 
BRANCH   3   4
ATOM      4  C   UNL     1      64.227  29.531  60.164  1.00  0.00     0.053 C 
BRANCH   4   5
ATOM      5  C   UNL     1      64.911  28.268  60.586  1.00  0.00     0.041 C 
ATOM      6  O   UNL     1      64.258  27.196  60.690  1.00  0.00    -0.550 OA
ATOM      7  O   UNL     1      66.266  28.280  60.896  1.00  0.00    -0.550 OA
ENDBRANCH   4   5
ENDBRANCH   3   4
ENDBRANCH   2   3
ENDBRANCH   1   2
BRANCH   1   8
ATOM      8  C   UNL     1      61.259  31.946  60.186  1.00  0.00     0.000 C 
BRANCH   8   9
ATOM      9  C   UNL     1      61.518  33.435  60.465  1.00  0.00    -0.000 C 
BRANCH   9  10
ATOM     10  C   UNL     1      62.874  33.873  59.892  1.00  0.00    -0.000 C 
BRANCH  10  11
ATOM     11  C   UNL     1      64.018  33.777  60.918  1.00  0.00    -0.000 C 
BRANCH  11  12
ATOM     12  C   UNL     1      64.497  35.127  61.480  1.00  0.00    -0.003 C 
ATOM     13  C   UNL     1      63.500  36.261  61.243  1.00  0.00     0.004 C 
ENDBRANCH  11  12
ENDBRANCH  10  11
ENDBRANCH   9  10
ENDBRANCH   8   9
ENDBRANCH   1   8
TORSDOF 9
ENDMDL
MODEL 4
REMARK VINA RESULT:    -3.096     12.966     14.505
REMARK INTER + INTRA:          -5.994
REMARK INTER:                  -5.276
REMARK INTRA:                  -0.718
REMARK UNBOUND:                -1.269
REMARK SMILES CCCCCCCCCCC(=O)[O-]
REMARK SMILES IDX 7 1 8 2 9 3 10 4 11 5 12 6 13 7 6 8 5 9 4 10 3 11 2 12 1 13
REMARK H PARENT
REMARK Flexibility Score: inf
ROOT
ATOM      1  C   UNL     1      62.312  33.515  59.260  1.00  0.00     0.000 C 
ENDROOT
BRANCH   1   2
ATOM      2  C   UNL     1      61.471  34.454  60.138  1.00  0.00     0.000 C 
BRANCH   2   3
ATOM      3  C   UNL     1      62.355  35.511  60.816  1.00  0.00     0.006 C 
BRANCH   3   4
ATOM      4  C   UNL     1      63.760  34.980  61.127  1.00  0.00     0.053 C 
BRANCH   4   5
ATOM      5  C   UNL     1      64.698  36.081  61.515  1.00  0.00     0.041 C 
ATOM      6  O   UNL     1      64.278  37.071  62.170  1.00  0.00    -0.550 OA
ATOM      7  O   UNL     1      66.031  36.029  61.126  1.00  0.00    -0.550 OA
ENDBRANCH   4   5
ENDBRANCH   3   4
ENDBRANCH   2   3
ENDBRANCH   1   2
BRANCH   1   8
ATOM      8  C   UNL     1      62.018  32.031  59.529  1.00  0.00     0.000 C 
BRANCH   8   9
ATOM      9  C   UNL     1      61.027  31.822  60.684  1.00  0.00    -0.000 C 
BRANCH   9  10
ATOM     10  C   UNL     1      61.517  30.717  61.633  1.00  0.00    -0.000 C 
BRANCH  10  11
ATOM     11  C   UNL     1      62.972  30.295  61.363  1.00  0.00    -0.000 C 
BRANCH  11  12
ATOM     12  C   UNL     1      63.151  28.822  60.952  1.00  0.00    -0.003 C 
ATOM     13  C   UNL     1      61.977  27.938  61.370  1.00  0.00     0.004 C 
ENDBRANCH  11  12
ENDBRANCH  10  11
ENDBRANCH   9  10
ENDBRANCH   8   9
ENDBRANCH   1   8
TORSDOF 9
ENDMDL
MODEL 5
REMARK VINA RESULT:    -3.086      3.117      5.579
REMARK INTER + INTRA:          -5.978
REMARK INTER:                  -5.413
REMARK INTRA:                  -0.566
REMARK UNBOUND:                -1.269
REMARK SMILES CCCCCCCCCCC(=O)[O-]
REMARK SMILES IDX 7 1 8 2 9 3 10 4 11 5 12 6 13 7 6 8 5 9 4 10 3 11 2 12 1 13
REMARK H PARENT
REMARK Flexibility Score: inf
ROOT
ATOM      1  C   UNL     1      57.485  28.502  50.116  1.00  0.00     0.000 C 
ENDROOT
BRANCH   1   2
ATOM      2  C   UNL     1      58.769  29.142  49.566  1.00  0.00     0.000 C 
BRANCH   2   3
ATOM      3  C   UNL     1      59.835  28.073  49.279  1.00  0.00     0.006 C 
BRANCH   3   4
ATOM      4  C   UNL     1      59.335  26.656  49.591  1.00  0.00     0.053 C 
BRANCH   4   5
ATOM      5  C   UNL     1      60.439  25.775  50.087  1.00  0.00     0.041 C 
ATOM      6  O   UNL     1      61.497  26.279  50.547  1.00  0.00    -0.550 OA
ATOM      7  O   UNL     1      60.312  24.393  50.012  1.00  0.00    -0.550 OA
ENDBRANCH   4   5
ENDBRANCH   3   4
ENDBRANCH   2   3
ENDBRANCH   1   2
BRANCH   1   8
ATOM      8  C   UNL     1      56.967  29.206  51.380  1.00  0.00     0.000 C 
BRANCH   8   9
ATOM      9  C   UNL     1      55.466  29.525  51.310  1.00  0.00    -0.000 C 
BRANCH   9  10
ATOM     10  C   UNL     1      54.639  28.239  51.156  1.00  0.00    -0.000 C 
BRANCH  10  11
ATOM     11  C   UNL     1      53.767  28.235  49.888  1.00  0.00    -0.000 C 
BRANCH  11  12
ATOM     12  C   UNL     1      53.307  26.840  49.425  1.00  0.00    -0.003 C 
ATOM     13  C   UNL     1      54.463  25.854  49.261  1.00  0.00     0.004 C 
ENDBRANCH  11  12
ENDBRANCH  10  11
ENDBRANCH   9  10
ENDBRANCH   8   9
ENDBRANCH   1   8
TORSDOF 9
ENDMDL
MODEL 6
REMARK VINA RESULT:    -3.015     12.741     14.075
REMARK INTER + INTRA:          -5.870
REMARK INTER:                  -5.058
REMARK INTRA:                  -0.812
REMARK UNBOUND:                -1.269
REMARK SMILES CCCCCCCCCCC(=O)[O-]
REMARK SMILES IDX 7 1 8 2 9 3 10 4 11 5 12 6 13 7 6 8 5 9 4 10 3 11 2 12 1 13
REMARK H PARENT
REMARK Flexibility Score: inf
ROOT
ATOM      1  C   UNL     1      61.171  31.929  60.069  1.00  0.00     0.000 C 
ENDROOT
BRANCH   1   2
ATOM      2  C   UNL     1      61.396  33.438  60.251  1.00  0.00     0.000 C 
BRANCH   2   3
ATOM      3  C   UNL     1      62.780  33.854  59.729  1.00  0.00     0.006 C 
BRANCH   3   4
ATOM      4  C   UNL     1      63.827  33.918  60.849  1.00  0.00     0.053 C 
BRANCH   4   5
ATOM      5  C   UNL     1      64.078  35.325  61.294  1.00  0.00     0.041 C 
ATOM      6  O   UNL     1      65.229  35.678  61.664  1.00  0.00    -0.550 OA
ATOM      7  O   UNL     1      63.033  36.240  61.332  1.00  0.00    -0.550 OA
ENDBRANCH   4   5
ENDBRANCH   3   4
ENDBRANCH   2   3
ENDBRANCH   1   2
BRANCH   1   8
ATOM      8  C   UNL     1      60.930  31.202  61.401  1.00  0.00     0.000 C 
BRANCH   8   9
ATOM      9  C   UNL     1      61.958  30.092  61.666  1.00  0.00    -0.000 C 
BRANCH   9  10
ATOM     10  C   UNL     1      62.948  29.970  60.498  1.00  0.00    -0.000 C 
BRANCH  10  11
ATOM     11  C   UNL     1      64.401  30.262  60.909  1.00  0.00    -0.000 C 
BRANCH  11  12
ATOM     12  C   UNL     1      65.464  29.442  60.155  1.00  0.00    -0.003 C 
ATOM     13  C   UNL     1      65.401  27.948  60.472  1.00  0.00     0.004 C 
ENDBRANCH  11  12
ENDBRANCH  10  11
ENDBRANCH   9  10
ENDBRANCH   8   9
ENDBRANCH   1   8
TORSDOF 9
ENDMDL
MODEL 7
REMARK VINA RESULT:    -2.994     11.582     13.126
REMARK INTER + INTRA:          -5.838
REMARK INTER:                  -4.642
REMARK INTRA:                  -1.196
REMARK UNBOUND:                -1.269
REMARK SMILES CCCCCCCCCCC(=O)[O-]
REMARK SMILES IDX 7 1 8 2 9 3 10 4 11 5 12 6 13 7 6 8 5 9 4 10 3 11 2 12 1 13
REMARK H PARENT
REMARK Flexibility Score: inf
ROOT
ATOM      1  C   UNL     1      62.179  32.671  58.563  1.00  0.00     0.000 C 
ENDROOT
BRANCH   1   2
ATOM      2  C   UNL     1      60.958  32.234  59.385  1.00  0.00     0.000 C 
BRANCH   2   3
ATOM      3  C   UNL     1      61.273  32.254  60.889  1.00  0.00     0.006 C 
BRANCH   3   4
ATOM      4  C   UNL     1      60.849  30.956  61.588  1.00  0.00     0.053 C 
BRANCH   4   5
ATOM      5  C   UNL     1      61.859  29.867  61.396  1.00  0.00     0.041 C 
ATOM      6  O   UNL     1      61.486  28.697  61.117  1.00  0.00    -0.550 OA
ATOM      7  O   UNL     1      63.213  30.137  61.559  1.00  0.00    -0.550 OA
ENDBRANCH   4   5
ENDBRANCH   3   4
ENDBRANCH   2   3
ENDBRANCH   1   2
BRANCH   1   8
ATOM      8  C   UNL     1      63.448  32.816  59.418  1.00  0.00     0.000 C 
BRANCH   8   9
ATOM      9  C   UNL     1      63.956  34.264  59.487  1.00  0.00    -0.000 C 
BRANCH   9  10
ATOM     10  C   UNL     1      63.963  34.774  60.936  1.00  0.00    -0.000 C 
BRANCH  10  11
ATOM     11  C   UNL     1      63.032  35.981  61.152  1.00  0.00    -0.000 C 
BRANCH  11  12
ATOM     12  C   UNL     1      62.084  36.285  59.977  1.00  0.00    -0.003 C 
ATOM     13  C   UNL     1      60.629  35.922  60.273  1.00  0.00     0.004 C 
ENDBRANCH  11  12
ENDBRANCH  10  11
ENDBRANCH   9  10
ENDBRANCH   8   9
ENDBRANCH   1   8
TORSDOF 9
ENDMDL
MODEL 8
REMARK VINA RESULT:    -2.993      1.192      2.931
REMARK INTER + INTRA:          -5.837
REMARK INTER:                  -4.998
REMARK INTRA:                  -0.839
REMARK UNBOUND:                -1.269
REMARK SMILES CCCCCCCCCCC(=O)[O-]
REMARK SMILES IDX 7 1 8 2 9 3 10 4 11 5 12 6 13 7 6 8 5 9 4 10 3 11 2 12 1 13
REMARK H PARENT
REMARK Flexibility Score: inf
ROOT
ATOM      1  C   UNL     1      56.636  28.445  51.604  1.00  0.00     0.000 C 
ENDROOT
BRANCH   1   2
ATOM      2  C   UNL     1      55.639  29.081  50.623  1.00  0.00     0.000 C 
BRANCH   2   3
ATOM      3  C   UNL     1      54.526  28.088  50.251  1.00  0.00     0.006 C 
BRANCH   3   4
ATOM      4  C   UNL     1      55.076  26.692  49.933  1.00  0.00     0.053 C 
BRANCH   4   5
ATOM      5  C   UNL     1      53.980  25.722  49.617  1.00  0.00     0.041 C 
ATOM      6  O   UNL     1      53.649  24.844  50.457  1.00  0.00    -0.550 OA
ATOM      7  O   UNL     1      53.346  25.766  48.382  1.00  0.00    -0.550 OA
ENDBRANCH   4   5
ENDBRANCH   3   4
ENDBRANCH   2   3
ENDBRANCH   1   2
BRANCH   1   8
ATOM      8  C   UNL     1      58.086  28.879  51.338  1.00  0.00     0.000 C 
BRANCH   8   9
ATOM      9  C   UNL     1      58.299  29.395  49.907  1.00  0.00    -0.000 C 
BRANCH   9  10
ATOM     10  C   UNL     1      59.246  28.472  49.127  1.00  0.00    -0.000 C 
BRANCH  10  11
ATOM     11  C   UNL     1      60.394  27.920  49.991  1.00  0.00    -0.000 C 
BRANCH  11  12
ATOM     12  C   UNL     1      60.489  26.384  50.035  1.00  0.00    -0.003 C 
ATOM     13  C   UNL     1      59.123  25.700  49.996  1.00  0.00     0.004 C 
ENDBRANCH  11  12
ENDBRANCH  10  11
ENDBRANCH   9  10
ENDBRANCH   8   9
ENDBRANCH   1   8
TORSDOF 9
ENDMDL
MODEL 9
REMARK VINA RESULT:    -2.961      2.751      5.008
REMARK INTER + INTRA:          -5.788
REMARK INTER:                  -5.089
REMARK INTRA:                  -0.699
REMARK UNBOUND:                -1.269
REMARK SMILES CCCCCCCCCCC(=O)[O-]
REMARK SMILES IDX 7 1 8 2 9 3 10 4 11 5 12 6 13 7 6 8 5 9 4 10 3 11 2 12 1 13
REMARK H PARENT
REMARK Flexibility Score: inf
ROOT
ATOM      1  C   UNL     1      57.824  27.650  52.316  1.00  0.00     0.000 C 
ENDROOT
BRANCH   1   2
ATOM      2  C   UNL     1      58.186  29.027  51.740  1.00  0.00     0.000 C 
BRANCH   2   3
ATOM      3  C   UNL     1      57.759  29.137  50.268  1.00  0.00     0.006 C 
BRANCH   3   4
ATOM      4  C   UNL     1      58.962  29.213  49.319  1.00  0.00     0.053 C 
BRANCH   4   5
ATOM      5  C   UNL     1      59.815  27.985  49.404  1.00  0.00     0.041 C 
ATOM      6  O   UNL     1      61.063  28.086  49.530  1.00  0.00    -0.550 OA
ATOM      7  O   UNL     1      59.233  26.726  49.313  1.00  0.00    -0.550 OA
ENDBRANCH   4   5
ENDBRANCH   3   4
ENDBRANCH   2   3
ENDBRANCH   1   2
BRANCH   1   8
ATOM      8  C   UNL     1      56.329  27.324  52.174  1.00  0.00     0.000 C 
BRANCH   8   9
ATOM      9  C   UNL     1      56.074  26.037  51.375  1.00  0.00    -0.000 C 
BRANCH   9  10
ATOM     10  C   UNL     1      55.683  26.360  49.925  1.00  0.00    -0.000 C 
BRANCH  10  11
ATOM     11  C   UNL     1      54.276  25.856  49.557  1.00  0.00    -0.000 C 
BRANCH  11  12
ATOM     12  C   UNL     1      53.221  26.962  49.373  1.00  0.00    -0.003 C 
ATOM     13  C   UNL     1      53.672  28.315  49.922  1.00  0.00     0.004 C 
ENDBRANCH  11  12
ENDBRANCH  10  11
ENDBRANCH   9  10
ENDBRANCH   8   9
ENDBRANCH   1   8
TORSDOF 9
ENDMDL
