MODEL 1
REMARK VINA RESULT:    -3.953      0.000      0.000
REMARK INTER + INTRA:          -8.852
REMARK INTER:                  -6.956
REMARK INTRA:                  -1.895
REMARK UNBOUND:                -1.895
REMARK SMILES CCCCCCCCCCCCCCC(=O)[O-]
REMARK SMILES IDX 9 1 10 2 11 3 12 4 13 5 14 6 15 7 16 8 17 9 8 10 7 11 6 12
REMARK SMILES IDX 5 13 4 14 3 15 2 16 1 17
REMARK H PARENT
REMARK Flexibility Score: inf
ROOT
ATOM      1  C   UNL     1      14.312  22.054  23.117  1.00  0.00     0.000 C 
ENDROOT
BRANCH   1   2
ATOM      2  C   UNL     1      14.754  22.824  21.863  1.00  0.00     0.000 C 
BRANCH   2   3
ATOM      3  C   UNL     1      14.613  21.993  20.577  1.00  0.00     0.000 C 
BRANCH   3   4
ATOM      4  C   UNL     1      14.105  22.822  19.389  1.00  0.00     0.000 C 
BRANCH   4   5
ATOM      5  C   UNL     1      12.583  22.696  19.243  1.00  0.00     0.006 C 
BRANCH   5   6
ATOM      6  C   UNL     1      11.920  24.076  19.182  1.00  0.00     0.053 C 
BRANCH   6   7
ATOM      7  C   UNL     1      11.380  24.456  20.524  1.00  0.00     0.041 C 
ATOM      8  O   UNL     1      10.946  25.621  20.727  1.00  0.00    -0.550 OA
ATOM      9  O   UNL     1      11.304  23.508  21.538  1.00  0.00    -0.550 OA
ENDBRANCH   6   7
ENDBRANCH   5   6
ENDBRANCH   4   5
ENDBRANCH   3   4
ENDBRANCH   2   3
ENDBRANCH   1   2
BRANCH   1  10
ATOM     10  C   UNL     1      15.429  22.030  24.168  1.00  0.00     0.000 C 
BRANCH  10  11
ATOM     11  C   UNL     1      16.810  22.141  23.505  1.00  0.00    -0.000 C 
BRANCH  11  12
ATOM     12  C   UNL     1      17.523  20.785  23.390  1.00  0.00    -0.000 C 
BRANCH  12  13
ATOM     13  C   UNL     1      17.666  20.311  21.936  1.00  0.00    -0.000 C 
BRANCH  13  14
ATOM     14  C   UNL     1      17.111  18.890  21.765  1.00  0.00    -0.000 C 
BRANCH  14  15
ATOM     15  C   UNL     1      15.575  18.831  21.854  1.00  0.00    -0.000 C 
BRANCH  15  16
ATOM     16  C   UNL     1      15.025  17.815  22.871  1.00  0.00    -0.003 C 
ATOM     17  C   UNL     1      14.867  18.401  24.274  1.00  0.00     0.004 C 
ENDBRANCH  15  16
ENDBRANCH  14  15
ENDBRANCH  13  14
ENDBRANCH  12  13
ENDBRANCH  11  12
ENDBRANCH  10  11
ENDBRANCH   1  10
TORSDOF 13
ENDMDL
MODEL 2
REMARK VINA RESULT:    -3.886      3.299      4.890
REMARK INTER + INTRA:          -8.736
REMARK INTER:                  -7.533
REMARK INTRA:                  -1.203
REMARK UNBOUND:                -1.895
REMARK SMILES CCCCCCCCCCCCCCC(=O)[O-]
REMARK SMILES IDX 9 1 10 2 11 3 12 4 13 5 14 6 15 7 16 8 17 9 8 10 7 11 6 12
REMARK SMILES IDX 5 13 4 14 3 15 2 16 1 17
REMARK H PARENT
REMARK Flexibility Score: inf
ROOT
ATOM      1  C   UNL     1      16.418  20.248  21.759  1.00  0.00     0.000 C 
ENDROOT
BRANCH   1   2
ATOM      2  C   UNL     1      17.721  20.453  22.547  1.00  0.00     0.000 C 
BRANCH   2   3
ATOM      3  C   UNL     1      17.599  21.547  23.620  1.00  0.00     0.000 C 
BRANCH   3   4
ATOM      4  C   UNL     1      16.195  22.168  23.675  1.00  0.00     0.000 C 
BRANCH   4   5
ATOM      5  C   UNL     1      16.162  23.365  24.632  1.00  0.00     0.006 C 
BRANCH   5   6
ATOM      6  C   UNL     1      15.078  24.368  24.222  1.00  0.00     0.053 C 
BRANCH   6   7
ATOM      7  C   UNL     1      14.417  24.947  25.433  1.00  0.00     0.041 C 
ATOM      8  O   UNL     1      13.691  25.971  25.330  1.00  0.00    -0.550 OA
ATOM      9  O   UNL     1      14.559  24.326  26.668  1.00  0.00    -0.550 OA
ENDBRANCH   6   7
ENDBRANCH   5   6
ENDBRANCH   4   5
ENDBRANCH   3   4
ENDBRANCH   2   3
ENDBRANCH   1   2
BRANCH   1  10
ATOM     10  C   UNL     1      15.997  18.773  21.768  1.00  0.00     0.000 C 
BRANCH  10  11
ATOM     11  C   UNL     1      14.603  18.603  22.388  1.00  0.00    -0.000 C 
BRANCH  11  12
ATOM     12  C   UNL     1      14.637  17.850  23.727  1.00  0.00    -0.000 C 
BRANCH  12  13
ATOM     13  C   UNL     1      15.185  18.708  24.877  1.00  0.00    -0.000 C 
BRANCH  13  14
ATOM     14  C   UNL     1      15.130  17.943  26.207  1.00  0.00    -0.000 C 
BRANCH  14  15
ATOM     15  C   UNL     1      13.772  18.076  26.920  1.00  0.00    -0.000 C 
BRANCH  15  16
ATOM     16  C   UNL     1      13.018  16.751  27.129  1.00  0.00    -0.003 C 
ATOM     17  C   UNL     1      11.894  16.536  26.115  1.00  0.00     0.004 C 
ENDBRANCH  15  16
ENDBRANCH  14  15
ENDBRANCH  13  14
ENDBRANCH  12  13
ENDBRANCH  11  12
ENDBRANCH  10  11
ENDBRANCH   1  10
TORSDOF 13
ENDMDL
MODEL 3
REMARK VINA RESULT:    -3.857      7.931     10.509
REMARK INTER + INTRA:          -8.683
REMARK INTER:                  -7.278
REMARK INTRA:                  -1.405
REMARK UNBOUND:                -1.895
REMARK SMILES CCCCCCCCCCCCCCC(=O)[O-]
REMARK SMILES IDX 9 1 10 2 11 3 12 4 13 5 14 6 15 7 16 8 17 9 8 10 7 11 6 12
REMARK SMILES IDX 5 13 4 14 3 15 2 16 1 17
REMARK H PARENT
REMARK Flexibility Score: inf
ROOT
ATOM      1  C   UNL     1      11.630  16.989  27.732  1.00  0.00     0.000 C 
ENDROOT
BRANCH   1   2
ATOM      2  C   UNL     1      12.985  17.199  27.040  1.00  0.00     0.000 C 
BRANCH   2   3
ATOM      3  C   UNL     1      13.503  18.640  27.177  1.00  0.00     0.000 C 
BRANCH   3   4
ATOM      4  C   UNL     1      12.483  19.574  27.845  1.00  0.00     0.000 C 
BRANCH   4   5
ATOM      5  C   UNL     1      13.092  20.263  29.072  1.00  0.00     0.006 C 
BRANCH   5   6
ATOM      6  C   UNL     1      12.227  21.443  29.527  1.00  0.00     0.053 C 
BRANCH   6   7
ATOM      7  C   UNL     1      11.921  21.335  30.987  1.00  0.00     0.041 C 
ATOM      8  O   UNL     1      11.106  20.469  31.402  1.00  0.00    -0.550 OA
ATOM      9  O   UNL     1      12.577  22.155  31.898  1.00  0.00    -0.550 OA
ENDBRANCH   6   7
ENDBRANCH   5   6
ENDBRANCH   4   5
ENDBRANCH   3   4
ENDBRANCH   2   3
ENDBRANCH   1   2
BRANCH   1  10
ATOM     10  C   UNL     1      11.805  16.269  29.075  1.00  0.00     0.000 C 
BRANCH  10  11
ATOM     11  C   UNL     1      11.124  17.049  30.210  1.00  0.00    -0.000 C 
BRANCH  11  12
ATOM     12  C   UNL     1      11.849  16.891  31.556  1.00  0.00    -0.000 C 
BRANCH  12  13
ATOM     13  C   UNL     1      11.235  15.791  32.434  1.00  0.00    -0.000 C 
BRANCH  13  14
ATOM     14  C   UNL     1       9.721  15.994  32.590  1.00  0.00    -0.000 C 
BRANCH  14  15
ATOM     15  C   UNL     1       8.926  14.680  32.491  1.00  0.00    -0.000 C 
BRANCH  15  16
ATOM     16  C   UNL     1       9.701  13.500  31.877  1.00  0.00    -0.003 C 
ATOM     17  C   UNL     1       9.516  13.386  30.364  1.00  0.00     0.004 C 
ENDBRANCH  15  16
ENDBRANCH  14  15
ENDBRANCH  13  14
ENDBRANCH  12  13
ENDBRANCH  11  12
ENDBRANCH  10  11
ENDBRANCH   1  10
TORSDOF 13
ENDMDL
MODEL 4
REMARK VINA RESULT:    -3.843      4.505      6.626
REMARK INTER + INTRA:          -8.659
REMARK INTER:                  -6.959
REMARK INTRA:                  -1.700
REMARK UNBOUND:                -1.895
REMARK SMILES CCCCCCCCCCCCCCC(=O)[O-]
REMARK SMILES IDX 9 1 10 2 11 3 12 4 13 5 14 6 15 7 16 8 17 9 8 10 7 11 6 12
REMARK SMILES IDX 5 13 4 14 3 15 2 16 1 17
REMARK H PARENT
REMARK Flexibility Score: inf
ROOT
ATOM      1  C   UNL     1      13.498  17.871  21.747  1.00  0.00     0.000 C 
ENDROOT
BRANCH   1   2
ATOM      2  C   UNL     1      13.738  17.435  23.200  1.00  0.00     0.000 C 
BRANCH   2   3
ATOM      3  C   UNL     1      13.901  18.628  24.157  1.00  0.00     0.000 C 
BRANCH   3   4
ATOM      4  C   UNL     1      15.173  18.531  25.012  1.00  0.00     0.000 C 
BRANCH   4   5
ATOM      5  C   UNL     1      14.864  17.930  26.389  1.00  0.00     0.006 C 
BRANCH   5   6
ATOM      6  C   UNL     1      13.622  18.579  27.006  1.00  0.00     0.053 C 
BRANCH   6   7
ATOM      7  C   UNL     1      12.665  17.531  27.482  1.00  0.00     0.041 C 
ATOM      8  O   UNL     1      12.750  16.352  27.048  1.00  0.00    -0.550 OA
ATOM      9  O   UNL     1      11.714  17.844  28.445  1.00  0.00    -0.550 OA
ENDBRANCH   6   7
ENDBRANCH   5   6
ENDBRANCH   4   5
ENDBRANCH   3   4
ENDBRANCH   2   3
ENDBRANCH   1   2
BRANCH   1  10
ATOM     10  C   UNL     1      14.527  17.232  20.806  1.00  0.00     0.000 C 
BRANCH  10  11
ATOM     11  C   UNL     1      15.864  17.002  21.526  1.00  0.00    -0.000 C 
BRANCH  11  12
ATOM     12  C   UNL     1      16.988  17.904  20.993  1.00  0.00    -0.000 C 
BRANCH  12  13
ATOM     13  C   UNL     1      17.281  19.096  21.916  1.00  0.00    -0.000 C 
BRANCH  13  14
ATOM     14  C   UNL     1      16.446  20.320  21.513  1.00  0.00    -0.000 C 
BRANCH  14  15
ATOM     15  C   UNL     1      16.020  21.179  22.718  1.00  0.00    -0.000 C 
BRANCH  15  16
ATOM     16  C   UNL     1      17.178  21.660  23.610  1.00  0.00    -0.003 C 
ATOM     17  C   UNL     1      17.030  23.118  24.046  1.00  0.00     0.004 C 
ENDBRANCH  15  16
ENDBRANCH  14  15
ENDBRANCH  13  14
ENDBRANCH  12  13
ENDBRANCH  11  12
ENDBRANCH  10  11
ENDBRANCH   1  10
TORSDOF 13
ENDMDL
MODEL 5
REMARK VINA RESULT:    -3.843      8.980     12.028
REMARK INTER + INTRA:          -8.658
REMARK INTER:                  -7.010
REMARK INTRA:                  -1.648
REMARK UNBOUND:                -1.895
REMARK SMILES CCCCCCCCCCCCCCC(=O)[O-]
REMARK SMILES IDX 9 1 10 2 11 3 12 4 13 5 14 6 15 7 16 8 17 9 8 10 7 11 6 12
REMARK SMILES IDX 5 13 4 14 3 15 2 16 1 17
REMARK H PARENT
REMARK Flexibility Score: inf
ROOT
ATOM      1  C   UNL     1      11.778  15.873  30.538  1.00  0.00     0.000 C 
ENDROOT
BRANCH   1   2
ATOM      2  C   UNL     1      11.723  16.996  31.585  1.00  0.00     0.000 C 
BRANCH   2   3
ATOM      3  C   UNL     1      10.541  16.843  32.557  1.00  0.00     0.000 C 
BRANCH   3   4
ATOM      4  C   UNL     1      10.045  15.393  32.661  1.00  0.00     0.000 C 
BRANCH   4   5
ATOM      5  C   UNL     1       8.533  15.312  32.419  1.00  0.00     0.006 C 
BRANCH   5   6
ATOM      6  C   UNL     1       8.227  14.831  30.997  1.00  0.00     0.053 C 
BRANCH   6   7
ATOM      7  C   UNL     1       8.630  13.400  30.831  1.00  0.00     0.041 C 
ATOM      8  O   UNL     1       9.606  13.096  30.096  1.00  0.00    -0.550 OA
ATOM      9  O   UNL     1       7.961  12.403  31.532  1.00  0.00    -0.550 OA
ENDBRANCH   6   7
ENDBRANCH   5   6
ENDBRANCH   4   5
ENDBRANCH   3   4
ENDBRANCH   2   3
ENDBRANCH   1   2
BRANCH   1  10
ATOM     10  C   UNL     1      11.166  16.331  29.209  1.00  0.00     0.000 C 
BRANCH  10  11
ATOM     11  C   UNL     1      12.205  16.280  28.078  1.00  0.00    -0.000 C 
BRANCH  11  12
ATOM     12  C   UNL     1      12.604  17.677  27.577  1.00  0.00    -0.000 C 
BRANCH  12  13
ATOM     13  C   UNL     1      11.827  18.803  28.276  1.00  0.00    -0.000 C 
BRANCH  13  14
ATOM     14  C   UNL     1      12.757  19.971  28.634  1.00  0.00    -0.000 C 
BRANCH  14  15
ATOM     15  C   UNL     1      12.686  20.360  30.122  1.00  0.00    -0.000 C 
BRANCH  15  16
ATOM     16  C   UNL     1      11.429  21.153  30.523  1.00  0.00    -0.003 C 
ATOM     17  C   UNL     1      10.738  20.590  31.765  1.00  0.00     0.004 C 
ENDBRANCH  15  16
ENDBRANCH  14  15
ENDBRANCH  13  14
ENDBRANCH  12  13
ENDBRANCH  11  12
ENDBRANCH  10  11
ENDBRANCH   1  10
TORSDOF 13
ENDMDL
MODEL 6
REMARK VINA RESULT:    -3.790      6.149      9.108
REMARK INTER + INTRA:          -8.566
REMARK INTER:                  -6.867
REMARK INTRA:                  -1.699
REMARK UNBOUND:                -1.895
REMARK SMILES CCCCCCCCCCCCCCC(=O)[O-]
REMARK SMILES IDX 9 1 10 2 11 3 12 4 13 5 14 6 15 7 16 8 17 9 8 10 7 11 6 12
REMARK SMILES IDX 5 13 4 14 3 15 2 16 1 17
REMARK H PARENT
REMARK Flexibility Score: inf
ROOT
ATOM      1  C   UNL     1      11.776  15.684  30.766  1.00  0.00     0.000 C 
ENDROOT
BRANCH   1   2
ATOM      2  C   UNL     1      11.943  17.072  31.404  1.00  0.00     0.000 C 
BRANCH   2   3
ATOM      3  C   UNL     1      10.598  17.753  31.703  1.00  0.00     0.000 C 
BRANCH   3   4
ATOM      4  C   UNL     1      10.417  19.070  30.934  1.00  0.00     0.000 C 
BRANCH   4   5
ATOM      5  C   UNL     1      11.774  19.686  30.575  1.00  0.00     0.006 C 
BRANCH   5   6
ATOM      6  C   UNL     1      11.638  20.683  29.419  1.00  0.00     0.053 C 
BRANCH   6   7
ATOM      7  C   UNL     1      12.888  21.492  29.276  1.00  0.00     0.041 C 
ATOM      8  O   UNL     1      13.817  21.379  30.118  1.00  0.00    -0.550 OA
ATOM      9  O   UNL     1      13.051  22.332  28.180  1.00  0.00    -0.550 OA
ENDBRANCH   6   7
ENDBRANCH   5   6
ENDBRANCH   4   5
ENDBRANCH   3   4
ENDBRANCH   2   3
ENDBRANCH   1   2
BRANCH   1  10
ATOM     10  C   UNL     1      11.197  15.798  29.350  1.00  0.00     0.000 C 
BRANCH  10  11
ATOM     11  C   UNL     1      12.115  16.635  28.446  1.00  0.00    -0.000 C 
BRANCH  11  12
ATOM     12  C   UNL     1      11.338  17.426  27.382  1.00  0.00    -0.000 C 
BRANCH  12  13
ATOM     13  C   UNL     1      12.252  18.291  26.501  1.00  0.00    -0.000 C 
BRANCH  13  14
ATOM     14  C   UNL     1      13.635  18.462  27.147  1.00  0.00    -0.000 C 
BRANCH  14  15
ATOM     15  C   UNL     1      14.762  17.798  26.335  1.00  0.00    -0.000 C 
BRANCH  15  16
ATOM     16  C   UNL     1      14.726  18.088  24.824  1.00  0.00    -0.003 C 
ATOM     17  C   UNL     1      15.099  19.530  24.482  1.00  0.00     0.004 C 
ENDBRANCH  15  16
ENDBRANCH  14  15
ENDBRANCH  13  14
ENDBRANCH  12  13
ENDBRANCH  11  12
ENDBRANCH  10  11
ENDBRANCH   1  10
TORSDOF 13
ENDMDL
MODEL 7
REMARK VINA RESULT:    -3.778      4.066      6.354
REMARK INTER + INTRA:          -8.544
REMARK INTER:                  -6.504
REMARK INTRA:                  -2.039
REMARK UNBOUND:                -1.895
REMARK SMILES CCCCCCCCCCCCCCC(=O)[O-]
REMARK SMILES IDX 9 1 10 2 11 3 12 4 13 5 14 6 15 7 16 8 17 9 8 10 7 11 6 12
REMARK SMILES IDX 5 13 4 14 3 15 2 16 1 17
REMARK H PARENT
REMARK Flexibility Score: inf
ROOT
ATOM      1  C   UNL     1      15.506  17.815  22.174  1.00  0.00     0.000 C 
ENDROOT
BRANCH   1   2
ATOM      2  C   UNL     1      14.424  18.879  22.417  1.00  0.00     0.000 C 
BRANCH   2   3
ATOM      3  C   UNL     1      13.879  18.851  23.854  1.00  0.00     0.000 C 
BRANCH   3   4
ATOM      4  C   UNL     1      14.989  18.959  24.911  1.00  0.00     0.000 C 
BRANCH   4   5
ATOM      5  C   UNL     1      14.810  17.899  26.004  1.00  0.00     0.006 C 
BRANCH   5   6
ATOM      6  C   UNL     1      13.697  18.297  26.979  1.00  0.00     0.053 C 
BRANCH   6   7
ATOM      7  C   UNL     1      12.634  17.246  27.018  1.00  0.00     0.041 C 
ATOM      8  O   UNL     1      12.602  16.410  27.960  1.00  0.00    -0.550 OA
ATOM      9  O   UNL     1      11.645  17.221  26.042  1.00  0.00    -0.550 OA
ENDBRANCH   6   7
ENDBRANCH   5   6
ENDBRANCH   4   5
ENDBRANCH   3   4
ENDBRANCH   2   3
ENDBRANCH   1   2
BRANCH   1  10
ATOM     10  C   UNL     1      16.727  18.425  21.474  1.00  0.00     0.000 C 
BRANCH  10  11
ATOM     11  C   UNL     1      16.711  19.957  21.575  1.00  0.00    -0.000 C 
BRANCH  11  12
ATOM     12  C   UNL     1      17.863  20.507  22.430  1.00  0.00    -0.000 C 
BRANCH  12  13
ATOM     13  C   UNL     1      17.384  21.488  23.511  1.00  0.00    -0.000 C 
BRANCH  13  14
ATOM     14  C   UNL     1      16.030  22.104  23.131  1.00  0.00    -0.000 C 
BRANCH  14  15
ATOM     15  C   UNL     1      15.311  22.756  24.326  1.00  0.00    -0.000 C 
BRANCH  15  16
ATOM     16  C   UNL     1      13.786  22.549  24.354  1.00  0.00    -0.003 C 
ATOM     17  C   UNL     1      13.251  22.235  25.751  1.00  0.00     0.004 C 
ENDBRANCH  15  16
ENDBRANCH  14  15
ENDBRANCH  13  14
ENDBRANCH  12  13
ENDBRANCH  11  12
ENDBRANCH  10  11
ENDBRANCH   1  10
TORSDOF 13
ENDMDL
MODEL 8
REMARK VINA RESULT:    -3.740      3.097      6.133
REMARK INTER + INTRA:          -8.478
REMARK INTER:                  -6.683
REMARK INTRA:                  -1.795
REMARK UNBOUND:                -1.895
REMARK SMILES CCCCCCCCCCCCCCC(=O)[O-]
REMARK SMILES IDX 9 1 10 2 11 3 12 4 13 5 14 6 15 7 16 8 17 9 8 10 7 11 6 12
REMARK SMILES IDX 5 13 4 14 3 15 2 16 1 17
REMARK H PARENT
REMARK Flexibility Score: inf
ROOT
ATOM      1  C   UNL     1      16.116  19.376  21.530  1.00  0.00     0.000 C 
ENDROOT
BRANCH   1   2
ATOM      2  C   UNL     1      15.928  17.878  21.819  1.00  0.00     0.000 C 
BRANCH   2   3
ATOM      3  C   UNL     1      14.990  17.619  23.009  1.00  0.00     0.000 C 
BRANCH   3   4
ATOM      4  C   UNL     1      14.132  18.842  23.365  1.00  0.00     0.000 C 
BRANCH   4   5
ATOM      5  C   UNL     1      14.334  19.245  24.831  1.00  0.00     0.006 C 
BRANCH   5   6
ATOM      6  C   UNL     1      14.676  18.028  25.695  1.00  0.00     0.053 C 
BRANCH   6   7
ATOM      7  C   UNL     1      13.525  17.677  26.585  1.00  0.00     0.041 C 
ATOM      8  O   UNL     1      13.472  16.548  27.138  1.00  0.00    -0.550 OA
ATOM      9  O   UNL     1      12.536  18.619  26.846  1.00  0.00    -0.550 OA
ENDBRANCH   6   7
ENDBRANCH   5   6
ENDBRANCH   4   5
ENDBRANCH   3   4
ENDBRANCH   2   3
ENDBRANCH   1   2
BRANCH   1  10
ATOM     10  C   UNL     1      17.520  19.840  21.937  1.00  0.00     0.000 C 
BRANCH  10  11
ATOM     11  C   UNL     1      17.525  20.384  23.374  1.00  0.00    -0.000 C 
BRANCH  11  12
ATOM     12  C   UNL     1      17.286  21.901  23.434  1.00  0.00    -0.000 C 
BRANCH  12  13
ATOM     13  C   UNL     1      15.833  22.259  23.778  1.00  0.00    -0.000 C 
BRANCH  13  14
ATOM     14  C   UNL     1      15.199  23.106  22.665  1.00  0.00    -0.000 C 
BRANCH  14  15
ATOM     15  C   UNL     1      14.166  22.325  21.832  1.00  0.00    -0.000 C 
BRANCH  15  16
ATOM     16  C   UNL     1      14.475  22.250  20.326  1.00  0.00    -0.003 C 
ATOM     17  C   UNL     1      13.699  23.279  19.504  1.00  0.00     0.004 C 
ENDBRANCH  15  16
ENDBRANCH  14  15
ENDBRANCH  13  14
ENDBRANCH  12  13
ENDBRANCH  11  12
ENDBRANCH  10  11
ENDBRANCH   1  10
TORSDOF 13
ENDMDL
