MODEL 1
REMARK VINA RESULT:    -4.926      0.000      0.000
REMARK INTER + INTRA:          -7.593
REMARK INTER:                  -6.942
REMARK INTRA:                  -0.652
REMARK UNBOUND:                -0.652
REMARK SMILES CCCCCCCCC(=O)[O-]
REMARK SMILES IDX 6 1 7 2 8 3 9 4 10 5 11 6 5 7 4 8 3 9 2 10 1 11
REMARK H PARENT
REMARK Flexibility Score: inf
ROOT
ATOM      1  C   UNL     1     -14.961  -8.358  -1.012  1.00  0.00     0.000 C 
ENDROOT
BRANCH   1   2
ATOM      2  C   UNL     1     -15.945  -7.543  -1.868  1.00  0.00     0.006 C 
BRANCH   2   3
ATOM      3  C   UNL     1     -16.761  -8.430  -2.817  1.00  0.00     0.053 C 
BRANCH   3   4
ATOM      4  C   UNL     1     -16.160  -8.473  -4.189  1.00  0.00     0.041 C 
ATOM      5  O   UNL     1     -16.560  -7.679  -5.080  1.00  0.00    -0.550 OA
ATOM      6  O   UNL     1     -15.186  -9.416  -4.494  1.00  0.00    -0.550 OA
ENDBRANCH   3   4
ENDBRANCH   2   3
ENDBRANCH   1   2
BRANCH   1   7
ATOM      7  C   UNL     1     -15.608  -8.931   0.261  1.00  0.00     0.000 C 
BRANCH   7   8
ATOM      8  C   UNL     1     -16.533  -7.957   1.018  1.00  0.00    -0.000 C 
BRANCH   8   9
ATOM      9  C   UNL     1     -18.016  -8.370   1.066  1.00  0.00    -0.000 C 
BRANCH   9  10
ATOM     10  C   UNL     1     -18.269  -9.750   0.445  1.00  0.00    -0.003 C 
ATOM     11  C   UNL     1     -19.269  -9.659  -0.706  1.00  0.00     0.004 C 
ENDBRANCH   9  10
ENDBRANCH   8   9
ENDBRANCH   7   8
ENDBRANCH   1   7
TORSDOF 7
ENDMDL
MODEL 2
REMARK VINA RESULT:    -4.889      0.885      2.538
REMARK INTER + INTRA:          -7.541
REMARK INTER:                  -6.854
REMARK INTRA:                  -0.687
REMARK UNBOUND:                -0.652
REMARK SMILES CCCCCCCCC(=O)[O-]
REMARK SMILES IDX 6 1 7 2 8 3 9 4 10 5 11 6 5 7 4 8 3 9 2 10 1 11
REMARK H PARENT
REMARK Flexibility Score: inf
ROOT
ATOM      1  C   UNL     1     -18.619 -10.489  -1.578  1.00  0.00     0.000 C 
ENDROOT
BRANCH   1   2
ATOM      2  C   UNL     1     -17.293 -10.268  -2.326  1.00  0.00     0.006 C 
BRANCH   2   3
ATOM      3  C   UNL     1     -17.121  -8.814  -2.782  1.00  0.00     0.053 C 
BRANCH   3   4
ATOM      4  C   UNL     1     -16.315  -8.719  -4.042  1.00  0.00     0.041 C 
ATOM      5  O   UNL     1     -16.700  -7.979  -4.986  1.00  0.00    -0.550 OA
ATOM      6  O   UNL     1     -15.159  -9.476  -4.188  1.00  0.00    -0.550 OA
ENDBRANCH   3   4
ENDBRANCH   2   3
ENDBRANCH   1   2
BRANCH   1   7
ATOM      7  C   UNL     1     -18.971  -9.330  -0.630  1.00  0.00     0.000 C 
BRANCH   7   8
ATOM      8  C   UNL     1     -18.266  -9.371   0.741  1.00  0.00    -0.000 C 
BRANCH   8   9
ATOM      9  C   UNL     1     -17.769  -8.009   1.260  1.00  0.00    -0.000 C 
BRANCH   9  10
ATOM     10  C   UNL     1     -16.403  -7.615   0.680  1.00  0.00    -0.003 C 
ATOM     11  C   UNL     1     -15.467  -8.818   0.613  1.00  0.00     0.004 C 
ENDBRANCH   9  10
ENDBRANCH   8   9
ENDBRANCH   7   8
ENDBRANCH   1   7
TORSDOF 7
ENDMDL
MODEL 3
REMARK VINA RESULT:    -4.752      2.416      4.107
REMARK INTER + INTRA:          -7.348
REMARK INTER:                  -6.668
REMARK INTRA:                  -0.680
REMARK UNBOUND:                -0.652
REMARK SMILES CCCCCCCCC(=O)[O-]
REMARK SMILES IDX 6 1 7 2 8 3 9 4 10 5 11 6 5 7 4 8 3 9 2 10 1 11
REMARK H PARENT
REMARK Flexibility Score: inf
ROOT
ATOM      1  C   UNL     1     -16.592  -9.022   0.370  1.00  0.00     0.000 C 
ENDROOT
BRANCH   1   2
ATOM      2  C   UNL     1     -18.124  -9.080   0.493  1.00  0.00     0.006 C 
BRANCH   2   3
ATOM      3  C   UNL     1     -18.800  -9.426  -0.840  1.00  0.00     0.053 C 
BRANCH   3   4
ATOM      4  C   UNL     1     -18.641 -10.876  -1.183  1.00  0.00     0.041 C 
ATOM      5  O   UNL     1     -18.009 -11.217  -2.217  1.00  0.00    -0.550 OA
ATOM      6  O   UNL     1     -19.222 -11.849  -0.380  1.00  0.00    -0.550 OA
ENDBRANCH   3   4
ENDBRANCH   2   3
ENDBRANCH   1   2
BRANCH   1   7
ATOM      7  C   UNL     1     -16.084  -7.659  -0.131  1.00  0.00     0.000 C 
BRANCH   7   8
ATOM      8  C   UNL     1     -15.780  -7.589  -1.641  1.00  0.00    -0.000 C 
BRANCH   8   9
ATOM      9  C   UNL     1     -14.980  -8.780  -2.201  1.00  0.00    -0.000 C 
BRANCH   9  10
ATOM     10  C   UNL     1     -15.396  -9.156  -3.630  1.00  0.00    -0.003 C 
ATOM     11  C   UNL     1     -16.554  -8.286  -4.112  1.00  0.00     0.004 C 
ENDBRANCH   9  10
ENDBRANCH   8   9
ENDBRANCH   7   8
ENDBRANCH   1   7
TORSDOF 7
ENDMDL
MODEL 4
REMARK VINA RESULT:    -4.731      3.575      5.021
REMARK INTER + INTRA:          -7.319
REMARK INTER:                  -6.762
REMARK INTRA:                  -0.557
REMARK UNBOUND:                -0.652
REMARK SMILES CCCCCCCCC(=O)[O-]
REMARK SMILES IDX 6 1 7 2 8 3 9 4 10 5 11 6 5 7 4 8 3 9 2 10 1 11
REMARK H PARENT
REMARK Flexibility Score: inf
ROOT
ATOM      1  C   UNL     1     -19.038 -11.638  -0.355  1.00  0.00     0.000 C 
ENDROOT
BRANCH   1   2
ATOM      2  C   UNL     1     -18.085 -12.811  -0.642  1.00  0.00     0.006 C 
BRANCH   2   3
ATOM      3  C   UNL     1     -17.652 -12.858  -2.113  1.00  0.00     0.053 C 
BRANCH   3   4
ATOM      4  C   UNL     1     -18.266 -14.019  -2.835  1.00  0.00     0.041 C 
ATOM      5  O   UNL     1     -19.490 -14.004  -3.132  1.00  0.00    -0.550 OA
ATOM      6  O   UNL     1     -17.495 -15.132  -3.147  1.00  0.00    -0.550 OA
ENDBRANCH   3   4
ENDBRANCH   2   3
ENDBRANCH   1   2
BRANCH   1   7
ATOM      7  C   UNL     1     -18.906 -10.496  -1.377  1.00  0.00     0.000 C 
BRANCH   7   8
ATOM      8  C   UNL     1     -18.307  -9.188  -0.822  1.00  0.00    -0.000 C 
BRANCH   8   9
ATOM      9  C   UNL     1     -17.051  -8.682  -1.556  1.00  0.00    -0.000 C 
BRANCH   9  10
ATOM     10  C   UNL     1     -16.842  -9.362  -2.916  1.00  0.00    -0.003 C 
ATOM     11  C   UNL     1     -16.526  -8.336  -4.000  1.00  0.00     0.004 C 
ENDBRANCH   9  10
ENDBRANCH   8   9
ENDBRANCH   7   8
ENDBRANCH   1   7
TORSDOF 7
ENDMDL
MODEL 5
REMARK VINA RESULT:    -4.707      3.183      5.104
REMARK INTER + INTRA:          -7.285
REMARK INTER:                  -6.844
REMARK INTRA:                  -0.441
REMARK UNBOUND:                -0.652
REMARK SMILES CCCCCCCCC(=O)[O-]
REMARK SMILES IDX 6 1 7 2 8 3 9 4 10 5 11 6 5 7 4 8 3 9 2 10 1 11
REMARK H PARENT
REMARK Flexibility Score: inf
ROOT
ATOM      1  C   UNL     1     -19.070 -10.329  -1.151  1.00  0.00     0.000 C 
ENDROOT
BRANCH   1   2
ATOM      2  C   UNL     1     -19.039 -11.579  -0.254  1.00  0.00     0.006 C 
BRANCH   2   3
ATOM      3  C   UNL     1     -18.368 -12.772  -0.946  1.00  0.00     0.053 C 
BRANCH   3   4
ATOM      4  C   UNL     1     -17.075 -13.142  -0.284  1.00  0.00     0.041 C 
ATOM      5  O   UNL     1     -16.466 -12.301   0.428  1.00  0.00    -0.550 OA
ATOM      6  O   UNL     1     -16.526 -14.402  -0.484  1.00  0.00    -0.550 OA
ENDBRANCH   3   4
ENDBRANCH   2   3
ENDBRANCH   1   2
BRANCH   1   7
ATOM      7  C   UNL     1     -18.319  -9.135  -0.537  1.00  0.00     0.000 C 
BRANCH   7   8
ATOM      8  C   UNL     1     -17.037  -8.715  -1.283  1.00  0.00    -0.000 C 
BRANCH   8   9
ATOM      9  C   UNL     1     -16.858  -9.342  -2.678  1.00  0.00    -0.000 C 
BRANCH   9  10
ATOM     10  C   UNL     1     -15.950  -8.509  -3.593  1.00  0.00    -0.003 C 
ATOM     11  C   UNL     1     -16.690  -8.078  -4.856  1.00  0.00     0.004 C 
ENDBRANCH   9  10
ENDBRANCH   8   9
ENDBRANCH   7   8
ENDBRANCH   1   7
TORSDOF 7
ENDMDL
MODEL 6
REMARK VINA RESULT:    -4.705      2.733      4.018
REMARK INTER + INTRA:          -7.282
REMARK INTER:                  -6.787
REMARK INTRA:                  -0.495
REMARK UNBOUND:                -0.652
REMARK SMILES CCCCCCCCC(=O)[O-]
REMARK SMILES IDX 6 1 7 2 8 3 9 4 10 5 11 6 5 7 4 8 3 9 2 10 1 11
REMARK H PARENT
REMARK Flexibility Score: inf
ROOT
ATOM      1  C   UNL     1     -19.370 -10.318  -0.998  1.00  0.00     0.000 C 
ENDROOT
BRANCH   1   2
ATOM      2  C   UNL     1     -18.218  -9.305  -1.107  1.00  0.00     0.006 C 
BRANCH   2   3
ATOM      3  C   UNL     1     -17.271  -9.626  -2.270  1.00  0.00     0.053 C 
BRANCH   3   4
ATOM      4  C   UNL     1     -16.650  -8.386  -2.838  1.00  0.00     0.041 C 
ATOM      5  O   UNL     1     -16.188  -7.501  -2.071  1.00  0.00    -0.550 OA
ATOM      6  O   UNL     1     -16.614  -8.193  -4.214  1.00  0.00    -0.550 OA
ENDBRANCH   3   4
ENDBRANCH   2   3
ENDBRANCH   1   2
BRANCH   1   7
ATOM      7  C   UNL     1     -19.003 -11.552  -0.156  1.00  0.00     0.000 C 
BRANCH   7   8
ATOM      8  C   UNL     1     -18.830 -12.860  -0.954  1.00  0.00    -0.000 C 
BRANCH   8   9
ATOM      9  C   UNL     1     -17.438 -13.509  -0.852  1.00  0.00    -0.000 C 
BRANCH   9  10
ATOM     10  C   UNL     1     -16.560 -12.865   0.231  1.00  0.00    -0.003 C 
ATOM     11  C   UNL     1     -15.603 -13.885   0.840  1.00  0.00     0.004 C 
ENDBRANCH   9  10
ENDBRANCH   8   9
ENDBRANCH   7   8
ENDBRANCH   1   7
TORSDOF 7
ENDMDL
MODEL 7
REMARK VINA RESULT:    -4.697      3.035      4.352
REMARK INTER + INTRA:          -7.270
REMARK INTER:                  -6.631
REMARK INTRA:                  -0.639
REMARK UNBOUND:                -0.652
REMARK SMILES CCCCCCCCC(=O)[O-]
REMARK SMILES IDX 6 1 7 2 8 3 9 4 10 5 11 6 5 7 4 8 3 9 2 10 1 11
REMARK H PARENT
REMARK Flexibility Score: inf
ROOT
ATOM      1  C   UNL     1     -17.014 -10.088  -2.195  1.00  0.00     0.000 C 
ENDROOT
BRANCH   1   2
ATOM      2  C   UNL     1     -18.397 -10.405  -1.601  1.00  0.00     0.006 C 
BRANCH   2   3
ATOM      3  C   UNL     1     -18.300 -11.248  -0.323  1.00  0.00     0.053 C 
BRANCH   3   4
ATOM      4  C   UNL     1     -18.215 -12.712  -0.630  1.00  0.00     0.041 C 
ATOM      5  O   UNL     1     -19.077 -13.255  -1.370  1.00  0.00    -0.550 OA
ATOM      6  O   UNL     1     -17.204 -13.484  -0.070  1.00  0.00    -0.550 OA
ENDBRANCH   3   4
ENDBRANCH   2   3
ENDBRANCH   1   2
BRANCH   1   7
ATOM      7  C   UNL     1     -16.889  -8.632  -2.676  1.00  0.00     0.000 C 
BRANCH   7   8
ATOM      8  C   UNL     1     -16.108  -7.697  -1.732  1.00  0.00    -0.000 C 
BRANCH   8   9
ATOM      9  C   UNL     1     -15.795  -8.284  -0.343  1.00  0.00    -0.000 C 
BRANCH   9  10
ATOM     10  C   UNL     1     -16.398  -7.458   0.801  1.00  0.00    -0.003 C 
ATOM     11  C   UNL     1     -17.760  -8.007   1.217  1.00  0.00     0.004 C 
ENDBRANCH   9  10
ENDBRANCH   8   9
ENDBRANCH   7   8
ENDBRANCH   1   7
TORSDOF 7
ENDMDL
MODEL 8
REMARK VINA RESULT:    -4.689      3.058      3.969
REMARK INTER + INTRA:          -7.260
REMARK INTER:                  -6.902
REMARK INTRA:                  -0.358
REMARK UNBOUND:                -0.652
REMARK SMILES CCCCCCCCC(=O)[O-]
REMARK SMILES IDX 6 1 7 2 8 3 9 4 10 5 11 6 5 7 4 8 3 9 2 10 1 11
REMARK H PARENT
REMARK Flexibility Score: inf
ROOT
ATOM      1  C   UNL     1     -18.691 -10.293  -1.247  1.00  0.00     0.000 C 
ENDROOT
BRANCH   1   2
ATOM      2  C   UNL     1     -17.476 -10.248  -2.189  1.00  0.00     0.006 C 
BRANCH   2   3
ATOM      3  C   UNL     1     -17.042  -8.812  -2.508  1.00  0.00     0.053 C 
BRANCH   3   4
ATOM      4  C   UNL     1     -16.324  -8.728  -3.821  1.00  0.00     0.041 C 
ATOM      5  O   UNL     1     -16.791  -8.023  -4.754  1.00  0.00    -0.550 OA
ATOM      6  O   UNL     1     -15.159  -9.457  -4.026  1.00  0.00    -0.550 OA
ENDBRANCH   3   4
ENDBRANCH   2   3
ENDBRANCH   1   2
BRANCH   1   7
ATOM      7  C   UNL     1     -18.733 -11.566  -0.385  1.00  0.00     0.000 C 
BRANCH   7   8
ATOM      8  C   UNL     1     -18.428 -12.876  -1.140  1.00  0.00    -0.000 C 
BRANCH   8   9
ATOM      9  C   UNL     1     -17.181 -13.636  -0.650  1.00  0.00    -0.000 C 
BRANCH   9  10
ATOM     10  C   UNL     1     -16.694 -14.689  -1.655  1.00  0.00    -0.003 C 
ATOM     11  C   UNL     1     -17.396 -14.530  -3.001  1.00  0.00     0.004 C 
ENDBRANCH   9  10
ENDBRANCH   8   9
ENDBRANCH   7   8
ENDBRANCH   1   7
TORSDOF 7
ENDMDL
MODEL 9
REMARK VINA RESULT:    -4.680      4.438      5.774
REMARK INTER + INTRA:          -7.247
REMARK INTER:                  -6.464
REMARK INTRA:                  -0.783
REMARK UNBOUND:                -0.652
REMARK SMILES CCCCCCCCC(=O)[O-]
REMARK SMILES IDX 6 1 7 2 8 3 9 4 10 5 11 6 5 7 4 8 3 9 2 10 1 11
REMARK H PARENT
REMARK Flexibility Score: inf
ROOT
ATOM      1  C   UNL     1     -17.830 -13.168  -2.426  1.00  0.00     0.000 C 
ENDROOT
BRANCH   1   2
ATOM      2  C   UNL     1     -18.999 -13.065  -1.431  1.00  0.00     0.006 C 
BRANCH   2   3
ATOM      3  C   UNL     1     -18.677 -12.136  -0.254  1.00  0.00     0.053 C 
BRANCH   3   4
ATOM      4  C   UNL     1     -18.162 -10.808  -0.719  1.00  0.00     0.041 C 
ATOM      5  O   UNL     1     -16.975 -10.467  -0.473  1.00  0.00    -0.550 OA
ATOM      6  O   UNL     1     -19.005  -9.932  -1.391  1.00  0.00    -0.550 OA
ENDBRANCH   3   4
ENDBRANCH   2   3
ENDBRANCH   1   2
BRANCH   1   7
ATOM      7  C   UNL     1     -17.190 -14.567  -2.454  1.00  0.00     0.000 C 
BRANCH   7   8
ATOM      8  C   UNL     1     -16.012 -14.765  -1.479  1.00  0.00    -0.000 C 
BRANCH   8   9
ATOM      9  C   UNL     1     -15.201 -13.494  -1.167  1.00  0.00    -0.000 C 
BRANCH   9  10
ATOM     10  C   UNL     1     -14.620 -13.492   0.254  1.00  0.00    -0.003 C 
ATOM     11  C   UNL     1     -15.711 -13.731   1.294  1.00  0.00     0.004 C 
ENDBRANCH   9  10
ENDBRANCH   8   9
ENDBRANCH   7   8
ENDBRANCH   1   7
TORSDOF 7
ENDMDL
