MODEL 1
REMARK VINA RESULT:    -5.815      0.000      0.000
REMARK INTER + INTRA:          -7.777
REMARK INTER:                  -7.175
REMARK INTRA:                  -0.602
REMARK UNBOUND:                -0.602
REMARK SMILES COc1ccc(-c2cc3cc(O)c(OC)cc3o2)c(O)c1
REMARK SMILES IDX 7 1 8 2 9 3 10 4 11 5 13 6 16 7 17 8 18 9 6 10 3 11 21 12
REMARK SMILES IDX 4 13 19 14 5 15 2 16 1 17 20 18 12 20 14 22 15 23
REMARK H PARENT 20 19 12 21
REMARK Flexibility Score: inf
ROOT
ATOM      1  C   UNL     1      90.824   9.601  20.807  1.00  0.00     0.139 A 
ATOM      2  C   UNL     1      91.222   9.585  22.145  1.00  0.00     0.060 A 
ATOM      3  C   UNL     1      92.495   9.065  22.116  1.00  0.00     0.025 A 
ATOM      4  C   UNL     1      93.395   8.806  23.143  1.00  0.00     0.062 A 
ATOM      5  C   UNL     1      94.648   8.260  22.802  1.00  0.00     0.158 A 
ATOM      6  C   UNL     1      94.970   7.987  21.444  1.00  0.00     0.164 A 
ATOM      7  C   UNL     1      94.019   8.267  20.429  1.00  0.00     0.098 A 
ATOM      8  C   UNL     1      92.793   8.805  20.809  1.00  0.00     0.138 A 
ATOM      9  O   UNL     1      91.788   9.133  20.035  1.00  0.00    -0.456 OA
ENDROOT
BRANCH   1  10
ATOM     10  C   UNL     1      89.524  10.101  20.301  1.00  0.00     0.059 A 
ATOM     11  C   UNL     1      87.044  11.167  19.469  1.00  0.00     0.122 A 
ATOM     12  C   UNL     1      88.150  11.174  18.599  1.00  0.00     0.093 A 
ATOM     13  C   UNL     1      87.185  10.614  20.743  1.00  0.00     0.047 A 
ATOM     14  C   UNL     1      89.378  10.632  18.996  1.00  0.00     0.130 A 
ATOM     15  C   UNL     1      88.409  10.087  21.157  1.00  0.00     0.020 A 
BRANCH  11  16
ATOM     16  O   UNL     1      85.796  11.694  19.106  1.00  0.00    -0.497 OA
ATOM     17  C   UNL     1      85.613  12.914  18.395  1.00  0.00     0.278 C 
ENDBRANCH  11  16
BRANCH  14  18
ATOM     18  O   UNL     1      90.412  10.611  18.058  1.00  0.00    -0.507 OA
ATOM     19  H   UNL     1      90.964  11.424  17.817  1.00  0.00     0.293 HD
ENDBRANCH  14  18
ENDBRANCH   1  10
BRANCH   5  20
ATOM     20  O   UNL     1      95.562   7.996  23.821  1.00  0.00    -0.504 OA
ATOM     21  H   UNL     1      95.913   7.063  24.002  1.00  0.00     0.293 HD
ENDBRANCH   5  20
BRANCH   6  22
ATOM     22  O   UNL     1      96.228   7.443  21.144  1.00  0.00    -0.493 OA
ATOM     23  C   UNL     1      97.113   7.957  20.153  1.00  0.00     0.278 C 
ENDBRANCH   6  22
TORSDOF 5
ENDMDL
MODEL 2
REMARK VINA RESULT:    -5.815      5.172      8.390
REMARK INTER + INTRA:          -7.777
REMARK INTER:                  -7.186
REMARK INTRA:                  -0.591
REMARK UNBOUND:                -0.602
REMARK SMILES COc1ccc(-c2cc3cc(O)c(OC)cc3o2)c(O)c1
REMARK SMILES IDX 7 1 8 2 9 3 10 4 11 5 13 6 16 7 17 8 18 9 6 10 3 11 21 12
REMARK SMILES IDX 4 13 19 14 5 15 2 16 1 17 20 18 12 20 14 22 15 23
REMARK H PARENT 20 19 12 21
REMARK Flexibility Score: inf
ROOT
ATOM      1  C   UNL     1      89.236  13.191  17.775  1.00  0.00     0.139 A 
ATOM      2  C   UNL     1      88.013  13.852  17.653  1.00  0.00     0.060 A 
ATOM      3  C   UNL     1      87.108  13.011  18.256  1.00  0.00     0.025 A 
ATOM      4  C   UNL     1      85.735  13.131  18.437  1.00  0.00     0.062 A 
ATOM      5  C   UNL     1      85.062  12.088  19.105  1.00  0.00     0.158 A 
ATOM      6  C   UNL     1      85.778  10.952  19.573  1.00  0.00     0.164 A 
ATOM      7  C   UNL     1      87.179  10.872  19.364  1.00  0.00     0.098 A 
ATOM      8  C   UNL     1      87.804  11.924  18.701  1.00  0.00     0.138 A 
ATOM      9  O   UNL     1      89.076  12.044  18.411  1.00  0.00    -0.456 OA
ENDROOT
BRANCH   1  10
ATOM     10  C   UNL     1      90.543  13.701  17.299  1.00  0.00     0.059 A 
ATOM     11  C   UNL     1      92.953  14.823  16.345  1.00  0.00     0.122 A 
ATOM     12  C   UNL     1      92.845  14.402  17.682  1.00  0.00     0.093 A 
ATOM     13  C   UNL     1      91.860  14.665  15.492  1.00  0.00     0.047 A 
ATOM     14  C   UNL     1      91.660  13.829  18.161  1.00  0.00     0.130 A 
ATOM     15  C   UNL     1      90.667  14.112  15.961  1.00  0.00     0.020 A 
BRANCH  11  16
ATOM     16  O   UNL     1      94.125  15.394  15.827  1.00  0.00    -0.497 OA
ATOM     17  C   UNL     1      95.343  14.685  15.620  1.00  0.00     0.278 C 
ENDBRANCH  11  16
BRANCH  14  18
ATOM     18  O   UNL     1      91.645  13.373  19.480  1.00  0.00    -0.507 OA
ATOM     19  H   UNL     1      92.188  13.794  20.223  1.00  0.00     0.293 HD
ENDBRANCH  14  18
ENDBRANCH   1  10
BRANCH   5  20
ATOM     20  O   UNL     1      83.685  12.195  19.295  1.00  0.00    -0.504 OA
ATOM     21  H   UNL     1      83.287  12.687  20.087  1.00  0.00     0.293 HD
ENDBRANCH   5  20
BRANCH   6  22
ATOM     22  O   UNL     1      85.073   9.934  20.233  1.00  0.00    -0.493 OA
ATOM     23  C   UNL     1      85.053   9.752  21.645  1.00  0.00     0.278 C 
ENDBRANCH   6  22
TORSDOF 5
ENDMDL
MODEL 3
REMARK VINA RESULT:    -5.784      4.332      7.710
REMARK INTER + INTRA:          -7.739
REMARK INTER:                  -7.158
REMARK INTRA:                  -0.582
REMARK UNBOUND:                -0.602
REMARK SMILES COc1ccc(-c2cc3cc(O)c(OC)cc3o2)c(O)c1
REMARK SMILES IDX 7 1 8 2 9 3 10 4 11 5 13 6 16 7 17 8 18 9 6 10 3 11 21 12
REMARK SMILES IDX 4 13 19 14 5 15 2 16 1 17 20 18 12 20 14 22 15 23
REMARK H PARENT 20 19 12 21
REMARK Flexibility Score: inf
ROOT
ATOM      1  C   UNL     1      93.298   9.221  23.929  1.00  0.00     0.139 A 
ATOM      2  C   UNL     1      93.226   8.724  25.231  1.00  0.00     0.060 A 
ATOM      3  C   UNL     1      92.214   9.447  25.818  1.00  0.00     0.025 A 
ATOM      4  C   UNL     1      91.691   9.399  27.105  1.00  0.00     0.062 A 
ATOM      5  C   UNL     1      90.637  10.279  27.423  1.00  0.00     0.158 A 
ATOM      6  C   UNL     1      90.134  11.183  26.448  1.00  0.00     0.164 A 
ATOM      7  C   UNL     1      90.700  11.197  25.147  1.00  0.00     0.098 A 
ATOM      8  C   UNL     1      91.739  10.312  24.875  1.00  0.00     0.138 A 
ATOM      9  O   UNL     1      92.392  10.166  23.748  1.00  0.00    -0.456 OA
ENDROOT
BRANCH   1  10
ATOM     10  C   UNL     1      94.225   8.748  22.875  1.00  0.00     0.059 A 
ATOM     11  C   UNL     1      96.028   7.705  20.966  1.00  0.00     0.122 A 
ATOM     12  C   UNL     1      94.689   7.957  20.617  1.00  0.00     0.093 A 
ATOM     13  C   UNL     1      96.457   7.991  22.264  1.00  0.00     0.047 A 
ATOM     14  C   UNL     1      93.792   8.491  21.552  1.00  0.00     0.130 A 
ATOM     15  C   UNL     1      95.568   8.505  23.209  1.00  0.00     0.020 A 
BRANCH  11  16
ATOM     16  O   UNL     1      96.957   7.180  20.058  1.00  0.00    -0.497 OA
ATOM     17  C   UNL     1      97.749   7.964  19.172  1.00  0.00     0.278 C 
ENDBRANCH  11  16
BRANCH  14  18
ATOM     18  O   UNL     1      92.496   8.778  21.117  1.00  0.00    -0.507 OA
ATOM     19  H   UNL     1      91.673   8.644  21.689  1.00  0.00     0.293 HD
ENDBRANCH  14  18
ENDBRANCH   1  10
BRANCH   5  20
ATOM     20  O   UNL     1      90.102  10.242  28.710  1.00  0.00    -0.504 OA
ATOM     21  H   UNL     1      90.115  11.049  29.322  1.00  0.00     0.293 HD
ENDBRANCH   5  20
BRANCH   6  22
ATOM     22  O   UNL     1      89.084  12.045  26.803  1.00  0.00    -0.493 OA
ATOM     23  C   UNL     1      89.259  13.318  27.418  1.00  0.00     0.278 C 
ENDBRANCH   6  22
TORSDOF 5
ENDMDL
MODEL 4
REMARK VINA RESULT:    -5.779      4.526      6.964
REMARK INTER + INTRA:          -7.733
REMARK INTER:                  -7.145
REMARK INTRA:                  -0.589
REMARK UNBOUND:                -0.602
REMARK SMILES COc1ccc(-c2cc3cc(O)c(OC)cc3o2)c(O)c1
REMARK SMILES IDX 7 1 8 2 9 3 10 4 11 5 13 6 16 7 17 8 18 9 6 10 3 11 21 12
REMARK SMILES IDX 4 13 19 14 5 15 2 16 1 17 20 18 12 20 14 22 15 23
REMARK H PARENT 20 19 12 21
REMARK Flexibility Score: inf
ROOT
ATOM      1  C   UNL     1      91.249  13.070  21.050  1.00  0.00     0.139 A 
ATOM      2  C   UNL     1      90.264  13.264  20.080  1.00  0.00     0.060 A 
ATOM      3  C   UNL     1      90.959  13.653  18.959  1.00  0.00     0.025 A 
ATOM      4  C   UNL     1      90.516  13.989  17.685  1.00  0.00     0.062 A 
ATOM      5  C   UNL     1      91.480  14.353  16.724  1.00  0.00     0.158 A 
ATOM      6  C   UNL     1      92.861  14.374  17.062  1.00  0.00     0.164 A 
ATOM      7  C   UNL     1      93.267  14.023  18.375  1.00  0.00     0.098 A 
ATOM      8  C   UNL     1      92.283  13.670  19.293  1.00  0.00     0.138 A 
ATOM      9  O   UNL     1      92.445  13.317  20.544  1.00  0.00    -0.456 OA
ENDROOT
BRANCH   1  10
ATOM     10  C   UNL     1      91.012  12.619  22.441  1.00  0.00     0.059 A 
ATOM     11  C   UNL     1      90.443  11.645  25.030  1.00  0.00     0.122 A 
ATOM     12  C   UNL     1      91.753  11.588  24.521  1.00  0.00     0.093 A 
ATOM     13  C   UNL     1      89.432  12.203  24.246  1.00  0.00     0.047 A 
ATOM     14  C   UNL     1      92.048  12.084  23.245  1.00  0.00     0.130 A 
ATOM     15  C   UNL     1      89.710  12.684  22.965  1.00  0.00     0.020 A 
BRANCH  11  16
ATOM     16  O   UNL     1      90.109  11.167  26.305  1.00  0.00    -0.497 OA
ATOM     17  C   UNL     1      90.836  10.160  27.003  1.00  0.00     0.278 C 
ENDBRANCH  11  16
BRANCH  14  18
ATOM     18  O   UNL     1      93.381  12.057  22.830  1.00  0.00    -0.507 OA
ATOM     19  H   UNL     1      94.070  11.418  23.205  1.00  0.00     0.293 HD
ENDBRANCH  14  18
ENDBRANCH   1  10
BRANCH   5  20
ATOM     20  O   UNL     1      91.050  14.692  15.442  1.00  0.00    -0.504 OA
ATOM     21  H   UNL     1      90.844  13.991  14.740  1.00  0.00     0.293 HD
ENDBRANCH   5  20
BRANCH   6  22
ATOM     22  O   UNL     1      93.792  14.743  16.077  1.00  0.00    -0.493 OA
ATOM     23  C   UNL     1      95.174  14.402  16.107  1.00  0.00     0.278 C 
ENDBRANCH   6  22
TORSDOF 5
ENDMDL
MODEL 5
REMARK VINA RESULT:    -5.599      4.036      7.476
REMARK INTER + INTRA:          -7.510
REMARK INTER:                  -6.919
REMARK INTRA:                  -0.591
REMARK UNBOUND:                -0.602
REMARK SMILES COc1ccc(-c2cc3cc(O)c(OC)cc3o2)c(O)c1
REMARK SMILES IDX 7 1 8 2 9 3 10 4 11 5 13 6 16 7 17 8 18 9 6 10 3 11 21 12
REMARK SMILES IDX 4 13 19 14 5 15 2 16 1 17 20 18 12 20 14 22 15 23
REMARK H PARENT 20 19 12 21
REMARK Flexibility Score: inf
ROOT
ATOM      1  C   UNL     1      91.483  12.330  22.506  1.00  0.00     0.139 A 
ATOM      2  C   UNL     1      90.233  12.841  22.149  1.00  0.00     0.060 A 
ATOM      3  C   UNL     1      90.447  13.451  20.936  1.00  0.00     0.025 A 
ATOM      4  C   UNL     1      89.576  14.136  20.097  1.00  0.00     0.062 A 
ATOM      5  C   UNL     1      90.091  14.662  18.896  1.00  0.00     0.158 A 
ATOM      6  C   UNL     1      91.464  14.491  18.565  1.00  0.00     0.164 A 
ATOM      7  C   UNL     1      92.316  13.785  19.453  1.00  0.00     0.098 A 
ATOM      8  C   UNL     1      91.766  13.282  20.628  1.00  0.00     0.138 A 
ATOM      9  O   UNL     1      92.375  12.607  21.572  1.00  0.00    -0.456 OA
ENDROOT
BRANCH   1  10
ATOM     10  C   UNL     1      91.779  11.555  23.733  1.00  0.00     0.059 A 
ATOM     11  C   UNL     1      92.227   9.958  26.020  1.00  0.00     0.122 A 
ATOM     12  C   UNL     1      93.289  10.278  25.156  1.00  0.00     0.093 A 
ATOM     13  C   UNL     1      90.952  10.453  25.741  1.00  0.00     0.047 A 
ATOM     14  C   UNL     1      93.081  11.083  24.029  1.00  0.00     0.130 A 
ATOM     15  C   UNL     1      90.727  11.242  24.611  1.00  0.00     0.020 A 
BRANCH  11  16
ATOM     16  O   UNL     1      92.397   9.162  27.161  1.00  0.00    -0.497 OA
ATOM     17  C   UNL     1      91.665   9.323  28.372  1.00  0.00     0.278 C 
ENDBRANCH  11  16
BRANCH  14  18
ATOM     18  O   UNL     1      94.193  11.415  23.253  1.00  0.00    -0.507 OA
ATOM     19  H   UNL     1      95.137  11.447  23.615  1.00  0.00     0.293 HD
ENDBRANCH  14  18
ENDBRANCH   1  10
BRANCH   5  20
ATOM     20  O   UNL     1      89.229  15.351  18.043  1.00  0.00    -0.504 OA
ATOM     21  H   UNL     1      89.514  16.190  17.553  1.00  0.00     0.293 HD
ENDBRANCH   5  20
BRANCH   6  22
ATOM     22  O   UNL     1      91.940  15.030  17.359  1.00  0.00    -0.493 OA
ATOM     23  C   UNL     1      91.985  14.324  16.123  1.00  0.00     0.278 C 
ENDBRANCH   6  22
TORSDOF 5
ENDMDL
MODEL 6
REMARK VINA RESULT:    -5.521      3.488      4.629
REMARK INTER + INTRA:          -7.414
REMARK INTER:                  -6.817
REMARK INTRA:                  -0.597
REMARK UNBOUND:                -0.602
REMARK SMILES COc1ccc(-c2cc3cc(O)c(OC)cc3o2)c(O)c1
REMARK SMILES IDX 7 1 8 2 9 3 10 4 11 5 13 6 16 7 17 8 18 9 6 10 3 11 21 12
REMARK SMILES IDX 4 13 19 14 5 15 2 16 1 17 20 18 12 20 14 22 15 23
REMARK H PARENT 20 19 12 21
REMARK Flexibility Score: inf
ROOT
ATOM      1  C   UNL     1      91.769  11.864  20.985  1.00  0.00     0.139 A 
ATOM      2  C   UNL     1      92.318  12.288  22.196  1.00  0.00     0.060 A 
ATOM      3  C   UNL     1      92.220  11.190  23.019  1.00  0.00     0.025 A 
ATOM      4  C   UNL     1      92.597  11.011  24.344  1.00  0.00     0.062 A 
ATOM      5  C   UNL     1      92.368   9.751  24.932  1.00  0.00     0.158 A 
ATOM      6  C   UNL     1      91.767   8.704  24.181  1.00  0.00     0.164 A 
ATOM      7  C   UNL     1      91.398   8.933  22.831  1.00  0.00     0.098 A 
ATOM      8  C   UNL     1      91.642  10.191  22.289  1.00  0.00     0.138 A 
ATOM      9  O   UNL     1      91.379  10.604  21.073  1.00  0.00    -0.456 OA
ENDROOT
BRANCH   1  10
ATOM     10  C   UNL     1      91.661  12.681  19.754  1.00  0.00     0.059 A 
ATOM     11  C   UNL     1      91.615  14.182  17.361  1.00  0.00     0.122 A 
ATOM     12  C   UNL     1      90.613  13.231  17.624  1.00  0.00     0.093 A 
ATOM     13  C   UNL     1      92.624  14.384  18.304  1.00  0.00     0.047 A 
ATOM     14  C   UNL     1      90.617  12.495  18.816  1.00  0.00     0.130 A 
ATOM     15  C   UNL     1      92.650  13.643  19.487  1.00  0.00     0.020 A 
BRANCH  11  16
ATOM     16  O   UNL     1      91.641  14.944  16.184  1.00  0.00    -0.497 OA
ATOM     17  C   UNL     1      92.601  14.787  15.145  1.00  0.00     0.278 C 
ENDBRANCH  11  16
BRANCH  14  18
ATOM     18  O   UNL     1      89.554  11.618  19.041  1.00  0.00    -0.507 OA
ATOM     19  H   UNL     1      89.548  10.925  19.777  1.00  0.00     0.293 HD
ENDBRANCH  14  18
ENDBRANCH   1  10
BRANCH   5  20
ATOM     20  O   UNL     1      92.742   9.557  26.261  1.00  0.00    -0.504 OA
ATOM     21  H   UNL     1      92.151   9.839  27.034  1.00  0.00     0.293 HD
ENDBRANCH   5  20
BRANCH   6  22
ATOM     22  O   UNL     1      91.554   7.463  24.803  1.00  0.00    -0.493 OA
ATOM     23  C   UNL     1      91.070   6.301  24.136  1.00  0.00     0.278 C 
ENDBRANCH   6  22
TORSDOF 5
ENDMDL
MODEL 7
REMARK VINA RESULT:    -5.482      4.448      5.966
REMARK INTER + INTRA:          -7.366
REMARK INTER:                  -6.967
REMARK INTRA:                  -0.399
REMARK UNBOUND:                -0.602
REMARK SMILES COc1ccc(-c2cc3cc(O)c(OC)cc3o2)c(O)c1
REMARK SMILES IDX 7 1 8 2 9 3 10 4 11 5 13 6 16 7 17 8 18 9 6 10 3 11 21 12
REMARK SMILES IDX 4 13 19 14 5 15 2 16 1 17 20 18 12 20 14 22 15 23
REMARK H PARENT 20 19 12 21
REMARK Flexibility Score: inf
ROOT
ATOM      1  C   UNL     1      90.899   6.896  22.654  1.00  0.00     0.139 A 
ATOM      2  C   UNL     1      91.976   7.105  23.517  1.00  0.00     0.060 A 
ATOM      3  C   UNL     1      92.230   8.453  23.427  1.00  0.00     0.025 A 
ATOM      4  C   UNL     1      93.188   9.242  24.053  1.00  0.00     0.062 A 
ATOM      5  C   UNL     1      93.206  10.620  23.759  1.00  0.00     0.158 A 
ATOM      6  C   UNL     1      92.266  11.174  22.846  1.00  0.00     0.164 A 
ATOM      7  C   UNL     1      91.305  10.330  22.231  1.00  0.00     0.098 A 
ATOM      8  C   UNL     1      91.323   8.975  22.550  1.00  0.00     0.138 A 
ATOM      9  O   UNL     1      90.530   8.036  22.096  1.00  0.00    -0.456 OA
ENDROOT
BRANCH   1  10
ATOM     10  C   UNL     1      90.227   5.598  22.412  1.00  0.00     0.059 A 
ATOM     11  C   UNL     1      88.802   3.212  21.908  1.00  0.00     0.122 A 
ATOM     12  C   UNL     1      89.982   3.499  21.199  1.00  0.00     0.093 A 
ATOM     13  C   UNL     1      88.353   4.114  22.874  1.00  0.00     0.047 A 
ATOM     14  C   UNL     1      90.706   4.671  21.453  1.00  0.00     0.130 A 
ATOM     15  C   UNL     1      89.055   5.294  23.125  1.00  0.00     0.020 A 
BRANCH  11  16
ATOM     16  O   UNL     1      88.055   2.046  21.687  1.00  0.00    -0.497 OA
ATOM     17  C   UNL     1      86.682   2.029  21.311  1.00  0.00     0.278 C 
ENDBRANCH  11  16
BRANCH  14  18
ATOM     18  O   UNL     1      91.903   4.859  20.760  1.00  0.00    -0.507 OA
ATOM     19  H   UNL     1      92.718   4.275  20.885  1.00  0.00     0.293 HD
ENDBRANCH  14  18
ENDBRANCH   1  10
BRANCH   5  20
ATOM     20  O   UNL     1      94.161  11.423  24.379  1.00  0.00    -0.504 OA
ATOM     21  H   UNL     1      94.881  11.038  24.980  1.00  0.00     0.293 HD
ENDBRANCH   5  20
BRANCH   6  22
ATOM     22  O   UNL     1      92.315  12.551  22.579  1.00  0.00    -0.493 OA
ATOM     23  C   UNL     1      92.267  13.120  21.273  1.00  0.00     0.278 C 
ENDBRANCH   6  22
TORSDOF 5
ENDMDL
MODEL 8
REMARK VINA RESULT:    -5.458      4.577      7.746
REMARK INTER + INTRA:          -7.337
REMARK INTER:                  -6.952
REMARK INTRA:                  -0.385
REMARK UNBOUND:                -0.602
REMARK SMILES COc1ccc(-c2cc3cc(O)c(OC)cc3o2)c(O)c1
REMARK SMILES IDX 7 1 8 2 9 3 10 4 11 5 13 6 16 7 17 8 18 9 6 10 3 11 21 12
REMARK SMILES IDX 4 13 19 14 5 15 2 16 1 17 20 18 12 20 14 22 15 23
REMARK H PARENT 20 19 12 21
REMARK Flexibility Score: inf
ROOT
ATOM      1  C   UNL     1      93.185   8.869  23.967  1.00  0.00     0.139 A 
ATOM      2  C   UNL     1      92.727  10.159  24.241  1.00  0.00     0.060 A 
ATOM      3  C   UNL     1      91.842   9.994  25.280  1.00  0.00     0.025 A 
ATOM      4  C   UNL     1      91.071  10.920  25.973  1.00  0.00     0.062 A 
ATOM      5  C   UNL     1      90.242  10.447  27.010  1.00  0.00     0.158 A 
ATOM      6  C   UNL     1      90.204   9.061  27.326  1.00  0.00     0.164 A 
ATOM      7  C   UNL     1      91.009   8.153  26.591  1.00  0.00     0.098 A 
ATOM      8  C   UNL     1      91.813   8.662  25.576  1.00  0.00     0.138 A 
ATOM      9  O   UNL     1      92.622   7.999  24.787  1.00  0.00    -0.456 OA
ENDROOT
BRANCH   1  10
ATOM     10  C   UNL     1      94.185   8.510  22.935  1.00  0.00     0.059 A 
ATOM     11  C   UNL     1      96.129   7.682  21.060  1.00  0.00     0.122 A 
ATOM     12  C   UNL     1      94.794   7.880  20.661  1.00  0.00     0.093 A 
ATOM     13  C   UNL     1      96.482   7.915  22.390  1.00  0.00     0.047 A 
ATOM     14  C   UNL     1      93.827   8.307  21.579  1.00  0.00     0.130 A 
ATOM     15  C   UNL     1      95.523   8.323  23.319  1.00  0.00     0.020 A 
BRANCH  11  16
ATOM     16  O   UNL     1      97.127   7.263  20.169  1.00  0.00    -0.497 OA
ATOM     17  C   UNL     1      97.660   8.067  19.121  1.00  0.00     0.278 C 
ENDBRANCH  11  16
BRANCH  14  18
ATOM     18  O   UNL     1      92.538   8.546  21.100  1.00  0.00    -0.507 OA
ATOM     19  H   UNL     1      92.137   8.062  20.308  1.00  0.00     0.293 HD
ENDBRANCH  14  18
ENDBRANCH   1  10
BRANCH   5  20
ATOM     20  O   UNL     1      89.463  11.364  27.714  1.00  0.00    -0.504 OA
ATOM     21  H   UNL     1      88.452  11.379  27.643  1.00  0.00     0.293 HD
ENDBRANCH   5  20
BRANCH   6  22
ATOM     22  O   UNL     1      89.366   8.628  28.365  1.00  0.00    -0.493 OA
ATOM     23  C   UNL     1      89.451   7.351  28.991  1.00  0.00     0.278 C 
ENDBRANCH   6  22
TORSDOF 5
ENDMDL
MODEL 9
REMARK VINA RESULT:    -5.374      4.470      5.753
REMARK INTER + INTRA:          -7.232
REMARK INTER:                  -6.777
REMARK INTRA:                  -0.455
REMARK UNBOUND:                -0.602
REMARK SMILES COc1ccc(-c2cc3cc(O)c(OC)cc3o2)c(O)c1
REMARK SMILES IDX 7 1 8 2 9 3 10 4 11 5 13 6 16 7 17 8 18 9 6 10 3 11 21 12
REMARK SMILES IDX 4 13 19 14 5 15 2 16 1 17 20 18 12 20 14 22 15 23
REMARK H PARENT 20 19 12 21
REMARK Flexibility Score: inf
ROOT
ATOM      1  C   UNL     1      92.935   9.254  24.365  1.00  0.00     0.139 A 
ATOM      2  C   UNL     1      94.209   8.741  24.616  1.00  0.00     0.060 A 
ATOM      3  C   UNL     1      94.721   8.470  23.369  1.00  0.00     0.025 A 
ATOM      4  C   UNL     1      95.947   7.942  22.985  1.00  0.00     0.062 A 
ATOM      5  C   UNL     1      96.194   7.776  21.608  1.00  0.00     0.158 A 
ATOM      6  C   UNL     1      95.208   8.142  20.650  1.00  0.00     0.164 A 
ATOM      7  C   UNL     1      93.970   8.678  21.089  1.00  0.00     0.098 A 
ATOM      8  C   UNL     1      93.768   8.825  22.458  1.00  0.00     0.138 A 
ATOM      9  O   UNL     1      92.706   9.295  23.064  1.00  0.00    -0.456 OA
ENDROOT
BRANCH   1  10
ATOM     10  C   UNL     1      91.977   9.725  25.392  1.00  0.00     0.059 A 
ATOM     11  C   UNL     1      90.286  10.644  27.459  1.00  0.00     0.122 A 
ATOM     12  C   UNL     1      90.314  11.303  26.217  1.00  0.00     0.093 A 
ATOM     13  C   UNL     1      91.093   9.521  27.652  1.00  0.00     0.047 A 
ATOM     14  C   UNL     1      91.136  10.844  25.180  1.00  0.00     0.130 A 
ATOM     15  C   UNL     1      91.931   9.065  26.632  1.00  0.00     0.020 A 
BRANCH  11  16
ATOM     16  O   UNL     1      89.471  11.067  28.519  1.00  0.00    -0.497 OA
ATOM     17  C   UNL     1      89.653  10.683  29.878  1.00  0.00     0.278 C 
ENDBRANCH  11  16
BRANCH  14  18
ATOM     18  O   UNL     1      91.063  11.506  23.953  1.00  0.00    -0.507 OA
ATOM     19  H   UNL     1      90.746  12.461  23.851  1.00  0.00     0.293 HD
ENDBRANCH  14  18
ENDBRANCH   1  10
BRANCH   5  20
ATOM     20  O   UNL     1      97.420   7.247  21.207  1.00  0.00    -0.504 OA
ATOM     21  H   UNL     1      98.251   7.820  21.117  1.00  0.00     0.293 HD
ENDBRANCH   5  20
BRANCH   6  22
ATOM     22  O   UNL     1      95.490   7.961  19.287  1.00  0.00    -0.493 OA
ATOM     23  C   UNL     1      96.453   8.715  18.556  1.00  0.00     0.278 C 
ENDBRANCH   6  22
TORSDOF 5
ENDMDL
