MODEL 1
REMARK VINA RESULT:    -5.482      0.000      0.000
REMARK INTER + INTRA:          -6.074
REMARK INTER:                  -6.123
REMARK INTRA:                   0.048
REMARK UNBOUND:                 0.048
REMARK SMILES COc1cc2ccc(=O)oc2cc1OC
REMARK SMILES IDX 3 1 13 2 12 3 11 4 5 5 4 6 6 7 7 8 8 9 9 10 10 11 2 12 1 13
REMARK SMILES IDX 14 14 15 15
REMARK H PARENT
REMARK Flexibility Score: inf
ROOT
ATOM      1  C   UNL     1      74.538  40.873  -4.757  1.00  0.00     0.161 A 
ATOM      2  C   UNL     1      73.481  40.292  -4.036  1.00  0.00     0.164 A 
ATOM      3  C   UNL     1      72.883  41.004  -2.977  1.00  0.00     0.098 A 
ATOM      4  C   UNL     1      73.333  42.283  -2.641  1.00  0.00     0.142 A 
ATOM      5  C   UNL     1      74.394  42.865  -3.363  1.00  0.00     0.022 A 
ATOM      6  C   UNL     1      74.992  42.163  -4.417  1.00  0.00     0.062 A 
ATOM      7  C   UNL     1      74.822  44.147  -3.002  1.00  0.00     0.019 A 
ATOM      8  C   UNL     1      74.194  44.806  -1.946  1.00  0.00     0.094 A 
ATOM      9  C   UNL     1      73.149  44.166  -1.274  1.00  0.00     0.336 A 
ATOM     10  O   UNL     1      72.568  44.743  -0.318  1.00  0.00    -0.246 OA
ATOM     11  O   UNL     1      72.761  42.946  -1.638  1.00  0.00    -0.423 OA
ENDROOT
BRANCH   1  12
ATOM     12  O   UNL     1      75.111  40.136  -5.806  1.00  0.00    -0.493 OA
ATOM     13  C   UNL     1      74.474  39.875  -7.053  1.00  0.00     0.278 C 
ENDBRANCH   1  12
BRANCH   2  14
ATOM     14  O   UNL     1      73.055  39.006  -4.402  1.00  0.00    -0.493 OA
ATOM     15  C   UNL     1      71.744  38.689  -4.860  1.00  0.00     0.278 C 
ENDBRANCH   2  14
TORSDOF 2
ENDMDL
MODEL 2
REMARK VINA RESULT:    -5.131      1.279      5.046
REMARK INTER + INTRA:          -5.682
REMARK INTER:                  -5.786
REMARK INTRA:                   0.104
REMARK UNBOUND:                 0.048
REMARK SMILES COc1cc2ccc(=O)oc2cc1OC
REMARK SMILES IDX 3 1 13 2 12 3 11 4 5 5 4 6 6 7 7 8 8 9 9 10 10 11 2 12 1 13
REMARK SMILES IDX 14 14 15 15
REMARK H PARENT
REMARK Flexibility Score: inf
ROOT
ATOM      1  C   UNL     1      74.421  43.442  -2.582  1.00  0.00     0.161 A 
ATOM      2  C   UNL     1      73.388  42.725  -1.955  1.00  0.00     0.164 A 
ATOM      3  C   UNL     1      72.945  41.508  -2.509  1.00  0.00     0.098 A 
ATOM      4  C   UNL     1      73.527  41.009  -3.677  1.00  0.00     0.142 A 
ATOM      5  C   UNL     1      74.563  41.728  -4.307  1.00  0.00     0.022 A 
ATOM      6  C   UNL     1      75.007  42.938  -3.760  1.00  0.00     0.062 A 
ATOM      7  C   UNL     1      75.125  41.202  -5.475  1.00  0.00     0.019 A 
ATOM      8  C   UNL     1      74.649  39.993  -5.980  1.00  0.00     0.094 A 
ATOM      9  C   UNL     1      73.618  39.335  -5.302  1.00  0.00     0.336 A 
ATOM     10  O   UNL     1      73.173  38.243  -5.740  1.00  0.00    -0.246 OA
ATOM     11  O   UNL     1      73.101  39.858  -4.192  1.00  0.00    -0.423 OA
ENDROOT
BRANCH   1  12
ATOM     12  O   UNL     1      74.838  44.651  -2.003  1.00  0.00    -0.493 OA
ATOM     13  C   UNL     1      75.081  45.853  -2.727  1.00  0.00     0.278 C 
ENDBRANCH   1  12
BRANCH   2  14
ATOM     14  O   UNL     1      72.826  43.257  -0.784  1.00  0.00    -0.493 OA
ATOM     15  C   UNL     1      72.051  44.451  -0.730  1.00  0.00     0.278 C 
ENDBRANCH   2  14
TORSDOF 2
ENDMDL
MODEL 3
REMARK VINA RESULT:    -5.058     12.296     14.428
REMARK INTER + INTRA:          -5.601
REMARK INTER:                  -5.465
REMARK INTRA:                  -0.136
REMARK UNBOUND:                 0.048
REMARK SMILES COc1cc2ccc(=O)oc2cc1OC
REMARK SMILES IDX 3 1 13 2 12 3 11 4 5 5 4 6 6 7 7 8 8 9 9 10 10 11 2 12 1 13
REMARK SMILES IDX 14 14 15 15
REMARK H PARENT
REMARK Flexibility Score: inf
ROOT
ATOM      1  C   UNL     1      69.141  49.682   8.650  1.00  0.00     0.161 A 
ATOM      2  C   UNL     1      68.896  48.970   7.463  1.00  0.00     0.164 A 
ATOM      3  C   UNL     1      69.980  48.520   6.682  1.00  0.00     0.098 A 
ATOM      4  C   UNL     1      71.294  48.778   7.081  1.00  0.00     0.142 A 
ATOM      5  C   UNL     1      71.539  49.493   8.270  1.00  0.00     0.022 A 
ATOM      6  C   UNL     1      70.466  49.941   9.051  1.00  0.00     0.062 A 
ATOM      7  C   UNL     1      72.866  49.734   8.641  1.00  0.00     0.019 A 
ATOM      8  C   UNL     1      73.900  49.266   7.832  1.00  0.00     0.094 A 
ATOM      9  C   UNL     1      73.581  48.565   6.665  1.00  0.00     0.336 A 
ATOM     10  O   UNL     1      74.499  48.134   5.919  1.00  0.00    -0.246 OA
ATOM     11  O   UNL     1      72.310  48.349   6.335  1.00  0.00    -0.423 OA
ENDROOT
BRANCH   1  12
ATOM     12  O   UNL     1      68.038  50.115   9.404  1.00  0.00    -0.493 OA
ATOM     13  C   UNL     1      67.610  51.469   9.505  1.00  0.00     0.278 C 
ENDBRANCH   1  12
BRANCH   2  14
ATOM     14  O   UNL     1      67.564  48.730   7.094  1.00  0.00    -0.493 OA
ATOM     15  C   UNL     1      66.879  47.498   7.297  1.00  0.00     0.278 C 
ENDBRANCH   2  14
TORSDOF 2
ENDMDL
MODEL 4
REMARK VINA RESULT:    -4.963      1.349      5.624
REMARK INTER + INTRA:          -5.494
REMARK INTER:                  -5.482
REMARK INTRA:                  -0.012
REMARK UNBOUND:                 0.048
REMARK SMILES COc1cc2ccc(=O)oc2cc1OC
REMARK SMILES IDX 3 1 13 2 12 3 11 4 5 5 4 6 6 7 7 8 8 9 9 10 10 11 2 12 1 13
REMARK SMILES IDX 14 14 15 15
REMARK H PARENT
REMARK Flexibility Score: inf
ROOT
ATOM      1  C   UNL     1      73.278  42.960  -1.765  1.00  0.00     0.161 A 
ATOM      2  C   UNL     1      74.308  43.633  -2.444  1.00  0.00     0.164 A 
ATOM      3  C   UNL     1      74.875  43.060  -3.599  1.00  0.00     0.098 A 
ATOM      4  C   UNL     1      74.420  41.828  -4.074  1.00  0.00     0.142 A 
ATOM      5  C   UNL     1      73.388  41.152  -3.393  1.00  0.00     0.022 A 
ATOM      6  C   UNL     1      72.820  41.716  -2.245  1.00  0.00     0.062 A 
ATOM      7  C   UNL     1      72.955  39.919  -3.894  1.00  0.00     0.019 A 
ATOM      8  C   UNL     1      73.550  39.398  -5.041  1.00  0.00     0.094 A 
ATOM      9  C   UNL     1      74.570  40.125  -5.664  1.00  0.00     0.336 A 
ATOM     10  O   UNL     1      75.122  39.673  -6.700  1.00  0.00    -0.246 OA
ATOM     11  O   UNL     1      74.963  41.295  -5.166  1.00  0.00    -0.423 OA
ENDROOT
BRANCH   1  12
ATOM     12  O   UNL     1      72.735  43.560  -0.617  1.00  0.00    -0.493 OA
ATOM     13  C   UNL     1      71.814  44.646  -0.632  1.00  0.00     0.278 C 
ENDBRANCH   1  12
BRANCH   2  14
ATOM     14  O   UNL     1      74.740  44.869  -1.938  1.00  0.00    -0.493 OA
ATOM     15  C   UNL     1      74.979  46.027  -2.732  1.00  0.00     0.278 C 
ENDBRANCH   2  14
TORSDOF 2
ENDMDL
MODEL 5
REMARK VINA RESULT:    -4.802     13.012     14.010
REMARK INTER + INTRA:          -5.315
REMARK INTER:                  -5.152
REMARK INTRA:                  -0.163
REMARK UNBOUND:                 0.048
REMARK SMILES COc1cc2ccc(=O)oc2cc1OC
REMARK SMILES IDX 3 1 13 2 12 3 11 4 5 5 4 6 6 7 7 8 8 9 9 10 10 11 2 12 1 13
REMARK SMILES IDX 14 14 15 15
REMARK H PARENT
REMARK Flexibility Score: inf
ROOT
ATOM      1  C   UNL     1      68.543  48.630   7.651  1.00  0.00     0.161 A 
ATOM      2  C   UNL     1      68.999  47.301   7.594  1.00  0.00     0.164 A 
ATOM      3  C   UNL     1      70.382  47.035   7.609  1.00  0.00     0.098 A 
ATOM      4  C   UNL     1      71.303  48.083   7.680  1.00  0.00     0.142 A 
ATOM      5  C   UNL     1      70.847  49.415   7.737  1.00  0.00     0.022 A 
ATOM      6  C   UNL     1      69.473  49.686   7.723  1.00  0.00     0.062 A 
ATOM      7  C   UNL     1      71.795  50.442   7.808  1.00  0.00     0.019 A 
ATOM      8  C   UNL     1      73.151  50.122   7.819  1.00  0.00     0.094 A 
ATOM      9  C   UNL     1      73.530  48.778   7.759  1.00  0.00     0.336 A 
ATOM     10  O   UNL     1      74.750  48.467   7.768  1.00  0.00    -0.246 OA
ATOM     11  O   UNL     1      72.609  47.820   7.692  1.00  0.00    -0.423 OA
ENDROOT
BRANCH   1  12
ATOM     12  O   UNL     1      67.158  48.858   7.635  1.00  0.00    -0.493 OA
ATOM     13  C   UNL     1      66.395  49.278   8.763  1.00  0.00     0.278 C 
ENDBRANCH   1  12
BRANCH   2  14
ATOM     14  O   UNL     1      68.045  46.274   7.523  1.00  0.00    -0.493 OA
ATOM     15  C   UNL     1      67.622  45.486   8.631  1.00  0.00     0.278 C 
ENDBRANCH   2  14
TORSDOF 2
ENDMDL
MODEL 6
REMARK VINA RESULT:    -4.771     11.658     14.509
REMARK INTER + INTRA:          -5.280
REMARK INTER:                  -5.146
REMARK INTRA:                  -0.134
REMARK UNBOUND:                 0.048
REMARK SMILES COc1cc2ccc(=O)oc2cc1OC
REMARK SMILES IDX 3 1 13 2 12 3 11 4 5 5 4 6 6 7 7 8 8 9 9 10 10 11 2 12 1 13
REMARK SMILES IDX 14 14 15 15
REMARK H PARENT
REMARK Flexibility Score: inf
ROOT
ATOM      1  C   UNL     1      71.393  49.598   8.245  1.00  0.00     0.161 A 
ATOM      2  C   UNL     1      71.241  48.847   7.067  1.00  0.00     0.164 A 
ATOM      3  C   UNL     1      69.952  48.473   6.637  1.00  0.00     0.098 A 
ATOM      4  C   UNL     1      68.825  48.845   7.375  1.00  0.00     0.142 A 
ATOM      5  C   UNL     1      68.978  49.598   8.556  1.00  0.00     0.022 A 
ATOM      6  C   UNL     1      70.256  49.972   8.988  1.00  0.00     0.062 A 
ATOM      7  C   UNL     1      67.829  49.954   9.272  1.00  0.00     0.019 A 
ATOM      8  C   UNL     1      66.578  49.559   8.801  1.00  0.00     0.094 A 
ATOM      9  C   UNL     1      66.504  48.812   7.621  1.00  0.00     0.336 A 
ATOM     10  O   UNL     1      65.385  48.444   7.178  1.00  0.00    -0.246 OA
ATOM     11  O   UNL     1      67.612  48.486   6.960  1.00  0.00    -0.423 OA
ENDROOT
BRANCH   1  12
ATOM     12  O   UNL     1      72.692  49.953   8.644  1.00  0.00    -0.493 OA
ATOM     13  C   UNL     1      73.512  49.175   9.510  1.00  0.00     0.278 C 
ENDBRANCH   1  12
BRANCH   2  14
ATOM     14  O   UNL     1      72.396  48.491   6.353  1.00  0.00    -0.493 OA
ATOM     15  C   UNL     1      72.866  47.156   6.192  1.00  0.00     0.278 C 
ENDBRANCH   2  14
TORSDOF 2
ENDMDL
MODEL 7
REMARK VINA RESULT:    -4.421     11.422     14.533
REMARK INTER + INTRA:          -4.890
REMARK INTER:                  -4.792
REMARK INTRA:                  -0.097
REMARK UNBOUND:                 0.048
REMARK SMILES COc1cc2ccc(=O)oc2cc1OC
REMARK SMILES IDX 3 1 13 2 12 3 11 4 5 5 4 6 6 7 7 8 8 9 9 10 10 11 2 12 1 13
REMARK SMILES IDX 14 14 15 15
REMARK H PARENT
REMARK Flexibility Score: inf
ROOT
ATOM      1  C   UNL     1      71.266  48.526   7.319  1.00  0.00     0.161 A 
ATOM      2  C   UNL     1      71.298  49.289   8.500  1.00  0.00     0.164 A 
ATOM      3  C   UNL     1      70.091  49.680   9.112  1.00  0.00     0.098 A 
ATOM      4  C   UNL     1      68.864  49.314   8.553  1.00  0.00     0.142 A 
ATOM      5  C   UNL     1      68.832  48.551   7.369  1.00  0.00     0.022 A 
ATOM      6  C   UNL     1      70.028  48.159   6.757  1.00  0.00     0.062 A 
ATOM      7  C   UNL     1      67.587  48.201   6.835  1.00  0.00     0.019 A 
ATOM      8  C   UNL     1      66.423  48.614   7.482  1.00  0.00     0.094 A 
ATOM      9  C   UNL     1      66.532  49.371   8.653  1.00  0.00     0.336 A 
ATOM     10  O   UNL     1      65.494  49.754   9.252  1.00  0.00    -0.246 OA
ATOM     11  O   UNL     1      67.729  49.690   9.140  1.00  0.00    -0.423 OA
ENDROOT
BRANCH   1  12
ATOM     12  O   UNL     1      72.488  48.154   6.736  1.00  0.00    -0.493 OA
ATOM     13  C   UNL     1      72.644  47.735   5.384  1.00  0.00     0.278 C 
ENDBRANCH   1  12
BRANCH   2  14
ATOM     14  O   UNL     1      72.549  49.638   9.032  1.00  0.00    -0.493 OA
ATOM     15  C   UNL     1      73.241  48.889  10.026  1.00  0.00     0.278 C 
ENDBRANCH   2  14
TORSDOF 2
ENDMDL
MODEL 8
REMARK VINA RESULT:    -4.380     14.162     16.806
REMARK INTER + INTRA:          -4.844
REMARK INTER:                  -4.683
REMARK INTRA:                  -0.161
REMARK UNBOUND:                 0.048
REMARK SMILES COc1cc2ccc(=O)oc2cc1OC
REMARK SMILES IDX 3 1 13 2 12 3 11 4 5 5 4 6 6 7 7 8 8 9 9 10 10 11 2 12 1 13
REMARK SMILES IDX 14 14 15 15
REMARK H PARENT
REMARK Flexibility Score: inf
ROOT
ATOM      1  C   UNL     1      66.530  47.463   8.722  1.00  0.00     0.161 A 
ATOM      2  C   UNL     1      65.862  48.329   9.604  1.00  0.00     0.164 A 
ATOM      3  C   UNL     1      64.515  48.084   9.939  1.00  0.00     0.098 A 
ATOM      4  C   UNL     1      63.841  46.985   9.401  1.00  0.00     0.142 A 
ATOM      5  C   UNL     1      64.511  46.116   8.516  1.00  0.00     0.022 A 
ATOM      6  C   UNL     1      65.849  46.355   8.179  1.00  0.00     0.062 A 
ATOM      7  C   UNL     1      63.808  45.025   7.994  1.00  0.00     0.019 A 
ATOM      8  C   UNL     1      62.477  44.829   8.360  1.00  0.00     0.094 A 
ATOM      9  C   UNL     1      61.878  45.732   9.243  1.00  0.00     0.336 A 
ATOM     10  O   UNL     1      60.677  45.574   9.586  1.00  0.00    -0.246 OA
ATOM     11  O   UNL     1      62.569  46.762   9.725  1.00  0.00    -0.423 OA
ENDROOT
BRANCH   1  12
ATOM     12  O   UNL     1      67.871  47.737   8.409  1.00  0.00    -0.493 OA
ATOM     13  C   UNL     1      68.306  48.397   7.225  1.00  0.00     0.278 C 
ENDBRANCH   1  12
BRANCH   2  14
ATOM     14  O   UNL     1      66.570  49.423  10.125  1.00  0.00    -0.493 OA
ATOM     15  C   UNL     1      66.493  50.751   9.616  1.00  0.00     0.278 C 
ENDBRANCH   2  14
TORSDOF 2
ENDMDL
MODEL 9
REMARK VINA RESULT:    -4.356     14.033     14.644
REMARK INTER + INTRA:          -4.817
REMARK INTER:                  -4.716
REMARK INTRA:                  -0.102
REMARK UNBOUND:                 0.048
REMARK SMILES COc1cc2ccc(=O)oc2cc1OC
REMARK SMILES IDX 3 1 13 2 12 3 11 4 5 5 4 6 6 7 7 8 8 9 9 10 10 11 2 12 1 13
REMARK SMILES IDX 14 14 15 15
REMARK H PARENT
REMARK Flexibility Score: inf
ROOT
ATOM      1  C   UNL     1      68.101  47.167   8.936  1.00  0.00     0.161 A 
ATOM      2  C   UNL     1      67.831  47.904   7.770  1.00  0.00     0.164 A 
ATOM      3  C   UNL     1      68.787  48.817   7.282  1.00  0.00     0.098 A 
ATOM      4  C   UNL     1      70.001  48.994   7.951  1.00  0.00     0.142 A 
ATOM      5  C   UNL     1      70.272  48.256   9.120  1.00  0.00     0.022 A 
ATOM      6  C   UNL     1      69.326  47.347   9.609  1.00  0.00     0.062 A 
ATOM      7  C   UNL     1      71.497  48.456   9.765  1.00  0.00     0.019 A 
ATOM      8  C   UNL     1      72.407  49.372   9.240  1.00  0.00     0.094 A 
ATOM      9  C   UNL     1      72.069  50.069   8.076  1.00  0.00     0.336 A 
ATOM     10  O   UNL     1      72.876  50.901   7.584  1.00  0.00    -0.246 OA
ATOM     11  O   UNL     1      70.897  49.860   7.481  1.00  0.00    -0.423 OA
ENDROOT
BRANCH   1  12
ATOM     12  O   UNL     1      67.126  46.266   9.393  1.00  0.00    -0.493 OA
ATOM     13  C   UNL     1      67.155  44.861   9.166  1.00  0.00     0.278 C 
ENDBRANCH   1  12
BRANCH   2  14
ATOM     14  O   UNL     1      66.600  47.701   7.125  1.00  0.00    -0.493 OA
ATOM     15  C   UNL     1      65.407  48.422   7.418  1.00  0.00     0.278 C 
ENDBRANCH   2  14
TORSDOF 2
ENDMDL
