MODEL 1
REMARK VINA RESULT:    -3.095      0.000      0.000
REMARK INTER + INTRA:          -4.985
REMARK INTER:                  -4.543
REMARK INTRA:                  -0.443
REMARK UNBOUND:                -0.443
REMARK SMILES O=C([O-])CCCCCCCC(=O)[O-]
REMARK SMILES IDX 7 1 6 2 5 3 4 4 2 5 1 6 3 7 8 8 9 9 10 10 11 11 12 12 13 13
REMARK H PARENT
REMARK Flexibility Score: inf
ROOT
ATOM      1  C   UNL     1       6.713 -22.933 -18.992  1.00  0.00     0.000 C 
ENDROOT
BRANCH   1   2
ATOM      2  C   UNL     1       6.785 -23.125 -20.515  1.00  0.00     0.000 C 
BRANCH   2   3
ATOM      3  C   UNL     1       8.193 -22.881 -21.077  1.00  0.00     0.006 C 
BRANCH   3   4
ATOM      4  C   UNL     1       8.155 -21.873 -22.229  1.00  0.00     0.053 C 
BRANCH   4   5
ATOM      5  C   UNL     1       9.395 -21.034 -22.234  1.00  0.00     0.041 C 
ATOM      6  O   UNL     1       9.499 -20.053 -21.452  1.00  0.00    -0.550 OA
ATOM      7  O   UNL     1      10.414 -21.307 -23.138  1.00  0.00    -0.550 OA
ENDBRANCH   4   5
ENDBRANCH   3   4
ENDBRANCH   2   3
ENDBRANCH   1   2
BRANCH   1   8
ATOM      8  C   UNL     1       7.901 -22.134 -18.438  1.00  0.00     0.000 C 
BRANCH   8   9
ATOM      9  C   UNL     1       8.426 -22.760 -17.137  1.00  0.00     0.006 C 
BRANCH   9  10
ATOM     10  C   UNL     1       7.537 -22.427 -15.932  1.00  0.00     0.053 C 
BRANCH  10  11
ATOM     11  C   UNL     1       7.648 -20.986 -15.541  1.00  0.00     0.041 C 
ATOM     12  O   UNL     1       8.691 -20.559 -14.979  1.00  0.00    -0.550 OA
ATOM     13  O   UNL     1       6.586 -20.120 -15.768  1.00  0.00    -0.550 OA
ENDBRANCH  10  11
ENDBRANCH   9  10
ENDBRANCH   8   9
ENDBRANCH   1   8
TORSDOF 8
ENDMDL
MODEL 2
REMARK VINA RESULT:    -3.006      0.975      5.780
REMARK INTER + INTRA:          -4.855
REMARK INTER:                  -4.431
REMARK INTRA:                  -0.423
REMARK UNBOUND:                -0.443
REMARK SMILES O=C([O-])CCCCCCCC(=O)[O-]
REMARK SMILES IDX 7 1 6 2 5 3 4 4 2 5 1 6 3 7 8 8 9 9 10 10 11 11 12 12 13 13
REMARK H PARENT
REMARK Flexibility Score: inf
ROOT
ATOM      1  C   UNL     1       7.641 -22.647 -19.023  1.00  0.00     0.000 C 
ENDROOT
BRANCH   1   2
ATOM      2  C   UNL     1       6.597 -22.838 -17.911  1.00  0.00     0.000 C 
BRANCH   2   3
ATOM      3  C   UNL     1       7.226 -22.899 -16.512  1.00  0.00     0.006 C 
BRANCH   3   4
ATOM      4  C   UNL     1       8.401 -21.924 -16.396  1.00  0.00     0.053 C 
BRANCH   4   5
ATOM      5  C   UNL     1       8.074 -20.819 -15.440  1.00  0.00     0.041 C 
ATOM      6  O   UNL     1       8.917 -20.457 -14.578  1.00  0.00    -0.550 OA
ATOM      7  O   UNL     1       6.818 -20.225 -15.468  1.00  0.00    -0.550 OA
ENDBRANCH   4   5
ENDBRANCH   3   4
ENDBRANCH   2   3
ENDBRANCH   1   2
BRANCH   1   8
ATOM      8  C   UNL     1       7.106 -23.032 -20.410  1.00  0.00     0.000 C 
BRANCH   8   9
ATOM      9  C   UNL     1       8.091 -22.619 -21.513  1.00  0.00     0.006 C 
BRANCH   9  10
ATOM     10  C   UNL     1       9.312 -21.876 -20.954  1.00  0.00     0.053 C 
BRANCH  10  11
ATOM     11  C   UNL     1       9.564 -20.594 -21.686  1.00  0.00     0.041 C 
ATOM     12  O   UNL     1       8.694 -20.126 -22.466  1.00  0.00    -0.550 OA
ATOM     13  O   UNL     1      10.776 -19.931 -21.530  1.00  0.00    -0.550 OA
ENDBRANCH  10  11
ENDBRANCH   9  10
ENDBRANCH   8   9
ENDBRANCH   1   8
TORSDOF 8
ENDMDL
MODEL 3
REMARK VINA RESULT:    -2.841      1.713      6.329
REMARK INTER + INTRA:          -4.613
REMARK INTER:                  -4.239
REMARK INTRA:                  -0.374
REMARK UNBOUND:                -0.443
REMARK SMILES O=C([O-])CCCCCCCC(=O)[O-]
REMARK SMILES IDX 7 1 6 2 5 3 4 4 2 5 1 6 3 7 8 8 9 9 10 10 11 11 12 12 13 13
REMARK H PARENT
REMARK Flexibility Score: inf
ROOT
ATOM      1  C   UNL     1       9.098 -21.590 -19.086  1.00  0.00     0.000 C 
ENDROOT
BRANCH   1   2
ATOM      2  C   UNL     1       8.091 -22.749 -19.013  1.00  0.00     0.000 C 
BRANCH   2   3
ATOM      3  C   UNL     1       7.016 -22.533 -17.939  1.00  0.00     0.006 C 
BRANCH   3   4
ATOM      4  C   UNL     1       7.308 -21.274 -17.117  1.00  0.00     0.053 C 
BRANCH   4   5
ATOM      5  C   UNL     1       6.206 -21.021 -16.136  1.00  0.00     0.041 C 
ATOM      6  O   UNL     1       6.305 -20.083 -15.301  1.00  0.00    -0.550 OA
ATOM      7  O   UNL     1       5.094 -21.853 -16.111  1.00  0.00    -0.550 OA
ENDBRANCH   4   5
ENDBRANCH   3   4
ENDBRANCH   2   3
ENDBRANCH   1   2
BRANCH   1   8
ATOM      8  C   UNL     1      10.050 -21.707 -20.286  1.00  0.00     0.000 C 
BRANCH   8   9
ATOM      9  C   UNL     1       9.928 -20.483 -21.205  1.00  0.00     0.006 C 
BRANCH   9  10
ATOM     10  C   UNL     1       8.952 -20.721 -22.365  1.00  0.00     0.053 C 
BRANCH  10  11
ATOM     11  C   UNL     1       9.309 -21.947 -23.147  1.00  0.00     0.041 C 
ATOM     12  O   UNL     1       8.455 -22.853 -23.333  1.00  0.00    -0.550 OA
ATOM     13  O   UNL     1      10.598 -22.103 -23.644  1.00  0.00    -0.550 OA
ENDBRANCH  10  11
ENDBRANCH   9  10
ENDBRANCH   8   9
ENDBRANCH   1   8
TORSDOF 8
ENDMDL
MODEL 4
REMARK VINA RESULT:    -2.807      1.239      1.625
REMARK INTER + INTRA:          -4.562
REMARK INTER:                  -4.199
REMARK INTRA:                  -0.364
REMARK UNBOUND:                -0.443
REMARK SMILES O=C([O-])CCCCCCCC(=O)[O-]
REMARK SMILES IDX 7 1 6 2 5 3 4 4 2 5 1 6 3 7 8 8 9 9 10 10 11 11 12 12 13 13
REMARK H PARENT
REMARK Flexibility Score: inf
ROOT
ATOM      1  C   UNL     1       8.267 -21.862 -18.767  1.00  0.00     0.000 C 
ENDROOT
BRANCH   1   2
ATOM      2  C   UNL     1       9.370 -22.520 -19.611  1.00  0.00     0.000 C 
BRANCH   2   3
ATOM      3  C   UNL     1      10.318 -21.496 -20.251  1.00  0.00     0.006 C 
BRANCH   3   4
ATOM      4  C   UNL     1       9.546 -20.517 -21.141  1.00  0.00     0.053 C 
BRANCH   4   5
ATOM      5  C   UNL     1       9.179 -21.165 -22.440  1.00  0.00     0.041 C 
ATOM      6  O   UNL     1       7.970 -21.309 -22.756  1.00  0.00    -0.550 OA
ATOM      7  O   UNL     1      10.175 -21.654 -23.277  1.00  0.00    -0.550 OA
ENDBRANCH   4   5
ENDBRANCH   3   4
ENDBRANCH   2   3
ENDBRANCH   1   2
BRANCH   1   8
ATOM      8  C   UNL     1       7.189 -22.859 -18.319  1.00  0.00     0.000 C 
BRANCH   8   9
ATOM      9  C   UNL     1       6.553 -22.421 -16.991  1.00  0.00     0.006 C 
BRANCH   9  10
ATOM     10  C   UNL     1       7.593 -22.261 -15.874  1.00  0.00     0.053 C 
BRANCH  10  11
ATOM     11  C   UNL     1       7.708 -20.837 -15.424  1.00  0.00     0.041 C 
ATOM     12  O   UNL     1       8.778 -20.418 -14.910  1.00  0.00    -0.550 OA
ATOM     13  O   UNL     1       6.620 -19.981 -15.543  1.00  0.00    -0.550 OA
ENDBRANCH  10  11
ENDBRANCH   9  10
ENDBRANCH   8   9
ENDBRANCH   1   8
TORSDOF 8
ENDMDL
MODEL 5
REMARK VINA RESULT:    -2.799      1.147      1.784
REMARK INTER + INTRA:          -4.551
REMARK INTER:                  -4.236
REMARK INTRA:                  -0.315
REMARK UNBOUND:                -0.443
REMARK SMILES O=C([O-])CCCCCCCC(=O)[O-]
REMARK SMILES IDX 7 1 6 2 5 3 4 4 2 5 1 6 3 7 8 8 9 9 10 10 11 11 12 12 13 13
REMARK H PARENT
REMARK Flexibility Score: inf
ROOT
ATOM      1  C   UNL     1       8.180 -22.729 -18.887  1.00  0.00     0.000 C 
ENDROOT
BRANCH   1   2
ATOM      2  C   UNL     1       8.803 -22.956 -20.273  1.00  0.00     0.000 C 
BRANCH   2   3
ATOM      3  C   UNL     1       7.833 -22.634 -21.419  1.00  0.00     0.006 C 
BRANCH   3   4
ATOM      4  C   UNL     1       8.579 -22.518 -22.752  1.00  0.00     0.053 C 
BRANCH   4   5
ATOM      5  C   UNL     1       9.454 -21.304 -22.760  1.00  0.00     0.041 C 
ATOM      6  O   UNL     1      10.647 -21.386 -23.152  1.00  0.00    -0.550 OA
ATOM      7  O   UNL     1       8.966 -20.093 -22.286  1.00  0.00    -0.550 OA
ENDBRANCH   4   5
ENDBRANCH   3   4
ENDBRANCH   2   3
ENDBRANCH   1   2
BRANCH   1   8
ATOM      8  C   UNL     1       9.231 -22.430 -17.807  1.00  0.00     0.000 C 
BRANCH   8   9
ATOM      9  C   UNL     1       8.604 -21.684 -16.621  1.00  0.00     0.006 C 
BRANCH   9  10
ATOM     10  C   UNL     1       7.356 -22.394 -16.081  1.00  0.00     0.053 C 
BRANCH  10  11
ATOM     11  C   UNL     1       6.189 -21.461 -15.974  1.00  0.00     0.041 C 
ATOM     12  O   UNL     1       5.041 -21.837 -16.329  1.00  0.00    -0.550 OA
ATOM     13  O   UNL     1       6.377 -20.164 -15.513  1.00  0.00    -0.550 OA
ENDBRANCH  10  11
ENDBRANCH   9  10
ENDBRANCH   8   9
ENDBRANCH   1   8
TORSDOF 8
ENDMDL
MODEL 6
REMARK VINA RESULT:    -2.791      1.148      6.184
REMARK INTER + INTRA:          -4.539
REMARK INTER:                  -4.240
REMARK INTRA:                  -0.300
REMARK UNBOUND:                -0.443
REMARK SMILES O=C([O-])CCCCCCCC(=O)[O-]
REMARK SMILES IDX 7 1 6 2 5 3 4 4 2 5 1 6 3 7 8 8 9 9 10 10 11 11 12 12 13 13
REMARK H PARENT
REMARK Flexibility Score: inf
ROOT
ATOM      1  C   UNL     1       8.191 -22.296 -18.829  1.00  0.00     0.000 C 
ENDROOT
BRANCH   1   2
ATOM      2  C   UNL     1       9.202 -22.031 -17.702  1.00  0.00     0.000 C 
BRANCH   2   3
ATOM      3  C   UNL     1       8.527 -21.667 -16.373  1.00  0.00     0.006 C 
BRANCH   3   4
ATOM      4  C   UNL     1       7.218 -22.441 -16.193  1.00  0.00     0.053 C 
BRANCH   4   5
ATOM      5  C   UNL     1       6.073 -21.497 -15.995  1.00  0.00     0.041 C 
ATOM      6  O   UNL     1       4.898 -21.862 -16.262  1.00  0.00    -0.550 OA
ATOM      7  O   UNL     1       6.310 -20.198 -15.564  1.00  0.00    -0.550 OA
ENDBRANCH   4   5
ENDBRANCH   3   4
ENDBRANCH   2   3
ENDBRANCH   1   2
BRANCH   1   8
ATOM      8  C   UNL     1       8.866 -22.683 -20.153  1.00  0.00     0.000 C 
BRANCH   8   9
ATOM      9  C   UNL     1       7.851 -22.693 -21.305  1.00  0.00     0.006 C 
BRANCH   9  10
ATOM     10  C   UNL     1       8.523 -22.523 -22.674  1.00  0.00     0.053 C 
BRANCH  10  11
ATOM     11  C   UNL     1       9.394 -21.306 -22.717  1.00  0.00     0.041 C 
ATOM     12  O   UNL     1      10.599 -21.399 -23.067  1.00  0.00    -0.550 OA
ATOM     13  O   UNL     1       8.881 -20.071 -22.339  1.00  0.00    -0.550 OA
ENDBRANCH  10  11
ENDBRANCH   9  10
ENDBRANCH   8   9
ENDBRANCH   1   8
TORSDOF 8
ENDMDL
MODEL 7
REMARK VINA RESULT:    -2.737     13.451     15.602
REMARK INTER + INTRA:          -4.459
REMARK INTER:                  -3.976
REMARK INTRA:                  -0.483
REMARK UNBOUND:                -0.443
REMARK SMILES O=C([O-])CCCCCCCC(=O)[O-]
REMARK SMILES IDX 7 1 6 2 5 3 4 4 2 5 1 6 3 7 8 8 9 9 10 10 11 11 12 12 13 13
REMARK H PARENT
REMARK Flexibility Score: inf
ROOT
ATOM      1  C   UNL     1      -6.837 -20.942 -16.408  1.00  0.00     0.000 C 
ENDROOT
BRANCH   1   2
ATOM      2  C   UNL     1      -8.140 -21.758 -16.422  1.00  0.00     0.000 C 
BRANCH   2   3
ATOM      3  C   UNL     1      -8.886 -21.706 -15.081  1.00  0.00     0.006 C 
BRANCH   3   4
ATOM      4  C   UNL     1      -8.530 -20.434 -14.306  1.00  0.00     0.053 C 
BRANCH   4   5
ATOM      5  C   UNL     1      -8.122 -20.770 -12.905  1.00  0.00     0.041 C 
ATOM      6  O   UNL     1      -7.143 -21.534 -12.697  1.00  0.00    -0.550 OA
ATOM      7  O   UNL     1      -8.856 -20.281 -11.831  1.00  0.00    -0.550 OA
ENDBRANCH   4   5
ENDBRANCH   3   4
ENDBRANCH   2   3
ENDBRANCH   1   2
BRANCH   1   8
ATOM      8  C   UNL     1      -5.601 -21.793 -16.734  1.00  0.00     0.000 C 
BRANCH   8   9
ATOM      9  C   UNL     1      -4.960 -22.346 -15.453  1.00  0.00     0.006 C 
BRANCH   9  10
ATOM     10  C   UNL     1      -3.642 -23.080 -15.732  1.00  0.00     0.053 C 
BRANCH  10  11
ATOM     11  C   UNL     1      -2.570 -22.680 -14.766  1.00  0.00     0.041 C 
ATOM     12  O   UNL     1      -1.366 -22.650 -15.132  1.00  0.00    -0.550 OA
ATOM     13  O   UNL     1      -2.898 -22.372 -13.452  1.00  0.00    -0.550 OA
ENDBRANCH  10  11
ENDBRANCH   9  10
ENDBRANCH   8   9
ENDBRANCH   1   8
TORSDOF 8
ENDMDL
MODEL 8
REMARK VINA RESULT:    -2.633      1.903      2.480
REMARK INTER + INTRA:          -4.307
REMARK INTER:                  -3.990
REMARK INTRA:                  -0.317
REMARK UNBOUND:                -0.443
REMARK SMILES O=C([O-])CCCCCCCC(=O)[O-]
REMARK SMILES IDX 7 1 6 2 5 3 4 4 2 5 1 6 3 7 8 8 9 9 10 10 11 11 12 12 13 13
REMARK H PARENT
REMARK Flexibility Score: inf
ROOT
ATOM      1  C   UNL     1       8.452 -21.626 -18.038  1.00  0.00     0.000 C 
ENDROOT
BRANCH   1   2
ATOM      2  C   UNL     1       8.984 -22.838 -18.818  1.00  0.00     0.000 C 
BRANCH   2   3
ATOM      3  C   UNL     1       9.519 -22.462 -20.206  1.00  0.00     0.006 C 
BRANCH   3   4
ATOM      4  C   UNL     1       8.386 -22.417 -21.236  1.00  0.00     0.053 C 
BRANCH   4   5
ATOM      5  C   UNL     1       8.803 -21.631 -22.440  1.00  0.00     0.041 C 
ATOM      6  O   UNL     1       9.135 -22.224 -23.500  1.00  0.00    -0.550 OA
ATOM      7  O   UNL     1       8.873 -20.245 -22.375  1.00  0.00    -0.550 OA
ENDBRANCH   4   5
ENDBRANCH   3   4
ENDBRANCH   2   3
ENDBRANCH   1   2
BRANCH   1   8
ATOM      8  C   UNL     1       8.897 -21.625 -16.568  1.00  0.00     0.000 C 
BRANCH   8   9
ATOM      9  C   UNL     1       7.687 -21.531 -15.627  1.00  0.00     0.006 C 
BRANCH   9  10
ATOM     10  C   UNL     1       6.443 -20.974 -16.333  1.00  0.00     0.053 C 
BRANCH  10  11
ATOM     11  C   UNL     1       5.306 -21.947 -16.303  1.00  0.00     0.041 C 
ATOM     12  O   UNL     1       5.394 -23.046 -16.911  1.00  0.00    -0.550 OA
ATOM     13  O   UNL     1       4.134 -21.626 -15.629  1.00  0.00    -0.550 OA
ENDBRANCH  10  11
ENDBRANCH   9  10
ENDBRANCH   8   9
ENDBRANCH   1   8
TORSDOF 8
ENDMDL
MODEL 9
REMARK VINA RESULT:    -2.587      1.674      2.129
REMARK INTER + INTRA:          -4.240
REMARK INTER:                  -3.695
REMARK INTRA:                  -0.545
REMARK UNBOUND:                -0.443
REMARK SMILES O=C([O-])CCCCCCCC(=O)[O-]
REMARK SMILES IDX 7 1 6 2 5 3 4 4 2 5 1 6 3 7 8 8 9 9 10 10 11 11 12 12 13 13
REMARK H PARENT
REMARK Flexibility Score: inf
ROOT
ATOM      1  C   UNL     1       6.951 -22.426 -17.539  1.00  0.00     0.000 C 
ENDROOT
BRANCH   1   2
ATOM      2  C   UNL     1       8.133 -22.976 -18.353  1.00  0.00     0.000 C 
BRANCH   2   3
ATOM      3  C   UNL     1       8.820 -21.897 -19.203  1.00  0.00     0.006 C 
BRANCH   3   4
ATOM      4  C   UNL     1       9.022 -22.381 -20.642  1.00  0.00     0.053 C 
BRANCH   4   5
ATOM      5  C   UNL     1       8.986 -21.226 -21.593  1.00  0.00     0.041 C 
ATOM      6  O   UNL     1       9.640 -20.180 -21.345  1.00  0.00    -0.550 OA
ATOM      7  O   UNL     1       8.188 -21.286 -22.729  1.00  0.00    -0.550 OA
ENDBRANCH   4   5
ENDBRANCH   3   4
ENDBRANCH   2   3
ENDBRANCH   1   2
BRANCH   1   8
ATOM      8  C   UNL     1       7.101 -20.934 -17.208  1.00  0.00     0.000 C 
BRANCH   8   9
ATOM      9  C   UNL     1       7.088 -20.704 -15.690  1.00  0.00     0.006 C 
BRANCH   9  10
ATOM     10  C   UNL     1       8.215 -21.464 -14.977  1.00  0.00     0.053 C 
BRANCH  10  11
ATOM     11  C   UNL     1       9.532 -20.766 -15.121  1.00  0.00     0.041 C 
ATOM     12  O   UNL     1       9.839 -19.822 -14.348  1.00  0.00    -0.550 OA
ATOM     13  O   UNL     1      10.408 -21.140 -16.133  1.00  0.00    -0.550 OA
ENDBRANCH  10  11
ENDBRANCH   9  10
ENDBRANCH   8   9
ENDBRANCH   1   8
TORSDOF 8
ENDMDL
