MODEL 1
REMARK VINA RESULT:     1.316      0.000      0.000
REMARK INTER + INTRA:           1.662
REMARK INTER:                   1.701
REMARK INTRA:                  -0.038
REMARK UNBOUND:                -0.038
REMARK SMILES CCCCC(=O)c1ccccc1C(=O)[O-]
REMARK SMILES IDX 4 1 5 2 6 3 7 4 12 5 11 6 10 7 8 8 9 9 13 10 14 11 15 12
REMARK SMILES IDX 3 13 2 14 1 15
REMARK H PARENT
REMARK Flexibility Score: inf
ROOT
ATOM      1  C   UNL     1     137.870 129.415 127.313  1.00  0.00     0.081 C 
ENDROOT
BRANCH   1   2
ATOM      2  C   UNL     1     137.692 128.240 128.237  1.00  0.00     0.163 C 
ATOM      3  O   UNL     1     136.985 127.267 127.860  1.00  0.00    -0.294 OA
BRANCH   2   4
ATOM      4  C   UNL     1     138.346 128.194 129.569  1.00  0.00     0.027 A 
ATOM      5  C   UNL     1     137.681 127.688 130.721  1.00  0.00     0.008 A 
ATOM      6  C   UNL     1     138.397 127.575 131.927  1.00  0.00     0.011 A 
ATOM      7  C   UNL     1     139.728 127.982 132.009  1.00  0.00     0.001 A 
ATOM      8  C   UNL     1     139.686 128.608 129.676  1.00  0.00     0.012 A 
ATOM      9  C   UNL     1     140.369 128.505 130.888  1.00  0.00     0.001 A 
BRANCH   5  10
ATOM     10  C   UNL     1     136.243 127.323 130.726  1.00  0.00     0.072 C 
ATOM     11  O   UNL     1     135.878 126.124 130.858  1.00  0.00    -0.545 OA
ATOM     12  O   UNL     1     135.275 128.301 130.531  1.00  0.00    -0.545 OA
ENDBRANCH   5  10
ENDBRANCH   2   4
ENDBRANCH   1   2
BRANCH   1  13
ATOM     13  C   UNL     1     137.756 128.978 125.844  1.00  0.00     0.008 C 
BRANCH  13  14
ATOM     14  C   UNL     1     138.360 130.006 124.875  1.00  0.00    -0.003 C 
ATOM     15  C   UNL     1     139.887 129.990 124.875  1.00  0.00     0.004 C 
ENDBRANCH  13  14
ENDBRANCH   1  13
TORSDOF 5
ENDMDL
MODEL 2
REMARK VINA RESULT:     1.752      1.835      3.790
REMARK INTER + INTRA:           2.226
REMARK INTER:                   2.421
REMARK INTRA:                  -0.196
REMARK UNBOUND:                -0.038
REMARK SMILES CCCCC(=O)c1ccccc1C(=O)[O-]
REMARK SMILES IDX 4 1 5 2 6 3 7 4 12 5 11 6 10 7 8 8 9 9 13 10 14 11 15 12
REMARK SMILES IDX 3 13 2 14 1 15
REMARK H PARENT
REMARK Flexibility Score: inf
ROOT
ATOM      1  C   UNL     1     135.249 128.529 130.927  1.00  0.00     0.081 C 
ENDROOT
BRANCH   1   2
ATOM      2  C   UNL     1     136.276 127.430 130.858  1.00  0.00     0.163 C 
ATOM      3  O   UNL     1     135.889 126.230 130.859  1.00  0.00    -0.294 OA
BRANCH   2   4
ATOM      4  C   UNL     1     137.727 127.728 130.767  1.00  0.00     0.027 A 
ATOM      5  C   UNL     1     138.352 128.078 129.538  1.00  0.00     0.008 A 
ATOM      6  C   UNL     1     139.709 128.452 129.544  1.00  0.00     0.011 A 
ATOM      7  C   UNL     1     140.445 128.450 130.729  1.00  0.00     0.001 A 
ATOM      8  C   UNL     1     138.490 127.724 131.949  1.00  0.00     0.012 A 
ATOM      9  C   UNL     1     139.839 128.080 131.927  1.00  0.00     0.001 A 
BRANCH   5  10
ATOM     10  C   UNL     1     137.653 128.013 128.231  1.00  0.00     0.072 C 
ATOM     11  O   UNL     1     136.915 127.035 127.938  1.00  0.00    -0.545 OA
ATOM     12  O   UNL     1     137.847 129.014 127.286  1.00  0.00    -0.545 OA
ENDBRANCH   5  10
ENDBRANCH   2   4
ENDBRANCH   1   2
BRANCH   1  13
ATOM     13  C   UNL     1     134.001 128.163 130.110  1.00  0.00     0.008 C 
BRANCH  13  14
ATOM     14  C   UNL     1     134.146 128.518 128.622  1.00  0.00    -0.003 C 
ATOM     15  C   UNL     1     134.011 130.017 128.357  1.00  0.00     0.004 C 
ENDBRANCH  13  14
ENDBRANCH   1  13
TORSDOF 5
ENDMDL
MODEL 3
REMARK VINA RESULT:     1.912      2.811      3.985
REMARK INTER + INTRA:           2.433
REMARK INTER:                   2.404
REMARK INTRA:                   0.029
REMARK UNBOUND:                -0.038
REMARK SMILES CCCCC(=O)c1ccccc1C(=O)[O-]
REMARK SMILES IDX 4 1 5 2 6 3 7 4 12 5 11 6 10 7 8 8 9 9 13 10 14 11 15 12
REMARK SMILES IDX 3 13 2 14 1 15
REMARK H PARENT
REMARK Flexibility Score: inf
ROOT
ATOM      1  C   UNL     1     141.310 127.994 129.710  1.00  0.00     0.081 C 
ENDROOT
BRANCH   1   2
ATOM      2  C   UNL     1     140.018 128.765 129.752  1.00  0.00     0.163 C 
ATOM      3  O   UNL     1     140.053 130.023 129.669  1.00  0.00    -0.294 OA
BRANCH   2   4
ATOM      4  C   UNL     1     138.707 128.079 129.866  1.00  0.00     0.027 A 
ATOM      5  C   UNL     1     138.117 127.778 131.125  1.00  0.00     0.008 A 
ATOM      6  C   UNL     1     136.824 127.224 131.159  1.00  0.00     0.011 A 
ATOM      7  C   UNL     1     136.138 126.939 129.979  1.00  0.00     0.001 A 
ATOM      8  C   UNL     1     138.001 127.775 128.688  1.00  0.00     0.012 A 
ATOM      9  C   UNL     1     136.728 127.206 128.746  1.00  0.00     0.001 A 
BRANCH   5  10
ATOM     10  C   UNL     1     138.827 127.971 132.414  1.00  0.00     0.072 C 
ATOM     11  O   UNL     1     138.737 127.120 133.338  1.00  0.00    -0.545 OA
ATOM     12  O   UNL     1     139.563 129.129 132.637  1.00  0.00    -0.545 OA
ENDBRANCH   5  10
ENDBRANCH   2   4
ENDBRANCH   1   2
BRANCH   1  13
ATOM     13  C   UNL     1     142.432 128.839 129.089  1.00  0.00     0.008 C 
BRANCH  13  14
ATOM     14  C   UNL     1     143.362 128.012 128.188  1.00  0.00    -0.003 C 
ATOM     15  C   UNL     1     144.018 128.850 127.091  1.00  0.00     0.004 C 
ENDBRANCH  13  14
ENDBRANCH   1  13
TORSDOF 5
ENDMDL
MODEL 4
REMARK VINA RESULT:     2.553      2.550      3.687
REMARK INTER + INTRA:           3.261
REMARK INTER:                   3.505
REMARK INTRA:                  -0.245
REMARK UNBOUND:                -0.038
REMARK SMILES CCCCC(=O)c1ccccc1C(=O)[O-]
REMARK SMILES IDX 4 1 5 2 6 3 7 4 12 5 11 6 10 7 8 8 9 9 13 10 14 11 15 12
REMARK SMILES IDX 3 13 2 14 1 15
REMARK H PARENT
REMARK Flexibility Score: inf
ROOT
ATOM      1  C   UNL     1     137.695 126.778 129.423  1.00  0.00     0.081 C 
ENDROOT
BRANCH   1   2
ATOM      2  C   UNL     1     138.577 127.955 129.102  1.00  0.00     0.163 C 
ATOM      3  O   UNL     1     138.156 128.835 128.303  1.00  0.00    -0.294 OA
BRANCH   2   4
ATOM      4  C   UNL     1     139.918 128.112 129.718  1.00  0.00     0.027 A 
ATOM      5  C   UNL     1     140.102 128.158 131.128  1.00  0.00     0.008 A 
ATOM      6  C   UNL     1     141.410 128.201 131.645  1.00  0.00     0.011 A 
ATOM      7  C   UNL     1     142.514 128.232 130.794  1.00  0.00     0.001 A 
ATOM      8  C   UNL     1     141.045 128.155 128.878  1.00  0.00     0.012 A 
ATOM      9  C   UNL     1     142.332 128.216 129.413  1.00  0.00     0.001 A 
BRANCH   5  10
ATOM     10  C   UNL     1     138.971 128.220 132.087  1.00  0.00     0.072 C 
ATOM     11  O   UNL     1     138.791 127.308 132.937  1.00  0.00    -0.545 OA
ATOM     12  O   UNL     1     138.058 129.266 132.022  1.00  0.00    -0.545 OA
ENDBRANCH   5  10
ENDBRANCH   2   4
ENDBRANCH   1   2
BRANCH   1  13
ATOM     13  C   UNL     1     136.227 127.088 129.095  1.00  0.00     0.008 C 
BRANCH  13  14
ATOM     14  C   UNL     1     135.494 127.771 130.260  1.00  0.00    -0.003 C 
ATOM     15  C   UNL     1     134.350 128.668 129.792  1.00  0.00     0.004 C 
ENDBRANCH  13  14
ENDBRANCH   1  13
TORSDOF 5
ENDMDL
MODEL 5
REMARK VINA RESULT:     3.197      2.324      3.455
REMARK INTER + INTRA:           4.094
REMARK INTER:                   4.056
REMARK INTRA:                   0.038
REMARK UNBOUND:                -0.038
REMARK SMILES CCCCC(=O)c1ccccc1C(=O)[O-]
REMARK SMILES IDX 4 1 5 2 6 3 7 4 12 5 11 6 10 7 8 8 9 9 13 10 14 11 15 12
REMARK SMILES IDX 3 13 2 14 1 15
REMARK H PARENT
REMARK Flexibility Score: inf
ROOT
ATOM      1  C   UNL     1     136.879 128.058 128.661  1.00  0.00     0.081 C 
ENDROOT
BRANCH   1   2
ATOM      2  C   UNL     1     137.784 127.214 129.519  1.00  0.00     0.163 C 
ATOM      3  O   UNL     1     137.421 126.047 129.827  1.00  0.00    -0.294 OA
BRANCH   2   4
ATOM      4  C   UNL     1     139.098 127.717 129.991  1.00  0.00     0.027 A 
ATOM      5  C   UNL     1     139.391 127.890 131.372  1.00  0.00     0.008 A 
ATOM      6  C   UNL     1     140.692 128.268 131.752  1.00  0.00     0.011 A 
ATOM      7  C   UNL     1     141.676 128.505 130.793  1.00  0.00     0.001 A 
ATOM      8  C   UNL     1     140.102 127.971 129.039  1.00  0.00     0.012 A 
ATOM      9  C   UNL     1     141.380 128.365 129.439  1.00  0.00     0.001 A 
BRANCH   5  10
ATOM     10  C   UNL     1     138.368 127.743 132.437  1.00  0.00     0.072 C 
ATOM     11  O   UNL     1     138.654 127.213 133.543  1.00  0.00    -0.545 OA
ATOM     12  O   UNL     1     137.057 128.144 132.205  1.00  0.00    -0.545 OA
ENDBRANCH   5  10
ENDBRANCH   2   4
ENDBRANCH   1   2
BRANCH   1  13
ATOM     13  C   UNL     1     135.433 127.546 128.722  1.00  0.00     0.008 C 
BRANCH  13  14
ATOM     14  C   UNL     1     134.424 128.664 129.024  1.00  0.00    -0.003 C 
ATOM     15  C   UNL     1     134.130 128.806 130.516  1.00  0.00     0.004 C 
ENDBRANCH  13  14
ENDBRANCH   1  13
TORSDOF 5
ENDMDL
MODEL 6
REMARK VINA RESULT:     3.989      2.133      4.659
REMARK INTER + INTRA:           5.116
REMARK INTER:                   5.670
REMARK INTRA:                  -0.554
REMARK UNBOUND:                -0.038
REMARK SMILES CCCCC(=O)c1ccccc1C(=O)[O-]
REMARK SMILES IDX 4 1 5 2 6 3 7 4 12 5 11 6 10 7 8 8 9 9 13 10 14 11 15 12
REMARK SMILES IDX 3 13 2 14 1 15
REMARK H PARENT
REMARK Flexibility Score: inf
ROOT
ATOM      1  C   UNL     1     138.524 127.666 131.550  1.00  0.00     0.081 C 
ENDROOT
BRANCH   1   2
ATOM      2  C   UNL     1     137.570 127.083 130.542  1.00  0.00     0.163 C 
ATOM      3  O   UNL     1     137.836 125.965 130.023  1.00  0.00    -0.294 OA
BRANCH   2   4
ATOM      4  C   UNL     1     136.317 127.782 130.163  1.00  0.00     0.027 A 
ATOM      5  C   UNL     1     136.022 128.132 128.816  1.00  0.00     0.008 A 
ATOM      6  C   UNL     1     134.769 128.697 128.515  1.00  0.00     0.011 A 
ATOM      7  C   UNL     1     133.837 128.945 129.522  1.00  0.00     0.001 A 
ATOM      8  C   UNL     1     135.366 128.050 131.165  1.00  0.00     0.012 A 
ATOM      9  C   UNL     1     134.138 128.629 130.845  1.00  0.00     0.001 A 
BRANCH   5  10
ATOM     10  C   UNL     1     137.002 127.979 127.712  1.00  0.00     0.072 C 
ATOM     11  O   UNL     1     136.925 127.015 126.905  1.00  0.00    -0.545 OA
ATOM     12  O   UNL     1     138.056 128.877 127.586  1.00  0.00    -0.545 OA
ENDBRANCH   5  10
ENDBRANCH   2   4
ENDBRANCH   1   2
BRANCH   1  13
ATOM     13  C   UNL     1     139.279 128.866 130.959  1.00  0.00     0.008 C 
BRANCH  13  14
ATOM     14  C   UNL     1     140.487 128.442 130.109  1.00  0.00    -0.003 C 
ATOM     15  C   UNL     1     141.696 128.052 130.957  1.00  0.00     0.004 C 
ENDBRANCH  13  14
ENDBRANCH   1  13
TORSDOF 5
ENDMDL
MODEL 7
REMARK VINA RESULT:     4.242      2.352      3.809
REMARK INTER + INTRA:           5.444
REMARK INTER:                   4.809
REMARK INTRA:                   0.634
REMARK UNBOUND:                -0.038
REMARK SMILES CCCCC(=O)c1ccccc1C(=O)[O-]
REMARK SMILES IDX 4 1 5 2 6 3 7 4 12 5 11 6 10 7 8 8 9 9 13 10 14 11 15 12
REMARK SMILES IDX 3 13 2 14 1 15
REMARK H PARENT
REMARK Flexibility Score: inf
ROOT
ATOM      1  C   UNL     1     141.402 128.149 129.920  1.00  0.00     0.081 C 
ENDROOT
BRANCH   1   2
ATOM      2  C   UNL     1     140.111 128.884 130.162  1.00  0.00     0.163 C 
ATOM      3  O   UNL     1     140.001 130.076 129.765  1.00  0.00    -0.294 OA
BRANCH   2   4
ATOM      4  C   UNL     1     138.962 128.232 130.837  1.00  0.00     0.027 A 
ATOM      5  C   UNL     1     137.851 127.717 130.112  1.00  0.00     0.008 A 
ATOM      6  C   UNL     1     136.848 127.016 130.806  1.00  0.00     0.011 A 
ATOM      7  C   UNL     1     136.916 126.854 132.189  1.00  0.00     0.001 A 
ATOM      8  C   UNL     1     139.006 128.066 132.233  1.00  0.00     0.012 A 
ATOM      9  C   UNL     1     137.989 127.384 132.903  1.00  0.00     0.001 A 
BRANCH   5  10
ATOM     10  C   UNL     1     137.671 127.932 128.654  1.00  0.00     0.072 C 
ATOM     11  O   UNL     1     138.363 128.781 128.033  1.00  0.00    -0.545 OA
ATOM     12  O   UNL     1     136.690 127.230 127.963  1.00  0.00    -0.545 OA
ENDBRANCH   5  10
ENDBRANCH   2   4
ENDBRANCH   1   2
BRANCH   1  13
ATOM     13  C   UNL     1     142.048 128.597 128.600  1.00  0.00     0.008 C 
BRANCH  13  14
ATOM     14  C   UNL     1     143.535 128.222 128.514  1.00  0.00    -0.003 C 
ATOM     15  C   UNL     1     144.124 128.463 127.125  1.00  0.00     0.004 C 
ENDBRANCH  13  14
ENDBRANCH   1  13
TORSDOF 5
ENDMDL
