MODEL 1
REMARK VINA RESULT:    -4.689      0.000      0.000
REMARK INTER + INTRA:          -6.195
REMARK INTER:                  -6.334
REMARK INTRA:                   0.139
REMARK UNBOUND:                 0.139
REMARK SMILES C=C1CCC=C(C)CC[C@H]2[C@H]1CC2(C)C
REMARK SMILES IDX 11 1 12 2 13 3 10 4 14 5 15 6 9 7 8 8 6 9 7 10 5 11 2 13
REMARK SMILES IDX 1 14 3 15 4 16
REMARK H PARENT
REMARK Flexibility Score: 70.00
ROOT
ATOM      1  C   UNL     1       8.837  32.617  22.766  1.00  0.00     0.018 C 
ATOM      2  C   UNL     1       8.187  32.905  24.126  1.00  0.00     0.015 C 
ATOM      3  C   UNL     1       9.503  33.509  24.640  1.00  0.00    -0.031 C 
ATOM      4  C   UNL     1      10.137  33.290  23.244  1.00  0.00     0.002 C 
ATOM      5  C   UNL     1      10.108  32.704  25.809  1.00  0.00     0.011 C 
ATOM      6  C   UNL     1       9.366  35.000  25.002  1.00  0.00     0.011 C 
ENDROOT
BRANCH   4   7
ATOM      7  C   UNL     1      11.372  32.369  23.149  1.00  0.00     0.009 C 
BRANCH   7   8
ATOM      8  C   UNL     1      11.597  31.849  21.720  1.00  0.00     0.030 C 
BRANCH   8   9
ATOM      9  C   UNL     1      12.027  32.950  20.768  1.00  0.00    -0.077 C 
ATOM     10  C   UNL     1      13.440  33.467  20.871  1.00  0.00     0.039 C 
ATOM     11  C   UNL     1      11.202  33.532  19.864  1.00  0.00    -0.028 CG0
ATOM     12  G   UNL     1       9.746  33.193  19.632  1.00  0.00     0.000 G0
ENDBRANCH   8   9
ENDBRANCH   7   8
ENDBRANCH   4   7
BRANCH   1  13
ATOM     13  C   UNL     1       8.104  33.248  21.589  1.00  0.00    -0.074 C 
ATOM     14  C   UNL     1       6.802  32.952  21.428  1.00  0.00     0.008 C 
BRANCH  13  15
ATOM     15  C   UNL     1       8.809  34.064  20.518  1.00  0.00     0.035 C 
BRANCH  15  16
ATOM     16  C   UNL     1       9.741  33.201  19.643  1.00  0.00     0.032 CG0
ATOM     17  G   UNL     1      11.202  33.526  19.861  1.00  0.00     0.000 G0
ENDBRANCH  15  16
ENDBRANCH  13  15
ENDBRANCH   1  13
TORSDOF 0
ENDMDL
MODEL 2
REMARK VINA RESULT:    -4.394      1.676      4.208
REMARK INTER + INTRA:          -5.796
REMARK INTER:                  -5.933
REMARK INTRA:                   0.137
REMARK UNBOUND:                 0.139
REMARK SMILES C=C1CCC=C(C)CC[C@H]2[C@H]1CC2(C)C
REMARK SMILES IDX 11 1 12 2 13 3 10 4 14 5 15 6 9 7 8 8 6 9 7 10 5 11 2 13
REMARK SMILES IDX 1 14 3 15 4 16
REMARK H PARENT
REMARK Flexibility Score: 70.00
ROOT
ATOM      1  C   UNL     1      10.448  33.675  21.036  1.00  0.00     0.018 C 
ATOM      2  C   UNL     1      11.723  33.383  20.233  1.00  0.00     0.015 C 
ATOM      3  C   UNL     1      12.275  32.540  21.393  1.00  0.00    -0.031 C 
ATOM      4  C   UNL     1      10.957  32.770  22.173  1.00  0.00     0.002 C 
ATOM      5  C   UNL     1      13.556  33.142  22.006  1.00  0.00     0.011 C 
ATOM      6  C   UNL     1      12.483  31.065  21.003  1.00  0.00     0.011 C 
ENDROOT
BRANCH   4   7
ATOM      7  C   UNL     1      11.041  33.490  23.535  1.00  0.00     0.009 C 
BRANCH   7   8
ATOM      8  C   UNL     1       9.687  34.075  23.966  1.00  0.00     0.030 C 
BRANCH   8   9
ATOM      9  C   UNL     1       8.675  32.995  24.304  1.00  0.00    -0.077 C 
ATOM     10  C   UNL     1       8.836  32.252  25.606  1.00  0.00     0.039 C 
ATOM     11  C   UNL     1       7.664  32.625  23.482  1.00  0.00    -0.028 CG0
ATOM     12  G   UNL     1       7.354  33.209  22.121  1.00  0.00     0.000 G0
ENDBRANCH   8   9
ENDBRANCH   7   8
ENDBRANCH   4   7
BRANCH   1  13
ATOM     13  C   UNL     1       9.165  33.265  20.324  1.00  0.00    -0.074 C 
ATOM     14  C   UNL     1       8.933  33.778  19.103  1.00  0.00     0.008 C 
BRANCH  13  15
ATOM     15  C   UNL     1       8.081  32.433  20.989  1.00  0.00     0.035 C 
BRANCH  15  16
ATOM     16  C   UNL     1       7.365  33.202  22.119  1.00  0.00     0.032 CG0
ATOM     17  G   UNL     1       7.651  32.618  23.485  1.00  0.00     0.000 G0
ENDBRANCH  15  16
ENDBRANCH  13  15
ENDBRANCH   1  13
TORSDOF 0
ENDMDL
MODEL 3
REMARK VINA RESULT:    -4.365      1.396      2.179
REMARK INTER + INTRA:          -5.756
REMARK INTER:                  -5.669
REMARK INTRA:                  -0.087
REMARK UNBOUND:                 0.139
REMARK SMILES C=C1CCC=C(C)CC[C@H]2[C@H]1CC2(C)C
REMARK SMILES IDX 11 1 12 2 13 3 10 4 14 5 15 6 9 7 8 8 6 9 7 10 5 11 2 13
REMARK SMILES IDX 1 14 3 15 4 16
REMARK H PARENT
REMARK Flexibility Score: 70.00
ROOT
ATOM      1  C   UNL     1       9.959  32.984  21.008  1.00  0.00     0.018 C 
ATOM      2  C   UNL     1       8.739  33.034  21.937  1.00  0.00     0.015 C 
ATOM      3  C   UNL     1       9.635  33.455  23.112  1.00  0.00    -0.031 C 
ATOM      4  C   UNL     1      10.855  33.479  22.158  1.00  0.00     0.002 C 
ATOM      5  C   UNL     1       9.661  32.406  24.242  1.00  0.00     0.011 C 
ATOM      6  C   UNL     1       9.279  34.851  23.655  1.00  0.00     0.011 C 
ENDROOT
BRANCH   4   7
ATOM      7  C   UNL     1      12.032  32.530  22.468  1.00  0.00     0.009 C 
BRANCH   7   8
ATOM      8  C   UNL     1      13.342  33.002  21.818  1.00  0.00     0.030 C 
BRANCH   8   9
ATOM      9  C   UNL     1      13.569  32.370  20.456  1.00  0.00    -0.077 C 
ATOM     10  C   UNL     1      14.414  31.124  20.383  1.00  0.00     0.039 C 
ATOM     11  C   UNL     1      13.099  32.889  19.296  1.00  0.00    -0.028 CG0
ATOM     12  G   UNL     1      12.273  34.147  19.146  1.00  0.00     0.000 G0
ENDBRANCH   8   9
ENDBRANCH   7   8
ENDBRANCH   4   7
BRANCH   1  13
ATOM     13  C   UNL     1       9.832  33.872  19.776  1.00  0.00    -0.074 C 
ATOM     14  C   UNL     1       8.710  34.600  19.640  1.00  0.00     0.008 C 
BRANCH  13  15
ATOM     15  C   UNL     1      10.837  33.852  18.636  1.00  0.00     0.035 C 
BRANCH  15  16
ATOM     16  C   UNL     1      12.273  34.148  19.117  1.00  0.00     0.032 CG0
ATOM     17  G   UNL     1      13.094  32.889  19.288  1.00  0.00     0.000 G0
ENDBRANCH  15  16
ENDBRANCH  13  15
ENDBRANCH   1  13
TORSDOF 0
ENDMDL
MODEL 4
REMARK VINA RESULT:    -4.344      2.152      2.931
REMARK INTER + INTRA:          -5.729
REMARK INTER:                  -5.669
REMARK INTRA:                  -0.060
REMARK UNBOUND:                 0.139
REMARK SMILES C=C1CCC=C(C)CC[C@H]2[C@H]1CC2(C)C
REMARK SMILES IDX 11 1 12 2 13 3 10 4 14 5 15 6 9 7 8 8 6 9 7 10 5 11 2 13
REMARK SMILES IDX 1 14 3 15 4 16
REMARK H PARENT
REMARK Flexibility Score: 70.00
ROOT
ATOM      1  C   UNL     1       9.978  31.513  22.354  1.00  0.00     0.018 C 
ATOM      2  C   UNL     1       8.726  32.203  22.911  1.00  0.00     0.015 C 
ATOM      3  C   UNL     1       9.323  33.580  22.582  1.00  0.00    -0.031 C 
ATOM      4  C   UNL     1      10.553  32.883  21.949  1.00  0.00     0.002 C 
ATOM      5  C   UNL     1       9.582  34.430  23.843  1.00  0.00     0.011 C 
ATOM      6  C   UNL     1       8.485  34.356  21.549  1.00  0.00     0.011 C 
ENDROOT
BRANCH   4   7
ATOM      7  C   UNL     1      11.940  33.169  22.564  1.00  0.00     0.009 C 
BRANCH   7   8
ATOM      8  C   UNL     1      13.075  32.973  21.547  1.00  0.00     0.030 C 
BRANCH   8   9
ATOM      9  C   UNL     1      13.666  31.576  21.605  1.00  0.00    -0.077 C 
ATOM     10  C   UNL     1      14.927  31.370  22.404  1.00  0.00     0.039 C 
ATOM     11  C   UNL     1      13.154  30.512  20.939  1.00  0.00    -0.028 CG0
ATOM     12  G   UNL     1      11.928  30.514  20.054  1.00  0.00     0.000 G0
ENDBRANCH   8   9
ENDBRANCH   7   8
ENDBRANCH   4   7
BRANCH   1  13
ATOM     13  C   UNL     1       9.686  30.512  21.243  1.00  0.00    -0.074 C 
ATOM     14  C   UNL     1       8.399  30.285  20.925  1.00  0.00     0.008 C 
BRANCH  13  15
ATOM     15  C   UNL     1      10.764  29.659  20.595  1.00  0.00     0.035 C 
BRANCH  15  16
ATOM     16  C   UNL     1      11.921  30.509  20.029  1.00  0.00     0.032 CG0
ATOM     17  G   UNL     1      13.133  30.507  20.932  1.00  0.00     0.000 G0
ENDBRANCH  15  16
ENDBRANCH  13  15
ENDBRANCH   1  13
TORSDOF 0
ENDMDL
MODEL 5
REMARK VINA RESULT:    -4.314      1.372      4.295
REMARK INTER + INTRA:          -5.688
REMARK INTER:                  -5.613
REMARK INTRA:                  -0.075
REMARK UNBOUND:                 0.139
REMARK SMILES C=C1CCC=C(C)CC[C@H]2[C@H]1CC2(C)C
REMARK SMILES IDX 11 1 12 2 13 3 10 4 14 5 15 6 9 7 8 8 6 9 7 10 5 11 2 13
REMARK SMILES IDX 1 14 3 15 4 16
REMARK H PARENT
REMARK Flexibility Score: 70.00
ROOT
ATOM      1  C   UNL     1      11.458  33.800  20.325  1.00  0.00     0.018 C 
ATOM      2  C   UNL     1      12.823  33.857  19.627  1.00  0.00     0.015 C 
ATOM      3  C   UNL     1      13.389  32.833  20.623  1.00  0.00    -0.031 C 
ATOM      4  C   UNL     1      11.992  32.717  21.280  1.00  0.00     0.002 C 
ATOM      5  C   UNL     1      14.518  33.418  21.496  1.00  0.00     0.011 C 
ATOM      6  C   UNL     1      13.833  31.527  19.938  1.00  0.00     0.011 C 
ENDROOT
BRANCH   4   7
ATOM      7  C   UNL     1      11.862  33.098  22.770  1.00  0.00     0.009 C 
BRANCH   7   8
ATOM      8  C   UNL     1      10.591  32.514  23.408  1.00  0.00     0.030 C 
BRANCH   8   9
ATOM      9  C   UNL     1       9.426  33.486  23.365  1.00  0.00    -0.077 C 
ATOM     10  C   UNL     1       9.212  34.392  24.550  1.00  0.00     0.039 C 
ATOM     11  C   UNL     1       8.535  33.551  22.346  1.00  0.00    -0.028 CG0
ATOM     12  G   UNL     1       8.544  32.705  21.092  1.00  0.00     0.000 G0
ENDBRANCH   8   9
ENDBRANCH   7   8
ENDBRANCH   4   7
BRANCH   1  13
ATOM     13  C   UNL     1      10.308  33.423  19.399  1.00  0.00    -0.074 C 
ATOM     14  C   UNL     1      10.604  33.118  18.123  1.00  0.00     0.008 C 
BRANCH  13  15
ATOM     15  C   UNL     1       8.848  33.526  19.810  1.00  0.00     0.035 C 
BRANCH  15  16
ATOM     16  C   UNL     1       8.540  32.707  21.080  1.00  0.00     0.032 CG0
ATOM     17  G   UNL     1       8.540  33.559  22.330  1.00  0.00     0.000 G0
ENDBRANCH  15  16
ENDBRANCH  13  15
ENDBRANCH   1  13
TORSDOF 0
ENDMDL
MODEL 6
REMARK VINA RESULT:    -4.302      1.456      3.559
REMARK INTER + INTRA:          -5.672
REMARK INTER:                  -5.904
REMARK INTRA:                   0.232
REMARK UNBOUND:                 0.139
REMARK SMILES C=C1CCC=C(C)CC[C@H]2[C@H]1CC2(C)C
REMARK SMILES IDX 11 1 12 2 13 3 10 4 14 5 15 6 9 7 8 8 6 9 7 10 5 11 2 13
REMARK SMILES IDX 1 14 3 15 4 16
REMARK H PARENT
REMARK Flexibility Score: 70.00
ROOT
ATOM      1  C   UNL     1      10.907  33.046  22.648  1.00  0.00     0.018 C 
ATOM      2  C   UNL     1      11.031  33.010  24.177  1.00  0.00     0.015 C 
ATOM      3  C   UNL     1       9.532  33.318  24.318  1.00  0.00    -0.031 C 
ATOM      4  C   UNL     1       9.390  33.278  22.776  1.00  0.00     0.002 C 
ATOM      5  C   UNL     1       9.267  34.675  25.002  1.00  0.00     0.011 C 
ATOM      6  C   UNL     1       8.759  32.182  25.014  1.00  0.00     0.011 C 
ENDROOT
BRANCH   4   7
ATOM      7  C   UNL     1       8.906  34.558  22.063  1.00  0.00     0.009 C 
BRANCH   7   8
ATOM      8  C   UNL     1       8.608  34.314  20.575  1.00  0.00     0.030 C 
BRANCH   8   9
ATOM      9  C   UNL     1       7.813  33.040  20.348  1.00  0.00    -0.077 C 
ATOM     10  C   UNL     1       6.313  33.104  20.483  1.00  0.00     0.039 C 
ATOM     11  C   UNL     1       8.377  31.837  20.081  1.00  0.00    -0.028 CG0
ATOM     12  G   UNL     1       9.855  31.549  19.948  1.00  0.00     0.000 G0
ENDBRANCH   8   9
ENDBRANCH   7   8
ENDBRANCH   4   7
BRANCH   1  13
ATOM     13  C   UNL     1      11.373  31.767  21.963  1.00  0.00    -0.074 C 
ATOM     14  C   UNL     1      12.694  31.517  21.932  1.00  0.00     0.008 C 
BRANCH  13  15
ATOM     15  C   UNL     1      10.434  30.854  21.193  1.00  0.00     0.035 C 
BRANCH  15  16
ATOM     16  C   UNL     1       9.850  31.537  19.939  1.00  0.00     0.032 CG0
ATOM     17  G   UNL     1       8.374  31.836  20.080  1.00  0.00     0.000 G0
ENDBRANCH  15  16
ENDBRANCH  13  15
ENDBRANCH   1  13
TORSDOF 0
ENDMDL
MODEL 7
REMARK VINA RESULT:    -4.247      2.006      4.969
REMARK INTER + INTRA:          -5.597
REMARK INTER:                  -5.556
REMARK INTRA:                  -0.040
REMARK UNBOUND:                 0.139
REMARK SMILES C=C1CCC=C(C)CC[C@H]2[C@H]1CC2(C)C
REMARK SMILES IDX 11 1 12 2 13 3 10 4 14 5 15 6 9 7 8 8 6 9 7 10 5 11 2 13
REMARK SMILES IDX 1 14 3 15 4 16
REMARK H PARENT
REMARK Flexibility Score: 70.00
ROOT
ATOM      1  C   UNL     1       9.704  32.459  21.268  1.00  0.00     0.018 C 
ATOM      2  C   UNL     1       9.535  32.391  19.744  1.00  0.00     0.015 C 
ATOM      3  C   UNL     1       8.308  33.312  19.826  1.00  0.00    -0.031 C 
ATOM      4  C   UNL     1       8.523  33.444  21.354  1.00  0.00     0.002 C 
ATOM      5  C   UNL     1       7.011  32.614  19.367  1.00  0.00     0.011 C 
ATOM      6  C   UNL     1       8.518  34.643  19.081  1.00  0.00     0.011 C 
ENDROOT
BRANCH   4   7
ATOM      7  C   UNL     1       7.392  32.961  22.286  1.00  0.00     0.009 C 
BRANCH   7   8
ATOM      8  C   UNL     1       7.563  33.483  23.722  1.00  0.00     0.030 C 
BRANCH   8   9
ATOM      9  C   UNL     1       8.311  32.502  24.606  1.00  0.00    -0.077 C 
ATOM     10  C   UNL     1       7.510  31.474  25.364  1.00  0.00     0.039 C 
ATOM     11  C   UNL     1       9.653  32.527  24.793  1.00  0.00    -0.028 CG0
ATOM     12  G   UNL     1      10.628  33.497  24.164  1.00  0.00     0.000 G0
ENDBRANCH   8   9
ENDBRANCH   7   8
ENDBRANCH   4   7
BRANCH   1  13
ATOM     13  C   UNL     1      11.074  32.955  21.713  1.00  0.00    -0.074 C 
ATOM     14  C   UNL     1      11.916  33.408  20.768  1.00  0.00     0.008 C 
BRANCH  13  15
ATOM     15  C   UNL     1      11.577  32.819  23.141  1.00  0.00     0.035 C 
BRANCH  15  16
ATOM     16  C   UNL     1      10.637  33.494  24.160  1.00  0.00     0.032 CG0
ATOM     17  G   UNL     1       9.653  32.520  24.770  1.00  0.00     0.000 G0
ENDBRANCH  15  16
ENDBRANCH  13  15
ENDBRANCH   1  13
TORSDOF 0
ENDMDL
MODEL 8
REMARK VINA RESULT:    -4.206      1.359      3.411
REMARK INTER + INTRA:          -5.542
REMARK INTER:                  -5.555
REMARK INTRA:                   0.013
REMARK UNBOUND:                 0.139
REMARK SMILES C=C1CCC=C(C)CC[C@H]2[C@H]1CC2(C)C
REMARK SMILES IDX 11 1 12 2 13 3 10 4 14 5 15 6 9 7 8 8 6 9 7 10 5 11 2 13
REMARK SMILES IDX 1 14 3 15 4 16
REMARK H PARENT
REMARK Flexibility Score: 70.00
ROOT
ATOM      1  C   UNL     1       9.622  33.737  22.342  1.00  0.00     0.018 C 
ATOM      2  C   UNL     1       8.337  33.516  23.150  1.00  0.00     0.015 C 
ATOM      3  C   UNL     1       7.700  32.780  21.961  1.00  0.00    -0.031 C 
ATOM      4  C   UNL     1       9.024  32.934  21.171  1.00  0.00     0.002 C 
ATOM      5  C   UNL     1       6.468  33.517  21.398  1.00  0.00     0.011 C 
ATOM      6  C   UNL     1       7.371  31.310  22.284  1.00  0.00     0.011 C 
ENDROOT
BRANCH   4   7
ATOM      7  C   UNL     1       8.985  33.724  19.846  1.00  0.00     0.009 C 
BRANCH   7   8
ATOM      8  C   UNL     1      10.051  33.237  18.851  1.00  0.00     0.030 C 
BRANCH   8   9
ATOM      9  C   UNL     1      11.342  34.028  18.957  1.00  0.00    -0.077 C 
ATOM     10  C   UNL     1      11.592  35.120  17.948  1.00  0.00     0.039 C 
ATOM     11  C   UNL     1      12.307  33.777  19.875  1.00  0.00    -0.028 CG0
ATOM     12  G   UNL     1      12.273  32.706  20.942  1.00  0.00     0.000 G0
ENDBRANCH   8   9
ENDBRANCH   7   8
ENDBRANCH   4   7
BRANCH   1  13
ATOM     13  C   UNL     1      10.873  33.184  23.013  1.00  0.00    -0.074 C 
ATOM     14  C   UNL     1      10.762  32.730  24.273  1.00  0.00     0.008 C 
BRANCH  13  15
ATOM     15  C   UNL     1      12.254  33.266  22.381  1.00  0.00     0.035 C 
BRANCH  15  16
ATOM     16  C   UNL     1      12.276  32.693  20.949  1.00  0.00     0.032 CG0
ATOM     17  G   UNL     1      12.306  33.778  19.895  1.00  0.00     0.000 G0
ENDBRANCH  15  16
ENDBRANCH  13  15
ENDBRANCH   1  13
TORSDOF 0
ENDMDL
MODEL 9
REMARK VINA RESULT:    -3.985      2.735      4.705
REMARK INTER + INTRA:          -5.244
REMARK INTER:                  -5.396
REMARK INTRA:                   0.152
REMARK UNBOUND:                 0.139
REMARK SMILES C=C1CCC=C(C)CC[C@H]2[C@H]1CC2(C)C
REMARK SMILES IDX 11 1 12 2 13 3 10 4 14 5 15 6 9 7 8 8 6 9 7 10 5 11 2 13
REMARK SMILES IDX 1 14 3 15 4 16
REMARK H PARENT
REMARK Flexibility Score: 70.00
ROOT
ATOM      1  C   UNL     1      12.578  30.955  21.307  1.00  0.00     0.018 C 
ATOM      2  C   UNL     1      11.088  31.181  21.596  1.00  0.00     0.015 C 
ATOM      3  C   UNL     1      11.270  32.696  21.411  1.00  0.00    -0.031 C 
ATOM      4  C   UNL     1      12.756  32.461  21.044  1.00  0.00     0.002 C 
ATOM      5  C   UNL     1      10.994  33.488  22.705  1.00  0.00     0.011 C 
ATOM      6  C   UNL     1      10.448  33.250  20.232  1.00  0.00     0.011 C 
ENDROOT
BRANCH   4   7
ATOM      7  C   UNL     1      13.832  33.115  21.937  1.00  0.00     0.009 C 
BRANCH   7   8
ATOM      8  C   UNL     1      15.254  32.848  21.420  1.00  0.00     0.030 C 
BRANCH   8   9
ATOM      9  C   UNL     1      15.403  33.184  19.947  1.00  0.00    -0.077 C 
ATOM     10  C   UNL     1      15.625  34.625  19.565  1.00  0.00     0.039 C 
ATOM     11  C   UNL     1      15.299  32.271  18.950  1.00  0.00    -0.028 CG0
ATOM     12  G   UNL     1      15.037  30.790  19.115  1.00  0.00     0.000 G0
ENDBRANCH   8   9
ENDBRANCH   7   8
ENDBRANCH   4   7
BRANCH   1  13
ATOM     13  C   UNL     1      12.842  29.997  20.151  1.00  0.00    -0.074 C 
ATOM     14  C   UNL     1      12.555  28.697  20.335  1.00  0.00     0.008 C 
BRANCH  13  15
ATOM     15  C   UNL     1      13.547  30.421  18.873  1.00  0.00     0.035 C 
BRANCH  15  16
ATOM     16  C   UNL     1      15.029  30.776  19.113  1.00  0.00     0.032 CG0
ATOM     17  G   UNL     1      15.301  32.255  18.948  1.00  0.00     0.000 G0
ENDBRANCH  15  16
ENDBRANCH  13  15
ENDBRANCH   1  13
TORSDOF 0
ENDMDL
