MODEL 1
REMARK VINA RESULT:    -3.859      0.000      0.000
REMARK INTER + INTRA:          -3.728
REMARK INTER:                  -4.762
REMARK INTRA:                   1.034
REMARK UNBOUND:                 1.034
REMARK SMILES C=C1[C@@H]2CC[C@H]3[C@@H]2C(C)(C)CCC[C@@]13C
REMARK SMILES IDX 14 1 6 2 7 3 3 4 2 5 1 6 4 7 5 8 15 9 8 10 9 11 10 12 11 13
REMARK SMILES IDX 13 15 12 16
REMARK H PARENT
REMARK Flexibility Score: 80.00
ROOT
ATOM      1  C   UNL     1       3.180  13.879   4.318  1.00  0.00    -0.008 C 
ATOM      2  C   UNL     1       1.848  14.669   4.016  1.00  0.00     0.003 C 
ATOM      3  C   UNL     1       0.731  13.605   4.123  1.00  0.00     0.006 C 
ATOM      4  C   UNL     1       1.412  12.637   3.164  1.00  0.00     0.019 C 
ATOM      5  C   UNL     1       2.787  12.529   3.761  1.00  0.00    -0.068 C 
ATOM      6  C   UNL     1       3.561  11.438   3.701  1.00  0.00     0.009 C 
ATOM      7  C   UNL     1       1.543  13.524   1.903  1.00  0.00     0.008 C 
ATOM      8  C   UNL     1       1.743  14.944   2.491  1.00  0.00     0.005 C 
ATOM      9  C   UNL     1       4.423  14.421   3.562  1.00  0.00     0.016 C 
ENDROOT
BRANCH   3  10
ATOM     10  C   UNL     1       0.260  13.075   5.530  1.00  0.00    -0.032 C 
ATOM     11  C   UNL     1      -0.642  11.833   5.320  1.00  0.00     0.011 C 
ATOM     12  C   UNL     1      -0.629  14.163   6.190  1.00  0.00     0.011 C 
BRANCH  10  13
ATOM     13  C   UNL     1       1.393  12.655   6.507  1.00  0.00     0.007 CG0
ATOM     14  G   UNL     1       2.400  13.761   6.824  1.00  0.00     0.000 G0
ENDBRANCH  10  13
ENDBRANCH   3  10
BRANCH   1  15
ATOM     15  C   UNL     1       3.552  13.829   5.829  1.00  0.00     0.011 C 
BRANCH  15  16
ATOM     16  C   UNL     1       2.398  13.750   6.826  1.00  0.00     0.001 CG0
ATOM     17  G   UNL     1       1.400  12.639   6.499  1.00  0.00     0.000 G0
ENDBRANCH  15  16
ENDBRANCH   1  15
TORSDOF 0
ENDMDL
MODEL 2
REMARK VINA RESULT:    -3.477      4.081      6.137
REMARK INTER + INTRA:          -3.256
REMARK INTER:                  -4.297
REMARK INTRA:                   1.040
REMARK UNBOUND:                 1.034
REMARK SMILES C=C1[C@@H]2CC[C@H]3[C@@H]2C(C)(C)CCC[C@@]13C
REMARK SMILES IDX 14 1 6 2 7 3 3 4 2 5 1 6 4 7 5 8 15 9 8 10 9 11 10 12 11 13
REMARK SMILES IDX 13 15 12 16
REMARK H PARENT
REMARK Flexibility Score: 80.00
ROOT
ATOM      1  C   UNL     1      -1.067  14.828  -0.979  1.00  0.00    -0.008 C 
ATOM      2  C   UNL     1      -0.604  15.971   0.005  1.00  0.00     0.003 C 
ATOM      3  C   UNL     1      -0.258  15.236   1.321  1.00  0.00     0.006 C 
ATOM      4  C   UNL     1      -1.595  14.508   1.391  1.00  0.00     0.019 C 
ATOM      5  C   UNL     1      -1.673  13.878   0.029  1.00  0.00    -0.068 C 
ATOM      6  C   UNL     1      -2.283  12.716  -0.239  1.00  0.00     0.009 C 
ATOM      7  C   UNL     1      -2.576  15.703   1.385  1.00  0.00     0.008 C 
ATOM      8  C   UNL     1      -1.846  16.753   0.511  1.00  0.00     0.005 C 
ATOM      9  C   UNL     1      -2.147  15.272  -2.002  1.00  0.00     0.016 C 
ENDROOT
BRANCH   3  10
ATOM     10  C   UNL     1       1.070  14.399   1.448  1.00  0.00    -0.032 C 
ATOM     11  C   UNL     1       1.008  13.557   2.747  1.00  0.00     0.011 C 
ATOM     12  C   UNL     1       2.256  15.386   1.615  1.00  0.00     0.011 C 
BRANCH  10  13
ATOM     13  C   UNL     1       1.363  13.415   0.281  1.00  0.00     0.007 CG0
ATOM     14  G   UNL     1       1.452  14.073  -1.096  1.00  0.00     0.000 G0
ENDBRANCH  10  13
ENDBRANCH   3  10
BRANCH   1  15
ATOM     15  C   UNL     1       0.097  14.190  -1.793  1.00  0.00     0.011 C 
BRANCH  15  16
ATOM     16  C   UNL     1       1.451  14.078  -1.097  1.00  0.00     0.001 CG0
ATOM     17  G   UNL     1       1.365  13.417   0.279  1.00  0.00     0.000 G0
ENDBRANCH  15  16
ENDBRANCH   1  15
TORSDOF 0
ENDMDL
MODEL 3
REMARK VINA RESULT:    -3.413      3.527      5.139
REMARK INTER + INTRA:          -3.177
REMARK INTER:                  -4.188
REMARK INTRA:                   1.010
REMARK UNBOUND:                 1.034
REMARK SMILES C=C1[C@@H]2CC[C@H]3[C@@H]2C(C)(C)CCC[C@@]13C
REMARK SMILES IDX 14 1 6 2 7 3 3 4 2 5 1 6 4 7 5 8 15 9 8 10 9 11 10 12 11 13
REMARK SMILES IDX 13 15 12 16
REMARK H PARENT
REMARK Flexibility Score: 80.00
ROOT
ATOM      1  C   UNL     1       1.283  14.605   1.669  1.00  0.00    -0.008 C 
ATOM      2  C   UNL     1       1.143  16.108   1.209  1.00  0.00     0.003 C 
ATOM      3  C   UNL     1       0.286  16.044  -0.076  1.00  0.00     0.006 C 
ATOM      4  C   UNL     1       1.173  15.001  -0.745  1.00  0.00     0.019 C 
ATOM      5  C   UNL     1       1.248  13.938   0.313  1.00  0.00    -0.068 C 
ATOM      6  C   UNL     1       1.374  12.626   0.069  1.00  0.00     0.009 C 
ATOM      7  C   UNL     1       2.535  15.733  -0.738  1.00  0.00     0.008 C 
ATOM      8  C   UNL     1       2.474  16.577   0.561  1.00  0.00     0.005 C 
ATOM      9  C   UNL     1       2.623  14.284   2.383  1.00  0.00     0.016 C 
ENDROOT
BRANCH   3  10
ATOM     10  C   UNL     1      -1.266  15.781   0.006  1.00  0.00    -0.032 C 
ATOM     11  C   UNL     1      -1.796  15.469  -1.415  1.00  0.00     0.011 C 
ATOM     12  C   UNL     1      -1.960  17.093   0.461  1.00  0.00     0.011 C 
BRANCH  10  13
ATOM     13  C   UNL     1      -1.704  14.607   0.924  1.00  0.00     0.007 CG0
ATOM     14  G   UNL     1      -1.246  14.732   2.378  1.00  0.00     0.000 G0
ENDBRANCH  10  13
ENDBRANCH   3  10
BRANCH   1  15
ATOM     15  C   UNL     1       0.139  14.129   2.612  1.00  0.00     0.011 C 
BRANCH  15  16
ATOM     16  C   UNL     1      -1.248  14.723   2.378  1.00  0.00     0.001 CG0
ATOM     17  G   UNL     1      -1.710  14.610   0.924  1.00  0.00     0.000 G0
ENDBRANCH  15  16
ENDBRANCH   1  15
TORSDOF 0
ENDMDL
MODEL 4
REMARK VINA RESULT:    -3.279      4.239      6.396
REMARK INTER + INTRA:          -3.013
REMARK INTER:                  -4.011
REMARK INTRA:                   0.998
REMARK UNBOUND:                 1.034
REMARK SMILES C=C1[C@@H]2CC[C@H]3[C@@H]2C(C)(C)CCC[C@@]13C
REMARK SMILES IDX 14 1 6 2 7 3 3 4 2 5 1 6 4 7 5 8 15 9 8 10 9 11 10 12 11 13
REMARK SMILES IDX 13 15 12 16
REMARK H PARENT
REMARK Flexibility Score: 80.00
ROOT
ATOM      1  C   UNL     1       1.070  15.567   0.445  1.00  0.00    -0.008 C 
ATOM      2  C   UNL     1       1.304  14.043   0.783  1.00  0.00     0.003 C 
ATOM      3  C   UNL     1      -0.056  13.366   0.493  1.00  0.00     0.006 C 
ATOM      4  C   UNL     1      -0.848  14.343   1.353  1.00  0.00     0.019 C 
ATOM      5  C   UNL     1      -0.394  15.668   0.809  1.00  0.00    -0.068 C 
ATOM      6  C   UNL     1      -1.150  16.774   0.767  1.00  0.00     0.009 C 
ATOM      7  C   UNL     1      -0.147  14.159   2.719  1.00  0.00     0.008 C 
ATOM      8  C   UNL     1       1.319  13.852   2.324  1.00  0.00     0.005 C 
ATOM      9  C   UNL     1       1.901  16.544   1.318  1.00  0.00     0.016 C 
ENDROOT
BRANCH   3  10
ATOM     10  C   UNL     1      -0.524  13.107  -0.989  1.00  0.00    -0.032 C 
ATOM     11  C   UNL     1      -2.025  12.725  -0.980  1.00  0.00     0.011 C 
ATOM     12  C   UNL     1       0.245  11.874  -1.536  1.00  0.00     0.011 C 
BRANCH  10  13
ATOM     13  C   UNL     1      -0.364  14.304  -1.967  1.00  0.00     0.007 CG0
ATOM     14  G   UNL     1       1.061  14.850  -2.074  1.00  0.00     0.000 G0
ENDBRANCH  10  13
ENDBRANCH   3  10
BRANCH   1  15
ATOM     15  C   UNL     1       1.353  15.930  -1.042  1.00  0.00     0.011 C 
BRANCH  15  16
ATOM     16  C   UNL     1       1.053  14.860  -2.088  1.00  0.00     0.001 CG0
ATOM     17  G   UNL     1      -0.363  14.293  -1.977  1.00  0.00     0.000 G0
ENDBRANCH  15  16
ENDBRANCH   1  15
TORSDOF 0
ENDMDL
MODEL 5
REMARK VINA RESULT:    -3.262      3.225      5.091
REMARK INTER + INTRA:          -2.990
REMARK INTER:                  -3.994
REMARK INTRA:                   1.004
REMARK UNBOUND:                 1.034
REMARK SMILES C=C1[C@@H]2CC[C@H]3[C@@H]2C(C)(C)CCC[C@@]13C
REMARK SMILES IDX 14 1 6 2 7 3 3 4 2 5 1 6 4 7 5 8 15 9 8 10 9 11 10 12 11 13
REMARK SMILES IDX 13 15 12 16
REMARK H PARENT
REMARK Flexibility Score: 80.00
ROOT
ATOM      1  C   UNL     1       0.816  15.433  -0.603  1.00  0.00    -0.008 C 
ATOM      2  C   UNL     1      -0.179  14.705   0.382  1.00  0.00     0.003 C 
ATOM      3  C   UNL     1       0.635  13.521   0.953  1.00  0.00     0.006 C 
ATOM      4  C   UNL     1       1.047  13.002  -0.419  1.00  0.00     0.019 C 
ATOM      5  C   UNL     1       1.622  14.236  -1.054  1.00  0.00    -0.068 C 
ATOM      6  C   UNL     1       2.614  14.239  -1.954  1.00  0.00     0.009 C 
ATOM      7  C   UNL     1      -0.338  12.771  -1.068  1.00  0.00     0.008 C 
ATOM      8  C   UNL     1      -1.212  13.885  -0.438  1.00  0.00     0.005 C 
ATOM      9  C   UNL     1       0.125  16.097  -1.825  1.00  0.00     0.016 C 
ENDROOT
BRANCH   3  10
ATOM     10  C   UNL     1       1.750  13.763   2.040  1.00  0.00    -0.032 C 
ATOM     11  C   UNL     1       2.591  12.471   2.191  1.00  0.00     0.011 C 
ATOM     12  C   UNL     1       1.057  14.005   3.407  1.00  0.00     0.011 C 
BRANCH  10  13
ATOM     13  C   UNL     1       2.744  14.921   1.741  1.00  0.00     0.007 CG0
ATOM     14  G   UNL     1       2.086  16.286   1.539  1.00  0.00     0.000 G0
ENDBRANCH  10  13
ENDBRANCH   3  10
BRANCH   1  15
ATOM     15  C   UNL     1       1.685  16.529   0.080  1.00  0.00     0.011 C 
BRANCH  15  16
ATOM     16  C   UNL     1       2.100  16.285   1.529  1.00  0.00     0.001 CG0
ATOM     17  G   UNL     1       2.737  14.912   1.746  1.00  0.00     0.000 G0
ENDBRANCH  15  16
ENDBRANCH   1  15
TORSDOF 0
ENDMDL
MODEL 6
REMARK VINA RESULT:    -3.223      4.522      6.110
REMARK INTER + INTRA:          -2.943
REMARK INTER:                  -3.946
REMARK INTRA:                   1.004
REMARK UNBOUND:                 1.034
REMARK SMILES C=C1[C@@H]2CC[C@H]3[C@@H]2C(C)(C)CCC[C@@]13C
REMARK SMILES IDX 14 1 6 2 7 3 3 4 2 5 1 6 4 7 5 8 15 9 8 10 9 11 10 12 11 13
REMARK SMILES IDX 13 15 12 16
REMARK H PARENT
REMARK Flexibility Score: 80.00
ROOT
ATOM      1  C   UNL     1       0.895  15.156  -1.006  1.00  0.00    -0.008 C 
ATOM      2  C   UNL     1       0.108  13.803  -0.806  1.00  0.00     0.003 C 
ATOM      3  C   UNL     1      -0.441  13.881   0.637  1.00  0.00     0.006 C 
ATOM      4  C   UNL     1       0.916  14.204   1.251  1.00  0.00     0.019 C 
ATOM      5  C   UNL     1       1.359  15.372   0.416  1.00  0.00    -0.068 C 
ATOM      6  C   UNL     1       2.132  16.374   0.857  1.00  0.00     0.009 C 
ATOM      7  C   UNL     1       1.743  12.984   0.782  1.00  0.00     0.008 C 
ATOM      8  C   UNL     1       1.118  12.643  -0.594  1.00  0.00     0.005 C 
ATOM      9  C   UNL     1       2.121  15.041  -1.951  1.00  0.00     0.016 C 
ENDROOT
BRANCH   3  10
ATOM     10  C   UNL     1      -1.670  14.806   0.981  1.00  0.00    -0.032 C 
ATOM     11  C   UNL     1      -1.793  14.923   2.520  1.00  0.00     0.011 C 
ATOM     12  C   UNL     1      -2.962  14.106   0.483  1.00  0.00     0.011 C 
BRANCH  10  13
ATOM     13  C   UNL     1      -1.603  16.253   0.418  1.00  0.00     0.007 CG0
ATOM     14  G   UNL     1      -1.452  16.337  -1.102  1.00  0.00     0.000 G0
ENDBRANCH  10  13
ENDBRANCH   3  10
BRANCH   1  15
ATOM     15  C   UNL     1       0.014  16.321  -1.543  1.00  0.00     0.011 C 
BRANCH  15  16
ATOM     16  C   UNL     1      -1.445  16.354  -1.093  1.00  0.00     0.001 CG0
ATOM     17  G   UNL     1      -1.606  16.254   0.425  1.00  0.00     0.000 G0
ENDBRANCH  15  16
ENDBRANCH   1  15
TORSDOF 0
ENDMDL
MODEL 7
REMARK VINA RESULT:    -3.186      4.337      6.207
REMARK INTER + INTRA:          -2.898
REMARK INTER:                  -3.901
REMARK INTRA:                   1.004
REMARK UNBOUND:                 1.034
REMARK SMILES C=C1[C@@H]2CC[C@H]3[C@@H]2C(C)(C)CCC[C@@]13C
REMARK SMILES IDX 14 1 6 2 7 3 3 4 2 5 1 6 4 7 5 8 15 9 8 10 9 11 10 12 11 13
REMARK SMILES IDX 13 15 12 16
REMARK H PARENT
REMARK Flexibility Score: 80.00
ROOT
ATOM      1  C   UNL     1       0.243  13.641  -0.105  1.00  0.00    -0.008 C 
ATOM      2  C   UNL     1       0.018  14.102   1.388  1.00  0.00     0.003 C 
ATOM      3  C   UNL     1      -0.503  15.553   1.274  1.00  0.00     0.006 C 
ATOM      4  C   UNL     1       0.644  16.008   0.379  1.00  0.00     0.019 C 
ATOM      5  C   UNL     1       0.610  14.976  -0.712  1.00  0.00    -0.068 C 
ATOM      6  C   UNL     1       0.959  15.202  -1.986  1.00  0.00     0.009 C 
ATOM      7  C   UNL     1       1.860  15.671   1.273  1.00  0.00     0.008 C 
ATOM      8  C   UNL     1       1.390  14.412   2.045  1.00  0.00     0.005 C 
ATOM      9  C   UNL     1       1.412  12.637  -0.289  1.00  0.00     0.016 C 
ENDROOT
BRANCH   3  10
ATOM     10  C   UNL     1      -1.983  15.841   0.818  1.00  0.00    -0.032 C 
ATOM     11  C   UNL     1      -2.123  17.350   0.497  1.00  0.00     0.011 C 
ATOM     12  C   UNL     1      -2.928  15.552   2.014  1.00  0.00     0.011 C 
BRANCH  10  13
ATOM     13  C   UNL     1      -2.466  15.063  -0.437  1.00  0.00     0.007 CG0
ATOM     14  G   UNL     1      -2.376  13.541  -0.314  1.00  0.00     0.000 G0
ENDBRANCH  10  13
ENDBRANCH   3  10
BRANCH   1  15
ATOM     15  C   UNL     1      -1.016  13.000  -0.760  1.00  0.00     0.011 C 
BRANCH  15  16
ATOM     16  C   UNL     1      -2.376  13.548  -0.335  1.00  0.00     0.001 CG0
ATOM     17  G   UNL     1      -2.468  15.071  -0.443  1.00  0.00     0.000 G0
ENDBRANCH  15  16
ENDBRANCH   1  15
TORSDOF 0
ENDMDL
MODEL 8
REMARK VINA RESULT:    -2.954      5.397      7.197
REMARK INTER + INTRA:          -2.611
REMARK INTER:                  -3.639
REMARK INTRA:                   1.028
REMARK UNBOUND:                 1.034
REMARK SMILES C=C1[C@@H]2CC[C@H]3[C@@H]2C(C)(C)CCC[C@@]13C
REMARK SMILES IDX 14 1 6 2 7 3 3 4 2 5 1 6 4 7 5 8 15 9 8 10 9 11 10 12 11 13
REMARK SMILES IDX 13 15 12 16
REMARK H PARENT
REMARK Flexibility Score: 80.00
ROOT
ATOM      1  C   UNL     1      -0.668  14.712   0.048  1.00  0.00    -0.008 C 
ATOM      2  C   UNL     1      -1.724  14.124   1.062  1.00  0.00     0.003 C 
ATOM      3  C   UNL     1      -3.076  14.224   0.319  1.00  0.00     0.006 C 
ATOM      4  C   UNL     1      -2.908  15.702  -0.011  1.00  0.00     0.019 C 
ATOM      5  C   UNL     1      -1.550  15.720  -0.654  1.00  0.00    -0.068 C 
ATOM      6  C   UNL     1      -1.174  16.573  -1.616  1.00  0.00     0.009 C 
ATOM      7  C   UNL     1      -2.736  16.297   1.406  1.00  0.00     0.008 C 
ATOM      8  C   UNL     1      -2.008  15.167   2.177  1.00  0.00     0.005 C 
ATOM      9  C   UNL     1       0.526  15.436   0.725  1.00  0.00     0.016 C 
ENDROOT
BRANCH   3  10
ATOM     10  C   UNL     1      -3.430  13.221  -0.843  1.00  0.00    -0.032 C 
ATOM     11  C   UNL     1      -4.692  13.735  -1.580  1.00  0.00     0.011 C 
ATOM     12  C   UNL     1      -3.810  11.855  -0.212  1.00  0.00     0.011 C 
BRANCH  10  13
ATOM     13  C   UNL     1      -2.327  13.018  -1.918  1.00  0.00     0.007 CG0
ATOM     14  G   UNL     1      -0.996  12.499  -1.372  1.00  0.00     0.000 G0
ENDBRANCH  10  13
ENDBRANCH   3  10
BRANCH   1  15
ATOM     15  C   UNL     1      -0.068  13.651  -0.920  1.00  0.00     0.011 C 
BRANCH  15  16
ATOM     16  C   UNL     1      -0.990  12.520  -1.369  1.00  0.00     0.001 CG0
ATOM     17  G   UNL     1      -2.327  13.018  -1.918  1.00  0.00     0.000 G0
ENDBRANCH  15  16
ENDBRANCH   1  15
TORSDOF 0
ENDMDL
MODEL 9
REMARK VINA RESULT:    -2.722      5.565      7.469
REMARK INTER + INTRA:          -2.325
REMARK INTER:                  -3.347
REMARK INTRA:                   1.022
REMARK UNBOUND:                 1.034
REMARK SMILES C=C1[C@@H]2CC[C@H]3[C@@H]2C(C)(C)CCC[C@@]13C
REMARK SMILES IDX 14 1 6 2 7 3 3 4 2 5 1 6 4 7 5 8 15 9 8 10 9 11 10 12 11 13
REMARK SMILES IDX 13 15 12 16
REMARK H PARENT
REMARK Flexibility Score: 80.00
ROOT
ATOM      1  C   UNL     1      -4.107  14.580  -0.290  1.00  0.00    -0.008 C 
ATOM      2  C   UNL     1      -3.096  13.470   0.195  1.00  0.00     0.003 C 
ATOM      3  C   UNL     1      -1.701  14.118   0.038  1.00  0.00     0.006 C 
ATOM      4  C   UNL     1      -1.931  14.518  -1.414  1.00  0.00     0.019 C 
ATOM      5  C   UNL     1      -3.236  15.257  -1.325  1.00  0.00    -0.068 C 
ATOM      6  C   UNL     1      -3.591  16.276  -2.119  1.00  0.00     0.009 C 
ATOM      7  C   UNL     1      -2.242  13.141  -2.048  1.00  0.00     0.008 C 
ATOM      8  C   UNL     1      -2.957  12.381  -0.902  1.00  0.00     0.005 C 
ATOM      9  C   UNL     1      -5.388  14.019  -0.962  1.00  0.00     0.016 C 
ENDROOT
BRANCH   3  10
ATOM     10  C   UNL     1      -1.202  15.211   1.057  1.00  0.00    -0.032 C 
ATOM     11  C   UNL     1       0.075  15.879   0.490  1.00  0.00     0.011 C 
ATOM     12  C   UNL     1      -0.785  14.500   2.372  1.00  0.00     0.011 C 
BRANCH  10  13
ATOM     13  C   UNL     1      -2.211  16.351   1.370  1.00  0.00     0.007 CG0
ATOM     14  G   UNL     1      -3.553  15.875   1.930  1.00  0.00     0.000 G0
ENDBRANCH  10  13
ENDBRANCH   3  10
BRANCH   1  15
ATOM     15  C   UNL     1      -4.570  15.545   0.840  1.00  0.00     0.011 C 
BRANCH  15  16
ATOM     16  C   UNL     1      -3.553  15.878   1.930  1.00  0.00     0.001 CG0
ATOM     17  G   UNL     1      -2.210  16.350   1.372  1.00  0.00     0.000 G0
ENDBRANCH  15  16
ENDBRANCH   1  15
TORSDOF 0
ENDMDL
