MODEL 1
REMARK VINA RESULT:    -5.736      0.000      0.000
REMARK INTER + INTRA:          -9.055
REMARK INTER:                  -8.083
REMARK INTRA:                  -0.972
REMARK UNBOUND:                -0.972
REMARK SMILES C=CC(=C)CCC=C(C)CCC=C(C)C
REMARK SMILES IDX 8 1 7 2 9 3 10 4 11 5 12 6 14 7 13 8 15 9 6 10 5 11 3 12
REMARK SMILES IDX 4 13 2 14 1 15
REMARK H PARENT
REMARK Flexibility Score: inf
ROOT
ATOM      1  C   UNL     1       4.337   8.120  12.136  1.00  0.00    -0.077 C 
ATOM      2  C   UNL     1       4.764   6.888  11.771  1.00  0.00    -0.028 C 
ATOM      3  C   UNL     1       3.584   8.355  13.424  1.00  0.00     0.039 C 
ENDROOT
BRANCH   1   4
ATOM      4  C   UNL     1       4.612   9.291  11.218  1.00  0.00     0.034 C 
BRANCH   4   5
ATOM      5  C   UNL     1       3.460  10.301  11.260  1.00  0.00     0.032 C 
BRANCH   5   6
ATOM      6  C   UNL     1       3.939  11.636  11.773  1.00  0.00    -0.028 C 
ATOM      7  C   UNL     1       2.092  11.830  13.456  1.00  0.00     0.039 C 
ATOM      8  C   UNL     1       3.349  12.324  12.776  1.00  0.00    -0.080 C 
ATOM      9  C   UNL     1       3.962  13.631  13.209  1.00  0.00     0.039 C 
ENDBRANCH   5   6
ENDBRANCH   4   5
ENDBRANCH   1   4
BRANCH   2  10
ATOM     10  C   UNL     1       4.507   5.619  12.549  1.00  0.00     0.032 C 
BRANCH  10  11
ATOM     11  C   UNL     1       5.817   4.882  12.857  1.00  0.00     0.039 C 
BRANCH  11  12
ATOM     12  C   UNL     1       6.986   5.836  12.998  1.00  0.00    -0.055 C 
ATOM     13  C   UNL     1       7.940   5.841  12.059  1.00  0.00     0.012 C 
BRANCH  12  14
ATOM     14  C   UNL     1       7.131   6.743  14.165  1.00  0.00    -0.005 C 
ATOM     15  C   UNL     1       7.826   7.881  14.144  1.00  0.00     0.009 C 
ENDBRANCH  12  14
ENDBRANCH  11  12
ENDBRANCH  10  11
ENDBRANCH   2  10
TORSDOF 7
ENDMDL
MODEL 2
REMARK VINA RESULT:    -5.346      0.745      5.851
REMARK INTER + INTRA:          -8.505
REMARK INTER:                  -8.043
REMARK INTRA:                  -0.462
REMARK UNBOUND:                -0.972
REMARK SMILES C=CC(=C)CCC=C(C)CCC=C(C)C
REMARK SMILES IDX 8 1 7 2 9 3 10 4 11 5 12 6 14 7 13 8 15 9 6 10 5 11 3 12
REMARK SMILES IDX 4 13 2 14 1 15
REMARK H PARENT
REMARK Flexibility Score: inf
ROOT
ATOM      1  C   UNL     1       4.311   7.129  12.538  1.00  0.00    -0.077 C 
ATOM      2  C   UNL     1       4.773   7.911  11.534  1.00  0.00    -0.028 C 
ATOM      3  C   UNL     1       3.760   7.714  13.817  1.00  0.00     0.039 C 
ENDROOT
BRANCH   1   4
ATOM      4  C   UNL     1       4.365   5.626  12.376  1.00  0.00     0.034 C 
BRANCH   4   5
ATOM      5  C   UNL     1       5.631   5.051  13.020  1.00  0.00     0.032 C 
BRANCH   5   6
ATOM      6  C   UNL     1       6.421   6.135  13.708  1.00  0.00    -0.028 C 
ATOM      7  C   UNL     1       8.132   6.265  11.882  1.00  0.00     0.039 C 
ATOM      8  C   UNL     1       7.534   6.708  13.198  1.00  0.00    -0.080 C 
ATOM      9  C   UNL     1       8.199   7.810  13.982  1.00  0.00     0.039 C 
ENDBRANCH   5   6
ENDBRANCH   4   5
ENDBRANCH   1   4
BRANCH   2  10
ATOM     10  C   UNL     1       4.845   9.420  11.578  1.00  0.00     0.032 C 
BRANCH  10  11
ATOM     11  C   UNL     1       3.542  10.054  11.074  1.00  0.00     0.039 C 
BRANCH  11  12
ATOM     12  C   UNL     1       3.036  11.132  12.011  1.00  0.00    -0.055 C 
ATOM     13  C   UNL     1       1.998  10.866  12.813  1.00  0.00     0.012 C 
BRANCH  12  14
ATOM     14  C   UNL     1       3.628  12.495  12.044  1.00  0.00    -0.005 C 
ATOM     15  C   UNL     1       4.046  13.100  13.156  1.00  0.00     0.009 C 
ENDBRANCH  12  14
ENDBRANCH  11  12
ENDBRANCH  10  11
ENDBRANCH   2  10
TORSDOF 7
ENDMDL
MODEL 3
REMARK VINA RESULT:    -5.333      1.215      6.631
REMARK INTER + INTRA:          -8.487
REMARK INTER:                  -7.603
REMARK INTRA:                  -0.885
REMARK UNBOUND:                -0.972
REMARK SMILES C=CC(=C)CCC=C(C)CCC=C(C)C
REMARK SMILES IDX 8 1 7 2 9 3 10 4 11 5 12 6 14 7 13 8 15 9 6 10 5 11 3 12
REMARK SMILES IDX 4 13 2 14 1 15
REMARK H PARENT
REMARK Flexibility Score: inf
ROOT
ATOM      1  C   UNL     1       3.660   9.826  11.710  1.00  0.00    -0.077 C 
ATOM      2  C   UNL     1       3.836  10.877  10.876  1.00  0.00    -0.028 C 
ATOM      3  C   UNL     1       2.554   9.800  12.739  1.00  0.00     0.039 C 
ENDROOT
BRANCH   1   4
ATOM      4  C   UNL     1       4.609   8.652  11.616  1.00  0.00     0.034 C 
BRANCH   4   5
ATOM      5  C   UNL     1       4.518   7.773  12.869  1.00  0.00     0.032 C 
BRANCH   5   6
ATOM      6  C   UNL     1       5.267   6.479  12.670  1.00  0.00    -0.028 C 
ATOM      7  C   UNL     1       7.372   7.353  13.710  1.00  0.00     0.039 C 
ATOM      8  C   UNL     1       6.542   6.267  13.065  1.00  0.00    -0.080 C 
ATOM      9  C   UNL     1       7.149   4.907  12.833  1.00  0.00     0.039 C 
ENDBRANCH   5   6
ENDBRANCH   4   5
ENDBRANCH   1   4
BRANCH   2  10
ATOM     10  C   UNL     1       3.012  12.144  10.895  1.00  0.00     0.032 C 
BRANCH  10  11
ATOM     11  C   UNL     1       3.906  13.390  10.876  1.00  0.00     0.039 C 
BRANCH  11  12
ATOM     12  C   UNL     1       3.995  14.046  12.239  1.00  0.00    -0.055 C 
ATOM     13  C   UNL     1       4.056  15.381  12.318  1.00  0.00     0.012 C 
BRANCH  12  14
ATOM     14  C   UNL     1       4.056  13.256  13.496  1.00  0.00    -0.005 C 
ATOM     15  C   UNL     1       3.050  13.156  14.365  1.00  0.00     0.009 C 
ENDBRANCH  12  14
ENDBRANCH  11  12
ENDBRANCH  10  11
ENDBRANCH   2  10
TORSDOF 7
ENDMDL
MODEL 4
REMARK VINA RESULT:    -5.323      1.274      1.926
REMARK INTER + INTRA:          -8.472
REMARK INTER:                  -7.616
REMARK INTRA:                  -0.856
REMARK UNBOUND:                -0.972
REMARK SMILES C=CC(=C)CCC=C(C)CCC=C(C)C
REMARK SMILES IDX 8 1 7 2 9 3 10 4 11 5 12 6 14 7 13 8 15 9 6 10 5 11 3 12
REMARK SMILES IDX 4 13 2 14 1 15
REMARK H PARENT
REMARK Flexibility Score: inf
ROOT
ATOM      1  C   UNL     1       3.968   9.885  11.607  1.00  0.00    -0.077 C 
ATOM      2  C   UNL     1       4.729   8.783  11.412  1.00  0.00    -0.028 C 
ATOM      3  C   UNL     1       2.722   9.854  12.461  1.00  0.00     0.039 C 
ENDROOT
BRANCH   1   4
ATOM      4  C   UNL     1       4.372  11.180  10.938  1.00  0.00     0.034 C 
BRANCH   4   5
ATOM      5  C   UNL     1       3.191  12.155  10.875  1.00  0.00     0.032 C 
BRANCH   5   6
ATOM      6  C   UNL     1       3.673  13.583  10.915  1.00  0.00    -0.028 C 
ATOM      7  C   UNL     1       3.535  13.727  13.413  1.00  0.00     0.039 C 
ATOM      8  C   UNL     1       3.856  14.295  12.049  1.00  0.00    -0.080 C 
ATOM      9  C   UNL     1       4.381  15.703  11.937  1.00  0.00     0.039 C 
ENDBRANCH   5   6
ENDBRANCH   4   5
ENDBRANCH   1   4
BRANCH   2  10
ATOM     10  C   UNL     1       4.418   7.409  11.959  1.00  0.00     0.032 C 
BRANCH  10  11
ATOM     11  C   UNL     1       5.217   7.125  13.237  1.00  0.00     0.039 C 
BRANCH  11  12
ATOM     12  C   UNL     1       6.439   6.270  12.964  1.00  0.00    -0.055 C 
ATOM     13  C   UNL     1       6.281   4.961  12.739  1.00  0.00     0.012 C 
BRANCH  12  14
ATOM     14  C   UNL     1       7.815   6.830  12.977  1.00  0.00    -0.005 C 
ATOM     15  C   UNL     1       8.124   8.043  13.436  1.00  0.00     0.009 C 
ENDBRANCH  12  14
ENDBRANCH  11  12
ENDBRANCH  10  11
ENDBRANCH   2  10
TORSDOF 7
ENDMDL
MODEL 5
REMARK VINA RESULT:    -5.293      0.879      5.930
REMARK INTER + INTRA:          -8.431
REMARK INTER:                  -7.948
REMARK INTRA:                  -0.483
REMARK UNBOUND:                -0.972
REMARK SMILES C=CC(=C)CCC=C(C)CCC=C(C)C
REMARK SMILES IDX 8 1 7 2 9 3 10 4 11 5 12 6 14 7 13 8 15 9 6 10 5 11 3 12
REMARK SMILES IDX 4 13 2 14 1 15
REMARK H PARENT
REMARK Flexibility Score: inf
ROOT
ATOM      1  C   UNL     1       4.325   7.140  12.485  1.00  0.00    -0.077 C 
ATOM      2  C   UNL     1       4.757   7.901  11.452  1.00  0.00    -0.028 C 
ATOM      3  C   UNL     1       3.844   7.751  13.780  1.00  0.00     0.039 C 
ENDROOT
BRANCH   1   4
ATOM      4  C   UNL     1       4.340   5.635  12.340  1.00  0.00     0.034 C 
BRANCH   4   5
ATOM      5  C   UNL     1       5.626   5.041  12.926  1.00  0.00     0.032 C 
BRANCH   5   6
ATOM      6  C   UNL     1       6.410   6.092  13.670  1.00  0.00    -0.028 C 
ATOM      7  C   UNL     1       8.126   6.323  11.858  1.00  0.00     0.039 C 
ATOM      8  C   UNL     1       7.522   6.696  13.193  1.00  0.00    -0.080 C 
ATOM      9  C   UNL     1       8.180   7.759  14.034  1.00  0.00     0.039 C 
ENDBRANCH   5   6
ENDBRANCH   4   5
ENDBRANCH   1   4
BRANCH   2  10
ATOM     10  C   UNL     1       4.861   9.408  11.473  1.00  0.00     0.032 C 
BRANCH  10  11
ATOM     11  C   UNL     1       3.542  10.064  11.047  1.00  0.00     0.039 C 
BRANCH  11  12
ATOM     12  C   UNL     1       3.042  11.055  12.079  1.00  0.00    -0.055 C 
ATOM     13  C   UNL     1       3.697  12.210  12.245  1.00  0.00     0.012 C 
BRANCH  12  14
ATOM     14  C   UNL     1       1.867  10.773  12.944  1.00  0.00    -0.005 C 
ATOM     15  C   UNL     1       0.602  10.974  12.575  1.00  0.00     0.009 C 
ENDBRANCH  12  14
ENDBRANCH  11  12
ENDBRANCH  10  11
ENDBRANCH   2  10
TORSDOF 7
ENDMDL
MODEL 6
REMARK VINA RESULT:    -5.266      1.094      6.530
REMARK INTER + INTRA:          -8.393
REMARK INTER:                  -7.498
REMARK INTRA:                  -0.894
REMARK UNBOUND:                -0.972
REMARK SMILES C=CC(=C)CCC=C(C)CCC=C(C)C
REMARK SMILES IDX 8 1 7 2 9 3 10 4 11 5 12 6 14 7 13 8 15 9 6 10 5 11 3 12
REMARK SMILES IDX 4 13 2 14 1 15
REMARK H PARENT
REMARK Flexibility Score: inf
ROOT
ATOM      1  C   UNL     1       3.747   9.864  11.529  1.00  0.00    -0.077 C 
ATOM      2  C   UNL     1       2.600   9.908  12.245  1.00  0.00    -0.028 C 
ATOM      3  C   UNL     1       4.329  11.095  10.875  1.00  0.00     0.039 C 
ENDROOT
BRANCH   1   4
ATOM      4  C   UNL     1       4.458   8.538  11.369  1.00  0.00     0.034 C 
BRANCH   4   5
ATOM      5  C   UNL     1       4.585   7.819  12.717  1.00  0.00     0.032 C 
BRANCH   5   6
ATOM      6  C   UNL     1       5.404   6.561  12.577  1.00  0.00    -0.028 C 
ATOM      7  C   UNL     1       7.552   7.702  13.177  1.00  0.00     0.039 C 
ATOM      8  C   UNL     1       6.734   6.486  12.804  1.00  0.00    -0.080 C 
ATOM      9  C   UNL     1       7.414   5.149  12.661  1.00  0.00     0.039 C 
ENDBRANCH   5   6
ENDBRANCH   4   5
ENDBRANCH   1   4
BRANCH   2  10
ATOM     10  C   UNL     1       1.747  11.141  12.435  1.00  0.00     0.032 C 
BRANCH  10  11
ATOM     11  C   UNL     1       2.038  11.816  13.782  1.00  0.00     0.039 C 
BRANCH  11  12
ATOM     12  C   UNL     1       2.900  13.053  13.622  1.00  0.00    -0.055 C 
ATOM     13  C   UNL     1       3.613  13.491  14.666  1.00  0.00     0.012 C 
BRANCH  12  14
ATOM     14  C   UNL     1       2.950  13.824  12.353  1.00  0.00    -0.005 C 
ATOM     15  C   UNL     1       3.899  14.712  12.055  1.00  0.00     0.009 C 
ENDBRANCH  12  14
ENDBRANCH  11  12
ENDBRANCH  10  11
ENDBRANCH   2  10
TORSDOF 7
ENDMDL
MODEL 7
REMARK VINA RESULT:    -5.213      1.601      7.111
REMARK INTER + INTRA:          -8.318
REMARK INTER:                  -7.774
REMARK INTRA:                  -0.544
REMARK UNBOUND:                -0.972
REMARK SMILES C=CC(=C)CCC=C(C)CCC=C(C)C
REMARK SMILES IDX 8 1 7 2 9 3 10 4 11 5 12 6 14 7 13 8 15 9 6 10 5 11 3 12
REMARK SMILES IDX 4 13 2 14 1 15
REMARK H PARENT
REMARK Flexibility Score: inf
ROOT
ATOM      1  C   UNL     1       3.633  10.101  11.467  1.00  0.00    -0.077 C 
ATOM      2  C   UNL     1       3.820  11.304  10.876  1.00  0.00    -0.028 C 
ATOM      3  C   UNL     1       2.615   9.899  12.565  1.00  0.00     0.039 C 
ENDROOT
BRANCH   1   4
ATOM      4  C   UNL     1       4.481   8.929  11.022  1.00  0.00     0.034 C 
BRANCH   4   5
ATOM      5  C   UNL     1       4.612   7.892  12.143  1.00  0.00     0.032 C 
BRANCH   5   6
ATOM      6  C   UNL     1       6.042   7.438  12.287  1.00  0.00    -0.028 C 
ATOM      7  C   UNL     1       5.410   5.045  12.678  1.00  0.00     0.039 C 
ATOM      8  C   UNL     1       6.419   6.158  12.504  1.00  0.00    -0.080 C 
ATOM      9  C   UNL     1       7.890   5.845  12.588  1.00  0.00     0.039 C 
ENDBRANCH   5   6
ENDBRANCH   4   5
ENDBRANCH   1   4
BRANCH   2  10
ATOM     10  C   UNL     1       3.099  12.576  11.258  1.00  0.00     0.032 C 
BRANCH  10  11
ATOM     11  C   UNL     1       4.009  13.800  11.100  1.00  0.00     0.039 C 
BRANCH  11  12
ATOM     12  C   UNL     1       3.903  14.742  12.283  1.00  0.00    -0.055 C 
ATOM     13  C   UNL     1       3.607  14.244  13.489  1.00  0.00     0.012 C 
BRANCH  12  14
ATOM     14  C   UNL     1       4.078  16.211  12.143  1.00  0.00    -0.005 C 
ATOM     15  C   UNL     1       5.033  16.783  11.408  1.00  0.00     0.009 C 
ENDBRANCH  12  14
ENDBRANCH  11  12
ENDBRANCH  10  11
ENDBRANCH   2  10
TORSDOF 7
ENDMDL
MODEL 8
REMARK VINA RESULT:    -5.087      1.048      2.115
REMARK INTER + INTRA:          -8.141
REMARK INTER:                  -7.400
REMARK INTRA:                  -0.741
REMARK UNBOUND:                -0.972
REMARK SMILES C=CC(=C)CCC=C(C)CCC=C(C)C
REMARK SMILES IDX 8 1 7 2 9 3 10 4 11 5 12 6 14 7 13 8 15 9 6 10 5 11 3 12
REMARK SMILES IDX 4 13 2 14 1 15
REMARK H PARENT
REMARK Flexibility Score: inf
ROOT
ATOM      1  C   UNL     1       3.575   9.915  11.455  1.00  0.00    -0.077 C 
ATOM      2  C   UNL     1       3.874   8.686  11.937  1.00  0.00    -0.028 C 
ATOM      3  C   UNL     1       4.633  10.825  10.875  1.00  0.00     0.039 C 
ENDROOT
BRANCH   1   4
ATOM      4  C   UNL     1       2.141  10.394  11.513  1.00  0.00     0.034 C 
BRANCH   4   5
ATOM      5  C   UNL     1       2.079  11.911  11.729  1.00  0.00     0.032 C 
BRANCH   5   6
ATOM      6  C   UNL     1       2.341  12.256  13.173  1.00  0.00    -0.028 C 
ATOM      7  C   UNL     1       3.978  14.067  12.608  1.00  0.00     0.039 C 
ATOM      8  C   UNL     1       3.173  13.239  13.584  1.00  0.00    -0.080 C 
ATOM      9  C   UNL     1       3.308  13.496  15.062  1.00  0.00     0.039 C 
ENDBRANCH   5   6
ENDBRANCH   4   5
ENDBRANCH   1   4
BRANCH   2  10
ATOM     10  C   UNL     1       5.265   8.099  12.006  1.00  0.00     0.032 C 
BRANCH  10  11
ATOM     11  C   UNL     1       5.253   6.718  12.672  1.00  0.00     0.039 C 
BRANCH  11  12
ATOM     12  C   UNL     1       6.627   6.316  13.170  1.00  0.00    -0.055 C 
ATOM     13  C   UNL     1       7.156   5.157  12.761  1.00  0.00     0.012 C 
BRANCH  12  14
ATOM     14  C   UNL     1       7.394   7.148  14.132  1.00  0.00    -0.005 C 
ATOM     15  C   UNL     1       8.339   8.020  13.777  1.00  0.00     0.009 C 
ENDBRANCH  12  14
ENDBRANCH  11  12
ENDBRANCH  10  11
ENDBRANCH   2  10
TORSDOF 7
ENDMDL
