MODEL 1
REMARK VINA RESULT:    -4.092      0.000      0.000
REMARK INTER + INTRA:          -5.134
REMARK INTER:                  -5.049
REMARK INTRA:                  -0.086
REMARK UNBOUND:                -0.086
REMARK SMILES CCCCCC(=O)[O-]
REMARK SMILES IDX 4 1 5 2 6 3 7 4 8 5 3 6 2 7 1 8
REMARK H PARENT
REMARK Flexibility Score: inf
ROOT
ATOM      1  C   UNL     1       7.606 -12.453  -0.945  1.00  0.00     0.006 C 
ENDROOT
BRANCH   1   2
ATOM      2  C   UNL     1       7.662 -13.655  -1.892  1.00  0.00     0.053 C 
BRANCH   2   3
ATOM      3  C   UNL     1       6.843 -13.395  -3.117  1.00  0.00     0.041 C 
ATOM      4  O   UNL     1       7.382 -13.409  -4.256  1.00  0.00    -0.550 OA
ATOM      5  O   UNL     1       5.494 -13.090  -2.998  1.00  0.00    -0.550 OA
ENDBRANCH   2   3
ENDBRANCH   1   2
BRANCH   1   6
ATOM      6  C   UNL     1       8.896 -12.340  -0.123  1.00  0.00     0.000 C 
BRANCH   6   7
ATOM      7  C   UNL     1       9.159 -10.887   0.289  1.00  0.00    -0.003 C 
ATOM      8  C   UNL     1       7.987  -9.985  -0.090  1.00  0.00     0.004 C 
ENDBRANCH   6   7
ENDBRANCH   1   6
TORSDOF 4
ENDMDL
MODEL 2
REMARK VINA RESULT:    -4.082      2.669      4.197
REMARK INTER + INTRA:          -5.123
REMARK INTER:                  -5.000
REMARK INTRA:                  -0.122
REMARK UNBOUND:                -0.086
REMARK SMILES CCCCCC(=O)[O-]
REMARK SMILES IDX 4 1 5 2 6 3 7 4 8 5 3 6 2 7 1 8
REMARK H PARENT
REMARK Flexibility Score: inf
ROOT
ATOM      1  C   UNL     1       7.222 -12.971  -1.358  1.00  0.00     0.006 C 
ENDROOT
BRANCH   1   2
ATOM      2  C   UNL     1       8.445 -12.633  -0.501  1.00  0.00     0.053 C 
BRANCH   2   3
ATOM      3  C   UNL     1       8.611 -11.150  -0.388  1.00  0.00     0.041 C 
ATOM      4  O   UNL     1       7.941 -10.378  -1.125  1.00  0.00    -0.550 OA
ATOM      5  O   UNL     1       9.541 -10.621   0.497  1.00  0.00    -0.550 OA
ENDBRANCH   2   3
ENDBRANCH   1   2
BRANCH   1   6
ATOM      6  C   UNL     1       7.619 -13.816  -2.574  1.00  0.00     0.000 C 
BRANCH   6   7
ATOM      7  C   UNL     1       7.244 -13.109  -3.882  1.00  0.00    -0.003 C 
ATOM      8  C   UNL     1       5.737 -13.150  -4.118  1.00  0.00     0.004 C 
ENDBRANCH   6   7
ENDBRANCH   1   6
TORSDOF 4
ENDMDL
MODEL 3
REMARK VINA RESULT:    -4.040      1.093      1.627
REMARK INTER + INTRA:          -5.071
REMARK INTER:                  -4.956
REMARK INTRA:                  -0.115
REMARK UNBOUND:                -0.086
REMARK SMILES CCCCCC(=O)[O-]
REMARK SMILES IDX 4 1 5 2 6 3 7 4 8 5 3 6 2 7 1 8
REMARK H PARENT
REMARK Flexibility Score: inf
ROOT
ATOM      1  C   UNL     1       7.622 -13.721  -1.975  1.00  0.00     0.006 C 
ENDROOT
BRANCH   1   2
ATOM      2  C   UNL     1       7.262 -13.389  -3.426  1.00  0.00     0.053 C 
BRANCH   2   3
ATOM      3  C   UNL     1       5.854 -12.891  -3.515  1.00  0.00     0.041 C 
ATOM      4  O   UNL     1       5.617 -11.735  -3.955  1.00  0.00    -0.550 OA
ATOM      5  O   UNL     1       4.806 -13.686  -3.068  1.00  0.00    -0.550 OA
ENDBRANCH   2   3
ENDBRANCH   1   2
BRANCH   1   6
ATOM      6  C   UNL     1       7.581 -12.465  -1.097  1.00  0.00     0.000 C 
BRANCH   6   7
ATOM      7  C   UNL     1       8.800 -12.402  -0.169  1.00  0.00    -0.003 C 
ATOM      8  C   UNL     1       9.146 -10.960   0.190  1.00  0.00     0.004 C 
ENDBRANCH   6   7
ENDBRANCH   1   6
TORSDOF 4
ENDMDL
MODEL 4
REMARK VINA RESULT:    -3.987      2.461      4.366
REMARK INTER + INTRA:          -5.005
REMARK INTER:                  -4.891
REMARK INTRA:                  -0.113
REMARK UNBOUND:                -0.086
REMARK SMILES CCCCCC(=O)[O-]
REMARK SMILES IDX 4 1 5 2 6 3 7 4 8 5 3 6 2 7 1 8
REMARK H PARENT
REMARK Flexibility Score: inf
ROOT
ATOM      1  C   UNL     1       7.621 -13.712  -2.733  1.00  0.00     0.006 C 
ENDROOT
BRANCH   1   2
ATOM      2  C   UNL     1       6.898 -12.998  -1.587  1.00  0.00     0.053 C 
BRANCH   2   3
ATOM      3  C   UNL     1       7.838 -12.092  -0.858  1.00  0.00     0.041 C 
ATOM      4  O   UNL     1       8.729 -12.572  -0.108  1.00  0.00    -0.550 OA
ATOM      5  O   UNL     1       7.701 -10.714  -0.968  1.00  0.00    -0.550 OA
ENDBRANCH   2   3
ENDBRANCH   1   2
BRANCH   1   6
ATOM      6  C   UNL     1       7.009 -13.340  -4.088  1.00  0.00     0.000 C 
BRANCH   6   7
ATOM      7  C   UNL     1       5.488 -13.182  -3.979  1.00  0.00    -0.003 C 
ATOM      8  C   UNL     1       4.845 -13.074  -5.359  1.00  0.00     0.004 C 
ENDBRANCH   6   7
ENDBRANCH   1   6
TORSDOF 4
ENDMDL
MODEL 5
REMARK VINA RESULT:    -3.783      2.403      3.994
REMARK INTER + INTRA:          -4.753
REMARK INTER:                  -4.570
REMARK INTRA:                  -0.183
REMARK UNBOUND:                -0.086
REMARK SMILES CCCCCC(=O)[O-]
REMARK SMILES IDX 4 1 5 2 6 3 7 4 8 5 3 6 2 7 1 8
REMARK H PARENT
REMARK Flexibility Score: inf
ROOT
ATOM      1  C   UNL     1       7.896 -12.588  -0.678  1.00  0.00     0.006 C 
ENDROOT
BRANCH   1   2
ATOM      2  C   UNL     1       8.121 -11.179  -1.232  1.00  0.00     0.053 C 
BRANCH   2   3
ATOM      3  C   UNL     1       7.175 -10.209  -0.596  1.00  0.00     0.041 C 
ATOM      4  O   UNL     1       7.583  -9.077  -0.223  1.00  0.00    -0.550 OA
ATOM      5  O   UNL     1       5.854 -10.573  -0.371  1.00  0.00    -0.550 OA
ENDBRANCH   2   3
ENDBRANCH   1   2
BRANCH   1   6
ATOM      6  C   UNL     1       7.799 -13.616  -1.811  1.00  0.00     0.000 C 
BRANCH   6   7
ATOM      7  C   UNL     1       6.674 -13.253  -2.788  1.00  0.00    -0.003 C 
ATOM      8  C   UNL     1       7.167 -13.286  -4.232  1.00  0.00     0.004 C 
ENDBRANCH   6   7
ENDBRANCH   1   6
TORSDOF 4
ENDMDL
MODEL 6
REMARK VINA RESULT:    -3.702      0.806      1.715
REMARK INTER + INTRA:          -4.653
REMARK INTER:                  -4.522
REMARK INTRA:                  -0.132
REMARK UNBOUND:                -0.086
REMARK SMILES CCCCCC(=O)[O-]
REMARK SMILES IDX 4 1 5 2 6 3 7 4 8 5 3 6 2 7 1 8
REMARK H PARENT
REMARK Flexibility Score: inf
ROOT
ATOM      1  C   UNL     1       6.579 -11.879  -1.242  1.00  0.00     0.006 C 
ENDROOT
BRANCH   1   2
ATOM      2  C   UNL     1       7.087 -13.180  -1.869  1.00  0.00     0.053 C 
BRANCH   2   3
ATOM      3  C   UNL     1       6.544 -13.341  -3.254  1.00  0.00     0.041 C 
ATOM      4  O   UNL     1       5.301 -13.416  -3.444  1.00  0.00    -0.550 OA
ATOM      5  O   UNL     1       7.413 -13.456  -4.332  1.00  0.00    -0.550 OA
ENDBRANCH   2   3
ENDBRANCH   1   2
BRANCH   1   6
ATOM      6  C   UNL     1       7.573 -10.734  -1.470  1.00  0.00     0.000 C 
BRANCH   6   7
ATOM      7  C   UNL     1       8.056 -10.152  -0.136  1.00  0.00    -0.003 C 
ATOM      8  C   UNL     1       9.315 -10.864   0.352  1.00  0.00     0.004 C 
ENDBRANCH   6   7
ENDBRANCH   1   6
TORSDOF 4
ENDMDL
MODEL 7
REMARK VINA RESULT:    -3.693      1.947      2.959
REMARK INTER + INTRA:          -4.642
REMARK INTER:                  -4.510
REMARK INTRA:                  -0.132
REMARK UNBOUND:                -0.086
REMARK SMILES CCCCCC(=O)[O-]
REMARK SMILES IDX 4 1 5 2 6 3 7 4 8 5 3 6 2 7 1 8
REMARK H PARENT
REMARK Flexibility Score: inf
ROOT
ATOM      1  C   UNL     1       7.305 -12.962  -3.862  1.00  0.00     0.006 C 
ENDROOT
BRANCH   1   2
ATOM      2  C   UNL     1       5.917 -13.158  -4.478  1.00  0.00     0.053 C 
BRANCH   2   3
ATOM      3  C   UNL     1       5.324 -11.839  -4.861  1.00  0.00     0.041 C 
ATOM      4  O   UNL     1       4.965 -11.626  -6.050  1.00  0.00    -0.550 OA
ATOM      5  O   UNL     1       5.212 -10.827  -3.917  1.00  0.00    -0.550 OA
ENDBRANCH   2   3
ENDBRANCH   1   2
BRANCH   1   6
ATOM      6  C   UNL     1       7.380 -13.588  -2.464  1.00  0.00     0.000 C 
BRANCH   6   7
ATOM      7  C   UNL     1       7.255 -12.516  -1.374  1.00  0.00    -0.003 C 
ATOM      8  C   UNL     1       8.480 -12.512  -0.464  1.00  0.00     0.004 C 
ENDBRANCH   6   7
ENDBRANCH   1   6
TORSDOF 4
ENDMDL
MODEL 8
REMARK VINA RESULT:    -3.519      2.853      4.762
REMARK INTER + INTRA:          -4.427
REMARK INTER:                  -4.350
REMARK INTRA:                  -0.077
REMARK UNBOUND:                -0.086
REMARK SMILES CCCCCC(=O)[O-]
REMARK SMILES IDX 4 1 5 2 6 3 7 4 8 5 3 6 2 7 1 8
REMARK H PARENT
REMARK Flexibility Score: inf
ROOT
ATOM      1  C   UNL     1       5.763 -13.164  -4.394  1.00  0.00     0.006 C 
ENDROOT
BRANCH   1   2
ATOM      2  C   UNL     1       7.201 -13.218  -3.872  1.00  0.00     0.053 C 
BRANCH   2   3
ATOM      3  C   UNL     1       7.215 -13.517  -2.406  1.00  0.00     0.041 C 
ATOM      4  O   UNL     1       8.175 -14.155  -1.897  1.00  0.00    -0.550 OA
ATOM      5  O   UNL     1       6.144 -13.133  -1.608  1.00  0.00    -0.550 OA
ENDBRANCH   2   3
ENDBRANCH   1   2
BRANCH   1   6
ATOM      6  C   UNL     1       5.367 -11.731  -4.769  1.00  0.00     0.000 C 
BRANCH   6   7
ATOM      7  C   UNL     1       4.652 -11.694  -6.124  1.00  0.00    -0.003 C 
ATOM      8  C   UNL     1       4.569 -10.269  -6.665  1.00  0.00     0.004 C 
ENDBRANCH   6   7
ENDBRANCH   1   6
TORSDOF 4
ENDMDL
MODEL 9
REMARK VINA RESULT:    -3.414      2.278      3.485
REMARK INTER + INTRA:          -4.297
REMARK INTER:                  -4.060
REMARK INTRA:                  -0.238
REMARK UNBOUND:                -0.086
REMARK SMILES CCCCCC(=O)[O-]
REMARK SMILES IDX 4 1 5 2 6 3 7 4 8 5 3 6 2 7 1 8
REMARK H PARENT
REMARK Flexibility Score: inf
ROOT
ATOM      1  C   UNL     1       6.167 -12.449  -3.756  1.00  0.00     0.006 C 
ENDROOT
BRANCH   1   2
ATOM      2  C   UNL     1       4.899 -13.163  -4.233  1.00  0.00     0.053 C 
BRANCH   2   3
ATOM      3  C   UNL     1       4.015 -13.492  -3.072  1.00  0.00     0.041 C 
ATOM      4  O   UNL     1       3.924 -12.698  -2.098  1.00  0.00    -0.550 OA
ATOM      5  O   UNL     1       3.328 -14.699  -3.041  1.00  0.00    -0.550 OA
ENDBRANCH   2   3
ENDBRANCH   1   2
BRANCH   1   6
ATOM      6  C   UNL     1       7.340 -13.428  -3.640  1.00  0.00     0.000 C 
BRANCH   6   7
ATOM      7  C   UNL     1       7.603 -13.802  -2.177  1.00  0.00    -0.003 C 
ATOM      8  C   UNL     1       7.440 -12.591  -1.261  1.00  0.00     0.004 C 
ENDBRANCH   6   7
ENDBRANCH   1   6
TORSDOF 4
ENDMDL
