MODEL 1
REMARK VINA RESULT:    -7.220      0.000      0.000
REMARK INTER + INTRA:          -8.968
REMARK INTER:                  -8.909
REMARK INTRA:                  -0.060
REMARK UNBOUND:                -0.060
REMARK SMILES Oc1cc(O)c2cc(O)c(-c3cc(O)c(O)c(O)c3)[o+]c2c1
REMARK SMILES IDX 10 1 20 2 21 3 22 4 2 5 3 6 4 7 6 8 7 9 8 10 11 11 12 12
REMARK SMILES IDX 13 13 19 14 15 15 17 16 14 17 16 19 18 21 9 23 1 25 5 27
REMARK H PARENT 14 18 16 20 18 22 9 24 1 26 5 28
REMARK Flexibility Score: inf
ROOT
ATOM      1  C   UNL     1       7.426  28.923 -13.454  1.00  0.00     0.402 A 
ATOM      2  O   UNL     1       7.905  29.864 -12.643  1.00  0.00    -0.202 OA
ATOM      3  C   UNL     1       7.732  31.164 -12.852  1.00  0.00     0.368 A 
ATOM      4  C   UNL     1       8.273  32.076 -11.941  1.00  0.00     0.162 A 
ATOM      5  C   UNL     1       8.104  33.448 -12.133  1.00  0.00     0.128 A 
ATOM      6  C   UNL     1       7.389  33.914 -13.242  1.00  0.00     0.093 A 
ATOM      7  C   UNL     1       6.838  33.021 -14.168  1.00  0.00     0.136 A 
ATOM      8  C   UNL     1       7.009  31.624 -13.979  1.00  0.00     0.125 A 
ATOM      9  C   UNL     1       6.504  30.657 -14.862  1.00  0.00     0.078 A 
ATOM     10  C   UNL     1       6.717  29.298 -14.611  1.00  0.00     0.223 A 
ENDROOT
BRANCH   1  11
ATOM     11  C   UNL     1       7.677  27.506 -13.108  1.00  0.00     0.091 A 
ATOM     12  C   UNL     1       8.956  27.115 -12.686  1.00  0.00     0.068 A 
ATOM     13  C   UNL     1       9.214  25.783 -12.335  1.00  0.00     0.162 A 
ATOM     14  C   UNL     1       6.645  26.551 -13.139  1.00  0.00     0.068 A 
ATOM     15  C   UNL     1       8.188  24.832 -12.388  1.00  0.00     0.200 A 
ATOM     16  C   UNL     1       6.897  25.218 -12.787  1.00  0.00     0.162 A 
BRANCH  13  17
ATOM     17  O   UNL     1      10.492  25.397 -11.929  1.00  0.00    -0.504 OA
ATOM     18  H   UNL     1      10.837  25.601 -10.998  1.00  0.00     0.293 HD
ENDBRANCH  13  17
BRANCH  15  19
ATOM     19  O   UNL     1       8.465  23.511 -12.036  1.00  0.00    -0.502 OA
ATOM     20  H   UNL     1       7.731  22.828 -11.882  1.00  0.00     0.293 HD
ENDBRANCH  15  19
BRANCH  16  21
ATOM     21  O   UNL     1       5.869  24.278 -12.827  1.00  0.00    -0.504 OA
ATOM     22  H   UNL     1       5.204  24.184 -12.069  1.00  0.00     0.293 HD
ENDBRANCH  16  21
ENDBRANCH   1  11
BRANCH  10  23
ATOM     23  O   UNL     1       6.259  28.339 -15.514  1.00  0.00    -0.500 OA
ATOM     24  H   UNL     1       6.892  27.695 -15.973  1.00  0.00     0.294 HD
ENDBRANCH  10  23
BRANCH   5  25
ATOM     25  O   UNL     1       8.651  34.342 -11.213  1.00  0.00    -0.507 OA
ATOM     26  H   UNL     1       9.637  34.324 -10.981  1.00  0.00     0.293 HD
ENDBRANCH   5  25
BRANCH   7  27
ATOM     27  O   UNL     1       6.135  33.564 -15.248  1.00  0.00    -0.507 OA
ATOM     28  H   UNL     1       5.362  34.206 -15.162  1.00  0.00     0.293 HD
ENDBRANCH   7  27
TORSDOF 7
ENDMDL
MODEL 2
REMARK VINA RESULT:    -7.209      0.194      1.799
REMARK INTER + INTRA:          -8.955
REMARK INTER:                  -8.934
REMARK INTRA:                  -0.020
REMARK UNBOUND:                -0.060
REMARK SMILES Oc1cc(O)c2cc(O)c(-c3cc(O)c(O)c(O)c3)[o+]c2c1
REMARK SMILES IDX 10 1 20 2 21 3 22 4 2 5 3 6 4 7 6 8 7 9 8 10 11 11 12 12
REMARK SMILES IDX 13 13 19 14 15 15 17 16 14 17 16 19 18 21 9 23 1 25 5 27
REMARK H PARENT 14 18 16 20 18 22 9 24 1 26 5 28
REMARK Flexibility Score: inf
ROOT
ATOM      1  C   UNL     1       7.362  28.987 -13.432  1.00  0.00     0.402 A 
ATOM      2  O   UNL     1       7.758  29.962 -12.617  1.00  0.00    -0.202 OA
ATOM      3  C   UNL     1       7.535  31.250 -12.857  1.00  0.00     0.368 A 
ATOM      4  C   UNL     1       7.988  32.201 -11.939  1.00  0.00     0.162 A 
ATOM      5  C   UNL     1       7.765  33.560 -12.163  1.00  0.00     0.128 A 
ATOM      6  C   UNL     1       7.083  33.973 -13.314  1.00  0.00     0.093 A 
ATOM      7  C   UNL     1       6.620  33.041 -14.248  1.00  0.00     0.136 A 
ATOM      8  C   UNL     1       6.846  31.657 -14.025  1.00  0.00     0.125 A 
ATOM      9  C   UNL     1       6.430  30.653 -14.914  1.00  0.00     0.078 A 
ATOM     10  C   UNL     1       6.694  29.310 -14.628  1.00  0.00     0.223 A 
ENDROOT
BRANCH   1  11
ATOM     11  C   UNL     1       7.662  27.589 -13.049  1.00  0.00     0.091 A 
ATOM     12  C   UNL     1       6.652  26.619 -13.133  1.00  0.00     0.068 A 
ATOM     13  C   UNL     1       6.916  25.285 -12.794  1.00  0.00     0.162 A 
ATOM     14  C   UNL     1       8.954  27.199 -12.654  1.00  0.00     0.068 A 
ATOM     15  C   UNL     1       8.200  24.906 -12.381  1.00  0.00     0.200 A 
ATOM     16  C   UNL     1       9.224  25.866 -12.315  1.00  0.00     0.162 A 
BRANCH  13  17
ATOM     17  O   UNL     1       5.905  24.327 -12.866  1.00  0.00    -0.504 OA
ATOM     18  H   UNL     1       5.407  24.019 -12.039  1.00  0.00     0.293 HD
ENDBRANCH  13  17
BRANCH  15  19
ATOM     19  O   UNL     1       8.443  23.575 -12.046  1.00  0.00    -0.502 OA
ATOM     20  H   UNL     1       8.075  23.155 -11.200  1.00  0.00     0.293 HD
ENDBRANCH  15  19
BRANCH  16  21
ATOM     21  O   UNL     1      10.507  25.492 -11.919  1.00  0.00    -0.504 OA
ATOM     22  H   UNL     1      11.309  25.620 -12.524  1.00  0.00     0.293 HD
ENDBRANCH  16  21
ENDBRANCH   1  11
BRANCH  10  23
ATOM     23  O   UNL     1       6.325  28.316 -15.534  1.00  0.00    -0.500 OA
ATOM     24  H   UNL     1       5.451  27.811 -15.444  1.00  0.00     0.294 HD
ENDBRANCH  10  23
BRANCH   5  25
ATOM     25  O   UNL     1       8.224  34.493 -11.236  1.00  0.00    -0.507 OA
ATOM     26  H   UNL     1       9.186  34.812 -11.238  1.00  0.00     0.293 HD
ENDBRANCH   5  25
BRANCH   7  27
ATOM     27  O   UNL     1       5.945  33.532 -15.370  1.00  0.00    -0.507 OA
ATOM     28  H   UNL     1       6.083  33.198 -16.312  1.00  0.00     0.293 HD
ENDBRANCH   7  27
TORSDOF 7
ENDMDL
MODEL 3
REMARK VINA RESULT:    -7.137      1.641      3.186
REMARK INTER + INTRA:          -8.866
REMARK INTER:                  -8.541
REMARK INTRA:                  -0.325
REMARK UNBOUND:                -0.060
REMARK SMILES Oc1cc(O)c2cc(O)c(-c3cc(O)c(O)c(O)c3)[o+]c2c1
REMARK SMILES IDX 10 1 20 2 21 3 22 4 2 5 3 6 4 7 6 8 7 9 8 10 11 11 12 12
REMARK SMILES IDX 13 13 19 14 15 15 17 16 14 17 16 19 18 21 9 23 1 25 5 27
REMARK H PARENT 14 18 16 20 18 22 9 24 1 26 5 28
REMARK Flexibility Score: inf
ROOT
ATOM      1  C   UNL     1       8.376  28.529 -13.444  1.00  0.00     0.402 A 
ATOM      2  O   UNL     1       7.307  28.986 -14.093  1.00  0.00    -0.202 OA
ATOM      3  C   UNL     1       6.980  30.272 -14.145  1.00  0.00     0.368 A 
ATOM      4  C   UNL     1       5.839  30.655 -14.856  1.00  0.00     0.162 A 
ATOM      5  C   UNL     1       5.472  31.999 -14.930  1.00  0.00     0.128 A 
ATOM      6  C   UNL     1       6.252  32.970 -14.292  1.00  0.00     0.093 A 
ATOM      7  C   UNL     1       7.400  32.613 -13.575  1.00  0.00     0.136 A 
ATOM      8  C   UNL     1       7.775  31.246 -13.494  1.00  0.00     0.125 A 
ATOM      9  C   UNL     1       8.900  30.794 -12.786  1.00  0.00     0.078 A 
ATOM     10  C   UNL     1       9.204  29.430 -12.749  1.00  0.00     0.223 A 
ENDROOT
BRANCH   1  11
ATOM     11  C   UNL     1       8.640  27.072 -13.468  1.00  0.00     0.091 A 
ATOM     12  C   UNL     1       7.788  26.205 -12.769  1.00  0.00     0.068 A 
ATOM     13  C   UNL     1       8.005  24.821 -12.792  1.00  0.00     0.162 A 
ATOM     14  C   UNL     1       9.695  26.532 -14.224  1.00  0.00     0.068 A 
ATOM     15  C   UNL     1       9.071  24.290 -13.529  1.00  0.00     0.200 A 
ATOM     16  C   UNL     1       9.917  25.148 -14.252  1.00  0.00     0.162 A 
BRANCH  13  17
ATOM     17  O   UNL     1       7.163  23.964 -12.083  1.00  0.00    -0.504 OA
ATOM     18  H   UNL     1       7.185  23.916 -11.071  1.00  0.00     0.293 HD
ENDBRANCH  13  17
BRANCH  15  19
ATOM     19  O   UNL     1       9.273  22.910 -13.538  1.00  0.00    -0.502 OA
ATOM     20  H   UNL     1       9.513  22.405 -14.383  1.00  0.00     0.293 HD
ENDBRANCH  15  19
BRANCH  16  21
ATOM     21  O   UNL     1      10.970  24.623 -14.999  1.00  0.00    -0.504 OA
ATOM     22  H   UNL     1      11.663  25.221 -15.433  1.00  0.00     0.293 HD
ENDBRANCH  16  21
ENDBRANCH   1  11
BRANCH  10  23
ATOM     23  O   UNL     1      10.293  28.975 -12.005  1.00  0.00    -0.500 OA
ATOM     24  H   UNL     1      10.384  29.178 -11.017  1.00  0.00     0.294 HD
ENDBRANCH  10  23
BRANCH   5  25
ATOM     25  O   UNL     1       4.330  32.361 -15.643  1.00  0.00    -0.507 OA
ATOM     26  H   UNL     1       3.411  32.036 -15.368  1.00  0.00     0.293 HD
ENDBRANCH   5  25
BRANCH   7  27
ATOM     27  O   UNL     1       8.127  33.641 -12.967  1.00  0.00    -0.507 OA
ATOM     28  H   UNL     1       7.867  34.091 -12.102  1.00  0.00     0.293 HD
ENDBRANCH   7  27
TORSDOF 7
ENDMDL
MODEL 4
REMARK VINA RESULT:    -7.123      1.898      7.129
REMARK INTER + INTRA:          -8.848
REMARK INTER:                  -8.477
REMARK INTRA:                  -0.371
REMARK UNBOUND:                -0.060
REMARK SMILES Oc1cc(O)c2cc(O)c(-c3cc(O)c(O)c(O)c3)[o+]c2c1
REMARK SMILES IDX 10 1 20 2 21 3 22 4 2 5 3 6 4 7 6 8 7 9 8 10 11 11 12 12
REMARK SMILES IDX 13 13 19 14 15 15 17 16 14 17 16 19 18 21 9 23 1 25 5 27
REMARK H PARENT 14 18 16 20 18 22 9 24 1 26 5 28
REMARK Flexibility Score: inf
ROOT
ATOM      1  C   UNL     1       7.570  29.600 -13.986  1.00  0.00     0.402 A 
ATOM      2  O   UNL     1       7.000  28.431 -13.706  1.00  0.00    -0.202 OA
ATOM      3  C   UNL     1       7.652  27.416 -13.149  1.00  0.00     0.368 A 
ATOM      4  C   UNL     1       6.964  26.227 -12.890  1.00  0.00     0.162 A 
ATOM      5  C   UNL     1       7.623  25.146 -12.302  1.00  0.00     0.128 A 
ATOM      6  C   UNL     1       8.977  25.253 -11.968  1.00  0.00     0.093 A 
ATOM      7  C   UNL     1       9.688  26.433 -12.216  1.00  0.00     0.136 A 
ATOM      8  C   UNL     1       9.023  27.535 -12.817  1.00  0.00     0.125 A 
ATOM      9  C   UNL     1       9.658  28.751 -13.115  1.00  0.00     0.078 A 
ATOM     10  C   UNL     1       8.937  29.790 -13.711  1.00  0.00     0.223 A 
ENDROOT
BRANCH   1  11
ATOM     11  C   UNL     1       6.734  30.657 -14.599  1.00  0.00     0.091 A 
ATOM     12  C   UNL     1       6.691  30.780 -15.996  1.00  0.00     0.068 A 
ATOM     13  C   UNL     1       5.893  31.759 -16.601  1.00  0.00     0.162 A 
ATOM     14  C   UNL     1       5.938  31.508 -13.813  1.00  0.00     0.068 A 
ATOM     15  C   UNL     1       5.117  32.619 -15.812  1.00  0.00     0.200 A 
ATOM     16  C   UNL     1       5.136  32.490 -14.413  1.00  0.00     0.162 A 
BRANCH  13  17
ATOM     17  O   UNL     1       5.863  31.886 -17.990  1.00  0.00    -0.504 OA
ATOM     18  H   UNL     1       6.344  31.227 -18.592  1.00  0.00     0.293 HD
ENDBRANCH  13  17
BRANCH  15  19
ATOM     19  O   UNL     1       4.331  33.589 -16.432  1.00  0.00    -0.502 OA
ATOM     20  H   UNL     1       3.409  33.835 -16.091  1.00  0.00     0.293 HD
ENDBRANCH  15  19
BRANCH  16  21
ATOM     21  O   UNL     1       4.355  33.333 -13.624  1.00  0.00    -0.504 OA
ATOM     22  H   UNL     1       4.765  34.086 -13.085  1.00  0.00     0.293 HD
ENDBRANCH  16  21
ENDBRANCH   1  11
BRANCH  10  23
ATOM     23  O   UNL     1       9.579  30.981 -14.053  1.00  0.00    -0.500 OA
ATOM     24  H   UNL     1       9.112  31.877 -13.982  1.00  0.00     0.294 HD
ENDBRANCH  10  23
BRANCH   5  25
ATOM     25  O   UNL     1       6.920  23.968 -12.053  1.00  0.00    -0.507 OA
ATOM     26  H   UNL     1       6.517  23.775 -11.143  1.00  0.00     0.293 HD
ENDBRANCH   5  25
BRANCH   7  27
ATOM     27  O   UNL     1      11.037  26.463 -11.851  1.00  0.00    -0.507 OA
ATOM     28  H   UNL     1      11.385  26.826 -10.976  1.00  0.00     0.293 HD
ENDBRANCH   7  27
TORSDOF 7
ENDMDL
MODEL 5
REMARK VINA RESULT:    -7.055      1.640      2.821
REMARK INTER + INTRA:          -8.764
REMARK INTER:                  -8.479
REMARK INTRA:                  -0.285
REMARK UNBOUND:                -0.060
REMARK SMILES Oc1cc(O)c2cc(O)c(-c3cc(O)c(O)c(O)c3)[o+]c2c1
REMARK SMILES IDX 10 1 20 2 21 3 22 4 2 5 3 6 4 7 6 8 7 9 8 10 11 11 12 12
REMARK SMILES IDX 13 13 19 14 15 15 17 16 14 17 16 19 18 21 9 23 1 25 5 27
REMARK H PARENT 14 18 16 20 18 22 9 24 1 26 5 28
REMARK Flexibility Score: inf
ROOT
ATOM      1  C   UNL     1       8.348  28.553 -13.466  1.00  0.00     0.402 A 
ATOM      2  O   UNL     1       7.276  29.024 -14.100  1.00  0.00    -0.202 OA
ATOM      3  C   UNL     1       6.959  30.314 -14.140  1.00  0.00     0.368 A 
ATOM      4  C   UNL     1       5.813  30.711 -14.834  1.00  0.00     0.162 A 
ATOM      5  C   UNL     1       5.458  32.059 -14.896  1.00  0.00     0.128 A 
ATOM      6  C   UNL     1       6.254  33.019 -14.261  1.00  0.00     0.093 A 
ATOM      7  C   UNL     1       7.407  32.647 -13.559  1.00  0.00     0.136 A 
ATOM      8  C   UNL     1       7.771  31.276 -13.492  1.00  0.00     0.125 A 
ATOM      9  C   UNL     1       8.900  30.810 -12.800  1.00  0.00     0.078 A 
ATOM     10  C   UNL     1       9.192  29.442 -12.775  1.00  0.00     0.223 A 
ENDROOT
BRANCH   1  11
ATOM     11  C   UNL     1       8.598  27.095 -13.502  1.00  0.00     0.091 A 
ATOM     12  C   UNL     1       9.693  26.601 -14.227  1.00  0.00     0.068 A 
ATOM     13  C   UNL     1       9.963  25.226 -14.261  1.00  0.00     0.162 A 
ATOM     14  C   UNL     1       7.795  26.196 -12.779  1.00  0.00     0.068 A 
ATOM     15  C   UNL     1       9.146  24.333 -13.556  1.00  0.00     0.200 A 
ATOM     16  C   UNL     1       8.061  24.820 -12.808  1.00  0.00     0.162 A 
BRANCH  13  17
ATOM     17  O   UNL     1      11.044  24.739 -14.995  1.00  0.00    -0.504 OA
ATOM     18  H   UNL     1      11.866  24.359 -14.539  1.00  0.00     0.293 HD
ENDBRANCH  13  17
BRANCH  15  19
ATOM     19  O   UNL     1       9.429  22.968 -13.603  1.00  0.00    -0.502 OA
ATOM     20  H   UNL     1       8.699  22.265 -13.601  1.00  0.00     0.293 HD
ENDBRANCH  15  19
BRANCH  16  21
ATOM     21  O   UNL     1       7.254  23.937 -12.093  1.00  0.00    -0.504 OA
ATOM     22  H   UNL     1       6.491  23.438 -12.534  1.00  0.00     0.293 HD
ENDBRANCH  16  21
ENDBRANCH   1  11
BRANCH  10  23
ATOM     23  O   UNL     1      10.285  28.974 -12.047  1.00  0.00    -0.500 OA
ATOM     24  H   UNL     1      11.199  29.404 -12.123  1.00  0.00     0.294 HD
ENDBRANCH  10  23
BRANCH   5  25
ATOM     25  O   UNL     1       4.312  32.435 -15.593  1.00  0.00    -0.507 OA
ATOM     26  H   UNL     1       3.581  31.767 -15.810  1.00  0.00     0.293 HD
ENDBRANCH   5  25
BRANCH   7  27
ATOM     27  O   UNL     1       8.150  33.664 -12.954  1.00  0.00    -0.507 OA
ATOM     28  H   UNL     1       8.848  33.515 -12.240  1.00  0.00     0.293 HD
ENDBRANCH   7  27
TORSDOF 7
ENDMDL
MODEL 6
REMARK VINA RESULT:    -6.929      1.256      7.347
REMARK INTER + INTRA:          -8.608
REMARK INTER:                  -8.236
REMARK INTRA:                  -0.372
REMARK UNBOUND:                -0.060
REMARK SMILES Oc1cc(O)c2cc(O)c(-c3cc(O)c(O)c(O)c3)[o+]c2c1
REMARK SMILES IDX 10 1 20 2 21 3 22 4 2 5 3 6 4 7 6 8 7 9 8 10 11 11 12 12
REMARK SMILES IDX 13 13 19 14 15 15 17 16 14 17 16 19 18 21 9 23 1 25 5 27
REMARK H PARENT 14 18 16 20 18 22 9 24 1 26 5 28
REMARK Flexibility Score: inf
ROOT
ATOM      1  C   UNL     1       8.319  29.659 -13.023  1.00  0.00     0.402 A 
ATOM      2  O   UNL     1       7.403  28.698 -13.125  1.00  0.00    -0.202 OA
ATOM      3  C   UNL     1       7.656  27.419 -12.874  1.00  0.00     0.368 A 
ATOM      4  C   UNL     1       6.626  26.484 -13.006  1.00  0.00     0.162 A 
ATOM      5  C   UNL     1       6.862  25.133 -12.746  1.00  0.00     0.128 A 
ATOM      6  C   UNL     1       8.136  24.712 -12.349  1.00  0.00     0.093 A 
ATOM      7  C   UNL     1       9.184  25.629 -12.209  1.00  0.00     0.136 A 
ATOM      8  C   UNL     1       8.949  27.004 -12.475  1.00  0.00     0.125 A 
ATOM      9  C   UNL     1       9.943  27.991 -12.374  1.00  0.00     0.078 A 
ATOM     10  C   UNL     1       9.636  29.326 -12.657  1.00  0.00     0.223 A 
ENDROOT
BRANCH   1  11
ATOM     11  C   UNL     1       7.910  31.050 -13.320  1.00  0.00     0.091 A 
ATOM     12  C   UNL     1       7.773  31.459 -14.655  1.00  0.00     0.068 A 
ATOM     13  C   UNL     1       7.369  32.765 -14.962  1.00  0.00     0.162 A 
ATOM     14  C   UNL     1       7.602  31.958 -12.292  1.00  0.00     0.068 A 
ATOM     15  C   UNL     1       7.084  33.672 -13.933  1.00  0.00     0.200 A 
ATOM     16  C   UNL     1       7.196  33.265 -12.593  1.00  0.00     0.162 A 
BRANCH  13  17
ATOM     17  O   UNL     1       7.248  33.171 -16.291  1.00  0.00    -0.504 OA
ATOM     18  H   UNL     1       7.992  33.673 -16.762  1.00  0.00     0.293 HD
ENDBRANCH  13  17
BRANCH  15  19
ATOM     19  O   UNL     1       6.686  34.968 -14.258  1.00  0.00    -0.502 OA
ATOM     20  H   UNL     1       6.104  35.169 -15.063  1.00  0.00     0.293 HD
ENDBRANCH  15  19
BRANCH  16  21
ATOM     21  O   UNL     1       6.900  34.160 -11.566  1.00  0.00    -0.504 OA
ATOM     22  H   UNL     1       7.038  33.916 -10.592  1.00  0.00     0.293 HD
ENDBRANCH  16  21
ENDBRANCH   1  11
BRANCH  10  23
ATOM     23  O   UNL     1      10.634  30.299 -12.606  1.00  0.00    -0.500 OA
ATOM     24  H   UNL     1      11.411  30.230 -11.960  1.00  0.00     0.294 HD
ENDBRANCH  10  23
BRANCH   5  25
ATOM     25  O   UNL     1       5.822  24.216 -12.883  1.00  0.00    -0.507 OA
ATOM     26  H   UNL     1       5.764  23.597 -13.685  1.00  0.00     0.293 HD
ENDBRANCH   5  25
BRANCH   7  27
ATOM     27  O   UNL     1      10.427  25.131 -11.806  1.00  0.00    -0.507 OA
ATOM     28  H   UNL     1      11.066  24.634 -12.409  1.00  0.00     0.293 HD
ENDBRANCH   7  27
TORSDOF 7
ENDMDL
MODEL 7
REMARK VINA RESULT:    -6.891     10.458     13.154
REMARK INTER + INTRA:          -8.562
REMARK INTER:                  -8.202
REMARK INTRA:                  -0.360
REMARK UNBOUND:                -0.060
REMARK SMILES Oc1cc(O)c2cc(O)c(-c3cc(O)c(O)c(O)c3)[o+]c2c1
REMARK SMILES IDX 10 1 20 2 21 3 22 4 2 5 3 6 4 7 6 8 7 9 8 10 11 11 12 12
REMARK SMILES IDX 13 13 19 14 15 15 17 16 14 17 16 19 18 21 9 23 1 25 5 27
REMARK H PARENT 14 18 16 20 18 22 9 24 1 26 5 28
REMARK Flexibility Score: inf
ROOT
ATOM      1  C   UNL     1      -1.603  34.080 -18.065  1.00  0.00     0.402 A 
ATOM      2  O   UNL     1      -2.662  34.817 -17.735  1.00  0.00    -0.202 OA
ATOM      3  C   UNL     1      -3.812  34.297 -17.320  1.00  0.00     0.368 A 
ATOM      4  C   UNL     1      -4.866  35.155 -16.994  1.00  0.00     0.162 A 
ATOM      5  C   UNL     1      -6.084  34.637 -16.551  1.00  0.00     0.128 A 
ATOM      6  C   UNL     1      -6.251  33.253 -16.432  1.00  0.00     0.093 A 
ATOM      7  C   UNL     1      -5.210  32.374 -16.752  1.00  0.00     0.136 A 
ATOM      8  C   UNL     1      -3.970  32.895 -17.205  1.00  0.00     0.125 A 
ATOM      9  C   UNL     1      -2.877  32.089 -17.561  1.00  0.00     0.078 A 
ATOM     10  C   UNL     1      -1.688  32.677 -18.003  1.00  0.00     0.223 A 
ENDROOT
BRANCH   1  11
ATOM     11  C   UNL     1      -0.374  34.778 -18.505  1.00  0.00     0.091 A 
ATOM     12  C   UNL     1       0.537  35.243 -17.544  1.00  0.00     0.068 A 
ATOM     13  C   UNL     1       1.717  35.889 -17.936  1.00  0.00     0.162 A 
ATOM     14  C   UNL     1      -0.070  34.937 -19.868  1.00  0.00     0.068 A 
ATOM     15  C   UNL     1       2.004  36.063 -19.295  1.00  0.00     0.200 A 
ATOM     16  C   UNL     1       1.109  35.581 -20.266  1.00  0.00     0.162 A 
BRANCH  13  17
ATOM     17  O   UNL     1       2.612  36.361 -16.977  1.00  0.00    -0.504 OA
ATOM     18  H   UNL     1       2.603  36.012 -16.025  1.00  0.00     0.293 HD
ENDBRANCH  13  17
BRANCH  15  19
ATOM     19  O   UNL     1       3.182  36.711 -19.666  1.00  0.00    -0.502 OA
ATOM     20  H   UNL     1       3.187  37.506 -20.294  1.00  0.00     0.293 HD
ENDBRANCH  15  19
BRANCH  16  21
ATOM     21  O   UNL     1       1.398  35.739 -21.620  1.00  0.00    -0.504 OA
ATOM     22  H   UNL     1       1.487  34.943 -22.241  1.00  0.00     0.293 HD
ENDBRANCH  16  21
ENDBRANCH   1  11
BRANCH  10  23
ATOM     23  O   UNL     1      -0.619  31.875 -18.405  1.00  0.00    -0.500 OA
ATOM     24  H   UNL     1      -0.106  31.303 -17.745  1.00  0.00     0.294 HD
ENDBRANCH  10  23
BRANCH   5  25
ATOM     25  O   UNL     1      -7.124  35.508 -16.231  1.00  0.00    -0.507 OA
ATOM     26  H   UNL     1      -6.946  36.469 -15.963  1.00  0.00     0.293 HD
ENDBRANCH   5  25
BRANCH   7  27
ATOM     27  O   UNL     1      -5.454  31.005 -16.604  1.00  0.00    -0.507 OA
ATOM     28  H   UNL     1      -5.372  30.326 -17.346  1.00  0.00     0.293 HD
ENDBRANCH   7  27
TORSDOF 7
ENDMDL
MODEL 8
REMARK VINA RESULT:    -6.734     11.200     13.759
REMARK INTER + INTRA:          -8.368
REMARK INTER:                  -8.149
REMARK INTRA:                  -0.219
REMARK UNBOUND:                -0.060
REMARK SMILES Oc1cc(O)c2cc(O)c(-c3cc(O)c(O)c(O)c3)[o+]c2c1
REMARK SMILES IDX 10 1 20 2 21 3 22 4 2 5 3 6 4 7 6 8 7 9 8 10 11 11 12 12
REMARK SMILES IDX 13 13 19 14 15 15 17 16 14 17 16 19 18 21 9 23 1 25 5 27
REMARK H PARENT 14 18 16 20 18 22 9 24 1 26 5 28
REMARK Flexibility Score: inf
ROOT
ATOM      1  C   UNL     1      -3.717  33.662 -17.633  1.00  0.00     0.402 A 
ATOM      2  O   UNL     1      -2.972  34.613 -17.073  1.00  0.00    -0.202 OA
ATOM      3  C   UNL     1      -1.697  34.819 -17.385  1.00  0.00     0.368 A 
ATOM      4  C   UNL     1      -0.998  35.845 -16.744  1.00  0.00     0.162 A 
ATOM      5  C   UNL     1       0.341  36.087 -17.054  1.00  0.00     0.128 A 
ATOM      6  C   UNL     1       0.988  35.298 -18.012  1.00  0.00     0.093 A 
ATOM      7  C   UNL     1       0.309  34.265 -18.669  1.00  0.00     0.136 A 
ATOM      8  C   UNL     1      -1.052  34.014 -18.355  1.00  0.00     0.125 A 
ATOM      9  C   UNL     1      -1.806  32.991 -18.952  1.00  0.00     0.078 A 
ATOM     10  C   UNL     1      -3.143  32.802 -18.588  1.00  0.00     0.223 A 
ENDROOT
BRANCH   1  11
ATOM     11  C   UNL     1      -5.130  33.539 -17.208  1.00  0.00     0.091 A 
ATOM     12  C   UNL     1      -5.541  32.398 -16.503  1.00  0.00     0.068 A 
ATOM     13  C   UNL     1      -6.868  32.266 -16.073  1.00  0.00     0.162 A 
ATOM     14  C   UNL     1      -6.058  34.567 -17.447  1.00  0.00     0.068 A 
ATOM     15  C   UNL     1      -7.794  33.284 -16.332  1.00  0.00     0.200 A 
ATOM     16  C   UNL     1      -7.387  34.441 -17.017  1.00  0.00     0.162 A 
BRANCH  13  17
ATOM     17  O   UNL     1      -7.275  31.124 -15.384  1.00  0.00    -0.504 OA
ATOM     18  H   UNL     1      -7.920  30.458 -15.795  1.00  0.00     0.293 HD
ENDBRANCH  13  17
BRANCH  15  19
ATOM     19  O   UNL     1      -9.111  33.134 -15.898  1.00  0.00    -0.502 OA
ATOM     20  H   UNL     1      -9.415  32.329 -15.363  1.00  0.00     0.293 HD
ENDBRANCH  15  19
BRANCH  16  21
ATOM     21  O   UNL     1      -8.301  35.463 -17.265  1.00  0.00    -0.504 OA
ATOM     22  H   UNL     1      -9.295  35.281 -17.338  1.00  0.00     0.293 HD
ENDBRANCH  16  21
ENDBRANCH   1  11
BRANCH  10  23
ATOM     23  O   UNL     1      -3.879  31.755 -19.144  1.00  0.00    -0.500 OA
ATOM     24  H   UNL     1      -4.758  31.451 -18.744  1.00  0.00     0.294 HD
ENDBRANCH  10  23
BRANCH   5  25
ATOM     25  O   UNL     1       1.021  37.115 -16.403  1.00  0.00    -0.507 OA
ATOM     26  H   UNL     1       1.564  37.799 -16.917  1.00  0.00     0.293 HD
ENDBRANCH   5  25
BRANCH   7  27
ATOM     27  O   UNL     1       1.024  33.524 -19.616  1.00  0.00    -0.507 OA
ATOM     28  H   UNL     1       1.681  32.792 -19.391  1.00  0.00     0.293 HD
ENDBRANCH   7  27
TORSDOF 7
ENDMDL
MODEL 9
REMARK VINA RESULT:    -6.502     10.337     13.452
REMARK INTER + INTRA:          -8.082
REMARK INTER:                  -7.775
REMARK INTRA:                  -0.307
REMARK UNBOUND:                -0.060
REMARK SMILES Oc1cc(O)c2cc(O)c(-c3cc(O)c(O)c(O)c3)[o+]c2c1
REMARK SMILES IDX 10 1 20 2 21 3 22 4 2 5 3 6 4 7 6 8 7 9 8 10 11 11 12 12
REMARK SMILES IDX 13 13 19 14 15 15 17 16 14 17 16 19 18 21 9 23 1 25 5 27
REMARK H PARENT 14 18 16 20 18 22 9 24 1 26 5 28
REMARK Flexibility Score: inf
ROOT
ATOM      1  C   UNL     1      -2.359  34.661 -17.996  1.00  0.00     0.402 A 
ATOM      2  O   UNL     1      -2.883  33.546 -17.493  1.00  0.00    -0.202 OA
ATOM      3  C   UNL     1      -4.190  33.346 -17.368  1.00  0.00     0.368 A 
ATOM      4  C   UNL     1      -4.644  32.138 -16.830  1.00  0.00     0.162 A 
ATOM      5  C   UNL     1      -6.012  31.899 -16.690  1.00  0.00     0.128 A 
ATOM      6  C   UNL     1      -6.934  32.873 -17.091  1.00  0.00     0.093 A 
ATOM      7  C   UNL     1      -6.505  34.090 -17.632  1.00  0.00     0.136 A 
ATOM      8  C   UNL     1      -5.114  34.339 -17.774  1.00  0.00     0.125 A 
ATOM      9  C   UNL     1      -4.593  35.534 -18.293  1.00  0.00     0.078 A 
ATOM     10  C   UNL     1      -3.209  35.708 -18.399  1.00  0.00     0.223 A 
ENDROOT
BRANCH   1  11
ATOM     11  C   UNL     1      -0.885  34.760 -18.093  1.00  0.00     0.091 A 
ATOM     12  C   UNL     1      -0.213  34.074 -19.115  1.00  0.00     0.068 A 
ATOM     13  C   UNL     1       1.179  34.168 -19.241  1.00  0.00     0.162 A 
ATOM     14  C   UNL     1      -0.146  35.573 -17.215  1.00  0.00     0.068 A 
ATOM     15  C   UNL     1       1.912  34.962 -18.350  1.00  0.00     0.200 A 
ATOM     16  C   UNL     1       1.247  35.672 -17.336  1.00  0.00     0.162 A 
BRANCH  13  17
ATOM     17  O   UNL     1       1.844  33.473 -20.251  1.00  0.00    -0.504 OA
ATOM     18  H   UNL     1       2.571  32.798 -20.041  1.00  0.00     0.293 HD
ENDBRANCH  13  17
BRANCH  15  19
ATOM     19  O   UNL     1       3.298  35.041 -18.489  1.00  0.00    -0.502 OA
ATOM     20  H   UNL     1       3.841  34.299 -18.915  1.00  0.00     0.293 HD
ENDBRANCH  15  19
BRANCH  16  21
ATOM     21  O   UNL     1       1.970  36.475 -16.457  1.00  0.00    -0.504 OA
ATOM     22  H   UNL     1       2.915  36.240 -16.177  1.00  0.00     0.293 HD
ENDBRANCH  16  21
ENDBRANCH   1  11
BRANCH  10  23
ATOM     23  O   UNL     1      -2.689  36.914 -18.868  1.00  0.00    -0.500 OA
ATOM     24  H   UNL     1      -1.778  37.250 -18.578  1.00  0.00     0.294 HD
ENDBRANCH  10  23
BRANCH   5  25
ATOM     25  O   UNL     1      -6.446  30.689 -16.152  1.00  0.00    -0.507 OA
ATOM     26  H   UNL     1      -6.766  29.931 -16.743  1.00  0.00     0.293 HD
ENDBRANCH   5  25
BRANCH   7  27
ATOM     27  O   UNL     1      -7.487  35.010 -18.011  1.00  0.00    -0.507 OA
ATOM     28  H   UNL     1      -8.144  34.867 -18.764  1.00  0.00     0.293 HD
ENDBRANCH   7  27
TORSDOF 7
ENDMDL
