MODEL 1
REMARK VINA RESULT:     3.456      0.000      0.000
REMARK INTER + INTRA:           7.344
REMARK INTER:                   5.375
REMARK INTRA:                   1.969
REMARK UNBOUND:                 1.969
REMARK SMILES C[C@@H]1O[C@@H](O[C@@H]2CC[C@]3(C)[C@H](CC[C@]4(C)[C@H]3C=C[C@]35OC[C@@]6(CCC(C)(C)C[C@H]63)[C@H](O)C[C@@]54C)[C@]2(C)CO)[C@@H](O)[C@@H](O[C@@H]2O[C@H](CO)[C@H](O)[C@H](O)[C@@H]2O)[C@@H]1O
REMARK SMILES IDX 1 1 2 2 54 3 41 4 39 5 4 6 3 7 55 8 42 10 43 11 52 12 44 13
REMARK SMILES IDX 50 14 45 15 48 16 53 17 51 19 46 21 47 22 49 24 5 26 6 27
REMARK SMILES IDX 7 28 35 29 8 30 11 31 36 32 9 33 12 34 10 35 16 36 13 37
REMARK SMILES IDX 14 38 17 39 15 40 33 41 18 42 19 43 32 44 34 45 29 46 20 47
REMARK SMILES IDX 30 48 22 49 28 50 21 51 23 52 25 53 24 54 26 55 27 56 37 57
REMARK SMILES IDX 38 58 31 60 40 62
REMARK H PARENT 55 9 53 18 51 20 47 23 49 25 38 59 31 61 40 63
REMARK Flexibility Score: inf
ROOT
ATOM      1  C   UNL     1      21.072   3.170  24.795  1.00  0.00     0.041 C 
ATOM      2  C   UNL     1      21.592   3.652  23.391  1.00  0.00     0.150 C 
ATOM      3  C   UNL     1      20.361   4.088  22.584  1.00  0.00     0.175 C 
ATOM      4  C   UNL     1      20.781   4.302  21.106  1.00  0.00     0.186 C 
ATOM      5  C   UNL     1      21.942   5.395  21.062  1.00  0.00     0.202 C 
ATOM      6  C   UNL     1      23.176   4.900  21.960  1.00  0.00     0.282 C 
ATOM      7  O   UNL     1      22.689   4.569  23.311  1.00  0.00    -0.344 OA
ENDROOT
BRANCH   3   8
ATOM      8  O   UNL     1      19.818   5.233  23.173  1.00  0.00    -0.388 OA
ATOM      9  H   UNL     1      18.833   5.295  23.025  1.00  0.00     0.211 HD
ENDBRANCH   3   8
BRANCH   4  10
ATOM     10  O   UNL     1      21.202   3.131  20.311  1.00  0.00    -0.341 OA
BRANCH  10  11
ATOM     11  C   UNL     1      20.447   2.775  19.181  1.00  0.00     0.282 C 
ATOM     12  C   UNL     1      21.184   3.301  17.974  1.00  0.00     0.202 C 
ATOM     13  O   UNL     1      20.277   1.402  19.185  1.00  0.00    -0.341 OA
ATOM     14  C   UNL     1      22.679   2.806  18.113  1.00  0.00     0.179 C 
ATOM     15  C   UNL     1      21.335   0.620  18.735  1.00  0.00     0.178 C 
ATOM     16  C   UNL     1      22.737   1.387  18.910  1.00  0.00     0.177 C 
BRANCH  12  17
ATOM     17  O   UNL     1      21.148   4.685  17.893  1.00  0.00    -0.385 OA
ATOM     18  H   UNL     1      21.222   5.046  18.818  1.00  0.00     0.211 HD
ENDBRANCH  12  17
BRANCH  14  19
ATOM     19  O   UNL     1      23.570   3.864  18.623  1.00  0.00    -0.387 OA
ATOM     20  H   UNL     1      23.238   4.044  19.503  1.00  0.00     0.211 HD
ENDBRANCH  14  19
BRANCH  15  21
ATOM     21  C   UNL     1      20.862  -0.914  18.451  1.00  0.00     0.191 C 
BRANCH  21  22
ATOM     22  O   UNL     1      19.470  -0.913  18.098  1.00  0.00    -0.394 OA
ATOM     23  H   UNL     1      19.186  -1.695  17.644  1.00  0.00     0.210 HD
ENDBRANCH  21  22
ENDBRANCH  15  21
BRANCH  16  24
ATOM     24  O   UNL     1      23.190   1.732  20.248  1.00  0.00    -0.387 OA
ATOM     25  H   UNL     1      23.349   0.895  20.818  1.00  0.00     0.211 HD
ENDBRANCH  16  24
ENDBRANCH  10  11
ENDBRANCH   4  10
BRANCH   6  26
ATOM     26  O   UNL     1      24.077   3.949  21.246  1.00  0.00    -0.346 OA
BRANCH  26  27
ATOM     27  C   UNL     1      24.984   2.920  21.794  1.00  0.00     0.130 C 
ATOM     28  C   UNL     1      25.925   1.903  20.789  1.00  0.00     0.033 C 
ATOM     29  C   UNL     1      24.582   1.994  23.218  1.00  0.00     0.020 C 
ATOM     30  C   UNL     1      27.100   0.875  21.391  1.00  0.00     0.010 C 
ATOM     31  C   UNL     1      26.105   1.499  23.493  1.00  0.00     0.006 C 
ATOM     32  C   UNL     1      23.999   2.391  24.664  1.00  0.00     0.017 C 
ATOM     33  C   UNL     1      26.697   0.185  22.862  1.00  0.00    -0.022 C 
ATOM     34  C   UNL     1      26.745   1.961  24.757  1.00  0.00     0.005 C 
ATOM     35  C   UNL     1      25.884  -1.062  22.296  1.00  0.00     0.012 C 
ATOM     36  C   UNL     1      27.502  -0.552  24.173  1.00  0.00     0.024 C 
ATOM     37  C   UNL     1      28.307   1.736  24.656  1.00  0.00     0.008 C 
ATOM     38  C   UNL     1      28.660   0.304  24.990  1.00  0.00    -0.017 C 
ATOM     39  C   UNL     1      26.459  -1.125  25.232  1.00  0.00    -0.024 C 
ATOM     40  C   UNL     1      29.979  -0.053  24.328  1.00  0.00     0.013 C 
ATOM     41  C   UNL     1      28.744   0.137  26.671  1.00  0.00     0.009 C 
ATOM     42  C   UNL     1      26.371  -0.810  26.562  1.00  0.00     0.005 C 
ATOM     43  C   UNL     1      27.397  -0.136  27.442  1.00  0.00     0.096 C 
ATOM     44  C   UNL     1      29.457   1.342  27.377  1.00  0.00     0.043 C 
ATOM     45  C   UNL     1      29.763  -1.075  26.959  1.00  0.00     0.015 C 
ATOM     46  C   UNL     1      26.864   1.079  28.375  1.00  0.00     0.037 C 
ATOM     47  O   UNL     1      27.732  -1.116  28.435  1.00  0.00    -0.369 OA
ATOM     48  C   UNL     1      29.436   1.344  28.903  1.00  0.00     0.124 C 
ATOM     49  C   UNL     1      27.945   1.026  29.465  1.00  0.00     0.026 C 
ATOM     50  C   UNL     1      26.535   2.570  27.984  1.00  0.00     0.014 C 
ATOM     51  C   UNL     1      27.878  -0.487  29.701  1.00  0.00     0.171 C 
ATOM     52  C   UNL     1      27.600   1.850  30.748  1.00  0.00     0.013 C 
ATOM     53  C   UNL     1      26.460   3.682  29.056  1.00  0.00    -0.035 C 
ATOM     54  C   UNL     1      27.237   3.342  30.390  1.00  0.00     0.007 C 
ATOM     55  C   UNL     1      27.046   4.969  28.381  1.00  0.00     0.011 C 
ATOM     56  C   UNL     1      25.015   4.022  29.375  1.00  0.00     0.011 C 
BRANCH  29  57
ATOM     57  C   UNL     1      23.666   0.784  22.722  1.00  0.00     0.165 C 
BRANCH  57  58
ATOM     58  O   UNL     1      22.643   0.341  23.555  1.00  0.00    -0.396 OA
ATOM     59  H   UNL     1      21.923   1.092  23.523  1.00  0.00     0.210 HD
ENDBRANCH  57  58
ENDBRANCH  29  57
BRANCH  48  60
ATOM     60  O   UNL     1      29.838   2.666  29.367  1.00  0.00    -0.392 OA
ATOM     61  H   UNL     1      29.457   2.839  30.195  1.00  0.00     0.210 HD
ENDBRANCH  48  60
ENDBRANCH  26  27
ENDBRANCH   6  26
BRANCH   5  62
ATOM     62  O   UNL     1      22.467   5.579  19.787  1.00  0.00    -0.385 OA
ATOM     63  H   UNL     1      22.608   4.647  19.456  1.00  0.00     0.211 HD
ENDBRANCH   5  62
TORSDOF 14
ENDMDL
MODEL 2
REMARK VINA RESULT:     3.805      0.973      1.385
REMARK INTER + INTRA:           7.887
REMARK INTER:                   9.133
REMARK INTRA:                  -1.246
REMARK UNBOUND:                 1.969
REMARK SMILES C[C@@H]1O[C@@H](O[C@@H]2CC[C@]3(C)[C@H](CC[C@]4(C)[C@H]3C=C[C@]35OC[C@@]6(CCC(C)(C)C[C@H]63)[C@H](O)C[C@@]54C)[C@]2(C)CO)[C@@H](O)[C@@H](O[C@@H]2O[C@H](CO)[C@H](O)[C@H](O)[C@@H]2O)[C@@H]1O
REMARK SMILES IDX 1 1 2 2 54 3 41 4 39 5 4 6 3 7 55 8 42 10 43 11 52 12 44 13
REMARK SMILES IDX 50 14 45 15 48 16 53 17 51 19 46 21 47 22 49 24 5 26 6 27
REMARK SMILES IDX 7 28 35 29 8 30 11 31 36 32 9 33 12 34 10 35 16 36 13 37
REMARK SMILES IDX 14 38 17 39 15 40 33 41 18 42 19 43 32 44 34 45 29 46 20 47
REMARK SMILES IDX 30 48 22 49 28 50 21 51 23 52 25 53 24 54 26 55 27 56 37 57
REMARK SMILES IDX 38 58 31 60 40 62
REMARK H PARENT 55 9 53 18 51 20 47 23 49 25 38 59 31 61 40 63
REMARK Flexibility Score: inf
ROOT
ATOM      1  C   UNL     1      21.018   2.788  24.691  1.00  0.00     0.041 C 
ATOM      2  C   UNL     1      21.687   3.378  23.395  1.00  0.00     0.150 C 
ATOM      3  C   UNL     1      20.555   3.938  22.523  1.00  0.00     0.175 C 
ATOM      4  C   UNL     1      21.124   4.272  21.119  1.00  0.00     0.186 C 
ATOM      5  C   UNL     1      22.317   5.317  21.291  1.00  0.00     0.202 C 
ATOM      6  C   UNL     1      23.442   4.690  22.248  1.00  0.00     0.282 C 
ATOM      7  O   UNL     1      22.815   4.253  23.508  1.00  0.00    -0.344 OA
ENDROOT
BRANCH   3   8
ATOM      8  O   UNL     1      19.994   5.044  23.167  1.00  0.00    -0.388 OA
ATOM      9  H   UNL     1      19.222   5.418  22.657  1.00  0.00     0.211 HD
ENDBRANCH   3   8
BRANCH   4  10
ATOM     10  O   UNL     1      21.583   3.165  20.256  1.00  0.00    -0.341 OA
BRANCH  10  11
ATOM     11  C   UNL     1      21.114   1.867  20.516  1.00  0.00     0.282 C 
ATOM     12  C   UNL     1      19.872   1.671  19.681  1.00  0.00     0.202 C 
ATOM     13  O   UNL     1      22.131   0.972  20.234  1.00  0.00    -0.341 OA
ATOM     14  C   UNL     1      20.254   2.093  18.206  1.00  0.00     0.179 C 
ATOM     15  C   UNL     1      22.345   0.638  18.901  1.00  0.00     0.178 C 
ATOM     16  C   UNL     1      21.831   1.805  17.922  1.00  0.00     0.177 C 
BRANCH  12  17
ATOM     17  O   UNL     1      18.806   2.434  20.131  1.00  0.00    -0.385 OA
ATOM     18  H   UNL     1      19.039   2.780  21.035  1.00  0.00     0.211 HD
ENDBRANCH  12  17
BRANCH  14  19
ATOM     19  O   UNL     1      19.781   3.449  17.875  1.00  0.00    -0.387 OA
ATOM     20  H   UNL     1      20.005   3.555  16.950  1.00  0.00     0.211 HD
ENDBRANCH  14  19
BRANCH  15  21
ATOM     21  C   UNL     1      23.299  -0.676  18.764  1.00  0.00     0.191 C 
BRANCH  21  22
ATOM     22  O   UNL     1      23.901  -0.950  20.039  1.00  0.00    -0.394 OA
ATOM     23  H   UNL     1      24.498  -1.685  20.035  1.00  0.00     0.210 HD
ENDBRANCH  21  22
ENDBRANCH  15  21
BRANCH  16  24
ATOM     24  O   UNL     1      22.465   3.112  17.990  1.00  0.00    -0.387 OA
ATOM     25  H   UNL     1      23.378   3.113  17.523  1.00  0.00     0.211 HD
ENDBRANCH  16  24
ENDBRANCH  10  11
ENDBRANCH   4  10
BRANCH   6  26
ATOM     26  O   UNL     1      24.378   3.775  21.532  1.00  0.00    -0.346 OA
BRANCH  26  27
ATOM     27  C   UNL     1      25.369   2.826  22.080  1.00  0.00     0.130 C 
ATOM     28  C   UNL     1      26.420   1.923  21.076  1.00  0.00     0.033 C 
ATOM     29  C   UNL     1      25.033   1.838  23.480  1.00  0.00     0.020 C 
ATOM     30  C   UNL     1      27.678   1.000  21.683  1.00  0.00     0.010 C 
ATOM     31  C   UNL     1      26.591   1.486  23.775  1.00  0.00     0.006 C 
ATOM     32  C   UNL     1      24.388   2.151  24.921  1.00  0.00     0.017 C 
ATOM     33  C   UNL     1      27.317   0.246  23.133  1.00  0.00    -0.022 C 
ATOM     34  C   UNL     1      27.161   1.983  25.060  1.00  0.00     0.005 C 
ATOM     35  C   UNL     1      26.636  -1.061  22.530  1.00  0.00     0.012 C 
ATOM     36  C   UNL     1      28.166  -0.435  24.447  1.00  0.00     0.024 C 
ATOM     37  C   UNL     1      28.739   1.910  24.985  1.00  0.00     0.008 C 
ATOM     38  C   UNL     1      29.221   0.511  25.301  1.00  0.00    -0.017 C 
ATOM     39  C   UNL     1      27.163  -1.125  25.475  1.00  0.00    -0.024 C 
ATOM     40  C   UNL     1      30.580   0.295  24.659  1.00  0.00     0.013 C 
ATOM     41  C   UNL     1      29.291   0.321  26.980  1.00  0.00     0.009 C 
ATOM     42  C   UNL     1      27.022  -0.846  26.809  1.00  0.00     0.005 C 
ATOM     43  C   UNL     1      27.964  -0.094  27.719  1.00  0.00     0.096 C 
ATOM     44  C   UNL     1      29.873   1.575  27.720  1.00  0.00     0.043 C 
ATOM     45  C   UNL     1      30.416  -0.794  27.267  1.00  0.00     0.015 C 
ATOM     46  C   UNL     1      27.300   1.046  28.663  1.00  0.00     0.037 C 
ATOM     47  O   UNL     1      28.373  -1.057  28.702  1.00  0.00    -0.369 OA
ATOM     48  C   UNL     1      29.826   1.545  29.246  1.00  0.00     0.124 C 
ATOM     49  C   UNL     1      28.362   1.076  29.773  1.00  0.00     0.026 C 
ATOM     50  C   UNL     1      26.837   2.506  28.292  1.00  0.00     0.014 C 
ATOM     51  C   UNL     1      28.436  -0.441  29.981  1.00  0.00     0.171 C 
ATOM     52  C   UNL     1      27.917   1.838  31.064  1.00  0.00     0.013 C 
ATOM     53  C   UNL     1      26.637   3.585  29.382  1.00  0.00    -0.035 C 
ATOM     54  C   UNL     1      27.419   3.295  30.724  1.00  0.00     0.007 C 
ATOM     55  C   UNL     1      27.109   4.935  28.741  1.00  0.00     0.011 C 
ATOM     56  C   UNL     1      25.161   3.780  29.679  1.00  0.00     0.011 C 
BRANCH  29  57
ATOM     57  C   UNL     1      24.245   0.557  22.945  1.00  0.00     0.165 C 
BRANCH  57  58
ATOM     58  O   UNL     1      23.050   0.204  23.566  1.00  0.00    -0.396 OA
ATOM     59  H   UNL     1      22.900   0.932  24.295  1.00  0.00     0.210 HD
ENDBRANCH  57  58
ENDBRANCH  29  57
BRANCH  48  60
ATOM     60  O   UNL     1      30.090   2.890  29.740  1.00  0.00    -0.392 OA
ATOM     61  H   UNL     1      30.474   2.846  30.583  1.00  0.00     0.210 HD
ENDBRANCH  48  60
ENDBRANCH  26  27
ENDBRANCH   6  26
BRANCH   5  62
ATOM     62  O   UNL     1      22.970   5.599  20.095  1.00  0.00    -0.385 OA
ATOM     63  H   UNL     1      22.250   5.502  19.408  1.00  0.00     0.211 HD
ENDBRANCH   5  62
TORSDOF 14
ENDMDL
MODEL 3
REMARK VINA RESULT:     5.383      3.321     11.024
REMARK INTER + INTRA:          10.342
REMARK INTER:                  10.143
REMARK INTRA:                   0.199
REMARK UNBOUND:                 1.969
REMARK SMILES C[C@@H]1O[C@@H](O[C@@H]2CC[C@]3(C)[C@H](CC[C@]4(C)[C@H]3C=C[C@]35OC[C@@]6(CCC(C)(C)C[C@H]63)[C@H](O)C[C@@]54C)[C@]2(C)CO)[C@@H](O)[C@@H](O[C@@H]2O[C@H](CO)[C@H](O)[C@H](O)[C@@H]2O)[C@@H]1O
REMARK SMILES IDX 1 1 2 2 54 3 41 4 39 5 4 6 3 7 55 8 42 10 43 11 52 12 44 13
REMARK SMILES IDX 50 14 45 15 48 16 53 17 51 19 46 21 47 22 49 24 5 26 6 27
REMARK SMILES IDX 7 28 35 29 8 30 11 31 36 32 9 33 12 34 10 35 16 36 13 37
REMARK SMILES IDX 14 38 17 39 15 40 33 41 18 42 19 43 32 44 34 45 29 46 20 47
REMARK SMILES IDX 30 48 22 49 28 50 21 51 23 52 25 53 24 54 26 55 27 56 37 57
REMARK SMILES IDX 38 58 31 60 40 62
REMARK H PARENT 55 9 53 18 51 20 47 23 49 25 38 59 31 61 40 63
REMARK Flexibility Score: inf
ROOT
ATOM      1  C   UNL     1      26.866   8.578  31.358  1.00  0.00     0.041 C 
ATOM      2  C   UNL     1      27.407   7.102  31.419  1.00  0.00     0.150 C 
ATOM      3  C   UNL     1      28.298   7.005  32.665  1.00  0.00     0.175 C 
ATOM      4  C   UNL     1      29.079   5.665  32.618  1.00  0.00     0.186 C 
ATOM      5  C   UNL     1      28.028   4.468  32.541  1.00  0.00     0.202 C 
ATOM      6  C   UNL     1      27.100   4.655  31.245  1.00  0.00     0.282 C 
ATOM      7  O   UNL     1      26.503   6.002  31.269  1.00  0.00    -0.344 OA
ENDROOT
BRANCH   3   8
ATOM      8  O   UNL     1      27.498   7.136  33.803  1.00  0.00    -0.388 OA
ATOM      9  H   UNL     1      26.530   7.201  33.571  1.00  0.00     0.211 HD
ENDBRANCH   3   8
BRANCH   4  10
ATOM     10  O   UNL     1      30.096   5.471  31.565  1.00  0.00    -0.341 OA
BRANCH  10  11
ATOM     11  C   UNL     1      30.917   4.333  31.619  1.00  0.00     0.282 C 
ATOM     12  C   UNL     1      32.065   4.569  30.669  1.00  0.00     0.202 C 
ATOM     13  O   UNL     1      31.303   4.136  32.933  1.00  0.00    -0.341 OA
ATOM     14  C   UNL     1      32.658   5.990  31.030  1.00  0.00     0.179 C 
ATOM     15  C   UNL     1      32.342   4.920  33.424  1.00  0.00     0.178 C 
ATOM     16  C   UNL     1      32.455   6.305  32.614  1.00  0.00     0.177 C 
BRANCH  12  17
ATOM     17  O   UNL     1      31.665   4.547  29.341  1.00  0.00    -0.385 OA
ATOM     18  H   UNL     1      31.760   5.470  28.978  1.00  0.00     0.211 HD
ENDBRANCH  12  17
BRANCH  14  19
ATOM     19  O   UNL     1      32.195   7.039  30.103  1.00  0.00    -0.387 OA
ATOM     20  H   UNL     1      32.432   6.706  29.237  1.00  0.00     0.211 HD
ENDBRANCH  14  19
BRANCH  15  21
ATOM     21  C   UNL     1      32.920   4.329  34.828  1.00  0.00     0.191 C 
BRANCH  21  22
ATOM     22  O   UNL     1      33.755   5.324  35.442  1.00  0.00    -0.394 OA
ATOM     23  H   UNL     1      34.285   5.816  34.830  1.00  0.00     0.210 HD
ENDBRANCH  21  22
ENDBRANCH  15  21
BRANCH  16  24
ATOM     24  O   UNL     1      31.345   7.244  32.666  1.00  0.00    -0.387 OA
ATOM     25  H   UNL     1      30.489   6.835  32.278  1.00  0.00     0.211 HD
ENDBRANCH  16  24
ENDBRANCH  10  11
ENDBRANCH   4  10
BRANCH   6  26
ATOM     26  O   UNL     1      27.732   4.148  29.992  1.00  0.00    -0.346 OA
BRANCH  26  27
ATOM     27  C   UNL     1      27.339   3.015  29.131  1.00  0.00     0.130 C 
ATOM     28  C   UNL     1      27.110   1.435  29.748  1.00  0.00     0.033 C 
ATOM     29  C   UNL     1      27.933   2.840  27.498  1.00  0.00     0.020 C 
ATOM     30  C   UNL     1      26.473   0.189  28.830  1.00  0.00     0.010 C 
ATOM     31  C   UNL     1      26.787   1.779  27.049  1.00  0.00     0.006 C 
ATOM     32  C   UNL     1      28.075   3.860  26.261  1.00  0.00     0.017 C 
ATOM     33  C   UNL     1      26.954   0.225  27.227  1.00  0.00    -0.022 C 
ATOM     34  C   UNL     1      25.849   2.217  25.978  1.00  0.00     0.005 C 
ATOM     35  C   UNL     1      28.315  -0.584  27.395  1.00  0.00     0.012 C 
ATOM     36  C   UNL     1      26.415  -0.400  25.733  1.00  0.00     0.024 C 
ATOM     37  C   UNL     1      24.593   1.255  25.968  1.00  0.00     0.008 C 
ATOM     38  C   UNL     1      24.899  -0.010  25.197  1.00  0.00    -0.017 C 
ATOM     39  C   UNL     1      27.458  -0.078  24.573  1.00  0.00    -0.024 C 
ATOM     40  C   UNL     1      23.990  -1.123  25.685  1.00  0.00     0.013 C 
ATOM     41  C   UNL     1      24.684   0.289  23.546  1.00  0.00     0.009 C 
ATOM     42  C   UNL     1      27.218   0.603  23.408  1.00  0.00     0.005 C 
ATOM     43  C   UNL     1      25.892   0.923  22.760  1.00  0.00     0.096 C 
ATOM     44  C   UNL     1      23.412   1.150  23.234  1.00  0.00     0.043 C 
ATOM     45  C   UNL     1      24.309  -1.125  22.872  1.00  0.00     0.015 C 
ATOM     46  C   UNL     1      25.681   2.452  22.263  1.00  0.00     0.037 C 
ATOM     47  O   UNL     1      25.921   0.229  21.503  1.00  0.00    -0.369 OA
ATOM     48  C   UNL     1      23.231   1.594  21.785  1.00  0.00     0.124 C 
ATOM     49  C   UNL     1      24.614   2.201  21.186  1.00  0.00     0.026 C 
ATOM     50  C   UNL     1      25.334   3.738  23.106  1.00  0.00     0.014 C 
ATOM     51  C   UNL     1      25.339   1.042  20.493  1.00  0.00     0.171 C 
ATOM     52  C   UNL     1      24.372   3.415  20.231  1.00  0.00     0.013 C 
ATOM     53  C   UNL     1      24.750   5.003  22.434  1.00  0.00    -0.035 C 
ATOM     54  C   UNL     1      24.051   4.727  21.044  1.00  0.00     0.007 C 
ATOM     55  C   UNL     1      23.731   5.602  23.462  1.00  0.00     0.011 C 
ATOM     56  C   UNL     1      25.821   6.066  22.269  1.00  0.00     0.011 C 
BRANCH  29  57
ATOM     57  C   UNL     1      29.359   2.131  27.614  1.00  0.00     0.165 C 
BRANCH  57  58
ATOM     58  O   UNL     1      30.148   2.405  28.728  1.00  0.00    -0.396 OA
ATOM     59  H   UNL     1      30.168   3.442  28.796  1.00  0.00     0.210 HD
ENDBRANCH  57  58
ENDBRANCH  29  57
BRANCH  48  60
ATOM     60  O   UNL     1      22.210   2.634  21.746  1.00  0.00    -0.392 OA
ATOM     61  H   UNL     1      22.116   3.014  22.586  1.00  0.00     0.210 HD
ENDBRANCH  48  60
ENDBRANCH  26  27
ENDBRANCH   6  26
BRANCH   5  62
ATOM     62  O   UNL     1      28.630   3.224  32.383  1.00  0.00    -0.385 OA
ATOM     63  H   UNL     1      28.490   2.783  33.269  1.00  0.00     0.211 HD
ENDBRANCH   5  62
TORSDOF 14
ENDMDL
