MODEL 1
REMARK VINA RESULT:    -5.376      0.000      0.000
REMARK INTER + INTRA:          -5.376
REMARK INTER:                  -5.376
REMARK INTRA:                   0.000
REMARK UNBOUND:                 0.000
REMARK SMILES CC1(C)[C@@H]2CC[C@@]1(C)C(=O)C2
REMARK SMILES IDX 1 1 2 2 4 3 5 4 6 5 7 6 9 7 10 8 11 9 8 10 3 11
REMARK H PARENT
REMARK Flexibility Score: inf
ROOT
ATOM      1  C   UNL     1       4.638 -53.157 579.125  1.00  0.00     0.012 C 
ATOM      2  C   UNL     1       5.576 -52.922 577.902  1.00  0.00    -0.020 C 
ATOM      3  C   UNL     1       5.738 -54.161 576.989  1.00  0.00     0.003 C 
ATOM      4  C   UNL     1       6.444 -55.183 577.921  1.00  0.00     0.005 C 
ATOM      5  C   UNL     1       7.383 -54.288 578.769  1.00  0.00     0.015 C 
ATOM      6  C   UNL     1       7.086 -52.871 578.223  1.00  0.00     0.032 C 
ATOM      7  C   UNL     1       7.666 -52.865 576.830  1.00  0.00     0.139 C 
ATOM      8  O   UNL     1       8.713 -52.335 576.491  1.00  0.00    -0.299 OA
ATOM      9  C   UNL     1       6.799 -53.709 575.949  1.00  0.00     0.080 C 
ATOM     10  C   UNL     1       7.555 -51.723 579.125  1.00  0.00     0.020 C 
ATOM     11  C   UNL     1       5.025 -51.665 577.159  1.00  0.00     0.012 C 
ENDROOT
TORSDOF 0
ENDMDL
MODEL 2
REMARK VINA RESULT:    -5.287      1.483      2.874
REMARK INTER + INTRA:          -5.287
REMARK INTER:                  -5.287
REMARK INTRA:                   0.000
REMARK UNBOUND:                 0.000
REMARK SMILES CC1(C)[C@@H]2CC[C@@]1(C)C(=O)C2
REMARK SMILES IDX 1 1 2 2 4 3 5 4 6 5 7 6 9 7 10 8 11 9 8 10 3 11
REMARK H PARENT
REMARK Flexibility Score: inf
ROOT
ATOM      1  C   UNL     1       5.743 -51.366 577.624  1.00  0.00     0.012 C 
ATOM      2  C   UNL     1       5.994 -52.864 577.975  1.00  0.00    -0.020 C 
ATOM      3  C   UNL     1       7.074 -53.081 579.061  1.00  0.00     0.003 C 
ATOM      4  C   UNL     1       8.361 -52.547 578.375  1.00  0.00     0.005 C 
ATOM      5  C   UNL     1       8.163 -52.962 576.895  1.00  0.00     0.015 C 
ATOM      6  C   UNL     1       6.787 -53.669 576.922  1.00  0.00     0.032 C 
ATOM      7  C   UNL     1       7.028 -54.953 577.677  1.00  0.00     0.139 C 
ATOM      8  O   UNL     1       7.136 -56.065 577.184  1.00  0.00    -0.299 OA
ATOM      9  C   UNL     1       7.220 -54.626 579.125  1.00  0.00     0.080 C 
ATOM     10  C   UNL     1       6.125 -53.838 575.550  1.00  0.00     0.020 C 
ATOM     11  C   UNL     1       4.604 -53.469 578.345  1.00  0.00     0.012 C 
ENDROOT
TORSDOF 0
ENDMDL
MODEL 3
REMARK VINA RESULT:    -5.179      1.264      2.752
REMARK INTER + INTRA:          -5.179
REMARK INTER:                  -5.179
REMARK INTRA:                   0.000
REMARK UNBOUND:                 0.000
REMARK SMILES CC1(C)[C@@H]2CC[C@@]1(C)C(=O)C2
REMARK SMILES IDX 1 1 2 2 4 3 5 4 6 5 7 6 9 7 10 8 11 9 8 10 3 11
REMARK H PARENT
REMARK Flexibility Score: inf
ROOT
ATOM      1  C   UNL     1       7.250 -56.126 576.970  1.00  0.00     0.012 C 
ATOM      2  C   UNL     1       6.788 -54.755 577.551  1.00  0.00    -0.020 C 
ATOM      3  C   UNL     1       5.568 -54.144 576.821  1.00  0.00     0.003 C 
ATOM      4  C   UNL     1       6.123 -53.876 575.395  1.00  0.00     0.005 C 
ATOM      5  C   UNL     1       7.589 -53.456 575.666  1.00  0.00     0.015 C 
ATOM      6  C   UNL     1       7.689 -53.549 577.208  1.00  0.00     0.032 C 
ATOM      7  C   UNL     1       6.840 -52.412 577.718  1.00  0.00     0.139 C 
ATOM      8  O   UNL     1       7.251 -51.351 578.161  1.00  0.00    -0.299 OA
ATOM      9  C   UNL     1       5.399 -52.754 577.494  1.00  0.00     0.080 C 
ATOM     10  C   UNL     1       9.120 -53.587 577.758  1.00  0.00     0.020 C 
ATOM     11  C   UNL     1       6.554 -54.980 579.078  1.00  0.00     0.012 C 
ENDROOT
TORSDOF 0
ENDMDL
MODEL 4
REMARK VINA RESULT:    -5.173      1.222      2.403
REMARK INTER + INTRA:          -5.173
REMARK INTER:                  -5.173
REMARK INTRA:                   0.000
REMARK UNBOUND:                 0.000
REMARK SMILES CC1(C)[C@@H]2CC[C@@]1(C)C(=O)C2
REMARK SMILES IDX 1 1 2 2 4 3 5 4 6 5 7 6 9 7 10 8 11 9 8 10 3 11
REMARK H PARENT
REMARK Flexibility Score: inf
ROOT
ATOM      1  C   UNL     1       5.532 -54.977 576.200  1.00  0.00     0.012 C 
ATOM      2  C   UNL     1       6.623 -54.002 576.737  1.00  0.00    -0.020 C 
ATOM      3  C   UNL     1       7.608 -54.653 577.738  1.00  0.00     0.003 C 
ATOM      4  C   UNL     1       6.687 -55.018 578.935  1.00  0.00     0.005 C 
ATOM      5  C   UNL     1       5.675 -53.845 578.964  1.00  0.00     0.015 C 
ATOM      6  C   UNL     1       6.137 -52.968 577.776  1.00  0.00     0.032 C 
ATOM      7  C   UNL     1       7.454 -52.380 578.221  1.00  0.00     0.139 C 
ATOM      8  O   UNL     1       7.635 -51.237 578.610  1.00  0.00    -0.299 OA
ATOM      9  C   UNL     1       8.488 -53.463 578.209  1.00  0.00     0.080 C 
ATOM     10  C   UNL     1       5.103 -51.946 577.291  1.00  0.00     0.020 C 
ATOM     11  C   UNL     1       7.321 -53.387 575.484  1.00  0.00     0.012 C 
ENDROOT
TORSDOF 0
ENDMDL
MODEL 5
REMARK VINA RESULT:    -5.152      1.417      3.105
REMARK INTER + INTRA:          -5.152
REMARK INTER:                  -5.152
REMARK INTRA:                   0.000
REMARK UNBOUND:                 0.000
REMARK SMILES CC1(C)[C@@H]2CC[C@@]1(C)C(=O)C2
REMARK SMILES IDX 1 1 2 2 4 3 5 4 6 5 7 6 9 7 10 8 11 9 8 10 3 11
REMARK H PARENT
REMARK Flexibility Score: inf
ROOT
ATOM      1  C   UNL     1       5.580 -55.293 575.314  1.00  0.00     0.012 C 
ATOM      2  C   UNL     1       6.640 -55.112 576.441  1.00  0.00    -0.020 C 
ATOM      3  C   UNL     1       6.031 -54.966 577.857  1.00  0.00     0.003 C 
ATOM      4  C   UNL     1       5.238 -53.635 577.752  1.00  0.00     0.005 C 
ATOM      5  C   UNL     1       6.129 -52.772 576.823  1.00  0.00     0.015 C 
ATOM      6  C   UNL     1       7.309 -53.722 576.507  1.00  0.00     0.032 C 
ATOM      7  C   UNL     1       8.068 -53.839 577.805  1.00  0.00     0.139 C 
ATOM      8  O   UNL     1       9.120 -53.279 578.075  1.00  0.00    -0.299 OA
ATOM      9  C   UNL     1       7.265 -54.672 578.754  1.00  0.00     0.080 C 
ATOM     10  C   UNL     1       8.156 -53.313 575.296  1.00  0.00     0.020 C 
ATOM     11  C   UNL     1       7.635 -56.307 576.308  1.00  0.00     0.012 C 
ENDROOT
TORSDOF 0
ENDMDL
MODEL 6
REMARK VINA RESULT:    -5.131      1.903      3.220
REMARK INTER + INTRA:          -5.131
REMARK INTER:                  -5.131
REMARK INTRA:                   0.000
REMARK UNBOUND:                 0.000
REMARK SMILES CC1(C)[C@@H]2CC[C@@]1(C)C(=O)C2
REMARK SMILES IDX 1 1 2 2 4 3 5 4 6 5 7 6 9 7 10 8 11 9 8 10 3 11
REMARK H PARENT
REMARK Flexibility Score: inf
ROOT
ATOM      1  C   UNL     1       8.271 -54.837 576.492  1.00  0.00     0.012 C 
ATOM      2  C   UNL     1       6.875 -54.240 576.846  1.00  0.00    -0.020 C 
ATOM      3  C   UNL     1       6.780 -52.708 576.649  1.00  0.00     0.003 C 
ATOM      4  C   UNL     1       7.791 -52.165 577.696  1.00  0.00     0.005 C 
ATOM      5  C   UNL     1       7.630 -53.153 578.878  1.00  0.00     0.015 C 
ATOM      6  C   UNL     1       6.558 -54.138 578.354  1.00  0.00     0.032 C 
ATOM      7  C   UNL     1       5.282 -53.335 578.317  1.00  0.00     0.139 C 
ATOM      8  O   UNL     1       4.367 -53.404 579.123  1.00  0.00    -0.299 OA
ATOM      9  C   UNL     1       5.365 -52.359 577.185  1.00  0.00     0.080 C 
ATOM     10  C   UNL     1       6.469 -55.461 579.124  1.00  0.00     0.020 C 
ATOM     11  C   UNL     1       5.828 -55.043 576.013  1.00  0.00     0.012 C 
ENDROOT
TORSDOF 0
ENDMDL
MODEL 7
REMARK VINA RESULT:    -5.103      1.580      3.153
REMARK INTER + INTRA:          -5.103
REMARK INTER:                  -5.103
REMARK INTRA:                   0.000
REMARK UNBOUND:                 0.000
REMARK SMILES CC1(C)[C@@H]2CC[C@@]1(C)C(=O)C2
REMARK SMILES IDX 1 1 2 2 4 3 5 4 6 5 7 6 9 7 10 8 11 9 8 10 3 11
REMARK H PARENT
REMARK Flexibility Score: inf
ROOT
ATOM      1  C   UNL     1       8.851 -54.554 576.985  1.00  0.00     0.012 C 
ATOM      2  C   UNL     1       7.912 -53.362 577.340  1.00  0.00    -0.020 C 
ATOM      3  C   UNL     1       7.541 -53.281 578.841  1.00  0.00     0.003 C 
ATOM      4  C   UNL     1       6.730 -54.588 579.063  1.00  0.00     0.005 C 
ATOM      5  C   UNL     1       5.961 -54.750 577.727  1.00  0.00     0.015 C 
ATOM      6  C   UNL     1       6.438 -53.526 576.910  1.00  0.00     0.032 C 
ATOM      7  C   UNL     1       5.813 -52.337 577.598  1.00  0.00     0.139 C 
ATOM      8  O   UNL     1       4.840 -51.710 577.206  1.00  0.00    -0.299 OA
ATOM      9  C   UNL     1       6.517 -52.115 578.900  1.00  0.00     0.080 C 
ATOM     10  C   UNL     1       6.171 -53.616 575.403  1.00  0.00     0.020 C 
ATOM     11  C   UNL     1       8.608 -52.075 576.799  1.00  0.00     0.012 C 
ENDROOT
TORSDOF 0
ENDMDL
MODEL 8
REMARK VINA RESULT:    -4.955      1.629      2.163
REMARK INTER + INTRA:          -4.955
REMARK INTER:                  -4.955
REMARK INTRA:                   0.000
REMARK UNBOUND:                 0.000
REMARK SMILES CC1(C)[C@@H]2CC[C@@]1(C)C(=O)C2
REMARK SMILES IDX 1 1 2 2 4 3 5 4 6 5 7 6 9 7 10 8 11 9 8 10 3 11
REMARK H PARENT
REMARK Flexibility Score: inf
ROOT
ATOM      1  C   UNL     1       6.264 -54.855 578.368  1.00  0.00     0.012 C 
ATOM      2  C   UNL     1       6.449 -54.154 576.988  1.00  0.00    -0.020 C 
ATOM      3  C   UNL     1       5.953 -54.993 575.786  1.00  0.00     0.003 C 
ATOM      4  C   UNL     1       6.905 -56.220 575.811  1.00  0.00     0.005 C 
ATOM      5  C   UNL     1       8.253 -55.606 576.265  1.00  0.00     0.015 C 
ATOM      6  C   UNL     1       7.898 -54.111 576.454  1.00  0.00     0.032 C 
ATOM      7  C   UNL     1       7.664 -53.592 575.057  1.00  0.00     0.139 C 
ATOM      8  O   UNL     1       8.439 -52.908 574.406  1.00  0.00    -0.299 OA
ATOM      9  C   UNL     1       6.366 -54.143 574.554  1.00  0.00     0.080 C 
ATOM     10  C   UNL     1       8.909 -53.310 577.282  1.00  0.00     0.020 C 
ATOM     11  C   UNL     1       5.758 -52.760 577.105  1.00  0.00     0.012 C 
ENDROOT
TORSDOF 0
ENDMDL
MODEL 9
REMARK VINA RESULT:    -4.516      1.615      2.967
REMARK INTER + INTRA:          -4.516
REMARK INTER:                  -4.516
REMARK INTRA:                   0.000
REMARK UNBOUND:                 0.000
REMARK SMILES CC1(C)[C@@H]2CC[C@@]1(C)C(=O)C2
REMARK SMILES IDX 1 1 2 2 4 3 5 4 6 5 7 6 9 7 10 8 11 9 8 10 3 11
REMARK H PARENT
REMARK Flexibility Score: inf
ROOT
ATOM      1  C   UNL     1       7.631 -52.350 579.125  1.00  0.00     0.012 C 
ATOM      2  C   UNL     1       7.357 -53.172 577.829  1.00  0.00    -0.020 C 
ATOM      3  C   UNL     1       6.599 -52.382 576.735  1.00  0.00     0.003 C 
ATOM      4  C   UNL     1       5.224 -52.104 577.404  1.00  0.00     0.005 C 
ATOM      5  C   UNL     1       4.975 -53.391 578.231  1.00  0.00     0.015 C 
ATOM      6  C   UNL     1       6.240 -54.233 577.940  1.00  0.00     0.032 C 
ATOM      7  C   UNL     1       6.103 -54.645 576.495  1.00  0.00     0.139 C 
ATOM      8  O   UNL     1       5.769 -55.748 576.092  1.00  0.00    -0.299 OA
ATOM      9  C   UNL     1       6.342 -53.445 575.632  1.00  0.00     0.080 C 
ATOM     10  C   UNL     1       6.486 -55.384 578.921  1.00  0.00     0.020 C 
ATOM     11  C   UNL     1       8.737 -53.726 577.357  1.00  0.00     0.012 C 
ENDROOT
TORSDOF 0
ENDMDL
