MODEL 1
REMARK VINA RESULT:    -6.625      0.000      0.000
REMARK INTER + INTRA:         -10.445
REMARK INTER:                  -9.529
REMARK INTRA:                  -0.915
REMARK UNBOUND:                -0.915
REMARK SMILES O=c1cc(-c2ccc(O)c(O)c2)oc2cc(O[C@@H]3O[C@H](CO)[C@H](O)[C@@H](O)[C@@H]3O)cc(O)c12
REMARK SMILES IDX 17 1 16 2 4 3 3 4 13 5 2 6 14 7 1 8 32 9 15 10 30 11 29 12
REMARK SMILES IDX 5 13 6 14 7 15 8 16 12 17 10 18 9 19 11 21 31 23 18 25 27 26
REMARK SMILES IDX 19 27 25 28 20 29 23 30 28 31 26 33 21 35 22 36 24 38
REMARK H PARENT 9 20 11 22 31 24 28 32 26 34 22 37 24 39
REMARK Flexibility Score: inf
ROOT
ATOM      1  O   UNL     1      -3.749  90.798 -17.020  1.00  0.00    -0.462 OA
ENDROOT
BRANCH   1   2
ATOM      2  C   UNL     1      -4.340  91.081 -15.769  1.00  0.00     0.130 A 
ATOM      3  C   UNL     1      -8.468  91.664 -13.521  1.00  0.00     0.138 A 
ATOM      4  C   UNL     1      -7.902  92.582 -12.617  1.00  0.00     0.100 A 
ATOM      5  O   UNL     1      -7.672  90.993 -14.361  1.00  0.00    -0.456 OA
ATOM      6  C   UNL     1      -6.526  92.781 -12.630  1.00  0.00     0.197 A 
ATOM      7  C   UNL     1      -6.367  91.190 -14.448  1.00  0.00     0.146 A 
ATOM      8  O   UNL     1      -6.067  93.799 -12.025  1.00  0.00    -0.289 OA
ATOM      9  C   UNL     1      -5.720  92.030 -13.513  1.00  0.00     0.107 A 
ATOM     10  C   UNL     1      -5.698  90.739 -15.583  1.00  0.00     0.094 A 
ATOM     11  C   UNL     1      -4.290  92.149 -13.598  1.00  0.00     0.134 A 
ATOM     12  C   UNL     1      -3.628  91.744 -14.767  1.00  0.00     0.093 A 
BRANCH   3  13
ATOM     13  C   UNL     1      -9.905  91.474 -13.615  1.00  0.00     0.021 A 
ATOM     14  C   UNL     1     -10.805  92.571 -13.554  1.00  0.00     0.016 A 
ATOM     15  C   UNL     1     -12.185  92.375 -13.423  1.00  0.00     0.051 A 
ATOM     16  C   UNL     1     -12.700  91.071 -13.439  1.00  0.00     0.157 A 
ATOM     17  C   UNL     1     -10.463  90.182 -13.718  1.00  0.00     0.062 A 
ATOM     18  C   UNL     1     -11.854  89.974 -13.644  1.00  0.00     0.158 A 
BRANCH  16  19
ATOM     19  O   UNL     1     -14.081  90.876 -13.315  1.00  0.00    -0.504 OA
ATOM     20  H   UNL     1     -14.654  91.491 -12.747  1.00  0.00     0.293 HD
ENDBRANCH  16  19
BRANCH  18  21
ATOM     21  O   UNL     1     -12.354  88.677 -13.665  1.00  0.00    -0.504 OA
ATOM     22  H   UNL     1     -12.665  88.223 -14.521  1.00  0.00     0.293 HD
ENDBRANCH  18  21
ENDBRANCH   3  13
BRANCH  11  23
ATOM     23  O   UNL     1      -3.520  92.787 -12.625  1.00  0.00    -0.507 OA
ATOM     24  H   UNL     1      -3.772  93.663 -12.154  1.00  0.00     0.293 HD
ENDBRANCH  11  23
ENDBRANCH   1   2
BRANCH   1  25
ATOM     25  C   UNL     1      -3.274  91.852 -17.864  1.00  0.00     0.339 C 
ATOM     26  C   UNL     1      -2.328  91.328 -19.017  1.00  0.00     0.214 C 
ATOM     27  O   UNL     1      -4.414  92.601 -18.313  1.00  0.00    -0.332 OA
ATOM     28  C   UNL     1      -2.970  91.682 -20.418  1.00  0.00     0.180 C 
ATOM     29  C   UNL     1      -4.220  93.611 -19.305  1.00  0.00     0.179 C 
ATOM     30  C   UNL     1      -3.130  93.218 -20.398  1.00  0.00     0.177 C 
BRANCH  26  31
ATOM     31  O   UNL     1      -2.024  89.949 -18.912  1.00  0.00    -0.384 OA
ATOM     32  H   UNL     1      -2.883  89.479 -19.121  1.00  0.00     0.211 HD
ENDBRANCH  26  31
BRANCH  28  33
ATOM     33  O   UNL     1      -2.149  91.334 -21.512  1.00  0.00    -0.387 OA
ATOM     34  H   UNL     1      -2.087  90.341 -21.502  1.00  0.00     0.211 HD
ENDBRANCH  28  33
BRANCH  29  35
ATOM     35  C   UNL     1      -5.647  93.854 -19.916  1.00  0.00     0.191 C 
BRANCH  35  36
ATOM     36  O   UNL     1      -6.408  92.650 -19.910  1.00  0.00    -0.394 OA
ATOM     37  H   UNL     1      -5.890  91.982 -20.451  1.00  0.00     0.210 HD
ENDBRANCH  35  36
ENDBRANCH  29  35
BRANCH  30  38
ATOM     38  O   UNL     1      -3.331  93.784 -21.666  1.00  0.00    -0.387 OA
ATOM     39  H   UNL     1      -2.880  94.697 -21.572  1.00  0.00     0.211 HD
ENDBRANCH  30  38
ENDBRANCH   1  25
TORSDOF 11
ENDMDL
MODEL 2
REMARK VINA RESULT:    -6.416      5.925      9.833
REMARK INTER + INTRA:         -10.144
REMARK INTER:                  -9.298
REMARK INTRA:                  -0.846
REMARK UNBOUND:                -0.915
REMARK SMILES O=c1cc(-c2ccc(O)c(O)c2)oc2cc(O[C@@H]3O[C@H](CO)[C@H](O)[C@@H](O)[C@@H]3O)cc(O)c12
REMARK SMILES IDX 17 1 16 2 4 3 3 4 13 5 2 6 14 7 1 8 32 9 15 10 30 11 29 12
REMARK SMILES IDX 5 13 6 14 7 15 8 16 12 17 10 18 9 19 11 21 31 23 18 25 27 26
REMARK SMILES IDX 19 27 25 28 20 29 23 30 28 31 26 33 21 35 22 36 24 38
REMARK H PARENT 9 20 11 22 31 24 28 32 26 34 22 37 24 39
REMARK Flexibility Score: inf
ROOT
ATOM      1  O   UNL     1      -7.808  86.340  -8.920  1.00  0.00    -0.462 OA
ENDROOT
BRANCH   1   2
ATOM      2  C   UNL     1      -7.456  87.688  -9.149  1.00  0.00     0.130 A 
ATOM      3  C   UNL     1      -5.519  90.669 -12.279  1.00  0.00     0.138 A 
ATOM      4  C   UNL     1      -5.018  91.495 -11.256  1.00  0.00     0.100 A 
ATOM      5  O   UNL     1      -6.353  89.671 -11.968  1.00  0.00    -0.456 OA
ATOM      6  C   UNL     1      -5.391  91.243  -9.940  1.00  0.00     0.197 A 
ATOM      7  C   UNL     1      -6.691  89.358 -10.728  1.00  0.00     0.146 A 
ATOM      8  O   UNL     1      -4.722  91.799  -9.015  1.00  0.00    -0.289 OA
ATOM      9  C   UNL     1      -6.297  90.197  -9.660  1.00  0.00     0.107 A 
ATOM     10  C   UNL     1      -7.239  88.102 -10.482  1.00  0.00     0.094 A 
ATOM     11  C   UNL     1      -6.756  89.859  -8.340  1.00  0.00     0.134 A 
ATOM     12  C   UNL     1      -7.257  88.574  -8.087  1.00  0.00     0.093 A 
BRANCH   3  13
ATOM     13  C   UNL     1      -5.100  90.829 -13.661  1.00  0.00     0.021 A 
ATOM     14  C   UNL     1      -6.005  90.641 -14.738  1.00  0.00     0.016 A 
ATOM     15  C   UNL     1      -5.557  90.577 -16.064  1.00  0.00     0.051 A 
ATOM     16  C   UNL     1      -4.199  90.790 -16.342  1.00  0.00     0.157 A 
ATOM     17  C   UNL     1      -3.759  91.127 -13.983  1.00  0.00     0.062 A 
ATOM     18  C   UNL     1      -3.306  91.122 -15.317  1.00  0.00     0.158 A 
BRANCH  16  19
ATOM     19  O   UNL     1      -3.754  90.733 -17.669  1.00  0.00    -0.504 OA
ATOM     20  H   UNL     1      -2.784  90.909 -17.910  1.00  0.00     0.293 HD
ENDBRANCH  16  19
BRANCH  18  21
ATOM     21  O   UNL     1      -1.958  91.339 -15.583  1.00  0.00    -0.504 OA
ATOM     22  H   UNL     1      -1.304  90.579 -15.756  1.00  0.00     0.293 HD
ENDBRANCH  18  21
ENDBRANCH   3  13
BRANCH  11  23
ATOM     23  O   UNL     1      -6.600  90.705  -7.241  1.00  0.00    -0.507 OA
ATOM     24  H   UNL     1      -6.921  91.678  -7.194  1.00  0.00     0.293 HD
ENDBRANCH  11  23
ENDBRANCH   1   2
BRANCH   1  25
ATOM     25  C   UNL     1      -6.852  85.409  -8.405  1.00  0.00     0.339 C 
ATOM     26  C   UNL     1      -6.845  84.041  -9.199  1.00  0.00     0.214 C 
ATOM     27  O   UNL     1      -5.582  86.075  -8.340  1.00  0.00    -0.332 OA
ATOM     28  C   UNL     1      -5.415  83.817  -9.835  1.00  0.00     0.180 C 
ATOM     29  C   UNL     1      -4.422  85.305  -8.013  1.00  0.00     0.179 C 
ATOM     30  C   UNL     1      -4.445  83.838  -8.633  1.00  0.00     0.177 C 
BRANCH  26  31
ATOM     31  O   UNL     1      -7.872  83.951 -10.171  1.00  0.00    -0.384 OA
ATOM     32  H   UNL     1      -8.725  83.985  -9.649  1.00  0.00     0.211 HD
ENDBRANCH  26  31
BRANCH  28  33
ATOM     33  O   UNL     1      -5.285  82.573 -10.490  1.00  0.00    -0.387 OA
ATOM     34  H   UNL     1      -6.187  82.154 -10.464  1.00  0.00     0.211 HD
ENDBRANCH  28  33
BRANCH  29  35
ATOM     35  C   UNL     1      -3.211  86.170  -8.517  1.00  0.00     0.191 C 
BRANCH  35  36
ATOM     36  O   UNL     1      -1.988  85.691  -7.969  1.00  0.00    -0.394 OA
ATOM     37  H   UNL     1      -2.098  84.700  -7.847  1.00  0.00     0.210 HD
ENDBRANCH  35  36
ENDBRANCH  29  35
BRANCH  30  38
ATOM     38  O   UNL     1      -3.182  83.294  -8.914  1.00  0.00    -0.387 OA
ATOM     39  H   UNL     1      -2.554  83.943  -8.434  1.00  0.00     0.211 HD
ENDBRANCH  30  38
ENDBRANCH   1  25
TORSDOF 11
ENDMDL
MODEL 3
REMARK VINA RESULT:    -6.287      5.293      9.150
REMARK INTER + INTRA:          -9.959
REMARK INTER:                  -8.973
REMARK INTRA:                  -0.986
REMARK UNBOUND:                -0.915
REMARK SMILES O=c1cc(-c2ccc(O)c(O)c2)oc2cc(O[C@@H]3O[C@H](CO)[C@H](O)[C@@H](O)[C@@H]3O)cc(O)c12
REMARK SMILES IDX 17 1 16 2 4 3 3 4 13 5 2 6 14 7 1 8 32 9 15 10 30 11 29 12
REMARK SMILES IDX 5 13 6 14 7 15 8 16 12 17 10 18 9 19 11 21 31 23 18 25 27 26
REMARK SMILES IDX 19 27 25 28 20 29 23 30 28 31 26 33 21 35 22 36 24 38
REMARK H PARENT 9 20 11 22 31 24 28 32 26 34 22 37 24 39
REMARK Flexibility Score: inf
ROOT
ATOM      1  O   UNL     1      -5.002  89.116  -8.344  1.00  0.00    -0.462 OA
ENDROOT
BRANCH   1   2
ATOM      2  C   UNL     1      -5.042  90.383  -8.967  1.00  0.00     0.130 A 
ATOM      3  C   UNL     1      -5.051  92.602 -13.152  1.00  0.00     0.138 A 
ATOM      4  C   UNL     1      -4.388  93.721 -12.615  1.00  0.00     0.100 A 
ATOM      5  O   UNL     1      -5.488  91.641 -12.330  1.00  0.00    -0.456 OA
ATOM      6  C   UNL     1      -4.188  93.793 -11.240  1.00  0.00     0.197 A 
ATOM      7  C   UNL     1      -5.273  91.639 -11.026  1.00  0.00     0.146 A 
ATOM      8  O   UNL     1      -3.353  94.645 -10.804  1.00  0.00    -0.289 OA
ATOM      9  C   UNL     1      -4.692  92.770 -10.407  1.00  0.00     0.107 A 
ATOM     10  C   UNL     1      -5.423  90.444 -10.326  1.00  0.00     0.094 A 
ATOM     11  C   UNL     1      -4.552  92.753  -8.977  1.00  0.00     0.134 A 
ATOM     12  C   UNL     1      -4.650  91.537  -8.285  1.00  0.00     0.093 A 
BRANCH   3  13
ATOM     13  C   UNL     1      -5.214  92.428 -14.584  1.00  0.00     0.021 A 
ATOM     14  C   UNL     1      -6.356  92.923 -15.268  1.00  0.00     0.016 A 
ATOM     15  C   UNL     1      -6.621  92.568 -16.597  1.00  0.00     0.051 A 
ATOM     16  C   UNL     1      -5.696  91.779 -17.296  1.00  0.00     0.157 A 
ATOM     17  C   UNL     1      -4.263  91.713 -15.343  1.00  0.00     0.062 A 
ATOM     18  C   UNL     1      -4.490  91.397 -16.697  1.00  0.00     0.158 A 
BRANCH  16  19
ATOM     19  O   UNL     1      -5.958  91.431 -18.627  1.00  0.00    -0.504 OA
ATOM     20  H   UNL     1      -6.329  90.520 -18.873  1.00  0.00     0.293 HD
ENDBRANCH  16  19
BRANCH  18  21
ATOM     21  O   UNL     1      -3.564  90.618 -17.382  1.00  0.00    -0.504 OA
ATOM     22  H   UNL     1      -3.313  90.790 -18.353  1.00  0.00     0.293 HD
ENDBRANCH  18  21
ENDBRANCH   3  13
BRANCH  11  23
ATOM     23  O   UNL     1      -4.177  93.874  -8.236  1.00  0.00    -0.507 OA
ATOM     24  H   UNL     1      -3.417  94.518  -8.483  1.00  0.00     0.293 HD
ENDBRANCH  11  23
ENDBRANCH   1   2
BRANCH   1  25
ATOM     25  C   UNL     1      -4.397  87.995  -8.998  1.00  0.00     0.339 C 
ATOM     26  C   UNL     1      -3.009  87.593  -8.356  1.00  0.00     0.214 C 
ATOM     27  O   UNL     1      -5.369  86.940  -9.045  1.00  0.00    -0.332 OA
ATOM     28  C   UNL     1      -3.099  86.112  -7.810  1.00  0.00     0.180 C 
ATOM     29  C   UNL     1      -4.955  85.650  -9.503  1.00  0.00     0.179 C 
ATOM     30  C   UNL     1      -3.480  85.263  -9.044  1.00  0.00     0.177 C 
BRANCH  26  31
ATOM     31  O   UNL     1      -2.570  88.495  -7.356  1.00  0.00    -0.384 OA
ATOM     32  H   UNL     1      -2.427  89.362  -7.835  1.00  0.00     0.211 HD
ENDBRANCH  26  31
BRANCH  28  33
ATOM     33  O   UNL     1      -1.875  85.630  -7.300  1.00  0.00    -0.387 OA
ATOM     34  H   UNL     1      -1.771  86.045  -6.401  1.00  0.00     0.211 HD
ENDBRANCH  28  33
BRANCH  29  35
ATOM     35  C   UNL     1      -6.050  84.661  -8.962  1.00  0.00     0.191 C 
BRANCH  35  36
ATOM     36  O   UNL     1      -6.031  83.440  -9.695  1.00  0.00    -0.394 OA
ATOM     37  H   UNL     1      -6.917  83.374 -10.162  1.00  0.00     0.210 HD
ENDBRANCH  35  36
ENDBRANCH  29  35
BRANCH  30  38
ATOM     38  O   UNL     1      -3.252  83.888  -8.879  1.00  0.00    -0.387 OA
ATOM     39  H   UNL     1      -3.496  83.744  -7.896  1.00  0.00     0.211 HD
ENDBRANCH  30  38
ENDBRANCH   1  25
TORSDOF 11
ENDMDL
MODEL 4
REMARK VINA RESULT:    -6.285      4.936      6.487
REMARK INTER + INTRA:          -9.956
REMARK INTER:                  -8.999
REMARK INTRA:                  -0.957
REMARK UNBOUND:                -0.915
REMARK SMILES O=c1cc(-c2ccc(O)c(O)c2)oc2cc(O[C@@H]3O[C@H](CO)[C@H](O)[C@@H](O)[C@@H]3O)cc(O)c12
REMARK SMILES IDX 17 1 16 2 4 3 3 4 13 5 2 6 14 7 1 8 32 9 15 10 30 11 29 12
REMARK SMILES IDX 5 13 6 14 7 15 8 16 12 17 10 18 9 19 11 21 31 23 18 25 27 26
REMARK SMILES IDX 19 27 25 28 20 29 23 30 28 31 26 33 21 35 22 36 24 38
REMARK H PARENT 9 20 11 22 31 24 28 32 26 34 22 37 24 39
REMARK Flexibility Score: inf
ROOT
ATOM      1  O   UNL     1      -6.753  91.012 -15.068  1.00  0.00    -0.462 OA
ENDROOT
BRANCH   1   2
ATOM      2  C   UNL     1      -7.149  90.650 -13.761  1.00  0.00     0.130 A 
ATOM      3  C   UNL     1      -6.485  87.501 -10.286  1.00  0.00     0.138 A 
ATOM      4  C   UNL     1      -7.813  87.638  -9.841  1.00  0.00     0.100 A 
ATOM      5  O   UNL     1      -6.017  88.332 -11.224  1.00  0.00    -0.456 OA
ATOM      6  C   UNL     1      -8.614  88.628 -10.401  1.00  0.00     0.197 A 
ATOM      7  C   UNL     1      -6.756  89.249 -11.824  1.00  0.00     0.146 A 
ATOM      8  O   UNL     1      -9.868  88.559 -10.208  1.00  0.00    -0.289 OA
ATOM      9  C   UNL     1      -8.070  89.502 -11.368  1.00  0.00     0.107 A 
ATOM     10  C   UNL     1      -6.303  89.792 -13.024  1.00  0.00     0.094 A 
ATOM     11  C   UNL     1      -8.806  90.564 -11.999  1.00  0.00     0.134 A 
ATOM     12  C   UNL     1      -8.373  91.068 -13.235  1.00  0.00     0.093 A 
BRANCH   3  13
ATOM     13  C   UNL     1      -5.627  86.434  -9.802  1.00  0.00     0.021 A 
ATOM     14  C   UNL     1      -4.500  86.702  -8.980  1.00  0.00     0.016 A 
ATOM     15  C   UNL     1      -3.552  85.711  -8.696  1.00  0.00     0.051 A 
ATOM     16  C   UNL     1      -3.764  84.404  -9.160  1.00  0.00     0.157 A 
ATOM     17  C   UNL     1      -5.853  85.093 -10.176  1.00  0.00     0.062 A 
ATOM     18  C   UNL     1      -4.937  84.074  -9.849  1.00  0.00     0.158 A 
BRANCH  16  19
ATOM     19  O   UNL     1      -2.819  83.412  -8.871  1.00  0.00    -0.504 OA
ATOM     20  H   UNL     1      -2.136  83.113  -9.559  1.00  0.00     0.293 HD
ENDBRANCH  16  19
BRANCH  18  21
ATOM     21  O   UNL     1      -5.158  82.781 -10.311  1.00  0.00    -0.504 OA
ATOM     22  H   UNL     1      -5.383  82.008  -9.689  1.00  0.00     0.293 HD
ENDBRANCH  18  21
ENDBRANCH   3  13
BRANCH  11  23
ATOM     23  O   UNL     1     -10.027  91.035 -11.516  1.00  0.00    -0.507 OA
ATOM     24  H   UNL     1     -10.846  90.453 -11.313  1.00  0.00     0.293 HD
ENDBRANCH  11  23
ENDBRANCH   1   2
BRANCH   1  25
ATOM     25  C   UNL     1      -5.541  91.739 -15.293  1.00  0.00     0.339 C 
ATOM     26  C   UNL     1      -4.561  90.993 -16.285  1.00  0.00     0.214 C 
ATOM     27  O   UNL     1      -5.897  93.073 -15.686  1.00  0.00    -0.332 OA
ATOM     28  C   UNL     1      -4.312  91.904 -17.553  1.00  0.00     0.180 C 
ATOM     29  C   UNL     1      -4.862  93.953 -16.131  1.00  0.00     0.179 C 
ATOM     30  C   UNL     1      -3.734  93.218 -16.983  1.00  0.00     0.177 C 
BRANCH  26  31
ATOM     31  O   UNL     1      -5.006  89.698 -16.648  1.00  0.00    -0.384 OA
ATOM     32  H   UNL     1      -5.131  89.215 -15.780  1.00  0.00     0.211 HD
ENDBRANCH  26  31
BRANCH  28  33
ATOM     33  O   UNL     1      -3.374  91.359 -18.456  1.00  0.00    -0.387 OA
ATOM     34  H   UNL     1      -3.795  90.538 -18.827  1.00  0.00     0.211 HD
ENDBRANCH  28  33
BRANCH  29  35
ATOM     35  C   UNL     1      -5.609  95.078 -16.935  1.00  0.00     0.191 C 
BRANCH  35  36
ATOM     36  O   UNL     1      -4.829  96.268 -16.977  1.00  0.00    -0.394 OA
ATOM     37  H   UNL     1      -4.034  96.069 -17.557  1.00  0.00     0.210 HD
ENDBRANCH  35  36
ENDBRANCH  29  35
BRANCH  30  38
ATOM     38  O   UNL     1      -3.099  94.021 -17.943  1.00  0.00    -0.387 OA
ATOM     39  H   UNL     1      -2.775  93.331 -18.624  1.00  0.00     0.211 HD
ENDBRANCH  30  38
ENDBRANCH   1  25
TORSDOF 11
ENDMDL
MODEL 5
REMARK VINA RESULT:    -6.070      4.784      6.124
REMARK INTER + INTRA:          -9.646
REMARK INTER:                  -8.898
REMARK INTRA:                  -0.748
REMARK UNBOUND:                -0.915
REMARK SMILES O=c1cc(-c2ccc(O)c(O)c2)oc2cc(O[C@@H]3O[C@H](CO)[C@H](O)[C@@H](O)[C@@H]3O)cc(O)c12
REMARK SMILES IDX 17 1 16 2 4 3 3 4 13 5 2 6 14 7 1 8 32 9 15 10 30 11 29 12
REMARK SMILES IDX 5 13 6 14 7 15 8 16 12 17 10 18 9 19 11 21 31 23 18 25 27 26
REMARK SMILES IDX 19 27 25 28 20 29 23 30 28 31 26 33 21 35 22 36 24 38
REMARK H PARENT 9 20 11 22 31 24 28 32 26 34 22 37 24 39
REMARK Flexibility Score: inf
ROOT
ATOM      1  O   UNL     1      -5.790  90.885 -15.512  1.00  0.00    -0.462 OA
ENDROOT
BRANCH   1   2
ATOM      2  C   UNL     1      -6.332  90.650 -14.229  1.00  0.00     0.130 A 
ATOM      3  C   UNL     1      -6.363  87.646 -10.567  1.00  0.00     0.138 A 
ATOM      4  C   UNL     1      -7.693  87.975 -10.246  1.00  0.00     0.100 A 
ATOM      5  O   UNL     1      -5.718  88.357 -11.499  1.00  0.00    -0.456 OA
ATOM      6  C   UNL     1      -8.312  89.024 -10.918  1.00  0.00     0.197 A 
ATOM      7  C   UNL     1      -6.281  89.324 -12.202  1.00  0.00     0.146 A 
ATOM      8  O   UNL     1      -9.575  89.124 -10.831  1.00  0.00    -0.289 OA
ATOM      9  C   UNL     1      -7.583  89.766 -11.873  1.00  0.00     0.107 A 
ATOM     10  C   UNL     1      -5.667  89.736 -13.382  1.00  0.00     0.094 A 
ATOM     11  C   UNL     1      -8.121  90.874 -12.615  1.00  0.00     0.134 A 
ATOM     12  C   UNL     1      -7.530  91.248 -13.831  1.00  0.00     0.093 A 
BRANCH   3  13
ATOM     13  C   UNL     1      -5.692  86.510  -9.962  1.00  0.00     0.021 A 
ATOM     14  C   UNL     1      -4.640  86.681  -9.025  1.00  0.00     0.016 A 
ATOM     15  C   UNL     1      -3.849  85.601  -8.610  1.00  0.00     0.051 A 
ATOM     16  C   UNL     1      -4.158  84.309  -9.061  1.00  0.00     0.157 A 
ATOM     17  C   UNL     1      -6.031  85.188 -10.324  1.00  0.00     0.062 A 
ATOM     18  C   UNL     1      -5.279  84.087  -9.870  1.00  0.00     0.158 A 
BRANCH  16  19
ATOM     19  O   UNL     1      -3.373  83.229  -8.641  1.00  0.00    -0.504 OA
ATOM     20  H   UNL     1      -2.605  82.881  -9.206  1.00  0.00     0.293 HD
ENDBRANCH  16  19
BRANCH  18  21
ATOM     21  O   UNL     1      -5.597  82.810 -10.321  1.00  0.00    -0.504 OA
ATOM     22  H   UNL     1      -5.728  82.022  -9.689  1.00  0.00     0.293 HD
ENDBRANCH  18  21
ENDBRANCH   3  13
BRANCH  11  23
ATOM     23  O   UNL     1      -9.306  91.522 -12.261  1.00  0.00    -0.507 OA
ATOM     24  H   UNL     1      -9.386  92.262 -11.555  1.00  0.00     0.293 HD
ENDBRANCH  11  23
ENDBRANCH   1   2
BRANCH   1  25
ATOM     25  C   UNL     1      -5.472  92.212 -15.943  1.00  0.00     0.339 C 
ATOM     26  C   UNL     1      -3.931  92.541 -15.812  1.00  0.00     0.214 C 
ATOM     27  O   UNL     1      -6.015  92.386 -17.261  1.00  0.00    -0.332 OA
ATOM     28  C   UNL     1      -3.347  92.877 -17.242  1.00  0.00     0.180 C 
ATOM     29  C   UNL     1      -5.689  93.576 -17.982  1.00  0.00     0.179 C 
ATOM     30  C   UNL     1      -4.194  94.069 -17.740  1.00  0.00     0.177 C 
BRANCH  26  31
ATOM     31  O   UNL     1      -3.190  91.518 -15.170  1.00  0.00    -0.384 OA
ATOM     32  H   UNL     1      -2.462  91.282 -15.815  1.00  0.00     0.211 HD
ENDBRANCH  26  31
BRANCH  28  33
ATOM     33  O   UNL     1      -1.993  93.275 -17.213  1.00  0.00    -0.387 OA
ATOM     34  H   UNL     1      -1.808  93.549 -16.274  1.00  0.00     0.211 HD
ENDBRANCH  28  33
BRANCH  29  35
ATOM     35  C   UNL     1      -5.989  93.229 -19.486  1.00  0.00     0.191 C 
BRANCH  35  36
ATOM     36  O   UNL     1      -6.238  91.836 -19.640  1.00  0.00    -0.394 OA
ATOM     37  H   UNL     1      -5.499  91.358 -19.157  1.00  0.00     0.210 HD
ENDBRANCH  35  36
ENDBRANCH  29  35
BRANCH  30  38
ATOM     38  O   UNL     1      -3.618  94.765 -18.813  1.00  0.00    -0.387 OA
ATOM     39  H   UNL     1      -2.644  94.859 -18.515  1.00  0.00     0.211 HD
ENDBRANCH  30  38
ENDBRANCH   1  25
TORSDOF 11
ENDMDL
MODEL 6
REMARK VINA RESULT:    -6.038      4.074      5.055
REMARK INTER + INTRA:          -9.600
REMARK INTER:                  -8.818
REMARK INTRA:                  -0.782
REMARK UNBOUND:                -0.915
REMARK SMILES O=c1cc(-c2ccc(O)c(O)c2)oc2cc(O[C@@H]3O[C@H](CO)[C@H](O)[C@@H](O)[C@@H]3O)cc(O)c12
REMARK SMILES IDX 17 1 16 2 4 3 3 4 13 5 2 6 14 7 1 8 32 9 15 10 30 11 29 12
REMARK SMILES IDX 5 13 6 14 7 15 8 16 12 17 10 18 9 19 11 21 31 23 18 25 27 26
REMARK SMILES IDX 19 27 25 28 20 29 23 30 28 31 26 33 21 35 22 36 24 38
REMARK H PARENT 9 20 11 22 31 24 28 32 26 34 22 37 24 39
REMARK Flexibility Score: inf
ROOT
ATOM      1  O   UNL     1      -7.054  92.083 -15.392  1.00  0.00    -0.462 OA
ENDROOT
BRANCH   1   2
ATOM      2  C   UNL     1      -6.323  91.728 -14.237  1.00  0.00     0.130 A 
ATOM      3  C   UNL     1      -5.982  88.552 -10.740  1.00  0.00     0.138 A 
ATOM      4  C   UNL     1      -5.478  89.516  -9.847  1.00  0.00     0.100 A 
ATOM      5  O   UNL     1      -6.129  88.866 -12.031  1.00  0.00    -0.456 OA
ATOM      6  C   UNL     1      -5.158  90.781 -10.329  1.00  0.00     0.197 A 
ATOM      7  C   UNL     1      -5.893  90.070 -12.524  1.00  0.00     0.146 A 
ATOM      8  O   UNL     1      -4.983  91.713  -9.484  1.00  0.00    -0.289 OA
ATOM      9  C   UNL     1      -5.302  91.060 -11.705  1.00  0.00     0.107 A 
ATOM     10  C   UNL     1      -6.426  90.400 -13.767  1.00  0.00     0.094 A 
ATOM     11  C   UNL     1      -4.990  92.328 -12.308  1.00  0.00     0.134 A 
ATOM     12  C   UNL     1      -5.575  92.676 -13.535  1.00  0.00     0.093 A 
BRANCH   3  13
ATOM     13  C   UNL     1      -6.413  87.242 -10.282  1.00  0.00     0.021 A 
ATOM     14  C   UNL     1      -5.514  86.145 -10.219  1.00  0.00     0.016 A 
ATOM     15  C   UNL     1      -5.972  84.840  -9.992  1.00  0.00     0.051 A 
ATOM     16  C   UNL     1      -7.333  84.624  -9.735  1.00  0.00     0.157 A 
ATOM     17  C   UNL     1      -7.758  87.001  -9.932  1.00  0.00     0.062 A 
ATOM     18  C   UNL     1      -8.222  85.702  -9.646  1.00  0.00     0.158 A 
BRANCH  16  19
ATOM     19  O   UNL     1      -7.789  83.320  -9.501  1.00  0.00    -0.504 OA
ATOM     20  H   UNL     1      -7.955  82.672 -10.264  1.00  0.00     0.293 HD
ENDBRANCH  16  19
BRANCH  18  21
ATOM     21  O   UNL     1      -9.573  85.499  -9.388  1.00  0.00    -0.504 OA
ATOM     22  H   UNL     1     -10.037  84.611  -9.562  1.00  0.00     0.293 HD
ENDBRANCH  18  21
ENDBRANCH   3  13
BRANCH  11  23
ATOM     23  O   UNL     1      -4.237  93.311 -11.665  1.00  0.00    -0.507 OA
ATOM     24  H   UNL     1      -3.433  93.801 -12.073  1.00  0.00     0.293 HD
ENDBRANCH  11  23
ENDBRANCH   1   2
BRANCH   1  25
ATOM     25  C   UNL     1      -6.489  92.952 -16.379  1.00  0.00     0.339 C 
ATOM     26  C   UNL     1      -5.745  92.162 -17.529  1.00  0.00     0.214 C 
ATOM     27  O   UNL     1      -7.527  93.836 -16.830  1.00  0.00    -0.332 OA
ATOM     28  C   UNL     1      -6.441  92.479 -18.913  1.00  0.00     0.180 C 
ATOM     29  C   UNL     1      -7.258  94.695 -17.941  1.00  0.00     0.179 C 
ATOM     30  C   UNL     1      -6.346  94.014 -19.056  1.00  0.00     0.177 C 
BRANCH  26  31
ATOM     31  O   UNL     1      -5.662  90.768 -17.291  1.00  0.00    -0.384 OA
ATOM     32  H   UNL     1      -6.237  90.351 -17.996  1.00  0.00     0.211 HD
ENDBRANCH  26  31
BRANCH  28  33
ATOM     33  O   UNL     1      -5.786  91.888 -20.015  1.00  0.00    -0.387 OA
ATOM     34  H   UNL     1      -5.529  90.973 -19.722  1.00  0.00     0.211 HD
ENDBRANCH  28  33
BRANCH  29  35
ATOM     35  C   UNL     1      -8.675  95.116 -18.475  1.00  0.00     0.191 C 
BRANCH  35  36
ATOM     36  O   UNL     1      -9.338  94.006 -19.071  1.00  0.00    -0.394 OA
ATOM     37  H   UNL     1      -8.652  93.526 -19.625  1.00  0.00     0.210 HD
ENDBRANCH  35  36
ENDBRANCH  29  35
BRANCH  30  38
ATOM     38  O   UNL     1      -6.563  94.477 -20.362  1.00  0.00    -0.387 OA
ATOM     39  H   UNL     1      -6.441  93.626 -20.917  1.00  0.00     0.211 HD
ENDBRANCH  30  38
ENDBRANCH   1  25
TORSDOF 11
ENDMDL
MODEL 7
REMARK VINA RESULT:    -5.958      3.120      3.784
REMARK INTER + INTRA:          -9.486
REMARK INTER:                  -8.645
REMARK INTRA:                  -0.841
REMARK UNBOUND:                -0.915
REMARK SMILES O=c1cc(-c2ccc(O)c(O)c2)oc2cc(O[C@@H]3O[C@H](CO)[C@H](O)[C@@H](O)[C@@H]3O)cc(O)c12
REMARK SMILES IDX 17 1 16 2 4 3 3 4 13 5 2 6 14 7 1 8 32 9 15 10 30 11 29 12
REMARK SMILES IDX 5 13 6 14 7 15 8 16 12 17 10 18 9 19 11 21 31 23 18 25 27 26
REMARK SMILES IDX 19 27 25 28 20 29 23 30 28 31 26 33 21 35 22 36 24 38
REMARK H PARENT 9 20 11 22 31 24 28 32 26 34 22 37 24 39
REMARK Flexibility Score: inf
ROOT
ATOM      1  O   UNL     1      -4.972  92.050 -16.444  1.00  0.00    -0.462 OA
ENDROOT
BRANCH   1   2
ATOM      2  C   UNL     1      -4.717  91.938 -15.059  1.00  0.00     0.130 A 
ATOM      3  C   UNL     1      -5.949  89.639 -11.106  1.00  0.00     0.138 A 
ATOM      4  C   UNL     1      -5.659  90.759 -10.306  1.00  0.00     0.100 A 
ATOM      5  O   UNL     1      -5.618  89.654 -12.402  1.00  0.00    -0.456 OA
ATOM      6  C   UNL     1      -5.047  91.865 -10.887  1.00  0.00     0.197 A 
ATOM      7  C   UNL     1      -5.087  90.701 -13.010  1.00  0.00     0.146 A 
ATOM      8  O   UNL     1      -5.052  92.957 -10.239  1.00  0.00    -0.289 OA
ATOM      9  C   UNL     1      -4.688  91.826 -12.252  1.00  0.00     0.107 A 
ATOM     10  C   UNL     1      -5.131  90.759 -14.401  1.00  0.00     0.094 A 
ATOM     11  C   UNL     1      -4.042  92.907 -12.947  1.00  0.00     0.134 A 
ATOM     12  C   UNL     1      -4.138  92.988 -14.344  1.00  0.00     0.093 A 
BRANCH   3  13
ATOM     13  C   UNL     1      -6.663  88.490 -10.578  1.00  0.00     0.021 A 
ATOM     14  C   UNL     1      -5.998  87.267 -10.297  1.00  0.00     0.016 A 
ATOM     15  C   UNL     1      -6.713  86.100 -10.000  1.00  0.00     0.051 A 
ATOM     16  C   UNL     1      -8.110  86.158  -9.890  1.00  0.00     0.157 A 
ATOM     17  C   UNL     1      -8.058  88.533 -10.372  1.00  0.00     0.062 A 
ATOM     18  C   UNL     1      -8.784  87.378 -10.017  1.00  0.00     0.158 A 
BRANCH  16  19
ATOM     19  O   UNL     1      -8.824  84.992  -9.586  1.00  0.00    -0.504 OA
ATOM     20  H   UNL     1      -9.363  84.909  -8.731  1.00  0.00     0.293 HD
ENDBRANCH  16  19
BRANCH  18  21
ATOM     21  O   UNL     1     -10.169  87.448  -9.908  1.00  0.00    -0.504 OA
ATOM     22  H   UNL     1     -10.678  88.328  -9.943  1.00  0.00     0.293 HD
ENDBRANCH  18  21
ENDBRANCH   3  13
BRANCH  11  23
ATOM     23  O   UNL     1      -3.434  93.977 -12.291  1.00  0.00    -0.507 OA
ATOM     24  H   UNL     1      -2.983  93.927 -11.370  1.00  0.00     0.293 HD
ENDBRANCH  11  23
ENDBRANCH   1   2
BRANCH   1  25
ATOM     25  C   UNL     1      -4.108  92.816 -17.290  1.00  0.00     0.339 C 
ATOM     26  C   UNL     1      -3.113  91.911 -18.122  1.00  0.00     0.214 C 
ATOM     27  O   UNL     1      -4.929  93.691 -18.078  1.00  0.00    -0.332 OA
ATOM     28  C   UNL     1      -3.375  92.133 -19.665  1.00  0.00     0.180 C 
ATOM     29  C   UNL     1      -4.314  94.445 -19.126  1.00  0.00     0.179 C 
ATOM     30  C   UNL     1      -3.163  93.647 -19.884  1.00  0.00     0.177 C 
BRANCH  26  31
ATOM     31  O   UNL     1      -3.174  90.540 -17.771  1.00  0.00    -0.384 OA
ATOM     32  H   UNL     1      -2.251  90.189 -17.937  1.00  0.00     0.211 HD
ENDBRANCH  26  31
BRANCH  28  33
ATOM     33  O   UNL     1      -2.469  91.433 -20.491  1.00  0.00    -0.387 OA
ATOM     34  H   UNL     1      -2.354  91.992 -21.306  1.00  0.00     0.211 HD
ENDBRANCH  28  33
BRANCH  29  35
ATOM     35  C   UNL     1      -5.500  94.863 -20.069  1.00  0.00     0.191 C 
BRANCH  35  36
ATOM     36  O   UNL     1      -6.043  93.724 -20.728  1.00  0.00    -0.394 OA
ATOM     37  H   UNL     1      -5.271  93.245 -21.155  1.00  0.00     0.210 HD
ENDBRANCH  35  36
ENDBRANCH  29  35
BRANCH  30  38
ATOM     38  O   UNL     1      -2.980  94.006 -21.228  1.00  0.00    -0.387 OA
ATOM     39  H   UNL     1      -3.881  93.760 -21.644  1.00  0.00     0.211 HD
ENDBRANCH  30  38
ENDBRANCH   1  25
TORSDOF 11
ENDMDL
MODEL 8
REMARK VINA RESULT:    -5.937      6.114      9.776
REMARK INTER + INTRA:          -9.455
REMARK INTER:                  -8.593
REMARK INTRA:                  -0.862
REMARK UNBOUND:                -0.915
REMARK SMILES O=c1cc(-c2ccc(O)c(O)c2)oc2cc(O[C@@H]3O[C@H](CO)[C@H](O)[C@@H](O)[C@@H]3O)cc(O)c12
REMARK SMILES IDX 17 1 16 2 4 3 3 4 13 5 2 6 14 7 1 8 32 9 15 10 30 11 29 12
REMARK SMILES IDX 5 13 6 14 7 15 8 16 12 17 10 18 9 19 11 21 31 23 18 25 27 26
REMARK SMILES IDX 19 27 25 28 20 29 23 30 28 31 26 33 21 35 22 36 24 38
REMARK H PARENT 9 20 11 22 31 24 28 32 26 34 22 37 24 39
REMARK Flexibility Score: inf
ROOT
ATOM      1  O   UNL     1      -7.027  84.902  -9.581  1.00  0.00    -0.462 OA
ENDROOT
BRANCH   1   2
ATOM      2  C   UNL     1      -7.441  86.221  -9.870  1.00  0.00     0.130 A 
ATOM      3  C   UNL     1      -6.269  90.193 -12.169  1.00  0.00     0.138 A 
ATOM      4  C   UNL     1      -6.927  90.995 -11.219  1.00  0.00     0.100 A 
ATOM      5  O   UNL     1      -6.408  88.864 -12.115  1.00  0.00    -0.456 OA
ATOM      6  C   UNL     1      -7.697  90.384 -10.235  1.00  0.00     0.197 A 
ATOM      7  C   UNL     1      -7.081  88.235 -11.167  1.00  0.00     0.146 A 
ATOM      8  O   UNL     1      -8.044  91.081  -9.232  1.00  0.00    -0.289 OA
ATOM      9  C   UNL     1      -7.840  88.979 -10.234  1.00  0.00     0.107 A 
ATOM     10  C   UNL     1      -6.856  86.874 -10.978  1.00  0.00     0.094 A 
ATOM     11  C   UNL     1      -8.619  88.248  -9.271  1.00  0.00     0.134 A 
ATOM     12  C   UNL     1      -8.350  86.890  -9.047  1.00  0.00     0.093 A 
BRANCH   3  13
ATOM     13  C   UNL     1      -5.384  90.766 -13.168  1.00  0.00     0.021 A 
ATOM     14  C   UNL     1      -4.595  91.913 -12.891  1.00  0.00     0.016 A 
ATOM     15  C   UNL     1      -3.915  92.594 -13.909  1.00  0.00     0.051 A 
ATOM     16  C   UNL     1      -3.942  92.083 -15.215  1.00  0.00     0.157 A 
ATOM     17  C   UNL     1      -5.316  90.231 -14.472  1.00  0.00     0.062 A 
ATOM     18  C   UNL     1      -4.590  90.874 -15.494  1.00  0.00     0.158 A 
BRANCH  16  19
ATOM     19  O   UNL     1      -3.256  92.760 -16.231  1.00  0.00    -0.504 OA
ATOM     20  H   UNL     1      -2.270  92.981 -16.149  1.00  0.00     0.293 HD
ENDBRANCH  16  19
BRANCH  18  21
ATOM     21  O   UNL     1      -4.620  90.357 -16.784  1.00  0.00    -0.504 OA
ATOM     22  H   UNL     1      -5.489  90.184 -17.286  1.00  0.00     0.293 HD
ENDBRANCH  18  21
ENDBRANCH   3  13
BRANCH  11  23
ATOM     23  O   UNL     1      -9.552  88.856  -8.429  1.00  0.00    -0.507 OA
ATOM     24  H   UNL     1     -10.200  88.358  -7.809  1.00  0.00     0.293 HD
ENDBRANCH  11  23
ENDBRANCH   1   2
BRANCH   1  25
ATOM     25  C   UNL     1      -6.001  84.650  -8.616  1.00  0.00     0.339 C 
ATOM     26  C   UNL     1      -5.003  83.511  -9.074  1.00  0.00     0.214 C 
ATOM     27  O   UNL     1      -5.379  85.905  -8.299  1.00  0.00    -0.332 OA
ATOM     28  C   UNL     1      -3.543  84.110  -9.176  1.00  0.00     0.180 C 
ATOM     29  C   UNL     1      -4.208  85.899  -7.479  1.00  0.00     0.179 C 
ATOM     30  C   UNL     1      -3.247  84.661  -7.764  1.00  0.00     0.177 C 
BRANCH  26  31
ATOM     31  O   UNL     1      -5.393  82.872 -10.276  1.00  0.00    -0.384 OA
ATOM     32  H   UNL     1      -5.024  83.449 -11.007  1.00  0.00     0.211 HD
ENDBRANCH  26  31
BRANCH  28  33
ATOM     33  O   UNL     1      -2.564  83.142  -9.490  1.00  0.00    -0.387 OA
ATOM     34  H   UNL     1      -2.337  82.694  -8.631  1.00  0.00     0.211 HD
ENDBRANCH  28  33
BRANCH  29  35
ATOM     35  C   UNL     1      -3.523  87.287  -7.748  1.00  0.00     0.191 C 
BRANCH  35  36
ATOM     36  O   UNL     1      -4.380  88.132  -8.509  1.00  0.00    -0.394 OA
ATOM     37  H   UNL     1      -4.660  87.604  -9.315  1.00  0.00     0.210 HD
ENDBRANCH  35  36
ENDBRANCH  29  35
BRANCH  30  38
ATOM     38  O   UNL     1      -1.885  84.900  -7.522  1.00  0.00    -0.387 OA
ATOM     39  H   UNL     1      -1.803  84.699  -6.523  1.00  0.00     0.211 HD
ENDBRANCH  30  38
ENDBRANCH   1  25
TORSDOF 11
ENDMDL
