MODEL 1
REMARK VINA RESULT:    -4.795      0.000      0.000
REMARK INTER + INTRA:          -4.795
REMARK INTER:                  -4.795
REMARK INTRA:                   0.000
REMARK UNBOUND:                 0.000
REMARK SMILES O=c1ccc2ccccc2o1
REMARK SMILES IDX 7 1 8 2 9 3 10 4 5 5 6 6 4 7 3 8 2 9 1 10 11 11
REMARK H PARENT
REMARK Flexibility Score: inf
ROOT
ATOM      1  C   UNL     1      17.492  -9.985   9.594  1.00  0.00     0.001 A 
ATOM      2  C   UNL     1      16.786 -10.064   8.389  1.00  0.00     0.004 A 
ATOM      3  C   UNL     1      16.577  -8.915   7.619  1.00  0.00     0.048 A 
ATOM      4  C   UNL     1      17.075  -7.681   8.053  1.00  0.00     0.138 A 
ATOM      5  C   UNL     1      17.789  -7.601   9.269  1.00  0.00     0.018 A 
ATOM      6  C   UNL     1      17.994  -8.757  10.037  1.00  0.00     0.012 A 
ATOM      7  C   UNL     1      18.275  -6.355   9.677  1.00  0.00     0.019 A 
ATOM      8  C   UNL     1      18.043  -5.236   8.878  1.00  0.00     0.094 A 
ATOM      9  C   UNL     1      17.328  -5.390   7.684  1.00  0.00     0.336 A 
ATOM     10  O   UNL     1      17.109  -4.392   6.950  1.00  0.00    -0.246 OA
ATOM     11  O   UNL     1      16.877  -6.587   7.320  1.00  0.00    -0.423 OA
ENDROOT
TORSDOF 0
ENDMDL
MODEL 2
REMARK VINA RESULT:    -4.650      2.158      3.237
REMARK INTER + INTRA:          -4.650
REMARK INTER:                  -4.650
REMARK INTRA:                   0.000
REMARK UNBOUND:                 0.000
REMARK SMILES O=c1ccc2ccccc2o1
REMARK SMILES IDX 7 1 8 2 9 3 10 4 5 5 6 6 4 7 3 8 2 9 1 10 11 11
REMARK H PARENT
REMARK Flexibility Score: inf
ROOT
ATOM      1  C   UNL     1      13.646  -7.840   7.777  1.00  0.00     0.001 A 
ATOM      2  C   UNL     1      13.972  -6.559   7.318  1.00  0.00     0.004 A 
ATOM      3  C   UNL     1      15.220  -6.002   7.613  1.00  0.00     0.048 A 
ATOM      4  C   UNL     1      16.149  -6.725   8.369  1.00  0.00     0.138 A 
ATOM      5  C   UNL     1      15.821  -8.019   8.832  1.00  0.00     0.018 A 
ATOM      6  C   UNL     1      14.567  -8.572   8.533  1.00  0.00     0.012 A 
ATOM      7  C   UNL     1      16.769  -8.718   9.585  1.00  0.00     0.019 A 
ATOM      8  C   UNL     1      18.001  -8.124   9.856  1.00  0.00     0.094 A 
ATOM      9  C   UNL     1      18.257  -6.838   9.364  1.00  0.00     0.336 A 
ATOM     10  O   UNL     1      19.363  -6.285   9.597  1.00  0.00    -0.246 OA
ATOM     11  O   UNL     1      17.337  -6.195   8.650  1.00  0.00    -0.423 OA
ENDROOT
TORSDOF 0
ENDMDL
MODEL 3
REMARK VINA RESULT:    -4.626      2.056      2.816
REMARK INTER + INTRA:          -4.626
REMARK INTER:                  -4.626
REMARK INTRA:                   0.000
REMARK UNBOUND:                 0.000
REMARK SMILES O=c1ccc2ccccc2o1
REMARK SMILES IDX 7 1 8 2 9 3 10 4 5 5 6 6 4 7 3 8 2 9 1 10 11 11
REMARK H PARENT
REMARK Flexibility Score: inf
ROOT
ATOM      1  C   UNL     1      14.382  -7.853   8.101  1.00  0.00     0.001 A 
ATOM      2  C   UNL     1      14.949  -8.830   8.928  1.00  0.00     0.004 A 
ATOM      3  C   UNL     1      16.244  -8.664   9.428  1.00  0.00     0.048 A 
ATOM      4  C   UNL     1      16.979  -7.518   9.102  1.00  0.00     0.138 A 
ATOM      5  C   UNL     1      16.407  -6.532   8.268  1.00  0.00     0.018 A 
ATOM      6  C   UNL     1      15.108  -6.705   7.770  1.00  0.00     0.012 A 
ATOM      7  C   UNL     1      17.165  -5.398   7.960  1.00  0.00     0.019 A 
ATOM      8  C   UNL     1      18.453  -5.274   8.480  1.00  0.00     0.094 A 
ATOM      9  C   UNL     1      18.954  -6.291   9.301  1.00  0.00     0.336 A 
ATOM     10  O   UNL     1      20.114  -6.197   9.781  1.00  0.00    -0.246 OA
ATOM     11  O   UNL     1      18.212  -7.360   9.578  1.00  0.00    -0.423 OA
ENDROOT
TORSDOF 0
ENDMDL
MODEL 4
REMARK VINA RESULT:    -4.620      1.663      3.857
REMARK INTER + INTRA:          -4.620
REMARK INTER:                  -4.620
REMARK INTRA:                   0.000
REMARK UNBOUND:                 0.000
REMARK SMILES O=c1ccc2ccccc2o1
REMARK SMILES IDX 7 1 8 2 9 3 10 4 5 5 6 6 4 7 3 8 2 9 1 10 11 11
REMARK H PARENT
REMARK Flexibility Score: inf
ROOT
ATOM      1  C   UNL     1      18.042  -5.257   8.806  1.00  0.00     0.001 A 
ATOM      2  C   UNL     1      17.349  -5.452   7.606  1.00  0.00     0.004 A 
ATOM      3  C   UNL     1      16.900  -6.729   7.253  1.00  0.00     0.048 A 
ATOM      4  C   UNL     1      17.142  -7.816   8.100  1.00  0.00     0.138 A 
ATOM      5  C   UNL     1      17.841  -7.619   9.312  1.00  0.00     0.018 A 
ATOM      6  C   UNL     1      18.290  -6.336   9.660  1.00  0.00     0.012 A 
ATOM      7  C   UNL     1      18.069  -8.724  10.138  1.00  0.00     0.019 A 
ATOM      8  C   UNL     1      17.603  -9.978   9.746  1.00  0.00     0.094 A 
ATOM      9  C   UNL     1      16.917 -10.099   8.532  1.00  0.00     0.336 A 
ATOM     10  O   UNL     1      16.489 -11.222   8.161  1.00  0.00    -0.246 OA
ATOM     11  O   UNL     1      16.714  -9.031   7.764  1.00  0.00    -0.423 OA
ENDROOT
TORSDOF 0
ENDMDL
MODEL 5
REMARK VINA RESULT:    -4.541      1.032      2.125
REMARK INTER + INTRA:          -4.541
REMARK INTER:                  -4.541
REMARK INTRA:                   0.000
REMARK UNBOUND:                 0.000
REMARK SMILES O=c1ccc2ccccc2o1
REMARK SMILES IDX 7 1 8 2 9 3 10 4 5 5 6 6 4 7 3 8 2 9 1 10 11 11
REMARK H PARENT
REMARK Flexibility Score: inf
ROOT
ATOM      1  C   UNL     1      17.433 -10.419   8.880  1.00  0.00     0.001 A 
ATOM      2  C   UNL     1      17.816  -9.698  10.016  1.00  0.00     0.004 A 
ATOM      3  C   UNL     1      17.795  -8.300  10.003  1.00  0.00     0.048 A 
ATOM      4  C   UNL     1      17.390  -7.617   8.851  1.00  0.00     0.138 A 
ATOM      5  C   UNL     1      17.003  -8.345   7.703  1.00  0.00     0.018 A 
ATOM      6  C   UNL     1      17.027  -9.747   7.723  1.00  0.00     0.012 A 
ATOM      7  C   UNL     1      16.603  -7.635   6.567  1.00  0.00     0.019 A 
ATOM      8  C   UNL     1      16.597  -6.241   6.598  1.00  0.00     0.094 A 
ATOM      9  C   UNL     1      16.993  -5.586   7.771  1.00  0.00     0.336 A 
ATOM     10  O   UNL     1      16.994  -4.329   7.818  1.00  0.00    -0.246 OA
ATOM     11  O   UNL     1      17.369  -6.286   8.838  1.00  0.00    -0.423 OA
ENDROOT
TORSDOF 0
ENDMDL
MODEL 6
REMARK VINA RESULT:    -4.536      2.045      4.317
REMARK INTER + INTRA:          -4.536
REMARK INTER:                  -4.536
REMARK INTRA:                   0.000
REMARK UNBOUND:                 0.000
REMARK SMILES O=c1ccc2ccccc2o1
REMARK SMILES IDX 7 1 8 2 9 3 10 4 5 5 6 6 4 7 3 8 2 9 1 10 11 11
REMARK H PARENT
REMARK Flexibility Score: inf
ROOT
ATOM      1  C   UNL     1      15.908  -4.751   7.904  1.00  0.00     0.001 A 
ATOM      2  C   UNL     1      17.120  -4.390   8.503  1.00  0.00     0.004 A 
ATOM      3  C   UNL     1      17.894  -5.353   9.160  1.00  0.00     0.048 A 
ATOM      4  C   UNL     1      17.458  -6.681   9.220  1.00  0.00     0.138 A 
ATOM      5  C   UNL     1      16.234  -7.045   8.613  1.00  0.00     0.018 A 
ATOM      6  C   UNL     1      15.463  -6.075   7.957  1.00  0.00     0.012 A 
ATOM      7  C   UNL     1      15.824  -8.380   8.689  1.00  0.00     0.019 A 
ATOM      8  C   UNL     1      16.627  -9.306   9.355  1.00  0.00     0.094 A 
ATOM      9  C   UNL     1      17.827  -8.873   9.931  1.00  0.00     0.336 A 
ATOM     10  O   UNL     1      18.566  -9.693  10.535  1.00  0.00    -0.246 OA
ATOM     11  O   UNL     1      18.194  -7.597   9.845  1.00  0.00    -0.423 OA
ENDROOT
TORSDOF 0
ENDMDL
MODEL 7
REMARK VINA RESULT:    -4.461     14.590     16.203
REMARK INTER + INTRA:          -4.461
REMARK INTER:                  -4.461
REMARK INTRA:                   0.000
REMARK UNBOUND:                 0.000
REMARK SMILES O=c1ccc2ccccc2o1
REMARK SMILES IDX 7 1 8 2 9 3 10 4 5 5 6 6 4 7 3 8 2 9 1 10 11 11
REMARK H PARENT
REMARK Flexibility Score: inf
ROOT
ATOM      1  C   UNL     1      14.233 -16.777  23.870  1.00  0.00     0.001 A 
ATOM      2  C   UNL     1      14.575 -15.421  23.865  1.00  0.00     0.004 A 
ATOM      3  C   UNL     1      14.173 -14.598  22.807  1.00  0.00     0.048 A 
ATOM      4  C   UNL     1      13.426 -15.130  21.750  1.00  0.00     0.138 A 
ATOM      5  C   UNL     1      13.079 -16.500  21.757  1.00  0.00     0.018 A 
ATOM      6  C   UNL     1      13.486 -17.320  22.820  1.00  0.00     0.012 A 
ATOM      7  C   UNL     1      12.333 -17.004  20.688  1.00  0.00     0.019 A 
ATOM      8  C   UNL     1      11.953 -16.148  19.654  1.00  0.00     0.094 A 
ATOM      9  C   UNL     1      12.331 -14.801  19.716  1.00  0.00     0.336 A 
ATOM     10  O   UNL     1      11.998 -14.013  18.793  1.00  0.00    -0.246 OA
ATOM     11  O   UNL     1      13.042 -14.348  20.744  1.00  0.00    -0.423 OA
ENDROOT
TORSDOF 0
ENDMDL
MODEL 8
REMARK VINA RESULT:    -4.382      1.831      3.541
REMARK INTER + INTRA:          -4.382
REMARK INTER:                  -4.382
REMARK INTRA:                   0.000
REMARK UNBOUND:                 0.000
REMARK SMILES O=c1ccc2ccccc2o1
REMARK SMILES IDX 7 1 8 2 9 3 10 4 5 5 6 6 4 7 3 8 2 9 1 10 11 11
REMARK H PARENT
REMARK Flexibility Score: inf
ROOT
ATOM      1  C   UNL     1      18.785  -6.621   9.595  1.00  0.00     0.001 A 
ATOM      2  C   UNL     1      18.252  -5.476   8.992  1.00  0.00     0.004 A 
ATOM      3  C   UNL     1      16.976  -5.511   8.420  1.00  0.00     0.048 A 
ATOM      4  C   UNL     1      16.227  -6.692   8.450  1.00  0.00     0.138 A 
ATOM      5  C   UNL     1      16.764  -7.848   9.060  1.00  0.00     0.018 A 
ATOM      6  C   UNL     1      18.044  -7.807   9.630  1.00  0.00     0.012 A 
ATOM      7  C   UNL     1      15.992  -9.014   9.075  1.00  0.00     0.019 A 
ATOM      8  C   UNL     1      14.725  -9.003   8.493  1.00  0.00     0.094 A 
ATOM      9  C   UNL     1      14.257  -7.820   7.908  1.00  0.00     0.336 A 
ATOM     10  O   UNL     1      13.116  -7.790   7.378  1.00  0.00    -0.246 OA
ATOM     11  O   UNL     1      15.012  -6.725   7.907  1.00  0.00    -0.423 OA
ENDROOT
TORSDOF 0
ENDMDL
MODEL 9
REMARK VINA RESULT:    -4.380      1.918      2.570
REMARK INTER + INTRA:          -4.380
REMARK INTER:                  -4.380
REMARK INTRA:                   0.000
REMARK UNBOUND:                 0.000
REMARK SMILES O=c1ccc2ccccc2o1
REMARK SMILES IDX 7 1 8 2 9 3 10 4 5 5 6 6 4 7 3 8 2 9 1 10 11 11
REMARK H PARENT
REMARK Flexibility Score: inf
ROOT
ATOM      1  C   UNL     1      18.163 -11.649   7.225  1.00  0.00     0.001 A 
ATOM      2  C   UNL     1      17.766 -11.162   5.975  1.00  0.00     0.004 A 
ATOM      3  C   UNL     1      17.084  -9.944   5.878  1.00  0.00     0.048 A 
ATOM      4  C   UNL     1      16.797  -9.209   7.033  1.00  0.00     0.138 A 
ATOM      5  C   UNL     1      17.199  -9.700   8.296  1.00  0.00     0.018 A 
ATOM      6  C   UNL     1      17.882 -10.922   8.385  1.00  0.00     0.012 A 
ATOM      7  C   UNL     1      16.899  -8.943   9.432  1.00  0.00     0.019 A 
ATOM      8  C   UNL     1      16.217  -7.735   9.289  1.00  0.00     0.094 A 
ATOM      9  C   UNL     1      15.851  -7.310   8.006  1.00  0.00     0.336 A 
ATOM     10  O   UNL     1      15.236  -6.223   7.857  1.00  0.00    -0.246 OA
ATOM     11  O   UNL     1      16.149  -8.050   6.941  1.00  0.00    -0.423 OA
ENDROOT
TORSDOF 0
ENDMDL
