MODEL 1
REMARK VINA RESULT:    -3.583      0.000      0.000
REMARK INTER + INTRA:          -4.716
REMARK INTER:                  -5.049
REMARK INTRA:                   0.333
REMARK UNBOUND:                 0.333
REMARK SMILES CC1=CCC(=C(C)C)C(=O)CC(C)=CCC1
REMARK SMILES IDX 12 1 14 2 13 3 15 4 16 5 2 6 1 7 3 8 11 10 9 11 10 12 5 13
REMARK SMILES IDX 6 14 7 15 8 16 4 17
REMARK H PARENT
REMARK Flexibility Score: 60.00
ROOT
ATOM      1  C   UNL     1      99.940   3.301  77.612  1.00  0.00    -0.070 C 
ATOM      2  C   UNL     1      98.922   3.215  76.725  1.00  0.00    -0.027 C 
ATOM      3  C   UNL     1     101.041   2.273  77.537  1.00  0.00     0.039 C 
ENDROOT
BRANCH   2   4
ATOM      4  C   UNL     1      97.680   4.074  76.728  1.00  0.00     0.032 C 
BRANCH   4   5
ATOM      5  C   UNL     1      97.318   4.709  75.377  1.00  0.00     0.034 C 
BRANCH   5   6
ATOM      6  C   UNL     1      98.301   5.766  74.910  1.00  0.00    -0.077 C 
ATOM      7  C   UNL     1      98.802   5.682  73.490  1.00  0.00     0.039 C 
ATOM      8  C   UNL     1      98.709   6.825  75.657  1.00  0.00    -0.023 CG0
ATOM      9  G   UNL     1      98.482   7.082  77.134  1.00  0.00     0.000 G0
ENDBRANCH   5   6
ENDBRANCH   4   5
ENDBRANCH   2   4
BRANCH   1  10
ATOM     10  C   UNL     1     100.076   4.422  78.618  1.00  0.00     0.111 C 
BRANCH  10  11
ATOM     11  C   UNL     1     100.482   5.709  77.947  1.00  0.00     0.163 C 
ATOM     12  O   UNL     1     101.534   5.729  77.251  1.00  0.00    -0.294 OA
BRANCH  11  13
ATOM     13  C   UNL     1      99.678   6.954  78.068  1.00  0.00    -0.002 C 
ATOM     14  C   UNL     1     100.107   7.975  78.859  1.00  0.00    -0.069 C 
ATOM     15  C   UNL     1     101.318   7.805  79.747  1.00  0.00     0.039 C 
ATOM     16  C   UNL     1      99.383   9.300  78.901  1.00  0.00     0.039 C 
BRANCH  13  17
ATOM     17  C   UNL     1      98.480   7.090  77.147  1.00  0.00     0.066 CG0
ATOM     18  G   UNL     1      98.706   6.818  75.672  1.00  0.00     0.000 G0
ENDBRANCH  13  17
ENDBRANCH  11  13
ENDBRANCH  10  11
ENDBRANCH   1  10
TORSDOF 0
ENDMDL
MODEL 2
REMARK VINA RESULT:    -3.341      1.986      5.012
REMARK INTER + INTRA:          -4.375
REMARK INTER:                  -4.546
REMARK INTRA:                   0.171
REMARK UNBOUND:                 0.333
REMARK SMILES CC1=CCC(=C(C)C)C(=O)CC(C)=CCC1
REMARK SMILES IDX 12 1 14 2 13 3 15 4 16 5 2 6 1 7 3 8 11 10 9 11 10 12 5 13
REMARK SMILES IDX 6 14 7 15 8 16 4 17
REMARK H PARENT
REMARK Flexibility Score: 60.00
ROOT
ATOM      1  C   UNL     1      99.232   7.234  77.350  1.00  0.00    -0.070 C 
ATOM      2  C   UNL     1     100.032   6.519  78.175  1.00  0.00    -0.027 C 
ATOM      3  C   UNL     1      98.543   8.455  77.906  1.00  0.00     0.039 C 
ENDROOT
BRANCH   2   4
ATOM      4  C   UNL     1     100.698   5.208  77.833  1.00  0.00     0.032 C 
BRANCH   4   5
ATOM      5  C   UNL     1      99.807   3.964  77.970  1.00  0.00     0.034 C 
BRANCH   5   6
ATOM      6  C   UNL     1      99.941   2.980  76.823  1.00  0.00    -0.077 C 
ATOM      7  C   UNL     1     101.180   2.121  76.775  1.00  0.00     0.039 C 
ATOM      8  C   UNL     1      98.993   2.767  75.874  1.00  0.00    -0.023 CG0
ATOM      9  G   UNL     1      97.735   3.567  75.600  1.00  0.00     0.000 G0
ENDBRANCH   5   6
ENDBRANCH   4   5
ENDBRANCH   2   4
BRANCH   1  10
ATOM     10  C   UNL     1      99.060   6.922  75.880  1.00  0.00     0.111 C 
BRANCH  10  11
ATOM     11  C   UNL     1      97.815   6.107  75.639  1.00  0.00     0.163 C 
ATOM     12  O   UNL     1      96.723   6.498  76.134  1.00  0.00    -0.294 OA
BRANCH  11  13
ATOM     13  C   UNL     1      97.828   4.862  74.826  1.00  0.00    -0.002 C 
ATOM     14  C   UNL     1      98.098   4.915  73.493  1.00  0.00    -0.069 C 
ATOM     15  C   UNL     1      98.232   6.245  72.787  1.00  0.00     0.039 C 
ATOM     16  C   UNL     1      98.247   3.660  72.666  1.00  0.00     0.039 C 
BRANCH  13  17
ATOM     17  C   UNL     1      97.706   3.550  75.577  1.00  0.00     0.066 CG0
ATOM     18  G   UNL     1      98.989   2.792  75.861  1.00  0.00     0.000 G0
ENDBRANCH  13  17
ENDBRANCH  11  13
ENDBRANCH  10  11
ENDBRANCH   1  10
TORSDOF 0
ENDMDL
MODEL 3
REMARK VINA RESULT:    -3.064      4.421      7.394
REMARK INTER + INTRA:          -3.985
REMARK INTER:                  -4.260
REMARK INTRA:                   0.275
REMARK UNBOUND:                 0.333
REMARK SMILES CC1=CCC(=C(C)C)C(=O)CC(C)=CCC1
REMARK SMILES IDX 12 1 14 2 13 3 15 4 16 5 2 6 1 7 3 8 11 10 9 11 10 12 5 13
REMARK SMILES IDX 6 14 7 15 8 16 4 17
REMARK H PARENT
REMARK Flexibility Score: 60.00
ROOT
ATOM      1  C   UNL     1      97.528   7.574  69.713  1.00  0.00    -0.070 C 
ATOM      2  C   UNL     1      96.958   6.826  68.739  1.00  0.00    -0.027 C 
ATOM      3  C   UNL     1      98.250   8.836  69.313  1.00  0.00     0.039 C 
ENDROOT
BRANCH   2   4
ATOM      4  C   UNL     1      96.307   5.478  68.935  1.00  0.00     0.032 C 
BRANCH   4   5
ATOM      5  C   UNL     1      97.019   4.301  68.252  1.00  0.00     0.034 C 
BRANCH   5   6
ATOM      6  C   UNL     1      98.505   4.224  68.546  1.00  0.00    -0.077 C 
ATOM      7  C   UNL     1      99.456   4.258  67.376  1.00  0.00     0.039 C 
ATOM      8  C   UNL     1      99.045   4.198  69.792  1.00  0.00    -0.023 CG0
ATOM      9  G   UNL     1      98.341   4.019  71.123  1.00  0.00     0.000 G0
ENDBRANCH   5   6
ENDBRANCH   4   5
ENDBRANCH   2   4
BRANCH   1  10
ATOM     10  C   UNL     1      97.406   7.256  71.187  1.00  0.00     0.111 C 
BRANCH  10  11
ATOM     11  C   UNL     1      98.614   6.504  71.683  1.00  0.00     0.163 C 
ATOM     12  O   UNL     1      99.736   7.082  71.681  1.00  0.00    -0.294 OA
BRANCH  11  13
ATOM     13  C   UNL     1      98.528   5.108  72.187  1.00  0.00    -0.002 C 
ATOM     14  C   UNL     1      98.462   4.863  73.524  1.00  0.00    -0.069 C 
ATOM     15  C   UNL     1      98.634   5.986  74.522  1.00  0.00     0.039 C 
ATOM     16  C   UNL     1      98.243   3.469  74.063  1.00  0.00     0.039 C 
BRANCH  13  17
ATOM     17  C   UNL     1      98.341   4.014  71.153  1.00  0.00     0.066 CG0
ATOM     18  G   UNL     1      99.036   4.198  69.817  1.00  0.00     0.000 G0
ENDBRANCH  13  17
ENDBRANCH  11  13
ENDBRANCH  10  11
ENDBRANCH   1  10
TORSDOF 0
ENDMDL
MODEL 4
REMARK VINA RESULT:    -3.044      2.384      4.744
REMARK INTER + INTRA:          -3.956
REMARK INTER:                  -3.861
REMARK INTRA:                  -0.095
REMARK UNBOUND:                 0.333
REMARK SMILES CC1=CCC(=C(C)C)C(=O)CC(C)=CCC1
REMARK SMILES IDX 12 1 14 2 13 3 15 4 16 5 2 6 1 7 3 8 11 10 9 11 10 12 5 13
REMARK SMILES IDX 6 14 7 15 8 16 4 17
REMARK H PARENT
REMARK Flexibility Score: 60.00
ROOT
ATOM      1  C   UNL     1     103.567   5.885  76.039  1.00  0.00    -0.070 C 
ATOM      2  C   UNL     1     103.781   6.781  77.030  1.00  0.00    -0.027 C 
ATOM      3  C   UNL     1     104.726   5.038  75.578  1.00  0.00     0.039 C 
ENDROOT
BRANCH   2   4
ATOM      4  C   UNL     1     102.779   7.794  77.530  1.00  0.00     0.032 C 
BRANCH   4   5
ATOM      5  C   UNL     1     101.941   7.346  78.738  1.00  0.00     0.034 C 
BRANCH   5   6
ATOM      6  C   UNL     1     100.445   7.510  78.545  1.00  0.00    -0.077 C 
ATOM      7  C   UNL     1      99.853   8.879  78.771  1.00  0.00     0.039 C 
ATOM      8  C   UNL     1      99.610   6.530  78.113  1.00  0.00    -0.023 CG0
ATOM      9  G   UNL     1      99.899   5.050  77.944  1.00  0.00     0.000 G0
ENDBRANCH   5   6
ENDBRANCH   4   5
ENDBRANCH   2   4
BRANCH   1  10
ATOM     10  C   UNL     1     102.207   5.629  75.427  1.00  0.00     0.111 C 
BRANCH  10  11
ATOM     11  C   UNL     1     101.527   4.456  76.084  1.00  0.00     0.163 C 
ATOM     12  O   UNL     1     102.178   3.389  76.252  1.00  0.00    -0.294 OA
BRANCH  11  13
ATOM     13  C   UNL     1     100.117   4.517  76.552  1.00  0.00    -0.002 C 
ATOM     14  C   UNL     1      99.119   3.977  75.799  1.00  0.00    -0.069 C 
ATOM     15  C   UNL     1      99.401   3.450  74.411  1.00  0.00     0.039 C 
ATOM     16  C   UNL     1      97.697   3.907  76.305  1.00  0.00     0.039 C 
BRANCH  13  17
ATOM     17  C   UNL     1      99.881   5.038  77.957  1.00  0.00     0.066 CG0
ATOM     18  G   UNL     1      99.623   6.525  78.110  1.00  0.00     0.000 G0
ENDBRANCH  13  17
ENDBRANCH  11  13
ENDBRANCH  10  11
ENDBRANCH   1  10
TORSDOF 0
ENDMDL
MODEL 5
REMARK VINA RESULT:    -3.043      2.575      5.054
REMARK INTER + INTRA:          -3.955
REMARK INTER:                  -3.865
REMARK INTRA:                  -0.091
REMARK UNBOUND:                 0.333
REMARK SMILES CC1=CCC(=C(C)C)C(=O)CC(C)=CCC1
REMARK SMILES IDX 12 1 14 2 13 3 15 4 16 5 2 6 1 7 3 8 11 10 9 11 10 12 5 13
REMARK SMILES IDX 6 14 7 15 8 16 4 17
REMARK H PARENT
REMARK Flexibility Score: 60.00
ROOT
ATOM      1  C   UNL     1      98.221   4.801  76.923  1.00  0.00    -0.070 C 
ATOM      2  C   UNL     1      98.683   6.068  76.810  1.00  0.00    -0.027 C 
ATOM      3  C   UNL     1      96.774   4.536  76.591  1.00  0.00     0.039 C 
ENDROOT
BRANCH   2   4
ATOM      4  C   UNL     1     100.058   6.541  77.217  1.00  0.00     0.032 C 
BRANCH   4   5
ATOM      5  C   UNL     1     101.067   6.689  76.067  1.00  0.00     0.034 C 
BRANCH   5   6
ATOM      6  C   UNL     1     102.472   6.236  76.418  1.00  0.00    -0.077 C 
ATOM      7  C   UNL     1     103.386   7.235  77.084  1.00  0.00     0.039 C 
ATOM      8  C   UNL     1     102.943   4.976  76.242  1.00  0.00    -0.023 CG0
ATOM      9  G   UNL     1     102.305   3.826  75.485  1.00  0.00     0.000 G0
ENDBRANCH   5   6
ENDBRANCH   4   5
ENDBRANCH   2   4
BRANCH   1  10
ATOM     10  C   UNL     1      99.100   3.623  77.283  1.00  0.00     0.111 C 
BRANCH  10  11
ATOM     11  C   UNL     1      99.920   3.175  76.100  1.00  0.00     0.163 C 
ATOM     12  O   UNL     1      99.357   3.052  74.978  1.00  0.00    -0.294 OA
BRANCH  11  13
ATOM     13  C   UNL     1     101.374   2.886  76.209  1.00  0.00    -0.002 C 
ATOM     14  C   UNL     1     101.804   1.744  76.814  1.00  0.00    -0.069 C 
ATOM     15  C   UNL     1     100.828   0.834  77.522  1.00  0.00     0.039 C 
ATOM     16  C   UNL     1     103.265   1.358  76.825  1.00  0.00     0.039 C 
BRANCH  13  17
ATOM     17  C   UNL     1     102.318   3.816  75.470  1.00  0.00     0.066 CG0
ATOM     18  G   UNL     1     102.921   4.961  76.261  1.00  0.00     0.000 G0
ENDBRANCH  13  17
ENDBRANCH  11  13
ENDBRANCH  10  11
ENDBRANCH   1  10
TORSDOF 0
ENDMDL
MODEL 6
REMARK VINA RESULT:    -2.969      1.969      4.605
REMARK INTER + INTRA:          -3.850
REMARK INTER:                  -4.002
REMARK INTRA:                   0.152
REMARK UNBOUND:                 0.333
REMARK SMILES CC1=CCC(=C(C)C)C(=O)CC(C)=CCC1
REMARK SMILES IDX 12 1 14 2 13 3 15 4 16 5 2 6 1 7 3 8 11 10 9 11 10 12 5 13
REMARK SMILES IDX 6 14 7 15 8 16 4 17
REMARK H PARENT
REMARK Flexibility Score: 60.00
ROOT
ATOM      1  C   UNL     1     100.878   5.970  77.090  1.00  0.00    -0.070 C 
ATOM      2  C   UNL     1     100.082   6.632  76.218  1.00  0.00    -0.027 C 
ATOM      3  C   UNL     1     101.129   6.590  78.441  1.00  0.00     0.039 C 
ENDROOT
BRANCH   2   4
ATOM      4  C   UNL     1      99.821   6.229  74.787  1.00  0.00     0.032 C 
BRANCH   4   5
ATOM      5  C   UNL     1      98.347   5.979  74.434  1.00  0.00     0.034 C 
BRANCH   5   6
ATOM      6  C   UNL     1      97.608   5.121  75.444  1.00  0.00    -0.077 C 
ATOM      7  C   UNL     1      96.478   5.758  76.214  1.00  0.00     0.039 C 
ATOM      8  C   UNL     1      97.844   3.801  75.655  1.00  0.00    -0.023 CG0
ATOM      9  G   UNL     1      98.988   2.952  75.135  1.00  0.00     0.000 G0
ENDBRANCH   5   6
ENDBRANCH   4   5
ENDBRANCH   2   4
BRANCH   1  10
ATOM     10  C   UNL     1     101.460   4.601  76.812  1.00  0.00     0.111 C 
BRANCH  10  11
ATOM     11  C   UNL     1     100.477   3.512  77.156  1.00  0.00     0.163 C 
ATOM     12  O   UNL     1     100.004   3.463  78.324  1.00  0.00    -0.294 OA
BRANCH  11  13
ATOM     13  C   UNL     1     100.035   2.500  76.161  1.00  0.00    -0.002 C 
ATOM     14  C   UNL     1     100.446   1.207  76.266  1.00  0.00    -0.069 C 
ATOM     15  C   UNL     1     101.479   0.809  77.296  1.00  0.00     0.039 C 
ATOM     16  C   UNL     1      99.913   0.130  75.350  1.00  0.00     0.039 C 
BRANCH  13  17
ATOM     17  C   UNL     1      98.986   2.937  75.155  1.00  0.00     0.066 CG0
ATOM     18  G   UNL     1      97.847   3.795  75.672  1.00  0.00     0.000 G0
ENDBRANCH  13  17
ENDBRANCH  11  13
ENDBRANCH  10  11
ENDBRANCH   1  10
TORSDOF 0
ENDMDL
MODEL 7
REMARK VINA RESULT:    -2.924      2.809      3.922
REMARK INTER + INTRA:          -3.787
REMARK INTER:                  -3.880
REMARK INTRA:                   0.093
REMARK UNBOUND:                 0.333
REMARK SMILES CC1=CCC(=C(C)C)C(=O)CC(C)=CCC1
REMARK SMILES IDX 12 1 14 2 13 3 15 4 16 5 2 6 1 7 3 8 11 10 9 11 10 12 5 13
REMARK SMILES IDX 6 14 7 15 8 16 4 17
REMARK H PARENT
REMARK Flexibility Score: 60.00
ROOT
ATOM      1  C   UNL     1     100.275   4.933  76.805  1.00  0.00    -0.070 C 
ATOM      2  C   UNL     1     101.533   4.622  76.415  1.00  0.00    -0.027 C 
ATOM      3  C   UNL     1      99.385   3.822  77.304  1.00  0.00     0.039 C 
ENDROOT
BRANCH   2   4
ATOM      4  C   UNL     1     102.516   5.573  75.776  1.00  0.00     0.032 C 
BRANCH   4   5
ATOM      5  C   UNL     1     103.336   6.425  76.757  1.00  0.00     0.034 C 
BRANCH   5   6
ATOM      6  C   UNL     1     103.495   7.872  76.332  1.00  0.00    -0.077 C 
ATOM      7  C   UNL     1     104.398   8.165  75.159  1.00  0.00     0.039 C 
ATOM      8  C   UNL     1     102.829   8.918  76.886  1.00  0.00    -0.023 CG0
ATOM      9  G   UNL     1     101.980   8.937  78.143  1.00  0.00     0.000 G0
ENDBRANCH   5   6
ENDBRANCH   4   5
ENDBRANCH   2   4
BRANCH   1  10
ATOM     10  C   UNL     1      99.743   6.349  76.847  1.00  0.00     0.111 C 
BRANCH  10  11
ATOM     11  C   UNL     1     100.254   7.086  78.058  1.00  0.00     0.163 C 
ATOM     12  O   UNL     1     100.462   6.442  79.122  1.00  0.00    -0.294 OA
BRANCH  11  13
ATOM     13  C   UNL     1     100.534   8.546  78.037  1.00  0.00    -0.002 C 
ATOM     14  C   UNL     1      99.511   9.443  78.075  1.00  0.00    -0.069 C 
ATOM     15  C   UNL     1      98.076   8.978  77.979  1.00  0.00     0.039 C 
ATOM     16  C   UNL     1      99.764  10.928  78.186  1.00  0.00     0.039 C 
BRANCH  13  17
ATOM     17  C   UNL     1     101.987   8.969  78.151  1.00  0.00     0.066 CG0
ATOM     18  G   UNL     1     102.823   8.923  76.887  1.00  0.00     0.000 G0
ENDBRANCH  13  17
ENDBRANCH  11  13
ENDBRANCH  10  11
ENDBRANCH   1  10
TORSDOF 0
ENDMDL
MODEL 8
REMARK VINA RESULT:    -2.900      2.423      4.611
REMARK INTER + INTRA:          -3.753
REMARK INTER:                  -3.951
REMARK INTRA:                   0.198
REMARK UNBOUND:                 0.333
REMARK SMILES CC1=CCC(=C(C)C)C(=O)CC(C)=CCC1
REMARK SMILES IDX 12 1 14 2 13 3 15 4 16 5 2 6 1 7 3 8 11 10 9 11 10 12 5 13
REMARK SMILES IDX 6 14 7 15 8 16 4 17
REMARK H PARENT
REMARK Flexibility Score: 60.00
ROOT
ATOM      1  C   UNL     1     101.180   7.262  78.406  1.00  0.00    -0.070 C 
ATOM      2  C   UNL     1     102.390   7.370  77.810  1.00  0.00    -0.027 C 
ATOM      3  C   UNL     1     100.679   8.428  79.222  1.00  0.00     0.039 C 
ENDROOT
BRANCH   2   4
ATOM      4  C   UNL     1     103.103   6.268  77.065  1.00  0.00     0.032 C 
BRANCH   4   5
ATOM      5  C   UNL     1     103.364   6.545  75.576  1.00  0.00     0.034 C 
BRANCH   5   6
ATOM      6  C   UNL     1     102.221   7.253  74.872  1.00  0.00    -0.077 C 
ATOM      7  C   UNL     1     102.435   8.685  74.451  1.00  0.00     0.039 C 
ATOM      8  C   UNL     1     101.045   6.668  74.530  1.00  0.00    -0.023 CG0
ATOM      9  G   UNL     1     100.511   5.309  74.940  1.00  0.00     0.000 G0
ENDBRANCH   5   6
ENDBRANCH   4   5
ENDBRANCH   2   4
BRANCH   1  10
ATOM     10  C   UNL     1     100.266   6.070  78.226  1.00  0.00     0.111 C 
BRANCH  10  11
ATOM     11  C   UNL     1      99.354   6.257  77.042  1.00  0.00     0.163 C 
ATOM     12  O   UNL     1      98.603   7.270  77.003  1.00  0.00    -0.294 OA
BRANCH  11  13
ATOM     13  C   UNL     1      99.316   5.294  75.910  1.00  0.00    -0.002 C 
ATOM     14  C   UNL     1      98.199   4.554  75.674  1.00  0.00    -0.069 C 
ATOM     15  C   UNL     1      97.040   4.578  76.644  1.00  0.00     0.039 C 
ATOM     16  C   UNL     1      98.082   3.664  74.458  1.00  0.00     0.039 C 
BRANCH  13  17
ATOM     17  C   UNL     1     100.493   5.314  74.952  1.00  0.00     0.066 CG0
ATOM     18  G   UNL     1     101.020   6.672  74.530  1.00  0.00     0.000 G0
ENDBRANCH  13  17
ENDBRANCH  11  13
ENDBRANCH  10  11
ENDBRANCH   1  10
TORSDOF 0
ENDMDL
MODEL 9
REMARK VINA RESULT:    -2.814      2.677      5.245
REMARK INTER + INTRA:          -3.633
REMARK INTER:                  -3.906
REMARK INTRA:                   0.273
REMARK UNBOUND:                 0.333
REMARK SMILES CC1=CCC(=C(C)C)C(=O)CC(C)=CCC1
REMARK SMILES IDX 12 1 14 2 13 3 15 4 16 5 2 6 1 7 3 8 11 10 9 11 10 12 5 13
REMARK SMILES IDX 6 14 7 15 8 16 4 17
REMARK H PARENT
REMARK Flexibility Score: 60.00
ROOT
ATOM      1  C   UNL     1      98.252   2.875  74.534  1.00  0.00    -0.070 C 
ATOM      2  C   UNL     1      97.918   3.493  75.691  1.00  0.00    -0.027 C 
ATOM      3  C   UNL     1      99.164   1.676  74.602  1.00  0.00     0.039 C 
ENDROOT
BRANCH   2   4
ATOM      4  C   UNL     1      97.125   4.772  75.806  1.00  0.00     0.032 C 
BRANCH   4   5
ATOM      5  C   UNL     1      97.911   5.986  76.324  1.00  0.00     0.034 C 
BRANCH   5   6
ATOM      6  C   UNL     1      99.264   6.172  75.663  1.00  0.00    -0.077 C 
ATOM      7  C   UNL     1     100.491   6.065  76.533  1.00  0.00     0.039 C 
ATOM      8  C   UNL     1      99.454   6.358  74.331  1.00  0.00    -0.023 CG0
ATOM      9  G   UNL     1      98.418   6.639  73.260  1.00  0.00     0.000 G0
ENDBRANCH   5   6
ENDBRANCH   4   5
ENDBRANCH   2   4
BRANCH   1  10
ATOM     10  C   UNL     1      97.692   3.272  73.186  1.00  0.00     0.111 C 
BRANCH  10  11
ATOM     11  C   UNL     1      98.624   4.211  72.464  1.00  0.00     0.163 C 
ATOM     12  O   UNL     1      99.756   3.789  72.103  1.00  0.00    -0.294 OA
BRANCH  11  13
ATOM     13  C   UNL     1      98.249   5.615  72.153  1.00  0.00    -0.002 C 
ATOM     14  C   UNL     1      97.637   5.918  70.975  1.00  0.00    -0.069 C 
ATOM     15  C   UNL     1      97.469   4.867  69.902  1.00  0.00     0.039 C 
ATOM     16  C   UNL     1      97.127   7.310  70.684  1.00  0.00     0.039 C 
BRANCH  13  17
ATOM     17  C   UNL     1      98.420   6.635  73.263  1.00  0.00     0.066 CG0
ATOM     18  G   UNL     1      99.458   6.333  74.327  1.00  0.00     0.000 G0
ENDBRANCH  13  17
ENDBRANCH  11  13
ENDBRANCH  10  11
ENDBRANCH   1  10
TORSDOF 0
ENDMDL
