MODEL 1
REMARK VINA RESULT:    -4.104      0.000      0.000
REMARK INTER + INTRA:          -5.640
REMARK INTER:                  -5.544
REMARK INTRA:                  -0.096
REMARK UNBOUND:                -0.096
REMARK SMILES [NH3+]CCCC[C@H]([NH3+])C(=O)[O-]
REMARK SMILES IDX 4 1 3 2 2 3 1 4 5 8 6 9 7 10 8 14 9 15 10 16
REMARK H PARENT 1 5 1 6 1 7 7 11 7 12 7 13
REMARK Flexibility Score: inf
ROOT
ATOM      1  C   UNL     1     -54.242 450.325  -8.869  1.00  0.00     0.012 C 
ENDROOT
BRANCH   1   2
ATOM      2  C   UNL     1     -53.205 451.456  -8.778  1.00  0.00     0.061 C 
BRANCH   2   3
ATOM      3  C   UNL     1     -52.857 452.062 -10.147  1.00  0.00     0.258 C 
BRANCH   3   4
ATOM      4  N   UNL     1     -51.749 453.010 -10.032  1.00  0.00    -0.358 N 
ATOM      5  H   UNL     1     -51.032 452.645  -9.363  1.00  0.00     0.344 HD
ATOM      6  H   UNL     1     -51.312 453.166 -10.969  1.00  0.00     0.344 HD
ATOM      7  H   UNL     1     -52.114 453.920  -9.672  1.00  0.00     0.344 HD
ENDBRANCH   3   4
ENDBRANCH   2   3
ENDBRANCH   1   2
BRANCH   1   8
ATOM      8  C   UNL     1     -53.878 449.159  -9.815  1.00  0.00     0.072 C 
BRANCH   8   9
ATOM      9  C   UNL     1     -53.745 447.752  -9.173  1.00  0.00     0.227 C 
BRANCH   9  10
ATOM     10  N   UNL     1     -52.567 447.646  -8.298  1.00  0.00    -0.350 N 
ATOM     11  H   UNL     1     -51.732 447.382  -8.869  1.00  0.00     0.345 HD
ATOM     12  H   UNL     1     -52.372 448.553  -7.817  1.00  0.00     0.345 HD
ATOM     13  H   UNL     1     -52.721 446.899  -7.583  1.00  0.00     0.345 HD
ENDBRANCH   9  10
BRANCH   9  14
ATOM     14  C   UNL     1     -53.792 446.647 -10.199  1.00  0.00     0.099 C 
ATOM     15  O   UNL     1     -53.537 446.872 -11.413  1.00  0.00    -0.544 OA
ATOM     16  O   UNL     1     -54.090 445.350  -9.800  1.00  0.00    -0.544 OA
ENDBRANCH   9  14
ENDBRANCH   8   9
ENDBRANCH   1   8
TORSDOF 7
ENDMDL
MODEL 2
REMARK VINA RESULT:    -3.575      2.654      4.802
REMARK INTER + INTRA:          -4.925
REMARK INTER:                  -4.761
REMARK INTRA:                  -0.164
REMARK UNBOUND:                -0.096
REMARK SMILES [NH3+]CCCC[C@H]([NH3+])C(=O)[O-]
REMARK SMILES IDX 4 1 3 2 2 3 1 4 5 8 6 9 7 10 8 14 9 15 10 16
REMARK H PARENT 1 5 1 6 1 7 7 11 7 12 7 13
REMARK Flexibility Score: inf
ROOT
ATOM      1  C   UNL     1     -54.046 450.126  -9.133  1.00  0.00     0.012 C 
ENDROOT
BRANCH   1   2
ATOM      2  C   UNL     1     -53.802 448.914 -10.046  1.00  0.00     0.061 C 
BRANCH   2   3
ATOM      3  C   UNL     1     -53.621 447.602  -9.266  1.00  0.00     0.258 C 
BRANCH   3   4
ATOM      4  N   UNL     1     -52.660 447.770  -8.176  1.00  0.00    -0.358 N 
ATOM      5  H   UNL     1     -52.076 448.623  -8.341  1.00  0.00     0.344 HD
ATOM      6  H   UNL     1     -53.165 447.857  -7.264  1.00  0.00     0.344 HD
ATOM      7  H   UNL     1     -52.035 446.934  -8.139  1.00  0.00     0.344 HD
ENDBRANCH   3   4
ENDBRANCH   2   3
ENDBRANCH   1   2
BRANCH   1   8
ATOM      8  C   UNL     1     -53.927 451.509  -9.812  1.00  0.00     0.072 C 
BRANCH   8   9
ATOM      9  C   UNL     1     -52.602 451.808 -10.562  1.00  0.00     0.227 C 
BRANCH   9  10
ATOM     10  N   UNL     1     -51.904 452.983 -10.016  1.00  0.00    -0.350 N 
ATOM     11  H   UNL     1     -51.754 452.853  -8.990  1.00  0.00     0.345 HD
ATOM     12  H   UNL     1     -50.976 453.118 -10.477  1.00  0.00     0.345 HD
ATOM     13  H   UNL     1     -52.489 453.839 -10.153  1.00  0.00     0.345 HD
ENDBRANCH   9  10
BRANCH   9  14
ATOM     14  C   UNL     1     -52.797 451.907 -12.055  1.00  0.00     0.099 C 
ATOM     15  O   UNL     1     -51.923 452.435 -12.794  1.00  0.00    -0.544 OA
ATOM     16  O   UNL     1     -53.945 451.379 -12.635  1.00  0.00    -0.544 OA
ENDBRANCH   9  14
ENDBRANCH   8   9
ENDBRANCH   1   8
TORSDOF 7
ENDMDL
MODEL 3
REMARK VINA RESULT:    -3.554      1.737      2.038
REMARK INTER + INTRA:          -4.897
REMARK INTER:                  -4.783
REMARK INTRA:                  -0.114
REMARK UNBOUND:                -0.096
REMARK SMILES [NH3+]CCCC[C@H]([NH3+])C(=O)[O-]
REMARK SMILES IDX 4 1 3 2 2 3 1 4 5 8 6 9 7 10 8 14 9 15 10 16
REMARK H PARENT 1 5 1 6 1 7 7 11 7 12 7 13
REMARK Flexibility Score: inf
ROOT
ATOM      1  C   UNL     1     -53.925 451.615  -9.730  1.00  0.00     0.012 C 
ENDROOT
BRANCH   1   2
ATOM      2  C   UNL     1     -52.521 452.239  -9.682  1.00  0.00     0.061 C 
BRANCH   2   3
ATOM      3  C   UNL     1     -51.943 452.524 -11.078  1.00  0.00     0.258 C 
BRANCH   3   4
ATOM      4  N   UNL     1     -51.086 453.709 -11.055  1.00  0.00    -0.358 N 
ATOM      5  H   UNL     1     -50.676 453.873 -12.004  1.00  0.00     0.344 HD
ATOM      6  H   UNL     1     -51.639 454.545 -10.758  1.00  0.00     0.344 HD
ATOM      7  H   UNL     1     -50.310 453.556 -10.373  1.00  0.00     0.344 HD
ENDBRANCH   3   4
ENDBRANCH   2   3
ENDBRANCH   1   2
BRANCH   1   8
ATOM      8  C   UNL     1     -54.047 450.197  -9.128  1.00  0.00     0.072 C 
BRANCH   8   9
ATOM      9  C   UNL     1     -53.586 449.015 -10.022  1.00  0.00     0.227 C 
BRANCH   9  10
ATOM     10  N   UNL     1     -54.355 448.930 -11.274  1.00  0.00    -0.350 N 
ATOM     11  H   UNL     1     -54.217 447.987 -11.704  1.00  0.00     0.345 HD
ATOM     12  H   UNL     1     -55.376 449.074 -11.100  1.00  0.00     0.345 HD
ATOM     13  H   UNL     1     -54.012 449.649 -11.951  1.00  0.00     0.345 HD
ENDBRANCH   9  10
BRANCH   9  14
ATOM     14  C   UNL     1     -53.569 447.704  -9.275  1.00  0.00     0.099 C 
ATOM     15  O   UNL     1     -53.388 447.666  -8.028  1.00  0.00    -0.544 OA
ATOM     16  O   UNL     1     -53.786 446.517  -9.964  1.00  0.00    -0.544 OA
ENDBRANCH   9  14
ENDBRANCH   8   9
ENDBRANCH   1   8
TORSDOF 7
ENDMDL
MODEL 4
REMARK VINA RESULT:    -3.433      2.995      5.057
REMARK INTER + INTRA:          -4.732
REMARK INTER:                  -4.645
REMARK INTRA:                  -0.087
REMARK UNBOUND:                -0.096
REMARK SMILES [NH3+]CCCC[C@H]([NH3+])C(=O)[O-]
REMARK SMILES IDX 4 1 3 2 2 3 1 4 5 8 6 9 7 10 8 14 9 15 10 16
REMARK H PARENT 1 5 1 6 1 7 7 11 7 12 7 13
REMARK Flexibility Score: inf
ROOT
ATOM      1  C   UNL     1     -53.299 448.923  -8.548  1.00  0.00     0.012 C 
ENDROOT
BRANCH   1   2
ATOM      2  C   UNL     1     -53.608 447.427  -8.718  1.00  0.00     0.061 C 
BRANCH   2   3
ATOM      3  C   UNL     1     -53.628 446.982 -10.189  1.00  0.00     0.258 C 
BRANCH   3   4
ATOM      4  N   UNL     1     -53.628 445.523 -10.292  1.00  0.00    -0.358 N 
ATOM      5  H   UNL     1     -54.131 445.104  -9.476  1.00  0.00     0.344 HD
ATOM      6  H   UNL     1     -54.089 445.227 -11.183  1.00  0.00     0.344 HD
ATOM      7  H   UNL     1     -52.641 445.180 -10.293  1.00  0.00     0.344 HD
ENDBRANCH   3   4
ENDBRANCH   2   3
ENDBRANCH   1   2
BRANCH   1   8
ATOM      8  C   UNL     1     -54.252 449.890  -9.286  1.00  0.00     0.072 C 
BRANCH   8   9
ATOM      9  C   UNL     1     -53.917 451.403  -9.201  1.00  0.00     0.227 C 
BRANCH   9  10
ATOM     10  N   UNL     1     -55.124 452.235  -9.079  1.00  0.00    -0.350 N 
ATOM     11  H   UNL     1     -55.188 452.616  -8.107  1.00  0.00     0.345 HD
ATOM     12  H   UNL     1     -55.100 453.035  -9.752  1.00  0.00     0.345 HD
ATOM     13  H   UNL     1     -55.976 451.655  -9.257  1.00  0.00     0.345 HD
ENDBRANCH   9  10
BRANCH   9  14
ATOM     14  C   UNL     1     -53.025 451.858 -10.331  1.00  0.00     0.099 C 
ATOM     15  O   UNL     1     -53.298 451.578 -11.529  1.00  0.00    -0.544 OA
ATOM     16  O   UNL     1     -51.901 452.625 -10.053  1.00  0.00    -0.544 OA
ENDBRANCH   9  14
ENDBRANCH   8   9
ENDBRANCH   1   8
TORSDOF 7
ENDMDL
MODEL 5
REMARK VINA RESULT:    -3.370      3.262      5.081
REMARK INTER + INTRA:          -4.647
REMARK INTER:                  -4.471
REMARK INTRA:                  -0.176
REMARK UNBOUND:                -0.096
REMARK SMILES [NH3+]CCCC[C@H]([NH3+])C(=O)[O-]
REMARK SMILES IDX 4 1 3 2 2 3 1 4 5 8 6 9 7 10 8 14 9 15 10 16
REMARK H PARENT 1 5 1 6 1 7 7 11 7 12 7 13
REMARK Flexibility Score: inf
ROOT
ATOM      1  C   UNL     1     -53.996 448.954 -11.406  1.00  0.00     0.012 C 
ENDROOT
BRANCH   1   2
ATOM      2  C   UNL     1     -53.840 447.934 -10.267  1.00  0.00     0.061 C 
BRANCH   2   3
ATOM      3  C   UNL     1     -53.482 448.587  -8.922  1.00  0.00     0.258 C 
BRANCH   3   4
ATOM      4  N   UNL     1     -52.693 447.675  -8.094  1.00  0.00    -0.358 N 
ATOM      5  H   UNL     1     -52.263 446.930  -8.689  1.00  0.00     0.344 HD
ATOM      6  H   UNL     1     -51.944 448.205  -7.592  1.00  0.00     0.344 HD
ATOM      7  H   UNL     1     -53.319 447.225  -7.389  1.00  0.00     0.344 HD
ENDBRANCH   3   4
ENDBRANCH   2   3
ENDBRANCH   1   2
BRANCH   1   8
ATOM      8  C   UNL     1     -54.239 450.415 -10.966  1.00  0.00     0.072 C 
BRANCH   8   9
ATOM      9  C   UNL     1     -53.378 451.506 -11.657  1.00  0.00     0.227 C 
BRANCH   9  10
ATOM     10  N   UNL     1     -52.636 450.983 -12.813  1.00  0.00    -0.350 N 
ATOM     11  H   UNL     1     -51.765 451.545 -12.952  1.00  0.00     0.345 HD
ATOM     12  H   UNL     1     -52.370 449.982 -12.669  1.00  0.00     0.345 HD
ATOM     13  H   UNL     1     -53.218 451.067 -13.678  1.00  0.00     0.345 HD
ENDBRANCH   9  10
BRANCH   9  14
ATOM     14  C   UNL     1     -52.479 452.229 -10.684  1.00  0.00     0.099 C 
ATOM     15  O   UNL     1     -52.675 452.160  -9.440  1.00  0.00    -0.544 OA
ATOM     16  O   UNL     1     -51.395 452.957 -11.159  1.00  0.00    -0.544 OA
ENDBRANCH   9  14
ENDBRANCH   8   9
ENDBRANCH   1   8
TORSDOF 7
ENDMDL
MODEL 6
REMARK VINA RESULT:    -3.252      5.360      7.064
REMARK INTER + INTRA:          -4.488
REMARK INTER:                  -4.405
REMARK INTRA:                  -0.083
REMARK UNBOUND:                -0.096
REMARK SMILES [NH3+]CCCC[C@H]([NH3+])C(=O)[O-]
REMARK SMILES IDX 4 1 3 2 2 3 1 4 5 8 6 9 7 10 8 14 9 15 10 16
REMARK H PARENT 1 5 1 6 1 7 7 11 7 12 7 13
REMARK Flexibility Score: inf
ROOT
ATOM      1  C   UNL     1     -48.369 452.360 -12.706  1.00  0.00     0.012 C 
ENDROOT
BRANCH   1   2
ATOM      2  C   UNL     1     -47.420 452.345 -13.915  1.00  0.00     0.061 C 
BRANCH   2   3
ATOM      3  C   UNL     1     -46.487 451.123 -13.931  1.00  0.00     0.258 C 
BRANCH   3   4
ATOM      4  N   UNL     1     -45.091 451.530 -13.768  1.00  0.00    -0.358 N 
ATOM      5  H   UNL     1     -44.528 451.218 -14.592  1.00  0.00     0.344 HD
ATOM      6  H   UNL     1     -45.031 452.570 -13.670  1.00  0.00     0.344 HD
ATOM      7  H   UNL     1     -44.704 451.086 -12.906  1.00  0.00     0.344 HD
ENDBRANCH   3   4
ENDBRANCH   2   3
ENDBRANCH   1   2
BRANCH   1   8
ATOM      8  C   UNL     1     -49.871 452.498 -13.038  1.00  0.00     0.072 C 
BRANCH   8   9
ATOM      9  C   UNL     1     -50.721 453.379 -12.083  1.00  0.00     0.227 C 
BRANCH   9  10
ATOM     10  N   UNL     1     -49.891 454.125 -11.126  1.00  0.00    -0.350 N 
ATOM     11  H   UNL     1     -50.029 453.734 -10.166  1.00  0.00     0.345 HD
ATOM     12  H   UNL     1     -48.877 454.058 -11.372  1.00  0.00     0.345 HD
ATOM     13  H   UNL     1     -50.179 455.130 -11.112  1.00  0.00     0.345 HD
ENDBRANCH   9  10
BRANCH   9  14
ATOM     14  C   UNL     1     -51.813 452.593 -11.398  1.00  0.00     0.099 C 
ATOM     15  O   UNL     1     -52.609 451.872 -12.057  1.00  0.00    -0.544 OA
ATOM     16  O   UNL     1     -51.926 452.636 -10.014  1.00  0.00    -0.544 OA
ENDBRANCH   9  14
ENDBRANCH   8   9
ENDBRANCH   1   8
TORSDOF 7
ENDMDL
MODEL 7
REMARK VINA RESULT:    -3.211      2.281      2.612
REMARK INTER + INTRA:          -4.433
REMARK INTER:                  -4.065
REMARK INTRA:                  -0.368
REMARK UNBOUND:                -0.096
REMARK SMILES [NH3+]CCCC[C@H]([NH3+])C(=O)[O-]
REMARK SMILES IDX 4 1 3 2 2 3 1 4 5 8 6 9 7 10 8 14 9 15 10 16
REMARK H PARENT 1 5 1 6 1 7 7 11 7 12 7 13
REMARK Flexibility Score: inf
ROOT
ATOM      1  C   UNL     1     -53.450 450.240 -12.146  1.00  0.00     0.012 C 
ENDROOT
BRANCH   1   2
ATOM      2  C   UNL     1     -53.488 451.723 -11.742  1.00  0.00     0.061 C 
BRANCH   2   3
ATOM      3  C   UNL     1     -52.124 452.252 -11.271  1.00  0.00     0.258 C 
BRANCH   3   4
ATOM      4  N   UNL     1     -52.191 452.705  -9.882  1.00  0.00    -0.358 N 
ATOM      5  H   UNL     1     -53.181 452.925  -9.624  1.00  0.00     0.344 HD
ATOM      6  H   UNL     1     -51.814 451.966  -9.246  1.00  0.00     0.344 HD
ATOM      7  H   UNL     1     -51.614 453.570  -9.777  1.00  0.00     0.344 HD
ENDBRANCH   3   4
ENDBRANCH   2   3
ENDBRANCH   1   2
BRANCH   1   8
ATOM      8  C   UNL     1     -54.339 449.296 -11.306  1.00  0.00     0.072 C 
BRANCH   8   9
ATOM      9  C   UNL     1     -53.608 448.282 -10.386  1.00  0.00     0.227 C 
BRANCH   9  10
ATOM     10  N   UNL     1     -54.198 446.937 -10.458  1.00  0.00    -0.350 N 
ATOM     11  H   UNL     1     -55.241 447.013 -10.465  1.00  0.00     0.345 HD
ATOM     12  H   UNL     1     -53.892 446.437 -11.323  1.00  0.00     0.345 HD
ATOM     13  H   UNL     1     -53.919 446.381  -9.617  1.00  0.00     0.345 HD
ENDBRANCH   9  10
BRANCH   9  14
ATOM     14  C   UNL     1     -53.495 448.778  -8.964  1.00  0.00     0.099 C 
ATOM     15  O   UNL     1     -53.532 450.009  -8.698  1.00  0.00    -0.544 OA
ATOM     16  O   UNL     1     -53.380 447.863  -7.925  1.00  0.00    -0.544 OA
ENDBRANCH   9  14
ENDBRANCH   8   9
ENDBRANCH   1   8
TORSDOF 7
ENDMDL
MODEL 8
REMARK VINA RESULT:    -3.117      2.235      3.207
REMARK INTER + INTRA:          -4.306
REMARK INTER:                  -4.218
REMARK INTRA:                  -0.088
REMARK UNBOUND:                -0.096
REMARK SMILES [NH3+]CCCC[C@H]([NH3+])C(=O)[O-]
REMARK SMILES IDX 4 1 3 2 2 3 1 4 5 8 6 9 7 10 8 14 9 15 10 16
REMARK H PARENT 1 5 1 6 1 7 7 11 7 12 7 13
REMARK Flexibility Score: inf
ROOT
ATOM      1  C   UNL     1     -52.364 452.278 -11.017  1.00  0.00     0.012 C 
ENDROOT
BRANCH   1   2
ATOM      2  C   UNL     1     -51.606 452.229 -12.353  1.00  0.00     0.061 C 
BRANCH   2   3
ATOM      3  C   UNL     1     -50.655 453.421 -12.548  1.00  0.00     0.258 C 
BRANCH   3   4
ATOM      4  N   UNL     1     -50.435 454.125 -11.284  1.00  0.00    -0.358 N 
ATOM      5  H   UNL     1     -49.808 454.948 -11.436  1.00  0.00     0.344 HD
ATOM      6  H   UNL     1     -51.349 454.444 -10.888  1.00  0.00     0.344 HD
ATOM      7  H   UNL     1     -49.980 453.474 -10.605  1.00  0.00     0.344 HD
ENDBRANCH   3   4
ENDBRANCH   2   3
ENDBRANCH   1   2
BRANCH   1   8
ATOM      8  C   UNL     1     -53.495 451.239 -10.853  1.00  0.00     0.072 C 
BRANCH   8   9
ATOM      9  C   UNL     1     -53.745 450.697  -9.420  1.00  0.00     0.227 C 
BRANCH   9  10
ATOM     10  N   UNL     1     -52.866 451.328  -8.424  1.00  0.00    -0.350 N 
ATOM     11  H   UNL     1     -51.884 451.340  -8.783  1.00  0.00     0.345 HD
ATOM     12  H   UNL     1     -53.164 452.311  -8.226  1.00  0.00     0.345 HD
ATOM     13  H   UNL     1     -52.880 450.775  -7.536  1.00  0.00     0.345 HD
ENDBRANCH   9  10
BRANCH   9  14
ATOM     14  C   UNL     1     -53.685 449.190  -9.358  1.00  0.00     0.099 C 
ATOM     15  O   UNL     1     -53.412 448.592  -8.283  1.00  0.00    -0.544 OA
ATOM     16  O   UNL     1     -53.967 448.444 -10.495  1.00  0.00    -0.544 OA
ENDBRANCH   9  14
ENDBRANCH   8   9
ENDBRANCH   1   8
TORSDOF 7
ENDMDL
