MODEL 1
REMARK VINA RESULT:    -5.909      0.000      0.000
REMARK INTER + INTRA:         -19.518
REMARK INTER:                 -15.582
REMARK INTRA:                  -3.935
REMARK UNBOUND:                -3.935
REMARK SMILES CCCCCCCCCCCCCCCCCCCCCCCCCCCCCC(=O)[O-]
REMARK SMILES IDX 16 1 17 2 18 3 19 4 20 5 21 6 22 7 23 8 24 9 25 10 26 11
REMARK SMILES IDX 27 12 28 13 29 14 30 15 31 16 32 17 15 18 14 19 13 20 12 21
REMARK SMILES IDX 11 22 10 23 9 24 8 25 7 26 6 27 5 28 4 29 3 30 2 31 1 32
REMARK H PARENT
REMARK Flexibility Score: inf
ROOT
ATOM      1  C   UNL     1      16.653  43.574   9.054  1.00  0.00     0.000 C 
ENDROOT
BRANCH   1   2
ATOM      2  C   UNL     1      15.240  43.005   9.253  1.00  0.00     0.000 C 
BRANCH   2   3
ATOM      3  C   UNL     1      15.081  41.665   8.517  1.00  0.00     0.000 C 
BRANCH   3   4
ATOM      4  C   UNL     1      16.094  40.596   8.969  1.00  0.00     0.000 C 
BRANCH   4   5
ATOM      5  C   UNL     1      15.502  39.393   9.734  1.00  0.00     0.000 C 
BRANCH   5   6
ATOM      6  C   UNL     1      13.959  39.308   9.739  1.00  0.00     0.000 C 
BRANCH   6   7
ATOM      7  C   UNL     1      13.352  38.838  11.076  1.00  0.00     0.000 C 
BRANCH   7   8
ATOM      8  C   UNL     1      12.978  37.343  11.103  1.00  0.00     0.000 C 
BRANCH   8   9
ATOM      9  C   UNL     1      11.709  37.080  11.929  1.00  0.00     0.000 C 
BRANCH   9  10
ATOM     10  C   UNL     1      12.057  36.810  13.399  1.00  0.00     0.000 C 
BRANCH  10  11
ATOM     11  C   UNL     1      12.463  35.348  13.664  1.00  0.00     0.000 C 
BRANCH  11  12
ATOM     12  C   UNL     1      11.707  34.301  12.827  1.00  0.00     0.000 C 
BRANCH  12  13
ATOM     13  C   UNL     1      12.524  33.018  12.592  1.00  0.00     0.006 C 
BRANCH  13  14
ATOM     14  C   UNL     1      13.657  33.230  11.580  1.00  0.00     0.053 C 
BRANCH  14  15
ATOM     15  C   UNL     1      15.002  32.970  12.188  1.00  0.00     0.041 C 
ATOM     16  O   UNL     1      15.969  33.737  11.941  1.00  0.00    -0.550 OA
ATOM     17  O   UNL     1      15.185  31.883  13.034  1.00  0.00    -0.550 OA
ENDBRANCH  14  15
ENDBRANCH  13  14
ENDBRANCH  12  13
ENDBRANCH  11  12
ENDBRANCH  10  11
ENDBRANCH   9  10
ENDBRANCH   8   9
ENDBRANCH   7   8
ENDBRANCH   6   7
ENDBRANCH   5   6
ENDBRANCH   4   5
ENDBRANCH   3   4
ENDBRANCH   2   3
ENDBRANCH   1   2
BRANCH   1  18
ATOM     18  C   UNL     1      16.647  45.016   8.523  1.00  0.00     0.000 C 
BRANCH  18  19
ATOM     19  C   UNL     1      16.659  45.079   6.986  1.00  0.00     0.000 C 
BRANCH  19  20
ATOM     20  C   UNL     1      17.470  43.935   6.350  1.00  0.00     0.000 C 
BRANCH  20  21
ATOM     21  C   UNL     1      16.661  42.962   5.466  1.00  0.00     0.000 C 
BRANCH  21  22
ATOM     22  C   UNL     1      16.778  43.195   3.949  1.00  0.00     0.000 C 
BRANCH  22  23
ATOM     23  C   UNL     1      15.438  43.577   3.300  1.00  0.00     0.000 C 
BRANCH  23  24
ATOM     24  C   UNL     1      15.010  45.021   3.617  1.00  0.00    -0.000 C 
BRANCH  24  25
ATOM     25  C   UNL     1      13.580  45.175   4.175  1.00  0.00    -0.000 C 
BRANCH  25  26
ATOM     26  C   UNL     1      12.615  44.028   3.825  1.00  0.00    -0.000 C 
BRANCH  26  27
ATOM     27  C   UNL     1      12.163  43.231   5.058  1.00  0.00    -0.000 C 
BRANCH  27  28
ATOM     28  C   UNL     1      13.048  43.546   6.274  1.00  0.00    -0.000 C 
BRANCH  28  29
ATOM     29  C   UNL     1      12.301  44.356   7.352  1.00  0.00    -0.000 C 
BRANCH  29  30
ATOM     30  C   UNL     1      13.031  45.640   7.793  1.00  0.00    -0.000 C 
BRANCH  30  31
ATOM     31  C   UNL     1      12.454  46.932   7.184  1.00  0.00    -0.003 C 
ATOM     32  C   UNL     1      10.977  46.797   6.815  1.00  0.00     0.004 C 
ENDBRANCH  30  31
ENDBRANCH  29  30
ENDBRANCH  28  29
ENDBRANCH  27  28
ENDBRANCH  26  27
ENDBRANCH  25  26
ENDBRANCH  24  25
ENDBRANCH  23  24
ENDBRANCH  22  23
ENDBRANCH  21  22
ENDBRANCH  20  21
ENDBRANCH  19  20
ENDBRANCH  18  19
ENDBRANCH   1  18
TORSDOF 28
ENDMDL
MODEL 2
REMARK VINA RESULT:    -5.824      4.449      8.276
REMARK INTER + INTRA:         -19.293
REMARK INTER:                 -14.644
REMARK INTRA:                  -4.648
REMARK UNBOUND:                -3.935
REMARK SMILES CCCCCCCCCCCCCCCCCCCCCCCCCCCCCC(=O)[O-]
REMARK SMILES IDX 16 1 17 2 18 3 19 4 20 5 21 6 22 7 23 8 24 9 25 10 26 11
REMARK SMILES IDX 27 12 28 13 29 14 30 15 31 16 32 17 15 18 14 19 13 20 12 21
REMARK SMILES IDX 11 22 10 23 9 24 8 25 7 26 6 27 5 28 4 29 3 30 2 31 1 32
REMARK H PARENT
REMARK Flexibility Score: inf
ROOT
ATOM      1  C   UNL     1      12.370  43.732   6.443  1.00  0.00     0.000 C 
ENDROOT
BRANCH   1   2
ATOM      2  C   UNL     1      13.123  44.265   7.672  1.00  0.00     0.000 C 
BRANCH   2   3
ATOM      3  C   UNL     1      13.699  45.663   7.396  1.00  0.00     0.000 C 
BRANCH   3   4
ATOM      4  C   UNL     1      12.617  46.746   7.221  1.00  0.00     0.000 C 
BRANCH   4   5
ATOM      5  C   UNL     1      12.267  47.113   5.764  1.00  0.00     0.000 C 
BRANCH   5   6
ATOM      6  C   UNL     1      10.760  47.098   5.421  1.00  0.00     0.000 C 
BRANCH   6   7
ATOM      7  C   UNL     1       9.909  48.075   6.254  1.00  0.00     0.000 C 
BRANCH   7   8
ATOM      8  C   UNL     1       8.865  47.387   7.155  1.00  0.00     0.000 C 
BRANCH   8   9
ATOM      9  C   UNL     1       9.089  45.869   7.243  1.00  0.00     0.000 C 
BRANCH   9  10
ATOM     10  C   UNL     1       9.587  45.468   8.638  1.00  0.00     0.000 C 
BRANCH  10  11
ATOM     11  C   UNL     1       9.066  44.091   9.091  1.00  0.00     0.000 C 
BRANCH  11  12
ATOM     12  C   UNL     1       7.780  44.127   9.935  1.00  0.00     0.000 C 
BRANCH  12  13
ATOM     13  C   UNL     1       7.857  43.230  11.183  1.00  0.00     0.006 C 
BRANCH  13  14
ATOM     14  C   UNL     1       7.851  44.044  12.483  1.00  0.00     0.053 C 
BRANCH  14  15
ATOM     15  C   UNL     1       9.217  44.557  12.825  1.00  0.00     0.041 C 
ATOM     16  O   UNL     1       9.349  45.635  13.461  1.00  0.00    -0.550 OA
ATOM     17  O   UNL     1      10.345  43.840  12.446  1.00  0.00    -0.550 OA
ENDBRANCH  14  15
ENDBRANCH  13  14
ENDBRANCH  12  13
ENDBRANCH  11  12
ENDBRANCH  10  11
ENDBRANCH   9  10
ENDBRANCH   8   9
ENDBRANCH   7   8
ENDBRANCH   6   7
ENDBRANCH   5   6
ENDBRANCH   4   5
ENDBRANCH   3   4
ENDBRANCH   2   3
ENDBRANCH   1   2
BRANCH   1  18
ATOM     18  C   UNL     1      13.012  42.468   5.851  1.00  0.00     0.000 C 
BRANCH  18  19
ATOM     19  C   UNL     1      12.378  42.056   4.512  1.00  0.00     0.000 C 
BRANCH  19  20
ATOM     20  C   UNL     1      12.754  43.005   3.359  1.00  0.00     0.000 C 
BRANCH  20  21
ATOM     21  C   UNL     1      14.247  43.390   3.279  1.00  0.00     0.000 C 
BRANCH  21  22
ATOM     22  C   UNL     1      14.570  44.855   3.627  1.00  0.00     0.000 C 
BRANCH  22  23
ATOM     23  C   UNL     1      15.801  44.993   4.538  1.00  0.00     0.000 C 
BRANCH  23  24
ATOM     24  C   UNL     1      16.447  43.638   4.879  1.00  0.00    -0.000 C 
BRANCH  24  25
ATOM     25  C   UNL     1      17.502  43.678   6.003  1.00  0.00    -0.000 C 
BRANCH  25  26
ATOM     26  C   UNL     1      17.246  44.724   7.102  1.00  0.00    -0.000 C 
BRANCH  26  27
ATOM     27  C   UNL     1      16.844  44.094   8.444  1.00  0.00    -0.000 C 
BRANCH  27  28
ATOM     28  C   UNL     1      17.763  42.914   8.798  1.00  0.00    -0.000 C 
BRANCH  28  29
ATOM     29  C   UNL     1      17.001  41.576   8.874  1.00  0.00    -0.000 C 
BRANCH  29  30
ATOM     30  C   UNL     1      15.552  41.645   8.352  1.00  0.00    -0.000 C 
BRANCH  30  31
ATOM     31  C   UNL     1      14.542  40.839   9.192  1.00  0.00    -0.003 C 
ATOM     32  C   UNL     1      15.160  39.581   9.803  1.00  0.00     0.004 C 
ENDBRANCH  30  31
ENDBRANCH  29  30
ENDBRANCH  28  29
ENDBRANCH  27  28
ENDBRANCH  26  27
ENDBRANCH  25  26
ENDBRANCH  24  25
ENDBRANCH  23  24
ENDBRANCH  22  23
ENDBRANCH  21  22
ENDBRANCH  20  21
ENDBRANCH  19  20
ENDBRANCH  18  19
ENDBRANCH   1  18
TORSDOF 28
ENDMDL
MODEL 3
REMARK VINA RESULT:    -5.720      1.594      5.056
REMARK INTER + INTRA:         -19.018
REMARK INTER:                 -14.341
REMARK INTRA:                  -4.677
REMARK UNBOUND:                -3.935
REMARK SMILES CCCCCCCCCCCCCCCCCCCCCCCCCCCCCC(=O)[O-]
REMARK SMILES IDX 16 1 17 2 18 3 19 4 20 5 21 6 22 7 23 8 24 9 25 10 26 11
REMARK SMILES IDX 27 12 28 13 29 14 30 15 31 16 32 17 15 18 14 19 13 20 12 21
REMARK SMILES IDX 11 22 10 23 9 24 8 25 7 26 6 27 5 28 4 29 3 30 2 31 1 32
REMARK H PARENT
REMARK Flexibility Score: inf
ROOT
ATOM      1  C   UNL     1      15.499  43.928   3.625  1.00  0.00     0.000 C 
ENDROOT
BRANCH   1   2
ATOM      2  C   UNL     1      16.876  43.361   4.002  1.00  0.00     0.000 C 
BRANCH   2   3
ATOM      3  C   UNL     1      16.921  42.976   5.489  1.00  0.00     0.000 C 
BRANCH   3   4
ATOM      4  C   UNL     1      17.877  43.854   6.319  1.00  0.00     0.000 C 
BRANCH   4   5
ATOM      5  C   UNL     1      17.253  44.543   7.551  1.00  0.00     0.000 C 
BRANCH   5   6
ATOM      6  C   UNL     1      17.323  43.735   8.867  1.00  0.00     0.000 C 
BRANCH   6   7
ATOM      7  C   UNL     1      16.411  42.494   8.900  1.00  0.00     0.000 C 
BRANCH   7   8
ATOM      8  C   UNL     1      17.155  41.177   9.193  1.00  0.00     0.000 C 
BRANCH   8   9
ATOM      9  C   UNL     1      16.200  39.974   9.252  1.00  0.00     0.000 C 
BRANCH   9  10
ATOM     10  C   UNL     1      14.737  40.436   9.289  1.00  0.00     0.000 C 
BRANCH  10  11
ATOM     11  C   UNL     1      13.756  39.302   9.640  1.00  0.00     0.000 C 
BRANCH  11  12
ATOM     12  C   UNL     1      14.094  38.522  10.924  1.00  0.00     0.000 C 
BRANCH  12  13
ATOM     13  C   UNL     1      12.870  37.826  11.542  1.00  0.00     0.006 C 
BRANCH  13  14
ATOM     14  C   UNL     1      13.231  37.029  12.802  1.00  0.00     0.053 C 
BRANCH  14  15
ATOM     15  C   UNL     1      14.064  35.826  12.480  1.00  0.00     0.041 C 
ATOM     16  O   UNL     1      15.282  35.796  12.794  1.00  0.00    -0.550 OA
ATOM     17  O   UNL     1      13.492  34.735  11.838  1.00  0.00    -0.550 OA
ENDBRANCH  14  15
ENDBRANCH  13  14
ENDBRANCH  12  13
ENDBRANCH  11  12
ENDBRANCH  10  11
ENDBRANCH   9  10
ENDBRANCH   8   9
ENDBRANCH   7   8
ENDBRANCH   6   7
ENDBRANCH   5   6
ENDBRANCH   4   5
ENDBRANCH   3   4
ENDBRANCH   2   3
ENDBRANCH   1   2
BRANCH   1  18
ATOM     18  C   UNL     1      15.302  45.379   4.092  1.00  0.00     0.000 C 
BRANCH  18  19
ATOM     19  C   UNL     1      13.862  45.876   3.883  1.00  0.00     0.000 C 
BRANCH  19  20
ATOM     20  C   UNL     1      13.330  46.680   5.084  1.00  0.00     0.000 C 
BRANCH  20  21
ATOM     21  C   UNL     1      11.793  46.723   5.222  1.00  0.00     0.000 C 
BRANCH  21  22
ATOM     22  C   UNL     1      11.262  46.835   6.663  1.00  0.00     0.000 C 
BRANCH  22  23
ATOM     23  C   UNL     1      10.249  45.732   7.012  1.00  0.00     0.000 C 
BRANCH  23  24
ATOM     24  C   UNL     1      10.858  44.610   7.870  1.00  0.00    -0.000 C 
BRANCH  24  25
ATOM     25  C   UNL     1      12.123  45.002   8.663  1.00  0.00    -0.000 C 
BRANCH  25  26
ATOM     26  C   UNL     1      13.354  44.113   8.409  1.00  0.00    -0.000 C 
BRANCH  26  27
ATOM     27  C   UNL     1      13.599  43.845   6.917  1.00  0.00    -0.000 C 
BRANCH  27  28
ATOM     28  C   UNL     1      13.660  42.336   6.630  1.00  0.00    -0.000 C 
BRANCH  28  29
ATOM     29  C   UNL     1      12.596  41.886   5.609  1.00  0.00    -0.000 C 
BRANCH  29  30
ATOM     30  C   UNL     1      12.020  43.031   4.754  1.00  0.00    -0.000 C 
BRANCH  30  31
ATOM     31  C   UNL     1      11.731  42.640   3.292  1.00  0.00    -0.003 C 
ATOM     32  C   UNL     1      12.985  42.179   2.550  1.00  0.00     0.004 C 
ENDBRANCH  30  31
ENDBRANCH  29  30
ENDBRANCH  28  29
ENDBRANCH  27  28
ENDBRANCH  26  27
ENDBRANCH  25  26
ENDBRANCH  24  25
ENDBRANCH  23  24
ENDBRANCH  22  23
ENDBRANCH  21  22
ENDBRANCH  20  21
ENDBRANCH  19  20
ENDBRANCH  18  19
ENDBRANCH   1  18
TORSDOF 28
ENDMDL
MODEL 4
REMARK VINA RESULT:    -5.703      5.585      9.134
REMARK INTER + INTRA:         -18.973
REMARK INTER:                 -14.050
REMARK INTRA:                  -4.923
REMARK UNBOUND:                -3.935
REMARK SMILES CCCCCCCCCCCCCCCCCCCCCCCCCCCCCC(=O)[O-]
REMARK SMILES IDX 16 1 17 2 18 3 19 4 20 5 21 6 22 7 23 8 24 9 25 10 26 11
REMARK SMILES IDX 27 12 28 13 29 14 30 15 31 16 32 17 15 18 14 19 13 20 12 21
REMARK SMILES IDX 11 22 10 23 9 24 8 25 7 26 6 27 5 28 4 29 3 30 2 31 1 32
REMARK H PARENT
REMARK Flexibility Score: inf
ROOT
ATOM      1  C   UNL     1      12.642  46.374   4.107  1.00  0.00     0.000 C 
ENDROOT
BRANCH   1   2
ATOM      2  C   UNL     1      13.584  46.775   5.254  1.00  0.00     0.000 C 
BRANCH   2   3
ATOM      3  C   UNL     1      12.788  47.317   6.451  1.00  0.00     0.000 C 
BRANCH   3   4
ATOM      4  C   UNL     1      11.267  47.364   6.204  1.00  0.00     0.000 C 
BRANCH   4   5
ATOM      5  C   UNL     1      10.415  46.432   7.091  1.00  0.00     0.000 C 
BRANCH   5   6
ATOM      6  C   UNL     1      11.191  45.678   8.194  1.00  0.00     0.000 C 
BRANCH   6   7
ATOM      7  C   UNL     1      10.515  44.378   8.672  1.00  0.00     0.000 C 
BRANCH   7   8
ATOM      8  C   UNL     1      10.625  44.136  10.190  1.00  0.00     0.000 C 
BRANCH   8   9
ATOM      9  C   UNL     1       9.255  44.191  10.884  1.00  0.00     0.000 C 
BRANCH   9  10
ATOM     10  C   UNL     1       8.116  44.056   9.865  1.00  0.00     0.000 C 
BRANCH  10  11
ATOM     11  C   UNL     1       7.014  45.116  10.047  1.00  0.00     0.000 C 
BRANCH  11  12
ATOM     12  C   UNL     1       5.891  45.076   8.995  1.00  0.00     0.000 C 
BRANCH  12  13
ATOM     13  C   UNL     1       6.387  44.634   7.607  1.00  0.00     0.006 C 
BRANCH  13  14
ATOM     14  C   UNL     1       7.031  45.788   6.827  1.00  0.00     0.053 C 
BRANCH  14  15
ATOM     15  C   UNL     1       6.034  46.855   6.489  1.00  0.00     0.041 C 
ATOM     16  O   UNL     1       5.197  46.671   5.566  1.00  0.00    -0.550 OA
ATOM     17  O   UNL     1       6.026  48.050   7.197  1.00  0.00    -0.550 OA
ENDBRANCH  14  15
ENDBRANCH  13  14
ENDBRANCH  12  13
ENDBRANCH  11  12
ENDBRANCH  10  11
ENDBRANCH   9  10
ENDBRANCH   8   9
ENDBRANCH   7   8
ENDBRANCH   6   7
ENDBRANCH   5   6
ENDBRANCH   4   5
ENDBRANCH   3   4
ENDBRANCH   2   3
ENDBRANCH   1   2
BRANCH   1  18
ATOM     18  C   UNL     1      12.587  44.855   3.884  1.00  0.00     0.000 C 
BRANCH  18  19
ATOM     19  C   UNL     1      13.002  44.059   5.133  1.00  0.00     0.000 C 
BRANCH  19  20
ATOM     20  C   UNL     1      14.119  43.039   4.844  1.00  0.00     0.000 C 
BRANCH  20  21
ATOM     21  C   UNL     1      15.169  43.484   3.803  1.00  0.00     0.000 C 
BRANCH  21  22
ATOM     22  C   UNL     1      16.508  43.973   4.384  1.00  0.00     0.000 C 
BRANCH  22  23
ATOM     23  C   UNL     1      17.051  43.049   5.487  1.00  0.00     0.000 C 
BRANCH  23  24
ATOM     24  C   UNL     1      17.546  43.821   6.723  1.00  0.00    -0.000 C 
BRANCH  24  25
ATOM     25  C   UNL     1      16.868  45.186   6.960  1.00  0.00    -0.000 C 
BRANCH  25  26
ATOM     26  C   UNL     1      15.602  45.144   7.835  1.00  0.00    -0.000 C 
BRANCH  26  27
ATOM     27  C   UNL     1      15.556  43.917   8.758  1.00  0.00    -0.000 C 
BRANCH  27  28
ATOM     28  C   UNL     1      14.235  43.149   8.589  1.00  0.00    -0.000 C 
BRANCH  28  29
ATOM     29  C   UNL     1      14.454  41.634   8.405  1.00  0.00    -0.000 C 
BRANCH  29  30
ATOM     30  C   UNL     1      15.917  41.183   8.582  1.00  0.00    -0.000 C 
BRANCH  30  31
ATOM     31  C   UNL     1      16.075  39.839   9.319  1.00  0.00    -0.003 C 
ATOM     32  C   UNL     1      14.811  39.434  10.077  1.00  0.00     0.004 C 
ENDBRANCH  30  31
ENDBRANCH  29  30
ENDBRANCH  28  29
ENDBRANCH  27  28
ENDBRANCH  26  27
ENDBRANCH  25  26
ENDBRANCH  24  25
ENDBRANCH  23  24
ENDBRANCH  22  23
ENDBRANCH  21  22
ENDBRANCH  20  21
ENDBRANCH  19  20
ENDBRANCH  18  19
ENDBRANCH   1  18
TORSDOF 28
ENDMDL
MODEL 5
REMARK VINA RESULT:    -5.656      6.239      8.989
REMARK INTER + INTRA:         -18.851
REMARK INTER:                 -13.585
REMARK INTRA:                  -5.266
REMARK UNBOUND:                -3.935
REMARK SMILES CCCCCCCCCCCCCCCCCCCCCCCCCCCCCC(=O)[O-]
REMARK SMILES IDX 16 1 17 2 18 3 19 4 20 5 21 6 22 7 23 8 24 9 25 10 26 11
REMARK SMILES IDX 27 12 28 13 29 14 30 15 31 16 32 17 15 18 14 19 13 20 12 21
REMARK SMILES IDX 11 22 10 23 9 24 8 25 7 26 6 27 5 28 4 29 3 30 2 31 1 32
REMARK H PARENT
REMARK Flexibility Score: inf
ROOT
ATOM      1  C   UNL     1      12.233  46.898   6.273  1.00  0.00     0.000 C 
ENDROOT
BRANCH   1   2
ATOM      2  C   UNL     1      10.704  46.996   6.162  1.00  0.00     0.000 C 
BRANCH   2   3
ATOM      3  C   UNL     1      10.024  46.354   7.382  1.00  0.00     0.000 C 
BRANCH   3   4
ATOM      4  C   UNL     1       9.609  44.889   7.150  1.00  0.00     0.000 C 
BRANCH   4   5
ATOM      5  C   UNL     1       9.289  44.075   8.422  1.00  0.00     0.000 C 
BRANCH   5   6
ATOM      6  C   UNL     1      10.030  44.527   9.701  1.00  0.00     0.000 C 
BRANCH   6   7
ATOM      7  C   UNL     1       9.370  44.067  11.015  1.00  0.00     0.000 C 
BRANCH   7   8
ATOM      8  C   UNL     1       7.945  43.507  10.838  1.00  0.00     0.000 C 
BRANCH   8   9
ATOM      9  C   UNL     1       6.869  44.564  11.128  1.00  0.00     0.000 C 
BRANCH   9  10
ATOM     10  C   UNL     1       7.477  45.792  11.819  1.00  0.00     0.000 C 
BRANCH  10  11
ATOM     11  C   UNL     1       7.056  47.122  11.165  1.00  0.00     0.000 C 
BRANCH  11  12
ATOM     12  C   UNL     1       7.429  47.264   9.679  1.00  0.00     0.000 C 
BRANCH  12  13
ATOM     13  C   UNL     1       6.200  47.376   8.760  1.00  0.00     0.006 C 
BRANCH  13  14
ATOM     14  C   UNL     1       6.391  46.618   7.440  1.00  0.00     0.053 C 
BRANCH  14  15
ATOM     15  C   UNL     1       5.726  45.275   7.469  1.00  0.00     0.041 C 
ATOM     16  O   UNL     1       4.773  45.056   8.261  1.00  0.00    -0.550 OA
ATOM     17  O   UNL     1       6.156  44.267   6.615  1.00  0.00    -0.550 OA
ENDBRANCH  14  15
ENDBRANCH  13  14
ENDBRANCH  12  13
ENDBRANCH  11  12
ENDBRANCH  10  11
ENDBRANCH   9  10
ENDBRANCH   8   9
ENDBRANCH   7   8
ENDBRANCH   6   7
ENDBRANCH   5   6
ENDBRANCH   4   5
ENDBRANCH   3   4
ENDBRANCH   2   3
ENDBRANCH   1   2
BRANCH   1  18
ATOM     18  C   UNL     1      12.711  46.622   7.707  1.00  0.00     0.000 C 
BRANCH  18  19
ATOM     19  C   UNL     1      13.792  45.529   7.770  1.00  0.00     0.000 C 
BRANCH  19  20
ATOM     20  C   UNL     1      13.206  44.127   8.019  1.00  0.00     0.000 C 
BRANCH  20  21
ATOM     21  C   UNL     1      14.176  43.109   8.656  1.00  0.00     0.000 C 
BRANCH  21  22
ATOM     22  C   UNL     1      14.949  42.223   7.662  1.00  0.00     0.000 C 
BRANCH  22  23
ATOM     23  C   UNL     1      16.425  42.036   8.053  1.00  0.00     0.000 C 
BRANCH  23  24
ATOM     24  C   UNL     1      17.182  43.370   8.180  1.00  0.00    -0.000 C 
BRANCH  24  25
ATOM     25  C   UNL     1      17.174  44.253   6.915  1.00  0.00    -0.000 C 
BRANCH  25  26
ATOM     26  C   UNL     1      17.630  43.548   5.624  1.00  0.00    -0.000 C 
BRANCH  26  27
ATOM     27  C   UNL     1      16.601  43.658   4.489  1.00  0.00    -0.000 C 
BRANCH  27  28
ATOM     28  C   UNL     1      15.517  44.693   4.825  1.00  0.00    -0.000 C 
BRANCH  28  29
ATOM     29  C   UNL     1      14.317  44.625   3.859  1.00  0.00    -0.000 C 
BRANCH  29  30
ATOM     30  C   UNL     1      14.032  43.215   3.306  1.00  0.00    -0.000 C 
BRANCH  30  31
ATOM     31  C   UNL     1      12.587  42.731   3.530  1.00  0.00    -0.003 C 
ATOM     32  C   UNL     1      12.046  43.119   4.907  1.00  0.00     0.004 C 
ENDBRANCH  30  31
ENDBRANCH  29  30
ENDBRANCH  28  29
ENDBRANCH  27  28
ENDBRANCH  26  27
ENDBRANCH  25  26
ENDBRANCH  24  25
ENDBRANCH  23  24
ENDBRANCH  22  23
ENDBRANCH  21  22
ENDBRANCH  20  21
ENDBRANCH  19  20
ENDBRANCH  18  19
ENDBRANCH   1  18
TORSDOF 28
ENDMDL
MODEL 6
REMARK VINA RESULT:    -5.645      3.466      9.936
REMARK INTER + INTRA:         -18.819
REMARK INTER:                 -15.112
REMARK INTRA:                  -3.708
REMARK UNBOUND:                -3.935
REMARK SMILES CCCCCCCCCCCCCCCCCCCCCCCCCCCCCC(=O)[O-]
REMARK SMILES IDX 16 1 17 2 18 3 19 4 20 5 21 6 22 7 23 8 24 9 25 10 26 11
REMARK SMILES IDX 27 12 28 13 29 14 30 15 31 16 32 17 15 18 14 19 13 20 12 21
REMARK SMILES IDX 11 22 10 23 9 24 8 25 7 26 6 27 5 28 4 29 3 30 2 31 1 32
REMARK H PARENT
REMARK Flexibility Score: inf
ROOT
ATOM      1  C   UNL     1       9.250  45.581   9.030  1.00  0.00     0.000 C 
ENDROOT
BRANCH   1   2
ATOM      2  C   UNL     1       8.324  45.379   7.821  1.00  0.00     0.000 C 
BRANCH   2   3
ATOM      3  C   UNL     1       8.323  46.623   6.919  1.00  0.00     0.000 C 
BRANCH   3   4
ATOM      4  C   UNL     1       9.649  47.407   6.956  1.00  0.00     0.000 C 
BRANCH   4   5
ATOM      5  C   UNL     1      10.721  46.956   5.941  1.00  0.00     0.000 C 
BRANCH   5   6
ATOM      6  C   UNL     1      12.151  47.471   6.215  1.00  0.00     0.000 C 
BRANCH   6   7
ATOM      7  C   UNL     1      13.255  46.731   5.435  1.00  0.00     0.000 C 
BRANCH   7   8
ATOM      8  C   UNL     1      12.806  46.209   4.057  1.00  0.00     0.000 C 
BRANCH   8   9
ATOM      9  C   UNL     1      12.759  44.675   4.007  1.00  0.00     0.000 C 
BRANCH   9  10
ATOM     10  C   UNL     1      14.052  44.067   4.569  1.00  0.00     0.000 C 
BRANCH  10  11
ATOM     11  C   UNL     1      15.257  44.236   3.625  1.00  0.00     0.000 C 
BRANCH  11  12
ATOM     12  C   UNL     1      16.519  43.456   4.035  1.00  0.00     0.000 C 
BRANCH  12  13
ATOM     13  C   UNL     1      16.511  43.039   5.516  1.00  0.00     0.006 C 
BRANCH  13  14
ATOM     14  C   UNL     1      17.607  43.747   6.324  1.00  0.00     0.053 C 
BRANCH  14  15
ATOM     15  C   UNL     1      17.031  44.707   7.319  1.00  0.00     0.041 C 
ATOM     16  O   UNL     1      16.165  45.549   6.962  1.00  0.00    -0.550 OA
ATOM     17  O   UNL     1      17.445  44.667   8.645  1.00  0.00    -0.550 OA
ENDBRANCH  14  15
ENDBRANCH  13  14
ENDBRANCH  12  13
ENDBRANCH  11  12
ENDBRANCH  10  11
ENDBRANCH   9  10
ENDBRANCH   8   9
ENDBRANCH   7   8
ENDBRANCH   6   7
ENDBRANCH   5   6
ENDBRANCH   4   5
ENDBRANCH   3   4
ENDBRANCH   2   3
ENDBRANCH   1   2
BRANCH   1  18
ATOM     18  C   UNL     1       9.639  44.260   9.712  1.00  0.00     0.000 C 
BRANCH  18  19
ATOM     19  C   UNL     1      11.161  44.096   9.858  1.00  0.00     0.000 C 
BRANCH  19  20
ATOM     20  C   UNL     1      11.950  44.917   8.820  1.00  0.00     0.000 C 
BRANCH  20  21
ATOM     21  C   UNL     1      12.986  44.122   7.998  1.00  0.00     0.000 C 
BRANCH  21  22
ATOM     22  C   UNL     1      14.060  43.388   8.822  1.00  0.00     0.000 C 
BRANCH  22  23
ATOM     23  C   UNL     1      14.449  42.029   8.217  1.00  0.00     0.000 C 
BRANCH  23  24
ATOM     24  C   UNL     1      15.697  41.416   8.878  1.00  0.00    -0.000 C 
BRANCH  24  25
ATOM     25  C   UNL     1      15.532  39.964   9.371  1.00  0.00    -0.000 C 
BRANCH  25  26
ATOM     26  C   UNL     1      14.095  39.560   9.747  1.00  0.00    -0.000 C 
BRANCH  26  27
ATOM     27  C   UNL     1      14.039  38.310  10.637  1.00  0.00    -0.000 C 
BRANCH  27  28
ATOM     28  C   UNL     1      12.917  38.425  11.681  1.00  0.00    -0.000 C 
BRANCH  28  29
ATOM     29  C   UNL     1      13.332  37.866  13.057  1.00  0.00    -0.000 C 
BRANCH  29  30
ATOM     30  C   UNL     1      14.743  37.247  13.086  1.00  0.00    -0.000 C 
BRANCH  30  31
ATOM     31  C   UNL     1      14.778  35.783  13.565  1.00  0.00    -0.003 C 
ATOM     32  C   UNL     1      14.545  34.789  12.427  1.00  0.00     0.004 C 
ENDBRANCH  30  31
ENDBRANCH  29  30
ENDBRANCH  28  29
ENDBRANCH  27  28
ENDBRANCH  26  27
ENDBRANCH  25  26
ENDBRANCH  24  25
ENDBRANCH  23  24
ENDBRANCH  22  23
ENDBRANCH  21  22
ENDBRANCH  20  21
ENDBRANCH  19  20
ENDBRANCH  18  19
ENDBRANCH   1  18
TORSDOF 28
ENDMDL
MODEL 7
REMARK VINA RESULT:    -5.631      3.570      8.642
REMARK INTER + INTRA:         -18.782
REMARK INTER:                 -15.070
REMARK INTRA:                  -3.712
REMARK UNBOUND:                -3.935
REMARK SMILES CCCCCCCCCCCCCCCCCCCCCCCCCCCCCC(=O)[O-]
REMARK SMILES IDX 16 1 17 2 18 3 19 4 20 5 21 6 22 7 23 8 24 9 25 10 26 11
REMARK SMILES IDX 27 12 28 13 29 14 30 15 31 16 32 17 15 18 14 19 13 20 12 21
REMARK SMILES IDX 11 22 10 23 9 24 8 25 7 26 6 27 5 28 4 29 3 30 2 31 1 32
REMARK H PARENT
REMARK Flexibility Score: inf
ROOT
ATOM      1  C   UNL     1      15.793  44.119   4.562  1.00  0.00     0.000 C 
ENDROOT
BRANCH   1   2
ATOM      2  C   UNL     1      14.566  43.193   4.585  1.00  0.00     0.000 C 
BRANCH   2   3
ATOM      3  C   UNL     1      13.321  43.948   5.075  1.00  0.00     0.000 C 
BRANCH   3   4
ATOM      4  C   UNL     1      12.799  44.987   4.064  1.00  0.00     0.000 C 
BRANCH   4   5
ATOM      5  C   UNL     1      12.933  46.464   4.492  1.00  0.00     0.000 C 
BRANCH   5   6
ATOM      6  C   UNL     1      13.475  46.692   5.921  1.00  0.00     0.000 C 
BRANCH   6   7
ATOM      7  C   UNL     1      12.383  46.827   7.000  1.00  0.00     0.000 C 
BRANCH   7   8
ATOM      8  C   UNL     1      11.030  47.334   6.464  1.00  0.00     0.000 C 
BRANCH   8   9
ATOM      9  C   UNL     1       9.850  46.510   7.001  1.00  0.00     0.000 C 
BRANCH   9  10
ATOM     10  C   UNL     1      10.280  45.067   7.301  1.00  0.00     0.000 C 
BRANCH  10  11
ATOM     11  C   UNL     1      10.122  44.687   8.785  1.00  0.00     0.000 C 
BRANCH  11  12
ATOM     12  C   UNL     1       8.727  44.169   9.180  1.00  0.00     0.000 C 
BRANCH  12  13
ATOM     13  C   UNL     1       8.699  43.537  10.582  1.00  0.00     0.006 C 
BRANCH  13  14
ATOM     14  C   UNL     1       9.892  43.977  11.441  1.00  0.00     0.053 C 
BRANCH  14  15
ATOM     15  C   UNL     1       9.703  43.615  12.883  1.00  0.00     0.041 C 
ATOM     16  O   UNL     1      10.328  44.238  13.780  1.00  0.00    -0.550 OA
ATOM     17  O   UNL     1       8.831  42.593  13.235  1.00  0.00    -0.550 OA
ENDBRANCH  14  15
ENDBRANCH  13  14
ENDBRANCH  12  13
ENDBRANCH  11  12
ENDBRANCH  10  11
ENDBRANCH   9  10
ENDBRANCH   8   9
ENDBRANCH   7   8
ENDBRANCH   6   7
ENDBRANCH   5   6
ENDBRANCH   4   5
ENDBRANCH   3   4
ENDBRANCH   2   3
ENDBRANCH   1   2
BRANCH   1  18
ATOM     18  C   UNL     1      17.080  43.415   5.017  1.00  0.00     0.000 C 
BRANCH  18  19
ATOM     19  C   UNL     1      17.461  43.761   6.467  1.00  0.00     0.000 C 
BRANCH  19  20
ATOM     20  C   UNL     1      16.939  45.142   6.905  1.00  0.00     0.000 C 
BRANCH  20  21
ATOM     21  C   UNL     1      16.041  45.141   8.160  1.00  0.00     0.000 C 
BRANCH  21  22
ATOM     22  C   UNL     1      16.015  43.822   8.953  1.00  0.00     0.000 C 
BRANCH  22  23
ATOM     23  C   UNL     1      14.690  43.058   8.797  1.00  0.00     0.000 C 
BRANCH  23  24
ATOM     24  C   UNL     1      14.871  41.673   8.151  1.00  0.00    -0.000 C 
BRANCH  24  25
ATOM     25  C   UNL     1      15.979  40.798   8.773  1.00  0.00    -0.000 C 
BRANCH  25  26
ATOM     26  C   UNL     1      15.481  39.565   9.548  1.00  0.00    -0.000 C 
BRANCH  26  27
ATOM     27  C   UNL     1      13.952  39.529   9.692  1.00  0.00    -0.000 C 
BRANCH  27  28
ATOM     28  C   UNL     1      13.538  38.889  11.026  1.00  0.00    -0.000 C 
BRANCH  28  29
ATOM     29  C   UNL     1      12.692  37.615  10.833  1.00  0.00    -0.000 C 
BRANCH  29  30
ATOM     30  C   UNL     1      13.052  36.468  11.797  1.00  0.00    -0.000 C 
BRANCH  30  31
ATOM     31  C   UNL     1      11.913  36.073  12.757  1.00  0.00    -0.003 C 
ATOM     32  C   UNL     1      11.087  37.276  13.212  1.00  0.00     0.004 C 
ENDBRANCH  30  31
ENDBRANCH  29  30
ENDBRANCH  28  29
ENDBRANCH  27  28
ENDBRANCH  26  27
ENDBRANCH  25  26
ENDBRANCH  24  25
ENDBRANCH  23  24
ENDBRANCH  22  23
ENDBRANCH  21  22
ENDBRANCH  20  21
ENDBRANCH  19  20
ENDBRANCH  18  19
ENDBRANCH   1  18
TORSDOF 28
ENDMDL
MODEL 8
REMARK VINA RESULT:    -5.620      5.791      9.460
REMARK INTER + INTRA:         -18.754
REMARK INTER:                 -13.428
REMARK INTRA:                  -5.327
REMARK UNBOUND:                -3.935
REMARK SMILES CCCCCCCCCCCCCCCCCCCCCCCCCCCCCC(=O)[O-]
REMARK SMILES IDX 16 1 17 2 18 3 19 4 20 5 21 6 22 7 23 8 24 9 25 10 26 11
REMARK SMILES IDX 27 12 28 13 29 14 30 15 31 16 32 17 15 18 14 19 13 20 12 21
REMARK SMILES IDX 11 22 10 23 9 24 8 25 7 26 6 27 5 28 4 29 3 30 2 31 1 32
REMARK H PARENT
REMARK Flexibility Score: inf
ROOT
ATOM      1  C   UNL     1      11.923  47.488   6.252  1.00  0.00     0.000 C 
ENDROOT
BRANCH   1   2
ATOM      2  C   UNL     1      12.933  46.556   6.939  1.00  0.00     0.000 C 
BRANCH   2   3
ATOM      3  C   UNL     1      12.211  45.444   7.716  1.00  0.00     0.000 C 
BRANCH   3   4
ATOM      4  C   UNL     1      12.524  44.029   7.191  1.00  0.00     0.000 C 
BRANCH   4   5
ATOM      5  C   UNL     1      11.786  43.616   5.900  1.00  0.00     0.000 C 
BRANCH   5   6
ATOM      6  C   UNL     1      12.571  42.668   4.965  1.00  0.00     0.000 C 
BRANCH   6   7
ATOM      7  C   UNL     1      13.043  43.319   3.650  1.00  0.00     0.000 C 
BRANCH   7   8
ATOM      8  C   UNL     1      13.294  44.836   3.757  1.00  0.00     0.000 C 
BRANCH   8   9
ATOM      9  C   UNL     1      14.780  45.189   3.587  1.00  0.00     0.000 C 
BRANCH   9  10
ATOM     10  C   UNL     1      15.568  44.874   4.866  1.00  0.00     0.000 C 
BRANCH  10  11
ATOM     11  C   UNL     1      16.672  43.823   4.650  1.00  0.00     0.000 C 
BRANCH  11  12
ATOM     12  C   UNL     1      16.991  42.951   5.878  1.00  0.00     0.000 C 
BRANCH  12  13
ATOM     13  C   UNL     1      15.731  42.524   6.652  1.00  0.00     0.006 C 
BRANCH  13  14
ATOM     14  C   UNL     1      15.955  42.528   8.170  1.00  0.00     0.053 C 
BRANCH  14  15
ATOM     15  C   UNL     1      16.595  43.801   8.634  1.00  0.00     0.041 C 
ATOM     16  O   UNL     1      17.724  43.777   9.191  1.00  0.00    -0.550 OA
ATOM     17  O   UNL     1      15.947  45.015   8.445  1.00  0.00    -0.550 OA
ENDBRANCH  14  15
ENDBRANCH  13  14
ENDBRANCH  12  13
ENDBRANCH  11  12
ENDBRANCH  10  11
ENDBRANCH   9  10
ENDBRANCH   8   9
ENDBRANCH   7   8
ENDBRANCH   6   7
ENDBRANCH   5   6
ENDBRANCH   4   5
ENDBRANCH   3   4
ENDBRANCH   2   3
ENDBRANCH   1   2
BRANCH   1  18
ATOM     18  C   UNL     1      10.463  47.103   6.540  1.00  0.00     0.000 C 
BRANCH  18  19
ATOM     19  C   UNL     1       9.484  48.257   6.271  1.00  0.00     0.000 C 
BRANCH  19  20
ATOM     20  C   UNL     1       8.201  48.159   7.118  1.00  0.00     0.000 C 
BRANCH  20  21
ATOM     21  C   UNL     1       7.319  49.426   7.131  1.00  0.00     0.000 C 
BRANCH  21  22
ATOM     22  C   UNL     1       5.803  49.175   7.038  1.00  0.00     0.000 C 
BRANCH  22  23
ATOM     23  C   UNL     1       5.454  47.685   6.883  1.00  0.00     0.000 C 
BRANCH  23  24
ATOM     24  C   UNL     1       4.441  47.196   7.933  1.00  0.00    -0.000 C 
BRANCH  24  25
ATOM     25  C   UNL     1       5.050  46.446   9.135  1.00  0.00    -0.000 C 
BRANCH  25  26
ATOM     26  C   UNL     1       5.573  47.346  10.269  1.00  0.00    -0.000 C 
BRANCH  26  27
ATOM     27  C   UNL     1       7.093  47.237  10.466  1.00  0.00    -0.000 C 
BRANCH  27  28
ATOM     28  C   UNL     1       7.552  45.771  10.417  1.00  0.00    -0.000 C 
BRANCH  28  29
ATOM     29  C   UNL     1       8.704  45.547   9.418  1.00  0.00    -0.000 C 
BRANCH  29  30
ATOM     30  C   UNL     1       8.964  44.066   9.078  1.00  0.00    -0.000 C 
BRANCH  30  31
ATOM     31  C   UNL     1       8.616  43.684   7.627  1.00  0.00    -0.003 C 
ATOM     32  C   UNL     1       7.430  44.478   7.080  1.00  0.00     0.004 C 
ENDBRANCH  30  31
ENDBRANCH  29  30
ENDBRANCH  28  29
ENDBRANCH  27  28
ENDBRANCH  26  27
ENDBRANCH  25  26
ENDBRANCH  24  25
ENDBRANCH  23  24
ENDBRANCH  22  23
ENDBRANCH  21  22
ENDBRANCH  20  21
ENDBRANCH  19  20
ENDBRANCH  18  19
ENDBRANCH   1  18
TORSDOF 28
ENDMDL
MODEL 9
REMARK VINA RESULT:    -5.574      5.894      9.500
REMARK INTER + INTRA:         -18.633
REMARK INTER:                 -14.055
REMARK INTRA:                  -4.577
REMARK UNBOUND:                -3.935
REMARK SMILES CCCCCCCCCCCCCCCCCCCCCCCCCCCCCC(=O)[O-]
REMARK SMILES IDX 16 1 17 2 18 3 19 4 20 5 21 6 22 7 23 8 24 9 25 10 26 11
REMARK SMILES IDX 27 12 28 13 29 14 30 15 31 16 32 17 15 18 14 19 13 20 12 21
REMARK SMILES IDX 11 22 10 23 9 24 8 25 7 26 6 27 5 28 4 29 3 30 2 31 1 32
REMARK H PARENT
REMARK Flexibility Score: inf
ROOT
ATOM      1  C   UNL     1      10.609  46.962   6.364  1.00  0.00     0.000 C 
ENDROOT
BRANCH   1   2
ATOM      2  C   UNL     1      12.029  47.448   6.031  1.00  0.00     0.000 C 
BRANCH   2   3
ATOM      3  C   UNL     1      13.076  46.681   6.853  1.00  0.00     0.000 C 
BRANCH   3   4
ATOM      4  C   UNL     1      12.472  45.558   7.718  1.00  0.00     0.000 C 
BRANCH   4   5
ATOM      5  C   UNL     1      12.793  44.118   7.265  1.00  0.00     0.000 C 
BRANCH   5   6
ATOM      6  C   UNL     1      11.926  43.581   6.104  1.00  0.00     0.000 C 
BRANCH   6   7
ATOM      7  C   UNL     1      12.595  42.470   5.272  1.00  0.00     0.000 C 
BRANCH   7   8
ATOM      8  C   UNL     1      12.926  42.883   3.825  1.00  0.00     0.000 C 
BRANCH   8   9
ATOM      9  C   UNL     1      13.194  44.390   3.701  1.00  0.00     0.000 C 
BRANCH   9  10
ATOM     10  C   UNL     1      14.655  44.719   4.041  1.00  0.00     0.000 C 
BRANCH  10  11
ATOM     11  C   UNL     1      15.648  43.674   3.499  1.00  0.00     0.000 C 
BRANCH  11  12
ATOM     12  C   UNL     1      16.758  43.261   4.483  1.00  0.00     0.000 C 
BRANCH  12  13
ATOM     13  C   UNL     1      16.353  43.447   5.955  1.00  0.00     0.006 C 
BRANCH  13  14
ATOM     14  C   UNL     1      17.376  44.283   6.736  1.00  0.00     0.053 C 
BRANCH  14  15
ATOM     15  C   UNL     1      17.036  44.357   8.194  1.00  0.00     0.041 C 
ATOM     16  O   UNL     1      16.202  45.205   8.608  1.00  0.00    -0.550 OA
ATOM     17  O   UNL     1      17.636  43.486   9.093  1.00  0.00    -0.550 OA
ENDBRANCH  14  15
ENDBRANCH  13  14
ENDBRANCH  12  13
ENDBRANCH  11  12
ENDBRANCH  10  11
ENDBRANCH   9  10
ENDBRANCH   8   9
ENDBRANCH   7   8
ENDBRANCH   6   7
ENDBRANCH   5   6
ENDBRANCH   4   5
ENDBRANCH   3   4
ENDBRANCH   2   3
ENDBRANCH   1   2
BRANCH   1  18
ATOM     18  C   UNL     1       9.553  48.071   6.233  1.00  0.00     0.000 C 
BRANCH  18  19
ATOM     19  C   UNL     1       8.515  48.034   7.367  1.00  0.00     0.000 C 
BRANCH  19  20
ATOM     20  C   UNL     1       7.529  49.215   7.309  1.00  0.00     0.000 C 
BRANCH  20  21
ATOM     21  C   UNL     1       6.309  49.105   8.250  1.00  0.00     0.000 C 
BRANCH  21  22
ATOM     22  C   UNL     1       5.772  47.680   8.470  1.00  0.00     0.000 C 
BRANCH  22  23
ATOM     23  C   UNL     1       4.793  47.235   7.370  1.00  0.00     0.000 C 
BRANCH  23  24
ATOM     24  C   UNL     1       5.461  46.359   6.295  1.00  0.00    -0.000 C 
BRANCH  24  25
ATOM     25  C   UNL     1       5.437  44.843   6.576  1.00  0.00    -0.000 C 
BRANCH  25  26
ATOM     26  C   UNL     1       6.817  44.201   6.809  1.00  0.00    -0.000 C 
BRANCH  26  27
ATOM     27  C   UNL     1       7.351  44.434   8.230  1.00  0.00    -0.000 C 
BRANCH  27  28
ATOM     28  C   UNL     1       8.886  44.355   8.263  1.00  0.00    -0.000 C 
BRANCH  28  29
ATOM     29  C   UNL     1       9.482  44.988   9.537  1.00  0.00    -0.000 C 
BRANCH  29  30
ATOM     30  C   UNL     1      10.431  44.057  10.317  1.00  0.00    -0.000 C 
BRANCH  30  31
ATOM     31  C   UNL     1       9.941  43.703  11.734  1.00  0.00    -0.003 C 
ATOM     32  C   UNL     1       8.418  43.601  11.818  1.00  0.00     0.004 C 
ENDBRANCH  30  31
ENDBRANCH  29  30
ENDBRANCH  28  29
ENDBRANCH  27  28
ENDBRANCH  26  27
ENDBRANCH  25  26
ENDBRANCH  24  25
ENDBRANCH  23  24
ENDBRANCH  22  23
ENDBRANCH  21  22
ENDBRANCH  20  21
ENDBRANCH  19  20
ENDBRANCH  18  19
ENDBRANCH   1  18
TORSDOF 28
ENDMDL
