MODEL 1
REMARK VINA RESULT:    -5.493      0.000      0.000
REMARK INTER + INTRA:         -10.420
REMARK INTER:                  -9.347
REMARK INTRA:                  -1.073
REMARK UNBOUND:                -1.073
REMARK SMILES CCCCCCCCCCCCCC(=O)[O-]
REMARK SMILES IDX 8 1 9 2 10 3 11 4 12 5 13 6 14 7 15 8 16 9 7 10 6 11 5 12
REMARK SMILES IDX 4 13 3 14 2 15 1 16
REMARK H PARENT
REMARK Flexibility Score: inf
ROOT
ATOM      1  C   UNL     1      14.183  21.845  14.806  1.00  0.00     0.000 C 
ENDROOT
BRANCH   1   2
ATOM      2  C   UNL     1      15.208  21.651  15.935  1.00  0.00     0.000 C 
BRANCH   2   3
ATOM      3  C   UNL     1      15.325  22.887  16.844  1.00  0.00     0.000 C 
BRANCH   3   4
ATOM      4  C   UNL     1      14.205  22.956  17.895  1.00  0.00     0.000 C 
BRANCH   4   5
ATOM      5  C   UNL     1      14.018  21.629  18.650  1.00  0.00     0.006 C 
BRANCH   5   6
ATOM      6  C   UNL     1      14.878  21.561  19.920  1.00  0.00     0.053 C 
BRANCH   6   7
ATOM      7  C   UNL     1      15.804  20.382  19.902  1.00  0.00     0.041 C 
ATOM      8  O   UNL     1      16.844  20.403  19.195  1.00  0.00    -0.550 OA
ATOM      9  O   UNL     1      15.531  19.273  20.692  1.00  0.00    -0.550 OA
ENDBRANCH   6   7
ENDBRANCH   5   6
ENDBRANCH   4   5
ENDBRANCH   3   4
ENDBRANCH   2   3
ENDBRANCH   1   2
BRANCH   1  10
ATOM     10  C   UNL     1      14.624  21.193  13.484  1.00  0.00     0.000 C 
BRANCH  10  11
ATOM     11  C   UNL     1      15.704  22.006  12.747  1.00  0.00    -0.000 C 
BRANCH  11  12
ATOM     12  C   UNL     1      16.043  21.505  11.332  1.00  0.00    -0.000 C 
BRANCH  12  13
ATOM     13  C   UNL     1      17.414  20.809  11.255  1.00  0.00    -0.000 C 
BRANCH  13  14
ATOM     14  C   UNL     1      17.493  19.565  12.154  1.00  0.00    -0.000 C 
BRANCH  14  15
ATOM     15  C   UNL     1      18.521  19.715  13.286  1.00  0.00    -0.003 C 
ATOM     16  C   UNL     1      17.923  19.301  14.628  1.00  0.00     0.004 C 
ENDBRANCH  14  15
ENDBRANCH  13  14
ENDBRANCH  12  13
ENDBRANCH  11  12
ENDBRANCH  10  11
ENDBRANCH   1  10
TORSDOF 12
ENDMDL
MODEL 2
REMARK VINA RESULT:    -5.425      2.767      5.814
REMARK INTER + INTRA:         -10.304
REMARK INTER:                  -8.611
REMARK INTRA:                  -1.693
REMARK UNBOUND:                -1.073
REMARK SMILES CCCCCCCCCCCCCC(=O)[O-]
REMARK SMILES IDX 8 1 9 2 10 3 11 4 12 5 13 6 14 7 15 8 16 9 7 10 6 11 5 12
REMARK SMILES IDX 4 13 3 14 2 15 1 16
REMARK H PARENT
REMARK Flexibility Score: inf
ROOT
ATOM      1  C   UNL     1      16.112  20.017  19.793  1.00  0.00     0.000 C 
ENDROOT
BRANCH   1   2
ATOM      2  C   UNL     1      16.968  19.514  18.620  1.00  0.00     0.000 C 
BRANCH   2   3
ATOM      3  C   UNL     1      17.807  20.634  17.979  1.00  0.00     0.000 C 
BRANCH   3   4
ATOM      4  C   UNL     1      18.042  20.411  16.477  1.00  0.00     0.000 C 
BRANCH   4   5
ATOM      5  C   UNL     1      17.274  19.194  15.931  1.00  0.00     0.006 C 
BRANCH   5   6
ATOM      6  C   UNL     1      17.063  19.277  14.414  1.00  0.00     0.053 C 
BRANCH   6   7
ATOM      7  C   UNL     1      18.358  19.184  13.665  1.00  0.00     0.041 C 
ATOM      8  O   UNL     1      18.602  19.976  12.718  1.00  0.00    -0.550 OA
ATOM      9  O   UNL     1      19.308  18.241  14.035  1.00  0.00    -0.550 OA
ENDBRANCH   6   7
ENDBRANCH   5   6
ENDBRANCH   4   5
ENDBRANCH   3   4
ENDBRANCH   2   3
ENDBRANCH   1   2
BRANCH   1  10
ATOM     10  C   UNL     1      14.689  20.415  19.363  1.00  0.00     0.000 C 
BRANCH  10  11
ATOM     11  C   UNL     1      14.454  21.935  19.407  1.00  0.00    -0.000 C 
BRANCH  11  12
ATOM     12  C   UNL     1      14.019  22.566  18.071  1.00  0.00    -0.000 C 
BRANCH  12  13
ATOM     13  C   UNL     1      14.217  21.623  16.871  1.00  0.00    -0.000 C 
BRANCH  13  14
ATOM     14  C   UNL     1      15.007  22.282  15.729  1.00  0.00    -0.000 C 
BRANCH  14  15
ATOM     15  C   UNL     1      14.464  21.910  14.341  1.00  0.00    -0.003 C 
ATOM     16  C   UNL     1      15.287  22.568  13.237  1.00  0.00     0.004 C 
ENDBRANCH  14  15
ENDBRANCH  13  14
ENDBRANCH  12  13
ENDBRANCH  11  12
ENDBRANCH  10  11
ENDBRANCH   1  10
TORSDOF 12
ENDMDL
MODEL 3
REMARK VINA RESULT:    -5.422      1.284      2.832
REMARK INTER + INTRA:         -10.299
REMARK INTER:                  -9.345
REMARK INTRA:                  -0.954
REMARK UNBOUND:                -1.073
REMARK SMILES CCCCCCCCCCCCCC(=O)[O-]
REMARK SMILES IDX 8 1 9 2 10 3 11 4 12 5 13 6 14 7 15 8 16 9 7 10 6 11 5 12
REMARK SMILES IDX 4 13 3 14 2 15 1 16
REMARK H PARENT
REMARK Flexibility Score: inf
ROOT
ATOM      1  C   UNL     1      15.026  23.014  17.010  1.00  0.00     0.000 C 
ENDROOT
BRANCH   1   2
ATOM      2  C   UNL     1      14.009  22.678  18.112  1.00  0.00     0.000 C 
BRANCH   2   3
ATOM      3  C   UNL     1      14.179  21.248  18.656  1.00  0.00     0.000 C 
BRANCH   3   4
ATOM      4  C   UNL     1      14.939  21.210  19.991  1.00  0.00     0.000 C 
BRANCH   4   5
ATOM      5  C   UNL     1      15.961  20.062  20.059  1.00  0.00     0.006 C 
BRANCH   5   6
ATOM      6  C   UNL     1      17.013  20.158  18.947  1.00  0.00     0.053 C 
BRANCH   6   7
ATOM      7  C   UNL     1      16.980  18.961  18.044  1.00  0.00     0.041 C 
ATOM      8  O   UNL     1      16.577  17.851  18.477  1.00  0.00    -0.550 OA
ATOM      9  O   UNL     1      17.368  19.083  16.716  1.00  0.00    -0.550 OA
ENDBRANCH   6   7
ENDBRANCH   5   6
ENDBRANCH   4   5
ENDBRANCH   3   4
ENDBRANCH   2   3
ENDBRANCH   1   2
BRANCH   1  10
ATOM     10  C   UNL     1      15.234  21.855  16.020  1.00  0.00     0.000 C 
BRANCH  10  11
ATOM     11  C   UNL     1      14.172  21.824  14.905  1.00  0.00    -0.000 C 
BRANCH  11  12
ATOM     12  C   UNL     1      14.637  21.190  13.581  1.00  0.00    -0.000 C 
BRANCH  12  13
ATOM     13  C   UNL     1      15.530  22.127  12.749  1.00  0.00    -0.000 C 
BRANCH  13  14
ATOM     14  C   UNL     1      15.955  21.501  11.412  1.00  0.00    -0.000 C 
BRANCH  14  15
ATOM     15  C   UNL     1      17.477  21.338  11.291  1.00  0.00    -0.003 C 
ATOM     16  C   UNL     1      17.984  20.220  12.198  1.00  0.00     0.004 C 
ENDBRANCH  14  15
ENDBRANCH  13  14
ENDBRANCH  12  13
ENDBRANCH  11  12
ENDBRANCH  10  11
ENDBRANCH   1  10
TORSDOF 12
ENDMDL
MODEL 4
REMARK VINA RESULT:    -5.414      3.228      6.519
REMARK INTER + INTRA:         -10.285
REMARK INTER:                  -9.019
REMARK INTRA:                  -1.266
REMARK UNBOUND:                -1.073
REMARK SMILES CCCCCCCCCCCCCC(=O)[O-]
REMARK SMILES IDX 8 1 9 2 10 3 11 4 12 5 13 6 14 7 15 8 16 9 7 10 6 11 5 12
REMARK SMILES IDX 4 13 3 14 2 15 1 16
REMARK H PARENT
REMARK Flexibility Score: inf
ROOT
ATOM      1  C   UNL     1      14.656  22.997  17.312  1.00  0.00     0.000 C 
ENDROOT
BRANCH   1   2
ATOM      2  C   UNL     1      14.356  22.175  16.048  1.00  0.00     0.000 C 
BRANCH   2   3
ATOM      3  C   UNL     1      15.547  22.135  15.074  1.00  0.00     0.000 C 
BRANCH   3   4
ATOM      4  C   UNL     1      15.129  22.397  13.618  1.00  0.00     0.000 C 
BRANCH   4   5
ATOM      5  C   UNL     1      15.387  21.190  12.701  1.00  0.00     0.006 C 
BRANCH   5   6
ATOM      6  C   UNL     1      16.125  21.588  11.415  1.00  0.00     0.053 C 
BRANCH   6   7
ATOM      7  C   UNL     1      17.334  20.734  11.179  1.00  0.00     0.041 C 
ATOM      8  O   UNL     1      18.040  20.352  12.148  1.00  0.00    -0.550 OA
ATOM      9  O   UNL     1      17.662  20.336   9.890  1.00  0.00    -0.550 OA
ENDBRANCH   6   7
ENDBRANCH   5   6
ENDBRANCH   4   5
ENDBRANCH   3   4
ENDBRANCH   2   3
ENDBRANCH   1   2
BRANCH   1  10
ATOM     10  C   UNL     1      13.875  22.501  18.542  1.00  0.00     0.000 C 
BRANCH  10  11
ATOM     11  C   UNL     1      14.183  21.035  18.894  1.00  0.00    -0.000 C 
BRANCH  11  12
ATOM     12  C   UNL     1      15.185  20.838  20.046  1.00  0.00    -0.000 C 
BRANCH  12  13
ATOM     13  C   UNL     1      16.545  20.299  19.572  1.00  0.00    -0.000 C 
BRANCH  13  14
ATOM     14  C   UNL     1      16.406  19.244  18.463  1.00  0.00    -0.000 C 
BRANCH  14  15
ATOM     15  C   UNL     1      17.212  19.597  17.204  1.00  0.00    -0.003 C 
ATOM     16  C   UNL     1      18.165  20.759  17.471  1.00  0.00     0.004 C 
ENDBRANCH  14  15
ENDBRANCH  13  14
ENDBRANCH  12  13
ENDBRANCH  11  12
ENDBRANCH  10  11
ENDBRANCH   1  10
TORSDOF 12
ENDMDL
MODEL 5
REMARK VINA RESULT:    -5.397      2.999      6.107
REMARK INTER + INTRA:         -10.255
REMARK INTER:                  -8.665
REMARK INTRA:                  -1.590
REMARK UNBOUND:                -1.073
REMARK SMILES CCCCCCCCCCCCCC(=O)[O-]
REMARK SMILES IDX 8 1 9 2 10 3 11 4 12 5 13 6 14 7 15 8 16 9 7 10 6 11 5 12
REMARK SMILES IDX 4 13 3 14 2 15 1 16
REMARK H PARENT
REMARK Flexibility Score: inf
ROOT
ATOM      1  C   UNL     1      14.593  22.506  17.573  1.00  0.00     0.000 C 
ENDROOT
BRANCH   1   2
ATOM      2  C   UNL     1      13.881  21.538  16.616  1.00  0.00     0.000 C 
BRANCH   2   3
ATOM      3  C   UNL     1      13.894  22.033  15.159  1.00  0.00     0.000 C 
BRANCH   3   4
ATOM      4  C   UNL     1      15.312  22.342  14.652  1.00  0.00     0.000 C 
BRANCH   4   5
ATOM      5  C   UNL     1      15.364  22.552  13.129  1.00  0.00     0.006 C 
BRANCH   5   6
ATOM      6  C   UNL     1      15.371  21.223  12.362  1.00  0.00     0.053 C 
BRANCH   6   7
ATOM      7  C   UNL     1      16.735  20.888  11.841  1.00  0.00     0.041 C 
ATOM      8  O   UNL     1      17.037  21.137  10.645  1.00  0.00    -0.550 OA
ATOM      9  O   UNL     1      17.683  20.326  12.686  1.00  0.00    -0.550 OA
ENDBRANCH   6   7
ENDBRANCH   5   6
ENDBRANCH   4   5
ENDBRANCH   3   4
ENDBRANCH   2   3
ENDBRANCH   1   2
BRANCH   1  10
ATOM     10  C   UNL     1      14.277  22.218  19.052  1.00  0.00     0.000 C 
BRANCH  10  11
ATOM     11  C   UNL     1      14.514  20.747  19.439  1.00  0.00    -0.000 C 
BRANCH  11  12
ATOM     12  C   UNL     1      15.944  20.419  19.906  1.00  0.00    -0.000 C 
BRANCH  12  13
ATOM     13  C   UNL     1      16.727  19.571  18.888  1.00  0.00    -0.000 C 
BRANCH  13  14
ATOM     14  C   UNL     1      17.827  20.372  18.176  1.00  0.00    -0.000 C 
BRANCH  14  15
ATOM     15  C   UNL     1      17.639  20.413  16.652  1.00  0.00    -0.003 C 
ATOM     16  C   UNL     1      16.758  19.260  16.177  1.00  0.00     0.004 C 
ENDBRANCH  14  15
ENDBRANCH  13  14
ENDBRANCH  12  13
ENDBRANCH  11  12
ENDBRANCH  10  11
ENDBRANCH   1  10
TORSDOF 12
ENDMDL
MODEL 6
REMARK VINA RESULT:    -5.324      1.595      3.511
REMARK INTER + INTRA:         -10.131
REMARK INTER:                  -8.607
REMARK INTRA:                  -1.524
REMARK UNBOUND:                -1.073
REMARK SMILES CCCCCCCCCCCCCC(=O)[O-]
REMARK SMILES IDX 8 1 9 2 10 3 11 4 12 5 13 6 14 7 15 8 16 9 7 10 6 11 5 12
REMARK SMILES IDX 4 13 3 14 2 15 1 16
REMARK H PARENT
REMARK Flexibility Score: inf
ROOT
ATOM      1  C   UNL     1      18.674  19.489  13.991  1.00  0.00     0.000 C 
ENDROOT
BRANCH   1   2
ATOM      2  C   UNL     1      18.060  19.687  15.386  1.00  0.00     0.000 C 
BRANCH   2   3
ATOM      3  C   UNL     1      16.881  18.735  15.652  1.00  0.00     0.000 C 
BRANCH   3   4
ATOM      4  C   UNL     1      16.657  18.476  17.151  1.00  0.00     0.000 C 
BRANCH   4   5
ATOM      5  C   UNL     1      17.062  19.675  18.026  1.00  0.00     0.006 C 
BRANCH   5   6
ATOM      6  C   UNL     1      16.120  19.861  19.223  1.00  0.00     0.053 C 
BRANCH   6   7
ATOM      7  C   UNL     1      14.872  20.598  18.840  1.00  0.00     0.041 C 
ATOM      8  O   UNL     1      14.734  21.811  19.142  1.00  0.00    -0.550 OA
ATOM      9  O   UNL     1      13.875  19.949  18.123  1.00  0.00    -0.550 OA
ENDBRANCH   6   7
ENDBRANCH   5   6
ENDBRANCH   4   5
ENDBRANCH   3   4
ENDBRANCH   2   3
ENDBRANCH   1   2
BRANCH   1  10
ATOM     10  C   UNL     1      17.610  19.280  12.899  1.00  0.00     0.000 C 
BRANCH  10  11
ATOM     11  C   UNL     1      17.921  20.054  11.605  1.00  0.00    -0.000 C 
BRANCH  11  12
ATOM     12  C   UNL     1      17.249  21.434  11.495  1.00  0.00    -0.000 C 
BRANCH  12  13
ATOM     13  C   UNL     1      15.750  21.400  11.843  1.00  0.00    -0.000 C 
BRANCH  13  14
ATOM     14  C   UNL     1      15.397  22.329  13.016  1.00  0.00    -0.000 C 
BRANCH  14  15
ATOM     15  C   UNL     1      14.898  21.561  14.250  1.00  0.00    -0.003 C 
ATOM     16  C   UNL     1      15.355  22.239  15.539  1.00  0.00     0.004 C 
ENDBRANCH  14  15
ENDBRANCH  13  14
ENDBRANCH  12  13
ENDBRANCH  11  12
ENDBRANCH  10  11
ENDBRANCH   1  10
TORSDOF 12
ENDMDL
MODEL 7
REMARK VINA RESULT:    -5.266     14.779     17.706
REMARK INTER + INTRA:         -10.032
REMARK INTER:                  -8.297
REMARK INTRA:                  -1.736
REMARK UNBOUND:                -1.073
REMARK SMILES CCCCCCCCCCCCCC(=O)[O-]
REMARK SMILES IDX 8 1 9 2 10 3 11 4 12 5 13 6 14 7 15 8 16 9 7 10 6 11 5 12
REMARK SMILES IDX 4 13 3 14 2 15 1 16
REMARK H PARENT
REMARK Flexibility Score: inf
ROOT
ATOM      1  C   UNL     1      32.988  17.074   8.666  1.00  0.00     0.000 C 
ENDROOT
BRANCH   1   2
ATOM      2  C   UNL     1      32.012  16.731   7.530  1.00  0.00     0.000 C 
BRANCH   2   3
ATOM      3  C   UNL     1      32.203  17.632   6.297  1.00  0.00     0.000 C 
BRANCH   3   4
ATOM      4  C   UNL     1      30.868  18.107   5.700  1.00  0.00     0.000 C 
BRANCH   4   5
ATOM      5  C   UNL     1      29.663  17.317   6.239  1.00  0.00     0.006 C 
BRANCH   5   6
ATOM      6  C   UNL     1      28.402  17.538   5.393  1.00  0.00     0.053 C 
BRANCH   6   7
ATOM      7  C   UNL     1      27.271  18.082   6.212  1.00  0.00     0.041 C 
ATOM      8  O   UNL     1      27.504  18.743   7.258  1.00  0.00    -0.550 OA
ATOM      9  O   UNL     1      25.958  17.884   5.803  1.00  0.00    -0.550 OA
ENDBRANCH   6   7
ENDBRANCH   5   6
ENDBRANCH   4   5
ENDBRANCH   3   4
ENDBRANCH   2   3
ENDBRANCH   1   2
BRANCH   1  10
ATOM     10  C   UNL     1      33.630  18.462   8.499  1.00  0.00     0.000 C 
BRANCH  10  11
ATOM     11  C   UNL     1      33.001  19.526   9.416  1.00  0.00    -0.000 C 
BRANCH  11  12
ATOM     12  C   UNL     1      32.332  20.704   8.684  1.00  0.00    -0.000 C 
BRANCH  12  13
ATOM     13  C   UNL     1      30.835  20.472   8.418  1.00  0.00    -0.000 C 
BRANCH  13  14
ATOM     14  C   UNL     1      30.219  19.444   9.380  1.00  0.00    -0.000 C 
BRANCH  14  15
ATOM     15  C   UNL     1      29.170  20.062  10.316  1.00  0.00    -0.003 C 
ATOM     16  C   UNL     1      28.756  21.450   9.835  1.00  0.00     0.004 C 
ENDBRANCH  14  15
ENDBRANCH  13  14
ENDBRANCH  12  13
ENDBRANCH  11  12
ENDBRANCH  10  11
ENDBRANCH   1  10
TORSDOF 12
ENDMDL
MODEL 8
REMARK VINA RESULT:    -5.258      1.775      4.938
REMARK INTER + INTRA:         -10.019
REMARK INTER:                  -8.354
REMARK INTRA:                  -1.664
REMARK UNBOUND:                -1.073
REMARK SMILES CCCCCCCCCCCCCC(=O)[O-]
REMARK SMILES IDX 8 1 9 2 10 3 11 4 12 5 13 6 14 7 15 8 16 9 7 10 6 11 5 12
REMARK SMILES IDX 4 13 3 14 2 15 1 16
REMARK H PARENT
REMARK Flexibility Score: inf
ROOT
ATOM      1  C   UNL     1      16.826  21.506  12.148  1.00  0.00     0.000 C 
ENDROOT
BRANCH   1   2
ATOM      2  C   UNL     1      17.845  20.392  11.863  1.00  0.00     0.000 C 
BRANCH   2   3
ATOM      3  C   UNL     1      17.737  19.224  12.861  1.00  0.00     0.000 C 
BRANCH   3   4
ATOM      4  C   UNL     1      18.749  19.335  14.012  1.00  0.00     0.000 C 
BRANCH   4   5
ATOM      5  C   UNL     1      18.075  19.596  15.371  1.00  0.00     0.006 C 
BRANCH   5   6
ATOM      6  C   UNL     1      16.839  18.711  15.582  1.00  0.00     0.053 C 
BRANCH   6   7
ATOM      7  C   UNL     1      17.006  17.792  16.755  1.00  0.00     0.041 C 
ATOM      8  O   UNL     1      16.089  17.681  17.609  1.00  0.00    -0.550 OA
ATOM      9  O   UNL     1      18.165  17.038  16.886  1.00  0.00    -0.550 OA
ENDBRANCH   6   7
ENDBRANCH   5   6
ENDBRANCH   4   5
ENDBRANCH   3   4
ENDBRANCH   2   3
ENDBRANCH   1   2
BRANCH   1  10
ATOM     10  C   UNL     1      15.376  20.990  12.181  1.00  0.00     0.000 C 
BRANCH  10  11
ATOM     11  C   UNL     1      14.703  21.186  13.552  1.00  0.00    -0.000 C 
BRANCH  11  12
ATOM     12  C   UNL     1      15.460  22.112  14.522  1.00  0.00    -0.000 C 
BRANCH  12  13
ATOM     13  C   UNL     1      14.702  22.345  15.841  1.00  0.00    -0.000 C 
BRANCH  13  14
ATOM     14  C   UNL     1      15.516  21.915  17.071  1.00  0.00    -0.000 C 
BRANCH  14  15
ATOM     15  C   UNL     1      14.786  20.871  17.929  1.00  0.00    -0.003 C 
ATOM     16  C   UNL     1      15.176  20.999  19.399  1.00  0.00     0.004 C 
ENDBRANCH  14  15
ENDBRANCH  13  14
ENDBRANCH  12  13
ENDBRANCH  11  12
ENDBRANCH  10  11
ENDBRANCH   1  10
TORSDOF 12
ENDMDL
MODEL 9
REMARK VINA RESULT:    -5.229      1.502      2.892
REMARK INTER + INTRA:          -9.970
REMARK INTER:                  -8.662
REMARK INTRA:                  -1.309
REMARK UNBOUND:                -1.073
REMARK SMILES CCCCCCCCCCCCCC(=O)[O-]
REMARK SMILES IDX 8 1 9 2 10 3 11 4 12 5 13 6 14 7 15 8 16 9 7 10 6 11 5 12
REMARK SMILES IDX 4 13 3 14 2 15 1 16
REMARK H PARENT
REMARK Flexibility Score: inf
ROOT
ATOM      1  C   UNL     1      15.721  21.340  12.167  1.00  0.00     0.000 C 
ENDROOT
BRANCH   1   2
ATOM      2  C   UNL     1      15.368  22.567  13.023  1.00  0.00     0.000 C 
BRANCH   2   3
ATOM      3  C   UNL     1      14.874  22.183  14.429  1.00  0.00     0.000 C 
BRANCH   3   4
ATOM      4  C   UNL     1      15.996  21.615  15.314  1.00  0.00     0.000 C 
BRANCH   4   5
ATOM      5  C   UNL     1      15.472  20.643  16.385  1.00  0.00     0.006 C 
BRANCH   5   6
ATOM      6  C   UNL     1      16.362  20.624  17.634  1.00  0.00     0.053 C 
BRANCH   6   7
ATOM      7  C   UNL     1      15.607  20.179  18.850  1.00  0.00     0.041 C 
ATOM      8  O   UNL     1      15.847  20.697  19.971  1.00  0.00    -0.550 OA
ATOM      9  O   UNL     1      14.616  19.212  18.736  1.00  0.00    -0.550 OA
ENDBRANCH   6   7
ENDBRANCH   5   6
ENDBRANCH   4   5
ENDBRANCH   3   4
ENDBRANCH   2   3
ENDBRANCH   1   2
BRANCH   1  10
ATOM     10  C   UNL     1      17.079  21.482  11.458  1.00  0.00     0.000 C 
BRANCH  10  11
ATOM     11  C   UNL     1      18.004  20.273  11.688  1.00  0.00    -0.000 C 
BRANCH  11  12
ATOM     12  C   UNL     1      17.632  19.390  12.894  1.00  0.00    -0.000 C 
BRANCH  12  13
ATOM     13  C   UNL     1      18.859  18.934  13.703  1.00  0.00    -0.000 C 
BRANCH  13  14
ATOM     14  C   UNL     1      18.625  19.012  15.220  1.00  0.00    -0.000 C 
BRANCH  14  15
ATOM     15  C   UNL     1      19.065  17.736  15.954  1.00  0.00    -0.003 C 
ATOM     16  C   UNL     1      18.059  17.351  17.035  1.00  0.00     0.004 C 
ENDBRANCH  14  15
ENDBRANCH  13  14
ENDBRANCH  12  13
ENDBRANCH  11  12
ENDBRANCH  10  11
ENDBRANCH   1  10
TORSDOF 12
ENDMDL
