MODEL 1
REMARK VINA RESULT:    -3.402      0.000      0.000
REMARK INTER + INTRA:         -10.905
REMARK INTER:                  -7.379
REMARK INTRA:                  -3.526
REMARK UNBOUND:                -3.526
REMARK SMILES CCCCCCCCCCCCCCCCCCCCCC(=O)[O-]
REMARK SMILES IDX 12 1 11 2 10 3 9 4 8 5 7 6 6 7 5 8 4 9 3 10 2 11 1 12 13 13
REMARK SMILES IDX 14 14 15 15 16 16 17 17 18 18 19 19 20 20 21 21 22 22 23 23
REMARK SMILES IDX 24 24
REMARK H PARENT
REMARK Flexibility Score: inf
ROOT
ATOM      1  C   UNL     1      -4.622 -67.073  -3.716  1.00  0.00     0.000 C 
ENDROOT
BRANCH   1   2
ATOM      2  C   UNL     1      -4.677 -65.808  -2.842  1.00  0.00     0.000 C 
BRANCH   2   3
ATOM      3  C   UNL     1      -3.868 -64.638  -3.443  1.00  0.00     0.000 C 
BRANCH   3   4
ATOM      4  C   UNL     1      -4.724 -63.409  -3.806  1.00  0.00    -0.000 C 
BRANCH   4   5
ATOM      5  C   UNL     1      -6.239 -63.592  -3.610  1.00  0.00    -0.000 C 
BRANCH   5   6
ATOM      6  C   UNL     1      -7.130 -62.647  -4.445  1.00  0.00    -0.000 C 
BRANCH   6   7
ATOM      7  C   UNL     1      -6.482 -62.094  -5.727  1.00  0.00    -0.000 C 
BRANCH   7   8
ATOM      8  C   UNL     1      -7.218 -62.528  -7.004  1.00  0.00    -0.000 C 
BRANCH   8   9
ATOM      9  C   UNL     1      -8.627 -63.077  -6.721  1.00  0.00    -0.000 C 
BRANCH   9  10
ATOM     10  C   UNL     1      -8.850 -64.508  -7.257  1.00  0.00    -0.000 C 
BRANCH  10  11
ATOM     11  C   UNL     1      -8.866 -64.554  -8.792  1.00  0.00    -0.003 C 
ATOM     12  C   UNL     1      -8.278 -65.862  -9.314  1.00  0.00     0.004 C 
ENDBRANCH  10  11
ENDBRANCH   9  10
ENDBRANCH   8   9
ENDBRANCH   7   8
ENDBRANCH   6   7
ENDBRANCH   5   6
ENDBRANCH   4   5
ENDBRANCH   3   4
ENDBRANCH   2   3
ENDBRANCH   1   2
BRANCH   1  13
ATOM     13  C   UNL     1      -3.830 -66.859  -5.017  1.00  0.00     0.000 C 
BRANCH  13  14
ATOM     14  C   UNL     1      -4.702 -67.015  -6.272  1.00  0.00     0.000 C 
BRANCH  14  15
ATOM     15  C   UNL     1      -5.191 -65.648  -6.773  1.00  0.00     0.000 C 
BRANCH  15  16
ATOM     16  C   UNL     1      -4.455 -65.171  -8.039  1.00  0.00     0.000 C 
BRANCH  16  17
ATOM     17  C   UNL     1      -3.828 -63.767  -7.937  1.00  0.00     0.000 C 
BRANCH  17  18
ATOM     18  C   UNL     1      -2.800 -63.596  -6.803  1.00  0.00     0.000 C 
BRANCH  18  19
ATOM     19  C   UNL     1      -1.667 -64.648  -6.828  1.00  0.00     0.000 C 
BRANCH  19  20
ATOM     20  C   UNL     1      -0.293 -64.077  -7.232  1.00  0.00     0.006 C 
BRANCH  20  21
ATOM     21  C   UNL     1       0.032 -62.718  -6.588  1.00  0.00     0.053 C 
BRANCH  21  22
ATOM     22  C   UNL     1       0.646 -62.873  -5.231  1.00  0.00     0.041 C 
ATOM     23  O   UNL     1       0.527 -61.959  -4.373  1.00  0.00    -0.550 OA
ATOM     24  O   UNL     1       1.375 -64.015  -4.924  1.00  0.00    -0.550 OA
ENDBRANCH  21  22
ENDBRANCH  20  21
ENDBRANCH  19  20
ENDBRANCH  18  19
ENDBRANCH  17  18
ENDBRANCH  16  17
ENDBRANCH  15  16
ENDBRANCH  14  15
ENDBRANCH  13  14
ENDBRANCH   1  13
TORSDOF 20
ENDMDL
MODEL 2
REMARK VINA RESULT:    -3.377     11.152     14.389
REMARK INTER + INTRA:         -10.851
REMARK INTER:                  -7.517
REMARK INTRA:                  -3.335
REMARK UNBOUND:                -3.526
REMARK SMILES CCCCCCCCCCCCCCCCCCCCCC(=O)[O-]
REMARK SMILES IDX 12 1 11 2 10 3 9 4 8 5 7 6 6 7 5 8 4 9 3 10 2 11 1 12 13 13
REMARK SMILES IDX 14 14 15 15 16 16 17 17 18 18 19 19 20 20 21 21 22 22 23 23
REMARK SMILES IDX 24 24
REMARK H PARENT
REMARK Flexibility Score: inf
ROOT
ATOM      1  C   UNL     1     -13.394 -75.779  -8.626  1.00  0.00     0.000 C 
ENDROOT
BRANCH   1   2
ATOM      2  C   UNL     1     -13.777 -77.147  -8.037  1.00  0.00     0.000 C 
BRANCH   2   3
ATOM      3  C   UNL     1     -14.814 -77.032  -6.899  1.00  0.00     0.000 C 
BRANCH   3   4
ATOM      4  C   UNL     1     -16.278 -77.073  -7.382  1.00  0.00    -0.000 C 
BRANCH   4   5
ATOM      5  C   UNL     1     -17.213 -76.055  -6.706  1.00  0.00    -0.000 C 
BRANCH   5   6
ATOM      6  C   UNL     1     -17.798 -74.978  -7.644  1.00  0.00    -0.000 C 
BRANCH   6   7
ATOM      7  C   UNL     1     -16.809 -74.382  -8.662  1.00  0.00    -0.000 C 
BRANCH   7   8
ATOM      8  C   UNL     1     -16.353 -72.962  -8.291  1.00  0.00    -0.000 C 
BRANCH   8   9
ATOM      9  C   UNL     1     -17.485 -71.926  -8.398  1.00  0.00    -0.000 C 
BRANCH   9  10
ATOM     10  C   UNL     1     -17.818 -71.525  -9.852  1.00  0.00    -0.000 C 
BRANCH  10  11
ATOM     11  C   UNL     1     -17.405 -70.078 -10.160  1.00  0.00    -0.003 C 
ATOM     12  C   UNL     1     -17.045 -69.906 -11.632  1.00  0.00     0.004 C 
ENDBRANCH  10  11
ENDBRANCH   9  10
ENDBRANCH   8   9
ENDBRANCH   7   8
ENDBRANCH   6   7
ENDBRANCH   5   6
ENDBRANCH   4   5
ENDBRANCH   3   4
ENDBRANCH   2   3
ENDBRANCH   1   2
BRANCH   1  13
ATOM     13  C   UNL     1     -13.222 -75.820 -10.154  1.00  0.00     0.000 C 
BRANCH  13  14
ATOM     14  C   UNL     1     -14.433 -76.436 -10.869  1.00  0.00     0.000 C 
BRANCH  14  15
ATOM     15  C   UNL     1     -15.153 -75.388 -11.731  1.00  0.00     0.000 C 
BRANCH  15  16
ATOM     16  C   UNL     1     -14.254 -74.196 -12.106  1.00  0.00     0.000 C 
BRANCH  16  17
ATOM     17  C   UNL     1     -14.803 -72.814 -11.702  1.00  0.00     0.000 C 
BRANCH  17  18
ATOM     18  C   UNL     1     -13.821 -71.932 -10.908  1.00  0.00     0.000 C 
BRANCH  18  19
ATOM     19  C   UNL     1     -12.358 -72.432 -10.957  1.00  0.00     0.000 C 
BRANCH  19  20
ATOM     20  C   UNL     1     -11.648 -72.422  -9.588  1.00  0.00     0.006 C 
BRANCH  20  21
ATOM     21  C   UNL     1     -10.188 -72.904  -9.639  1.00  0.00     0.053 C 
BRANCH  21  22
ATOM     22  C   UNL     1      -9.237 -71.860  -9.141  1.00  0.00     0.041 C 
ATOM     23  O   UNL     1      -9.583 -71.074  -8.220  1.00  0.00    -0.550 OA
ATOM     24  O   UNL     1      -7.977 -71.735  -9.715  1.00  0.00    -0.550 OA
ENDBRANCH  21  22
ENDBRANCH  20  21
ENDBRANCH  19  20
ENDBRANCH  18  19
ENDBRANCH  17  18
ENDBRANCH  16  17
ENDBRANCH  15  16
ENDBRANCH  14  15
ENDBRANCH  13  14
ENDBRANCH   1  13
TORSDOF 20
ENDMDL
MODEL 3
REMARK VINA RESULT:    -3.332      4.088      6.554
REMARK INTER + INTRA:         -10.753
REMARK INTER:                  -7.951
REMARK INTRA:                  -2.802
REMARK UNBOUND:                -3.526
REMARK SMILES CCCCCCCCCCCCCCCCCCCCCC(=O)[O-]
REMARK SMILES IDX 12 1 11 2 10 3 9 4 8 5 7 6 6 7 5 8 4 9 3 10 2 11 1 12 13 13
REMARK SMILES IDX 14 14 15 15 16 16 17 17 18 18 19 19 20 20 21 21 22 22 23 23
REMARK SMILES IDX 24 24
REMARK H PARENT
REMARK Flexibility Score: inf
ROOT
ATOM      1  C   UNL     1      -3.889 -66.484  -5.564  1.00  0.00     0.000 C 
ENDROOT
BRANCH   1   2
ATOM      2  C   UNL     1      -4.683 -66.956  -6.794  1.00  0.00     0.000 C 
BRANCH   2   3
ATOM      3  C   UNL     1      -5.292 -65.783  -7.592  1.00  0.00     0.000 C 
BRANCH   3   4
ATOM      4  C   UNL     1      -4.418 -64.513  -7.598  1.00  0.00    -0.000 C 
BRANCH   4   5
ATOM      5  C   UNL     1      -5.185 -63.196  -7.380  1.00  0.00    -0.000 C 
BRANCH   5   6
ATOM      6  C   UNL     1      -5.418 -62.808  -5.904  1.00  0.00    -0.000 C 
BRANCH   6   7
ATOM      7  C   UNL     1      -6.670 -63.422  -5.251  1.00  0.00    -0.000 C 
BRANCH   7   8
ATOM      8  C   UNL     1      -7.977 -62.954  -5.909  1.00  0.00    -0.000 C 
BRANCH   8   9
ATOM      9  C   UNL     1      -8.677 -64.071  -6.702  1.00  0.00    -0.000 C 
BRANCH   9  10
ATOM     10  C   UNL     1      -8.792 -63.774  -8.213  1.00  0.00    -0.000 C 
BRANCH  10  11
ATOM     11  C   UNL     1      -8.725 -62.269  -8.513  1.00  0.00    -0.003 C 
ATOM     12  C   UNL     1      -9.843 -61.842  -9.459  1.00  0.00     0.004 C 
ENDBRANCH  10  11
ENDBRANCH   9  10
ENDBRANCH   8   9
ENDBRANCH   7   8
ENDBRANCH   6   7
ENDBRANCH   5   6
ENDBRANCH   4   5
ENDBRANCH   3   4
ENDBRANCH   2   3
ENDBRANCH   1   2
BRANCH   1  13
ATOM     13  C   UNL     1      -4.230 -67.284  -4.296  1.00  0.00     0.000 C 
BRANCH  13  14
ATOM     14  C   UNL     1      -4.613 -66.382  -3.114  1.00  0.00     0.000 C 
BRANCH  14  15
ATOM     15  C   UNL     1      -3.983 -64.988  -3.261  1.00  0.00     0.000 C 
BRANCH  15  16
ATOM     16  C   UNL     1      -4.292 -64.059  -2.072  1.00  0.00     0.000 C 
BRANCH  16  17
ATOM     17  C   UNL     1      -5.410 -64.552  -1.133  1.00  0.00     0.000 C 
BRANCH  17  18
ATOM     18  C   UNL     1      -6.740 -63.784  -1.248  1.00  0.00     0.000 C 
BRANCH  18  19
ATOM     19  C   UNL     1      -7.968 -64.698  -1.466  1.00  0.00     0.000 C 
BRANCH  19  20
ATOM     20  C   UNL     1      -9.078 -64.515  -0.412  1.00  0.00     0.006 C 
BRANCH  20  21
ATOM     21  C   UNL     1      -8.566 -64.517   1.039  1.00  0.00     0.053 C 
BRANCH  21  22
ATOM     22  C   UNL     1      -8.923 -63.252   1.759  1.00  0.00     0.041 C 
ATOM     23  O   UNL     1      -9.308 -62.242   1.113  1.00  0.00    -0.550 OA
ATOM     24  O   UNL     1      -8.801 -63.180   3.141  1.00  0.00    -0.550 OA
ENDBRANCH  21  22
ENDBRANCH  20  21
ENDBRANCH  19  20
ENDBRANCH  18  19
ENDBRANCH  17  18
ENDBRANCH  16  17
ENDBRANCH  15  16
ENDBRANCH  14  15
ENDBRANCH  13  14
ENDBRANCH   1  13
TORSDOF 20
ENDMDL
MODEL 4
REMARK VINA RESULT:    -3.327     11.873     15.781
REMARK INTER + INTRA:         -10.742
REMARK INTER:                  -7.495
REMARK INTRA:                  -3.247
REMARK UNBOUND:                -3.526
REMARK SMILES CCCCCCCCCCCCCCCCCCCCCC(=O)[O-]
REMARK SMILES IDX 12 1 11 2 10 3 9 4 8 5 7 6 6 7 5 8 4 9 3 10 2 11 1 12 13 13
REMARK SMILES IDX 14 14 15 15 16 16 17 17 18 18 19 19 20 20 21 21 22 22 23 23
REMARK SMILES IDX 24 24
REMARK H PARENT
REMARK Flexibility Score: inf
ROOT
ATOM      1  C   UNL     1     -13.589 -75.229  -9.373  1.00  0.00     0.000 C 
ENDROOT
BRANCH   1   2
ATOM      2  C   UNL     1     -13.585 -75.901 -10.756  1.00  0.00     0.000 C 
BRANCH   2   3
ATOM      3  C   UNL     1     -14.987 -75.935 -11.402  1.00  0.00     0.000 C 
BRANCH   3   4
ATOM      4  C   UNL     1     -15.493 -74.555 -11.868  1.00  0.00    -0.000 C 
BRANCH   4   5
ATOM      5  C   UNL     1     -14.472 -73.724 -12.664  1.00  0.00    -0.000 C 
BRANCH   5   6
ATOM      6  C   UNL     1     -14.564 -72.197 -12.460  1.00  0.00    -0.000 C 
BRANCH   6   7
ATOM      7  C   UNL     1     -13.273 -71.518 -11.970  1.00  0.00    -0.000 C 
BRANCH   7   8
ATOM      8  C   UNL     1     -12.850 -71.981 -10.566  1.00  0.00    -0.000 C 
BRANCH   8   9
ATOM      9  C   UNL     1     -11.353 -71.759 -10.293  1.00  0.00    -0.000 C 
BRANCH   9  10
ATOM     10  C   UNL     1     -10.594 -73.053  -9.931  1.00  0.00    -0.000 C 
BRANCH  10  11
ATOM     11  C   UNL     1      -9.164 -72.768  -9.447  1.00  0.00    -0.003 C 
ATOM     12  C   UNL     1      -9.086 -71.439  -8.702  1.00  0.00     0.004 C 
ENDBRANCH  10  11
ENDBRANCH   9  10
ENDBRANCH   8   9
ENDBRANCH   7   8
ENDBRANCH   6   7
ENDBRANCH   5   6
ENDBRANCH   4   5
ENDBRANCH   3   4
ENDBRANCH   2   3
ENDBRANCH   1   2
BRANCH   1  13
ATOM     13  C   UNL     1     -13.299 -76.219  -8.232  1.00  0.00     0.000 C 
BRANCH  13  14
ATOM     14  C   UNL     1     -14.327 -77.357  -8.162  1.00  0.00     0.000 C 
BRANCH  14  15
ATOM     15  C   UNL     1     -15.076 -77.338  -6.821  1.00  0.00     0.000 C 
BRANCH  15  16
ATOM     16  C   UNL     1     -16.052 -76.154  -6.693  1.00  0.00     0.000 C 
BRANCH  16  17
ATOM     17  C   UNL     1     -17.209 -76.151  -7.711  1.00  0.00     0.000 C 
BRANCH  17  18
ATOM     18  C   UNL     1     -17.254 -74.922  -8.639  1.00  0.00     0.000 C 
BRANCH  18  19
ATOM     19  C   UNL     1     -16.694 -73.634  -7.992  1.00  0.00     0.000 C 
BRANCH  19  20
ATOM     20  C   UNL     1     -16.474 -72.479  -8.988  1.00  0.00     0.006 C 
BRANCH  20  21
ATOM     21  C   UNL     1     -17.764 -71.983  -9.663  1.00  0.00     0.053 C 
BRANCH  21  22
ATOM     22  C   UNL     1     -17.598 -70.616 -10.254  1.00  0.00     0.041 C 
ATOM     23  O   UNL     1     -17.488 -70.474 -11.500  1.00  0.00    -0.550 OA
ATOM     24  O   UNL     1     -17.534 -69.503  -9.425  1.00  0.00    -0.550 OA
ENDBRANCH  21  22
ENDBRANCH  20  21
ENDBRANCH  19  20
ENDBRANCH  18  19
ENDBRANCH  17  18
ENDBRANCH  16  17
ENDBRANCH  15  16
ENDBRANCH  14  15
ENDBRANCH  13  14
ENDBRANCH   1  13
TORSDOF 20
ENDMDL
MODEL 5
REMARK VINA RESULT:    -3.326      4.095      6.355
REMARK INTER + INTRA:         -10.741
REMARK INTER:                  -7.594
REMARK INTRA:                  -3.148
REMARK UNBOUND:                -3.526
REMARK SMILES CCCCCCCCCCCCCCCCCCCCCC(=O)[O-]
REMARK SMILES IDX 12 1 11 2 10 3 9 4 8 5 7 6 6 7 5 8 4 9 3 10 2 11 1 12 13 13
REMARK SMILES IDX 14 14 15 15 16 16 17 17 18 18 19 19 20 20 21 21 22 22 23 23
REMARK SMILES IDX 24 24
REMARK H PARENT
REMARK Flexibility Score: inf
ROOT
ATOM      1  C   UNL     1      -4.099 -66.850  -4.137  1.00  0.00     0.000 C 
ENDROOT
BRANCH   1   2
ATOM      2  C   UNL     1      -3.749 -66.438  -5.577  1.00  0.00     0.000 C 
BRANCH   2   3
ATOM      3  C   UNL     1      -4.685 -67.085  -6.621  1.00  0.00     0.000 C 
BRANCH   3   4
ATOM      4  C   UNL     1      -5.555 -66.072  -7.392  1.00  0.00    -0.000 C 
BRANCH   4   5
ATOM      5  C   UNL     1      -4.771 -64.980  -8.141  1.00  0.00    -0.000 C 
BRANCH   5   6
ATOM      6  C   UNL     1      -4.999 -63.541  -7.631  1.00  0.00    -0.000 C 
BRANCH   6   7
ATOM      7  C   UNL     1      -5.728 -62.603  -8.611  1.00  0.00    -0.000 C 
BRANCH   7   8
ATOM      8  C   UNL     1      -6.751 -61.691  -7.916  1.00  0.00    -0.000 C 
BRANCH   8   9
ATOM      9  C   UNL     1      -8.190 -62.225  -8.020  1.00  0.00    -0.000 C 
BRANCH   9  10
ATOM     10  C   UNL     1      -8.739 -62.778  -6.687  1.00  0.00    -0.000 C 
BRANCH  10  11
ATOM     11  C   UNL     1      -8.946 -64.300  -6.736  1.00  0.00    -0.003 C 
ATOM     12  C   UNL     1      -8.821 -64.830  -8.161  1.00  0.00     0.004 C 
ENDBRANCH  10  11
ENDBRANCH   9  10
ENDBRANCH   8   9
ENDBRANCH   7   8
ENDBRANCH   6   7
ENDBRANCH   5   6
ENDBRANCH   4   5
ENDBRANCH   3   4
ENDBRANCH   2   3
ENDBRANCH   1   2
BRANCH   1  13
ATOM     13  C   UNL     1      -4.569 -65.664  -3.279  1.00  0.00     0.000 C 
BRANCH  13  14
ATOM     14  C   UNL     1      -4.482 -64.324  -4.025  1.00  0.00     0.000 C 
BRANCH  14  15
ATOM     15  C   UNL     1      -5.884 -63.793  -4.363  1.00  0.00     0.000 C 
BRANCH  15  16
ATOM     16  C   UNL     1      -6.008 -62.268  -4.190  1.00  0.00     0.000 C 
BRANCH  16  17
ATOM     17  C   UNL     1      -6.976 -61.816  -3.080  1.00  0.00     0.000 C 
BRANCH  17  18
ATOM     18  C   UNL     1      -7.566 -62.957  -2.229  1.00  0.00     0.000 C 
BRANCH  18  19
ATOM     19  C   UNL     1      -6.886 -63.118  -0.850  1.00  0.00     0.000 C 
BRANCH  19  20
ATOM     20  C   UNL     1      -7.367 -64.350  -0.057  1.00  0.00     0.006 C 
BRANCH  20  21
ATOM     21  C   UNL     1      -7.756 -64.041   1.399  1.00  0.00     0.053 C 
BRANCH  21  22
ATOM     22  C   UNL     1      -8.911 -63.090   1.480  1.00  0.00     0.041 C 
ATOM     23  O   UNL     1      -8.917 -62.173   2.343  1.00  0.00    -0.550 OA
ATOM     24  O   UNL     1      -9.993 -63.235   0.621  1.00  0.00    -0.550 OA
ENDBRANCH  21  22
ENDBRANCH  20  21
ENDBRANCH  19  20
ENDBRANCH  18  19
ENDBRANCH  17  18
ENDBRANCH  16  17
ENDBRANCH  15  16
ENDBRANCH  14  15
ENDBRANCH  13  14
ENDBRANCH   1  13
TORSDOF 20
ENDMDL
MODEL 6
REMARK VINA RESULT:    -3.273      1.688      3.481
REMARK INTER + INTRA:         -10.626
REMARK INTER:                  -7.044
REMARK INTRA:                  -3.582
REMARK UNBOUND:                -3.526
REMARK SMILES CCCCCCCCCCCCCCCCCCCCCC(=O)[O-]
REMARK SMILES IDX 12 1 11 2 10 3 9 4 8 5 7 6 6 7 5 8 4 9 3 10 2 11 1 12 13 13
REMARK SMILES IDX 14 14 15 15 16 16 17 17 18 18 19 19 20 20 21 21 22 22 23 23
REMARK SMILES IDX 24 24
REMARK H PARENT
REMARK Flexibility Score: inf
ROOT
ATOM      1  C   UNL     1      -4.252 -66.858  -3.900  1.00  0.00     0.000 C 
ENDROOT
BRANCH   1   2
ATOM      2  C   UNL     1      -3.595 -67.017  -5.282  1.00  0.00     0.000 C 
BRANCH   2   3
ATOM      3  C   UNL     1      -4.611 -67.404  -6.379  1.00  0.00     0.000 C 
BRANCH   3   4
ATOM      4  C   UNL     1      -5.267 -66.196  -7.076  1.00  0.00    -0.000 C 
BRANCH   4   5
ATOM      5  C   UNL     1      -4.405 -64.922  -7.115  1.00  0.00    -0.000 C 
BRANCH   5   6
ATOM      6  C   UNL     1      -5.127 -63.626  -6.688  1.00  0.00    -0.000 C 
BRANCH   6   7
ATOM      7  C   UNL     1      -6.490 -63.826  -6.003  1.00  0.00    -0.000 C 
BRANCH   7   8
ATOM      8  C   UNL     1      -7.451 -62.648  -6.227  1.00  0.00    -0.000 C 
BRANCH   8   9
ATOM      9  C   UNL     1      -8.810 -63.088  -6.795  1.00  0.00    -0.000 C 
BRANCH   9  10
ATOM     10  C   UNL     1      -8.866 -64.584  -7.173  1.00  0.00    -0.000 C 
BRANCH  10  11
ATOM     11  C   UNL     1      -8.703 -64.804  -8.684  1.00  0.00    -0.003 C 
ATOM     12  C   UNL     1      -9.050 -63.542  -9.468  1.00  0.00     0.004 C 
ENDBRANCH  10  11
ENDBRANCH   9  10
ENDBRANCH   8   9
ENDBRANCH   7   8
ENDBRANCH   6   7
ENDBRANCH   5   6
ENDBRANCH   4   5
ENDBRANCH   3   4
ENDBRANCH   2   3
ENDBRANCH   1   2
BRANCH   1  13
ATOM     13  C   UNL     1      -4.361 -65.388  -3.462  1.00  0.00     0.000 C 
BRANCH  13  14
ATOM     14  C   UNL     1      -5.137 -65.219  -2.148  1.00  0.00     0.000 C 
BRANCH  14  15
ATOM     15  C   UNL     1      -6.154 -64.072  -2.255  1.00  0.00     0.000 C 
BRANCH  15  16
ATOM     16  C   UNL     1      -5.535 -62.689  -1.977  1.00  0.00     0.000 C 
BRANCH  16  17
ATOM     17  C   UNL     1      -5.551 -61.717  -3.173  1.00  0.00     0.000 C 
BRANCH  17  18
ATOM     18  C   UNL     1      -4.182 -61.487  -3.841  1.00  0.00     0.000 C 
BRANCH  18  19
ATOM     19  C   UNL     1      -2.988 -62.001  -3.004  1.00  0.00     0.000 C 
BRANCH  19  20
ATOM     20  C   UNL     1      -1.878 -62.666  -3.842  1.00  0.00     0.006 C 
BRANCH  20  21
ATOM     21  C   UNL     1      -1.613 -61.972  -5.189  1.00  0.00     0.053 C 
BRANCH  21  22
ATOM     22  C   UNL     1      -1.377 -62.960  -6.291  1.00  0.00     0.041 C 
ATOM     23  O   UNL     1      -1.646 -62.655  -7.483  1.00  0.00    -0.550 OA
ATOM     24  O   UNL     1      -0.889 -64.227  -5.997  1.00  0.00    -0.550 OA
ENDBRANCH  21  22
ENDBRANCH  20  21
ENDBRANCH  19  20
ENDBRANCH  18  19
ENDBRANCH  17  18
ENDBRANCH  16  17
ENDBRANCH  15  16
ENDBRANCH  14  15
ENDBRANCH  13  14
ENDBRANCH   1  13
TORSDOF 20
ENDMDL
MODEL 7
REMARK VINA RESULT:    -3.271      1.265      4.986
REMARK INTER + INTRA:         -10.622
REMARK INTER:                  -7.440
REMARK INTRA:                  -3.182
REMARK UNBOUND:                -3.526
REMARK SMILES CCCCCCCCCCCCCCCCCCCCCC(=O)[O-]
REMARK SMILES IDX 12 1 11 2 10 3 9 4 8 5 7 6 6 7 5 8 4 9 3 10 2 11 1 12 13 13
REMARK SMILES IDX 14 14 15 15 16 16 17 17 18 18 19 19 20 20 21 21 22 22 23 23
REMARK SMILES IDX 24 24
REMARK H PARENT
REMARK Flexibility Score: inf
ROOT
ATOM      1  C   UNL     1      -9.135 -64.105  -6.751  1.00  0.00     0.000 C 
ENDROOT
BRANCH   1   2
ATOM      2  C   UNL     1      -8.735 -65.006  -7.932  1.00  0.00     0.000 C 
BRANCH   2   3
ATOM      3  C   UNL     1      -8.395 -64.199  -9.204  1.00  0.00     0.000 C 
BRANCH   3   4
ATOM      4  C   UNL     1      -6.969 -64.443  -9.736  1.00  0.00    -0.000 C 
BRANCH   4   5
ATOM      5  C   UNL     1      -6.461 -65.888  -9.589  1.00  0.00    -0.000 C 
BRANCH   5   6
ATOM      6  C   UNL     1      -5.174 -66.050  -8.752  1.00  0.00    -0.000 C 
BRANCH   6   7
ATOM      7  C   UNL     1      -5.393 -66.372  -7.263  1.00  0.00    -0.000 C 
BRANCH   7   8
ATOM      8  C   UNL     1      -4.084 -66.394  -6.458  1.00  0.00    -0.000 C 
BRANCH   8   9
ATOM      9  C   UNL     1      -4.164 -67.300  -5.217  1.00  0.00    -0.000 C 
BRANCH   9  10
ATOM     10  C   UNL     1      -4.224 -66.520  -3.887  1.00  0.00    -0.000 C 
BRANCH  10  11
ATOM     11  C   UNL     1      -4.508 -65.026  -4.106  1.00  0.00    -0.003 C 
ATOM     12  C   UNL     1      -5.370 -64.456  -2.983  1.00  0.00     0.004 C 
ENDBRANCH  10  11
ENDBRANCH   9  10
ENDBRANCH   8   9
ENDBRANCH   7   8
ENDBRANCH   6   7
ENDBRANCH   5   6
ENDBRANCH   4   5
ENDBRANCH   3   4
ENDBRANCH   2   3
ENDBRANCH   1   2
BRANCH   1  13
ATOM     13  C   UNL     1      -8.401 -62.754  -6.763  1.00  0.00     0.000 C 
BRANCH  13  14
ATOM     14  C   UNL     1      -7.651 -62.477  -5.452  1.00  0.00     0.000 C 
BRANCH  14  15
ATOM     15  C   UNL     1      -6.200 -62.055  -5.729  1.00  0.00     0.000 C 
BRANCH  15  16
ATOM     16  C   UNL     1      -5.562 -62.822  -6.902  1.00  0.00     0.000 C 
BRANCH  16  17
ATOM     17  C   UNL     1      -4.943 -61.935  -8.000  1.00  0.00     0.000 C 
BRANCH  17  18
ATOM     18  C   UNL     1      -3.435 -62.148  -8.232  1.00  0.00     0.000 C 
BRANCH  18  19
ATOM     19  C   UNL     1      -2.787 -63.136  -7.235  1.00  0.00     0.000 C 
BRANCH  19  20
ATOM     20  C   UNL     1      -1.254 -63.002  -7.130  1.00  0.00     0.006 C 
BRANCH  20  21
ATOM     21  C   UNL     1      -0.527 -64.336  -6.884  1.00  0.00     0.053 C 
BRANCH  21  22
ATOM     22  C   UNL     1       0.864 -64.128  -6.371  1.00  0.00     0.041 C 
ATOM     23  O   UNL     1       1.324 -64.876  -5.467  1.00  0.00    -0.550 OA
ATOM     24  O   UNL     1       1.643 -63.091  -6.868  1.00  0.00    -0.550 OA
ENDBRANCH  21  22
ENDBRANCH  20  21
ENDBRANCH  19  20
ENDBRANCH  18  19
ENDBRANCH  17  18
ENDBRANCH  16  17
ENDBRANCH  15  16
ENDBRANCH  14  15
ENDBRANCH  13  14
ENDBRANCH   1  13
TORSDOF 20
ENDMDL
MODEL 8
REMARK VINA RESULT:    -3.262      1.311      2.090
REMARK INTER + INTRA:         -10.603
REMARK INTER:                  -7.968
REMARK INTRA:                  -2.634
REMARK UNBOUND:                -3.526
REMARK SMILES CCCCCCCCCCCCCCCCCCCCCC(=O)[O-]
REMARK SMILES IDX 12 1 11 2 10 3 9 4 8 5 7 6 6 7 5 8 4 9 3 10 2 11 1 12 13 13
REMARK SMILES IDX 14 14 15 15 16 16 17 17 18 18 19 19 20 20 21 21 22 22 23 23
REMARK SMILES IDX 24 24
REMARK H PARENT
REMARK Flexibility Score: inf
ROOT
ATOM      1  C   UNL     1      -3.890 -65.035  -3.616  1.00  0.00     0.000 C 
ENDROOT
BRANCH   1   2
ATOM      2  C   UNL     1      -4.242 -64.436  -2.243  1.00  0.00     0.000 C 
BRANCH   2   3
ATOM      3  C   UNL     1      -5.725 -64.019  -2.143  1.00  0.00     0.000 C 
BRANCH   3   4
ATOM      4  C   UNL     1      -5.947 -62.493  -2.146  1.00  0.00    -0.000 C 
BRANCH   4   5
ATOM      5  C   UNL     1      -6.944 -61.984  -3.201  1.00  0.00    -0.000 C 
BRANCH   5   6
ATOM      6  C   UNL     1      -6.600 -62.347  -4.661  1.00  0.00    -0.000 C 
BRANCH   6   7
ATOM      7  C   UNL     1      -7.436 -63.485  -5.273  1.00  0.00    -0.000 C 
BRANCH   7   8
ATOM      8  C   UNL     1      -8.372 -63.004  -6.393  1.00  0.00    -0.000 C 
BRANCH   8   9
ATOM      9  C   UNL     1      -8.792 -64.136  -7.345  1.00  0.00    -0.000 C 
BRANCH   9  10
ATOM     10  C   UNL     1      -8.841 -63.709  -8.828  1.00  0.00    -0.000 C 
BRANCH  10  11
ATOM     11  C   UNL     1      -8.682 -62.190  -8.996  1.00  0.00    -0.003 C 
ATOM     12  C   UNL     1      -9.902 -61.577  -9.676  1.00  0.00     0.004 C 
ENDBRANCH  10  11
ENDBRANCH   9  10
ENDBRANCH   8   9
ENDBRANCH   7   8
ENDBRANCH   6   7
ENDBRANCH   5   6
ENDBRANCH   4   5
ENDBRANCH   3   4
ENDBRANCH   2   3
ENDBRANCH   1   2
BRANCH   1  13
ATOM     13  C   UNL     1      -4.305 -66.510  -3.743  1.00  0.00     0.000 C 
BRANCH  13  14
ATOM     14  C   UNL     1      -3.600 -67.225  -4.904  1.00  0.00     0.000 C 
BRANCH  14  15
ATOM     15  C   UNL     1      -4.623 -67.838  -5.873  1.00  0.00     0.000 C 
BRANCH  15  16
ATOM     16  C   UNL     1      -4.645 -67.143  -7.247  1.00  0.00     0.000 C 
BRANCH  16  17
ATOM     17  C   UNL     1      -5.436 -65.821  -7.294  1.00  0.00     0.000 C 
BRANCH  17  18
ATOM     18  C   UNL     1      -4.575 -64.546  -7.214  1.00  0.00     0.000 C 
BRANCH  18  19
ATOM     19  C   UNL     1      -3.159 -64.714  -7.812  1.00  0.00     0.000 C 
BRANCH  19  20
ATOM     20  C   UNL     1      -2.021 -64.469  -6.801  1.00  0.00     0.006 C 
BRANCH  20  21
ATOM     21  C   UNL     1      -0.630 -64.341  -7.446  1.00  0.00     0.053 C 
BRANCH  21  22
ATOM     22  C   UNL     1       0.446 -64.147  -6.422  1.00  0.00     0.041 C 
ATOM     23  O   UNL     1       0.813 -62.987  -6.100  1.00  0.00    -0.550 OA
ATOM     24  O   UNL     1       1.064 -65.250  -5.845  1.00  0.00    -0.550 OA
ENDBRANCH  21  22
ENDBRANCH  20  21
ENDBRANCH  19  20
ENDBRANCH  18  19
ENDBRANCH  17  18
ENDBRANCH  16  17
ENDBRANCH  15  16
ENDBRANCH  14  15
ENDBRANCH  13  14
ENDBRANCH   1  13
TORSDOF 20
ENDMDL
MODEL 9
REMARK VINA RESULT:    -3.241      1.197      3.096
REMARK INTER + INTRA:         -10.556
REMARK INTER:                  -7.185
REMARK INTRA:                  -3.371
REMARK UNBOUND:                -3.526
REMARK SMILES CCCCCCCCCCCCCCCCCCCCCC(=O)[O-]
REMARK SMILES IDX 12 1 11 2 10 3 9 4 8 5 7 6 6 7 5 8 4 9 3 10 2 11 1 12 13 13
REMARK SMILES IDX 14 14 15 15 16 16 17 17 18 18 19 19 20 20 21 21 22 22 23 23
REMARK SMILES IDX 24 24
REMARK H PARENT
REMARK Flexibility Score: inf
ROOT
ATOM      1  C   UNL     1      -6.218 -64.234  -2.183  1.00  0.00     0.000 C 
ENDROOT
BRANCH   1   2
ATOM      2  C   UNL     1      -4.754 -64.376  -1.732  1.00  0.00     0.000 C 
BRANCH   2   3
ATOM      3  C   UNL     1      -3.884 -65.115  -2.771  1.00  0.00     0.000 C 
BRANCH   3   4
ATOM      4  C   UNL     1      -4.690 -65.984  -3.757  1.00  0.00    -0.000 C 
BRANCH   4   5
ATOM      5  C   UNL     1      -3.847 -66.936  -4.623  1.00  0.00    -0.000 C 
BRANCH   5   6
ATOM      6  C   UNL     1      -4.276 -67.032  -6.103  1.00  0.00    -0.000 C 
BRANCH   6   7
ATOM      7  C   UNL     1      -5.316 -65.991  -6.556  1.00  0.00    -0.000 C 
BRANCH   7   8
ATOM      8  C   UNL     1      -5.491 -65.948  -8.082  1.00  0.00    -0.000 C 
BRANCH   8   9
ATOM      9  C   UNL     1      -6.609 -64.988  -8.525  1.00  0.00    -0.000 C 
BRANCH   9  10
ATOM     10  C   UNL     1      -7.606 -64.641  -7.398  1.00  0.00    -0.000 C 
BRANCH  10  11
ATOM     11  C   UNL     1      -8.690 -63.659  -7.868  1.00  0.00    -0.003 C 
ATOM     12  C   UNL     1      -8.124 -62.253  -8.045  1.00  0.00     0.004 C 
ENDBRANCH  10  11
ENDBRANCH   9  10
ENDBRANCH   8   9
ENDBRANCH   7   8
ENDBRANCH   6   7
ENDBRANCH   5   6
ENDBRANCH   4   5
ENDBRANCH   3   4
ENDBRANCH   2   3
ENDBRANCH   1   2
BRANCH   1  13
ATOM     13  C   UNL     1      -6.494 -62.890  -2.879  1.00  0.00     0.000 C 
BRANCH  13  14
ATOM     14  C   UNL     1      -6.762 -63.048  -4.383  1.00  0.00     0.000 C 
BRANCH  14  15
ATOM     15  C   UNL     1      -5.848 -62.124  -5.203  1.00  0.00     0.000 C 
BRANCH  15  16
ATOM     16  C   UNL     1      -4.433 -62.698  -5.403  1.00  0.00     0.000 C 
BRANCH  16  17
ATOM     17  C   UNL     1      -3.792 -62.389  -6.769  1.00  0.00     0.000 C 
BRANCH  17  18
ATOM     18  C   UNL     1      -2.784 -63.442  -7.266  1.00  0.00     0.000 C 
BRANCH  18  19
ATOM     19  C   UNL     1      -1.662 -63.757  -6.249  1.00  0.00     0.000 C 
BRANCH  19  20
ATOM     20  C   UNL     1      -0.567 -62.675  -6.173  1.00  0.00     0.006 C 
BRANCH  20  21
ATOM     21  C   UNL     1       0.833 -63.175  -6.570  1.00  0.00     0.053 C 
BRANCH  21  22
ATOM     22  C   UNL     1       1.484 -63.950  -5.466  1.00  0.00     0.041 C 
ATOM     23  O   UNL     1       2.114 -63.349  -4.556  1.00  0.00    -0.550 OA
ATOM     24  O   UNL     1       1.420 -65.338  -5.458  1.00  0.00    -0.550 OA
ENDBRANCH  21  22
ENDBRANCH  20  21
ENDBRANCH  19  20
ENDBRANCH  18  19
ENDBRANCH  17  18
ENDBRANCH  16  17
ENDBRANCH  15  16
ENDBRANCH  14  15
ENDBRANCH  13  14
ENDBRANCH   1  13
TORSDOF 20
ENDMDL
