MODEL 1
REMARK VINA RESULT:    -3.183      0.000      0.000
REMARK INTER + INTRA:          -4.750
REMARK INTER:                  -4.021
REMARK INTRA:                  -0.729
REMARK UNBOUND:                -0.729
REMARK SMILES O=C(C=Cc1ccc(O)cc1)c1ccc(O)cc1O
REMARK SMILES IDX 4 1 3 2 5 3 6 4 7 5 8 6 11 7 10 8 9 9 2 11 1 12 12 13 18 14
REMARK SMILES IDX 13 15 17 16 14 17 15 18 19 19 16 21
REMARK H PARENT 9 10 19 20 16 22
REMARK Flexibility Score: inf
ROOT
ATOM      1  C   UNL     1       2.905  -2.339  19.016  1.00  0.00     0.012 C 
ATOM      2  C   UNL     1       4.055  -2.737  18.451  1.00  0.00     0.053 C 
ENDROOT
BRANCH   1   3
ATOM      3  C   UNL     1       1.569  -2.823  18.590  1.00  0.00    -0.025 A 
ATOM      4  C   UNL     1       0.434  -2.084  18.967  1.00  0.00     0.012 A 
ATOM      5  C   UNL     1      -0.845  -2.508  18.597  1.00  0.00     0.047 A 
ATOM      6  C   UNL     1      -1.011  -3.683  17.853  1.00  0.00     0.115 A 
ATOM      7  C   UNL     1       1.393  -4.013  17.854  1.00  0.00     0.012 A 
ATOM      8  C   UNL     1       0.111  -4.433  17.487  1.00  0.00     0.047 A 
BRANCH   6   9
ATOM      9  O   UNL     1      -2.280  -4.115  17.478  1.00  0.00    -0.508 OA
ATOM     10  H   UNL     1      -2.420  -4.997  17.000  1.00  0.00     0.293 HD
ENDBRANCH   6   9
ENDBRANCH   1   3
BRANCH   2  11
ATOM     11  C   UNL     1       5.369  -2.221  18.892  1.00  0.00     0.189 C 
ATOM     12  O   UNL     1       6.268  -1.982  18.040  1.00  0.00    -0.289 OA
BRANCH  11  13
ATOM     13  C   UNL     1       5.670  -2.026  20.330  1.00  0.00     0.064 A 
ATOM     14  C   UNL     1       5.832  -0.740  20.890  1.00  0.00     0.130 A 
ATOM     15  C   UNL     1       5.826  -3.155  21.154  1.00  0.00     0.020 A 
ATOM     16  C   UNL     1       6.102  -0.604  22.260  1.00  0.00     0.093 A 
ATOM     17  C   UNL     1       6.102  -3.009  22.516  1.00  0.00     0.047 A 
ATOM     18  C   UNL     1       6.236  -1.736  23.073  1.00  0.00     0.119 A 
BRANCH  14  19
ATOM     19  O   UNL     1       5.751   0.399  20.088  1.00  0.00    -0.507 OA
ATOM     20  H   UNL     1       5.963   0.368  19.098  1.00  0.00     0.293 HD
ENDBRANCH  14  19
BRANCH  18  21
ATOM     21  O   UNL     1       6.507  -1.606  24.433  1.00  0.00    -0.508 OA
ATOM     22  H   UNL     1       7.439  -1.748  24.804  1.00  0.00     0.293 HD
ENDBRANCH  18  21
ENDBRANCH  11  13
ENDBRANCH   2  11
TORSDOF 6
ENDMDL
MODEL 2
REMARK VINA RESULT:    -3.055      4.838      7.072
REMARK INTER + INTRA:          -4.588
REMARK INTER:                  -3.854
REMARK INTRA:                  -0.734
REMARK UNBOUND:                -0.729
REMARK SMILES O=C(C=Cc1ccc(O)cc1)c1ccc(O)cc1O
REMARK SMILES IDX 4 1 3 2 5 3 6 4 7 5 8 6 11 7 10 8 9 9 2 11 1 12 12 13 18 14
REMARK SMILES IDX 13 15 17 16 14 17 15 18 19 19 16 21
REMARK H PARENT 9 10 19 20 16 22
REMARK Flexibility Score: inf
ROOT
ATOM      1  C   UNL     1      -1.578  -1.971  22.181  1.00  0.00     0.012 C 
ATOM      2  C   UNL     1      -2.230  -2.651  21.227  1.00  0.00     0.053 C 
ENDROOT
BRANCH   1   3
ATOM      3  C   UNL     1      -2.082  -1.809  23.566  1.00  0.00    -0.025 A 
ATOM      4  C   UNL     1      -1.153  -1.617  24.603  1.00  0.00     0.012 A 
ATOM      5  C   UNL     1      -1.582  -1.470  25.925  1.00  0.00     0.047 A 
ATOM      6  C   UNL     1      -2.948  -1.524  26.233  1.00  0.00     0.115 A 
ATOM      7  C   UNL     1      -3.454  -1.878  23.887  1.00  0.00     0.012 A 
ATOM      8  C   UNL     1      -3.879  -1.731  25.211  1.00  0.00     0.047 A 
BRANCH   6   9
ATOM      9  O   UNL     1      -3.387  -1.379  27.546  1.00  0.00    -0.508 OA
ATOM     10  H   UNL     1      -3.190  -0.541  28.081  1.00  0.00     0.293 HD
ENDBRANCH   6   9
ENDBRANCH   1   3
BRANCH   2  11
ATOM     11  C   UNL     1      -1.704  -2.778  19.850  1.00  0.00     0.189 C 
ATOM     12  O   UNL     1      -2.491  -2.696  18.867  1.00  0.00    -0.289 OA
BRANCH  11  13
ATOM     13  C   UNL     1      -0.269  -3.052  19.603  1.00  0.00     0.064 A 
ATOM     14  C   UNL     1       0.579  -2.097  18.999  1.00  0.00     0.130 A 
ATOM     15  C   UNL     1       0.256  -4.307  19.955  1.00  0.00     0.020 A 
ATOM     16  C   UNL     1       1.935  -2.396  18.798  1.00  0.00     0.093 A 
ATOM     17  C   UNL     1       1.608  -4.597  19.745  1.00  0.00     0.047 A 
ATOM     18  C   UNL     1       2.450  -3.643  19.171  1.00  0.00     0.119 A 
BRANCH  14  19
ATOM     19  O   UNL     1       0.075  -0.867  18.576  1.00  0.00    -0.507 OA
ATOM     20  H   UNL     1      -0.812  -0.794  18.090  1.00  0.00     0.293 HD
ENDBRANCH  14  19
BRANCH  18  21
ATOM     21  O   UNL     1       3.795  -3.946  18.971  1.00  0.00    -0.508 OA
ATOM     22  H   UNL     1       4.395  -3.348  18.415  1.00  0.00     0.293 HD
ENDBRANCH  18  21
ENDBRANCH  11  13
ENDBRANCH   2  11
TORSDOF 6
ENDMDL
MODEL 3
REMARK VINA RESULT:    -3.000      3.999      7.120
REMARK INTER + INTRA:          -4.519
REMARK INTER:                  -3.839
REMARK INTRA:                  -0.680
REMARK UNBOUND:                -0.729
REMARK SMILES O=C(C=Cc1ccc(O)cc1)c1ccc(O)cc1O
REMARK SMILES IDX 4 1 3 2 5 3 6 4 7 5 8 6 11 7 10 8 9 9 2 11 1 12 12 13 18 14
REMARK SMILES IDX 13 15 17 16 14 17 15 18 19 19 16 21
REMARK H PARENT 9 10 19 20 16 22
REMARK Flexibility Score: inf
ROOT
ATOM      1  C   UNL     1       0.075  -1.699  18.697  1.00  0.00     0.012 C 
ATOM      2  C   UNL     1      -1.255  -1.855  18.618  1.00  0.00     0.053 C 
ENDROOT
BRANCH   1   3
ATOM      3  C   UNL     1       1.006  -2.775  19.116  1.00  0.00    -0.025 A 
ATOM      4  C   UNL     1       2.386  -2.578  18.939  1.00  0.00     0.012 A 
ATOM      5  C   UNL     1       3.299  -3.569  19.310  1.00  0.00     0.047 A 
ATOM      6  C   UNL     1       2.846  -4.777  19.854  1.00  0.00     0.115 A 
ATOM      7  C   UNL     1       0.557  -4.001  19.649  1.00  0.00     0.012 A 
ATOM      8  C   UNL     1       1.473  -4.990  20.018  1.00  0.00     0.047 A 
BRANCH   6   9
ATOM      9  O   UNL     1       3.746  -5.772  20.227  1.00  0.00    -0.508 OA
ATOM     10  H   UNL     1       4.741  -5.672  20.067  1.00  0.00     0.293 HD
ENDBRANCH   6   9
ENDBRANCH   1   3
BRANCH   2  11
ATOM     11  C   UNL     1      -2.154  -0.754  18.211  1.00  0.00     0.189 C 
ATOM     12  O   UNL     1      -2.987  -0.934  17.280  1.00  0.00    -0.289 OA
BRANCH  11  13
ATOM     13  C   UNL     1      -2.062   0.582  18.845  1.00  0.00     0.064 A 
ATOM     14  C   UNL     1      -1.393   1.659  18.223  1.00  0.00     0.130 A 
ATOM     15  C   UNL     1      -2.635   0.776  20.115  1.00  0.00     0.020 A 
ATOM     16  C   UNL     1      -1.343   2.910  18.855  1.00  0.00     0.093 A 
ATOM     17  C   UNL     1      -2.575   2.025  20.740  1.00  0.00     0.047 A 
ATOM     18  C   UNL     1      -1.934   3.094  20.111  1.00  0.00     0.119 A 
BRANCH  14  19
ATOM     19  O   UNL     1      -0.755   1.483  16.994  1.00  0.00    -0.507 OA
ATOM     20  H   UNL     1      -1.178   1.790  16.126  1.00  0.00     0.293 HD
ENDBRANCH  14  19
BRANCH  18  21
ATOM     21  O   UNL     1      -1.886   4.334  20.744  1.00  0.00    -0.508 OA
ATOM     22  H   UNL     1      -1.006   4.800  20.932  1.00  0.00     0.293 HD
ENDBRANCH  18  21
ENDBRANCH  11  13
ENDBRANCH   2  11
TORSDOF 6
ENDMDL
MODEL 4
REMARK VINA RESULT:    -2.948      3.410      5.252
REMARK INTER + INTRA:          -4.452
REMARK INTER:                  -3.717
REMARK INTRA:                  -0.735
REMARK UNBOUND:                -0.729
REMARK SMILES O=C(C=Cc1ccc(O)cc1)c1ccc(O)cc1O
REMARK SMILES IDX 4 1 3 2 5 3 6 4 7 5 8 6 11 7 10 8 9 9 2 11 1 12 12 13 18 14
REMARK SMILES IDX 13 15 17 16 14 17 15 18 19 19 16 21
REMARK H PARENT 9 10 19 20 16 22
REMARK Flexibility Score: inf
ROOT
ATOM      1  C   UNL     1       4.607  -2.377  18.323  1.00  0.00     0.012 C 
ATOM      2  C   UNL     1       5.605  -2.930  17.618  1.00  0.00     0.053 C 
ENDROOT
BRANCH   1   3
ATOM      3  C   UNL     1       3.459  -3.143  18.864  1.00  0.00    -0.025 A 
ATOM      4  C   UNL     1       2.167  -2.606  18.728  1.00  0.00     0.012 A 
ATOM      5  C   UNL     1       1.056  -3.289  19.232  1.00  0.00     0.047 A 
ATOM      6  C   UNL     1       1.222  -4.514  19.890  1.00  0.00     0.115 A 
ATOM      7  C   UNL     1       3.618  -4.370  19.541  1.00  0.00     0.012 A 
ATOM      8  C   UNL     1       2.504  -5.049  20.045  1.00  0.00     0.047 A 
BRANCH   6   9
ATOM      9  O   UNL     1       0.123  -5.203  20.396  1.00  0.00    -0.508 OA
ATOM     10  H   UNL     1       0.096  -6.216  20.415  1.00  0.00     0.293 HD
ENDBRANCH   6   9
ENDBRANCH   1   3
BRANCH   2  11
ATOM     11  C   UNL     1       6.727  -2.131  17.079  1.00  0.00     0.189 C 
ATOM     12  O   UNL     1       7.900  -2.333  17.498  1.00  0.00    -0.289 OA
BRANCH  11  13
ATOM     13  C   UNL     1       6.492  -1.055  16.088  1.00  0.00     0.064 A 
ATOM     14  C   UNL     1       6.734   0.304  16.391  1.00  0.00     0.130 A 
ATOM     15  C   UNL     1       5.990  -1.393  14.819  1.00  0.00     0.020 A 
ATOM     16  C   UNL     1       6.511   1.287  15.415  1.00  0.00     0.093 A 
ATOM     17  C   UNL     1       5.765  -0.405  13.856  1.00  0.00     0.047 A 
ATOM     18  C   UNL     1       6.028   0.934  14.149  1.00  0.00     0.119 A 
BRANCH  14  19
ATOM     19  O   UNL     1       7.168   0.681  17.662  1.00  0.00    -0.507 OA
ATOM     20  H   UNL     1       6.699   0.361  18.501  1.00  0.00     0.293 HD
ENDBRANCH  14  19
BRANCH  18  21
ATOM     21  O   UNL     1       5.803   1.907  13.178  1.00  0.00    -0.508 OA
ATOM     22  H   UNL     1       4.936   1.942  12.654  1.00  0.00     0.293 HD
ENDBRANCH  18  21
ENDBRANCH  11  13
ENDBRANCH   2  11
TORSDOF 6
ENDMDL
MODEL 5
REMARK VINA RESULT:    -2.915      7.342      9.934
REMARK INTER + INTRA:          -4.411
REMARK INTER:                  -3.657
REMARK INTRA:                  -0.755
REMARK UNBOUND:                -0.729
REMARK SMILES O=C(C=Cc1ccc(O)cc1)c1ccc(O)cc1O
REMARK SMILES IDX 4 1 3 2 5 3 6 4 7 5 8 6 11 7 10 8 9 9 2 11 1 12 12 13 18 14
REMARK SMILES IDX 13 15 17 16 14 17 15 18 19 19 16 21
REMARK H PARENT 9 10 19 20 16 22
REMARK Flexibility Score: inf
ROOT
ATOM      1  C   UNL     1       1.951   4.396  16.287  1.00  0.00     0.012 C 
ATOM      2  C   UNL     1       0.793   4.944  15.891  1.00  0.00     0.053 C 
ENDROOT
BRANCH   1   3
ATOM      3  C   UNL     1       3.278   5.009  16.037  1.00  0.00    -0.025 A 
ATOM      4  C   UNL     1       3.330   6.314  15.517  1.00  0.00     0.012 A 
ATOM      5  C   UNL     1       4.559   6.927  15.256  1.00  0.00     0.047 A 
ATOM      6  C   UNL     1       5.755   6.241  15.501  1.00  0.00     0.115 A 
ATOM      7  C   UNL     1       4.487   4.319  16.265  1.00  0.00     0.012 A 
ATOM      8  C   UNL     1       5.714   4.936  16.002  1.00  0.00     0.047 A 
BRANCH   6   9
ATOM      9  O   UNL     1       6.985   6.841  15.245  1.00  0.00    -0.508 OA
ATOM     10  H   UNL     1       7.051   7.809  14.953  1.00  0.00     0.293 HD
ENDBRANCH   6   9
ENDBRANCH   1   3
BRANCH   2  11
ATOM     11  C   UNL     1      -0.512   4.295  16.143  1.00  0.00     0.189 C 
ATOM     12  O   UNL     1      -1.362   4.209  15.214  1.00  0.00    -0.289 OA
BRANCH  11  13
ATOM     13  C   UNL     1      -0.864   3.785  17.490  1.00  0.00     0.064 A 
ATOM     14  C   UNL     1      -1.103   2.414  17.728  1.00  0.00     0.130 A 
ATOM     15  C   UNL     1      -0.989   4.696  18.553  1.00  0.00     0.020 A 
ATOM     16  C   UNL     1      -1.420   1.975  19.023  1.00  0.00     0.093 A 
ATOM     17  C   UNL     1      -1.312   4.250  19.838  1.00  0.00     0.047 A 
ATOM     18  C   UNL     1      -1.523   2.891  20.077  1.00  0.00     0.119 A 
BRANCH  14  19
ATOM     19  O   UNL     1      -1.054   1.492  16.682  1.00  0.00    -0.507 OA
ATOM     20  H   UNL     1      -1.613   1.608  15.845  1.00  0.00     0.293 HD
ENDBRANCH  14  19
BRANCH  18  21
ATOM     21  O   UNL     1      -1.839   2.461  21.364  1.00  0.00    -0.508 OA
ATOM     22  H   UNL     1      -2.343   3.055  22.012  1.00  0.00     0.293 HD
ENDBRANCH  18  21
ENDBRANCH  11  13
ENDBRANCH   2  11
TORSDOF 6
ENDMDL
MODEL 6
REMARK VINA RESULT:    -2.881      2.657      4.383
REMARK INTER + INTRA:          -4.368
REMARK INTER:                  -3.751
REMARK INTRA:                  -0.617
REMARK UNBOUND:                -0.729
REMARK SMILES O=C(C=Cc1ccc(O)cc1)c1ccc(O)cc1O
REMARK SMILES IDX 4 1 3 2 5 3 6 4 7 5 8 6 11 7 10 8 9 9 2 11 1 12 12 13 18 14
REMARK SMILES IDX 13 15 17 16 14 17 15 18 19 19 16 21
REMARK H PARENT 9 10 19 20 16 22
REMARK Flexibility Score: inf
ROOT
ATOM      1  C   UNL     1       5.054  -1.620  20.271  1.00  0.00     0.012 C 
ATOM      2  C   UNL     1       5.782  -1.630  21.397  1.00  0.00     0.053 C 
ENDROOT
BRANCH   1   3
ATOM      3  C   UNL     1       4.254  -2.776  19.798  1.00  0.00    -0.025 A 
ATOM      4  C   UNL     1       3.288  -2.564  18.799  1.00  0.00     0.012 A 
ATOM      5  C   UNL     1       2.504  -3.622  18.331  1.00  0.00     0.047 A 
ATOM      6  C   UNL     1       2.667  -4.908  18.863  1.00  0.00     0.115 A 
ATOM      7  C   UNL     1       4.400  -4.071  20.339  1.00  0.00     0.012 A 
ATOM      8  C   UNL     1       3.613  -5.126  19.868  1.00  0.00     0.047 A 
BRANCH   6   9
ATOM      9  O   UNL     1       1.892  -5.970  18.404  1.00  0.00    -0.508 OA
ATOM     10  H   UNL     1       1.545  -6.000  17.452  1.00  0.00     0.293 HD
ENDBRANCH   6   9
ENDBRANCH   1   3
BRANCH   2  11
ATOM     11  C   UNL     1       6.581  -0.463  21.829  1.00  0.00     0.189 C 
ATOM     12  O   UNL     1       7.140  -0.467  22.960  1.00  0.00    -0.289 OA
BRANCH  11  13
ATOM     13  C   UNL     1       6.698   0.742  20.974  1.00  0.00     0.064 A 
ATOM     14  C   UNL     1       5.935   1.906  21.217  1.00  0.00     0.130 A 
ATOM     15  C   UNL     1       7.573   0.716  19.874  1.00  0.00     0.020 A 
ATOM     16  C   UNL     1       6.090   3.028  20.389  1.00  0.00     0.093 A 
ATOM     17  C   UNL     1       7.715   1.837  19.051  1.00  0.00     0.047 A 
ATOM     18  C   UNL     1       6.978   2.995  19.308  1.00  0.00     0.119 A 
BRANCH  14  19
ATOM     19  O   UNL     1       5.008   1.942  22.259  1.00  0.00    -0.507 OA
ATOM     20  H   UNL     1       5.228   2.364  23.153  1.00  0.00     0.293 HD
ENDBRANCH  14  19
BRANCH  18  21
ATOM     21  O   UNL     1       7.134   4.106  18.482  1.00  0.00    -0.508 OA
ATOM     22  H   UNL     1       8.050   4.420  18.183  1.00  0.00     0.293 HD
ENDBRANCH  18  21
ENDBRANCH  11  13
ENDBRANCH   2  11
TORSDOF 6
ENDMDL
MODEL 7
REMARK VINA RESULT:    -2.830      2.203      2.291
REMARK INTER + INTRA:          -4.304
REMARK INTER:                  -3.669
REMARK INTRA:                  -0.635
REMARK UNBOUND:                -0.729
REMARK SMILES O=C(C=Cc1ccc(O)cc1)c1ccc(O)cc1O
REMARK SMILES IDX 4 1 3 2 5 3 6 4 7 5 8 6 11 7 10 8 9 9 2 11 1 12 12 13 18 14
REMARK SMILES IDX 13 15 17 16 14 17 15 18 19 19 16 21
REMARK H PARENT 9 10 19 20 16 22
REMARK Flexibility Score: inf
ROOT
ATOM      1  C   UNL     1       2.565  -4.252  19.710  1.00  0.00     0.012 C 
ATOM      2  C   UNL     1       3.741  -4.768  20.098  1.00  0.00     0.053 C 
ENDROOT
BRANCH   1   3
ATOM      3  C   UNL     1       1.274  -4.974  19.821  1.00  0.00    -0.025 A 
ATOM      4  C   UNL     1       0.102  -4.228  20.039  1.00  0.00     0.012 A 
ATOM      5  C   UNL     1      -1.135  -4.867  20.160  1.00  0.00     0.047 A 
ATOM      6  C   UNL     1      -1.219  -6.263  20.076  1.00  0.00     0.115 A 
ATOM      7  C   UNL     1       1.183  -6.379  19.753  1.00  0.00     0.012 A 
ATOM      8  C   UNL     1      -0.057  -7.014  19.875  1.00  0.00     0.047 A 
BRANCH   6   9
ATOM      9  O   UNL     1      -2.446  -6.910  20.195  1.00  0.00    -0.508 OA
ATOM     10  H   UNL     1      -2.742  -7.326  21.070  1.00  0.00     0.293 HD
ENDBRANCH   6   9
ENDBRANCH   1   3
BRANCH   2  11
ATOM     11  C   UNL     1       5.012  -4.025  19.957  1.00  0.00     0.189 C 
ATOM     12  O   UNL     1       5.728  -4.192  18.932  1.00  0.00    -0.289 OA
BRANCH  11  13
ATOM     13  C   UNL     1       5.490  -3.119  21.028  1.00  0.00     0.064 A 
ATOM     14  C   UNL     1       5.461  -1.714  20.884  1.00  0.00     0.130 A 
ATOM     15  C   UNL     1       6.011  -3.675  22.210  1.00  0.00     0.020 A 
ATOM     16  C   UNL     1       5.911  -0.896  21.931  1.00  0.00     0.093 A 
ATOM     17  C   UNL     1       6.463  -2.851  23.245  1.00  0.00     0.047 A 
ATOM     18  C   UNL     1       6.410  -1.462  23.110  1.00  0.00     0.119 A 
BRANCH  14  19
ATOM     19  O   UNL     1       5.014  -1.131  19.698  1.00  0.00    -0.507 OA
ATOM     20  H   UNL     1       4.305  -1.571  19.123  1.00  0.00     0.293 HD
ENDBRANCH  14  19
BRANCH  18  21
ATOM     21  O   UNL     1       6.860  -0.654  24.152  1.00  0.00    -0.508 OA
ATOM     22  H   UNL     1       6.970   0.347  24.037  1.00  0.00     0.293 HD
ENDBRANCH  18  21
ENDBRANCH  11  13
ENDBRANCH   2  11
TORSDOF 6
ENDMDL
MODEL 8
REMARK VINA RESULT:    -2.793      3.208      7.544
REMARK INTER + INTRA:          -4.257
REMARK INTER:                  -3.672
REMARK INTRA:                  -0.585
REMARK UNBOUND:                -0.729
REMARK SMILES O=C(C=Cc1ccc(O)cc1)c1ccc(O)cc1O
REMARK SMILES IDX 4 1 3 2 5 3 6 4 7 5 8 6 11 7 10 8 9 9 2 11 1 12 12 13 18 14
REMARK SMILES IDX 13 15 17 16 14 17 15 18 19 19 16 21
REMARK H PARENT 9 10 19 20 16 22
REMARK Flexibility Score: inf
ROOT
ATOM      1  C   UNL     1       6.145  -3.481  24.110  1.00  0.00     0.012 C 
ATOM      2  C   UNL     1       6.190  -2.435  23.272  1.00  0.00     0.053 C 
ENDROOT
BRANCH   1   3
ATOM      3  C   UNL     1       5.872  -3.361  25.563  1.00  0.00    -0.025 A 
ATOM      4  C   UNL     1       5.664  -4.534  26.308  1.00  0.00     0.012 A 
ATOM      5  C   UNL     1       5.392  -4.467  27.678  1.00  0.00     0.047 A 
ATOM      6  C   UNL     1       5.314  -3.225  28.321  1.00  0.00     0.115 A 
ATOM      7  C   UNL     1       5.775  -2.114  26.215  1.00  0.00     0.012 A 
ATOM      8  C   UNL     1       5.503  -2.052  27.585  1.00  0.00     0.047 A 
BRANCH   6   9
ATOM      9  O   UNL     1       5.044  -3.147  29.685  1.00  0.00    -0.508 OA
ATOM     10  H   UNL     1       5.637  -2.615  30.312  1.00  0.00     0.293 HD
ENDBRANCH   6   9
ENDBRANCH   1   3
BRANCH   2  11
ATOM     11  C   UNL     1       6.482  -2.592  21.831  1.00  0.00     0.189 C 
ATOM     12  O   UNL     1       7.656  -2.412  21.404  1.00  0.00    -0.289 OA
BRANCH  11  13
ATOM     13  C   UNL     1       5.406  -2.910  20.863  1.00  0.00     0.064 A 
ATOM     14  C   UNL     1       4.850  -1.925  20.016  1.00  0.00     0.130 A 
ATOM     15  C   UNL     1       4.905  -4.222  20.805  1.00  0.00     0.020 A 
ATOM     16  C   UNL     1       3.842  -2.276  19.105  1.00  0.00     0.093 A 
ATOM     17  C   UNL     1       3.896  -4.560  19.899  1.00  0.00     0.047 A 
ATOM     18  C   UNL     1       3.366  -3.591  19.045  1.00  0.00     0.119 A 
BRANCH  14  19
ATOM     19  O   UNL     1       5.275  -0.599  20.095  1.00  0.00    -0.507 OA
ATOM     20  H   UNL     1       6.041  -0.321  20.697  1.00  0.00     0.293 HD
ENDBRANCH  14  19
BRANCH  18  21
ATOM     21  O   UNL     1       2.364  -3.944  18.144  1.00  0.00    -0.508 OA
ATOM     22  H   UNL     1       1.399  -3.670  18.291  1.00  0.00     0.293 HD
ENDBRANCH  18  21
ENDBRANCH  11  13
ENDBRANCH   2  11
TORSDOF 6
ENDMDL
MODEL 9
REMARK VINA RESULT:    -2.756      7.944      9.697
REMARK INTER + INTRA:          -4.211
REMARK INTER:                  -3.608
REMARK INTRA:                  -0.602
REMARK UNBOUND:                -0.729
REMARK SMILES O=C(C=Cc1ccc(O)cc1)c1ccc(O)cc1O
REMARK SMILES IDX 4 1 3 2 5 3 6 4 7 5 8 6 11 7 10 8 9 9 2 11 1 12 12 13 18 14
REMARK SMILES IDX 13 15 17 16 14 17 15 18 19 19 16 21
REMARK H PARENT 9 10 19 20 16 22
REMARK Flexibility Score: inf
ROOT
ATOM      1  C   UNL     1      -2.279   3.344  21.634  1.00  0.00     0.012 C 
ATOM      2  C   UNL     1      -1.340   3.493  20.689  1.00  0.00     0.053 C 
ENDROOT
BRANCH   1   3
ATOM      3  C   UNL     1      -1.978   2.998  23.045  1.00  0.00    -0.025 A 
ATOM      4  C   UNL     1      -1.817   4.041  23.974  1.00  0.00     0.012 A 
ATOM      5  C   UNL     1      -1.522   3.762  25.312  1.00  0.00     0.047 A 
ATOM      6  C   UNL     1      -1.373   2.437  25.739  1.00  0.00     0.115 A 
ATOM      7  C   UNL     1      -1.810   1.667  23.481  1.00  0.00     0.012 A 
ATOM      8  C   UNL     1      -1.515   1.393  24.819  1.00  0.00     0.047 A 
BRANCH   6   9
ATOM      9  O   UNL     1      -1.079   2.147  27.069  1.00  0.00    -0.508 OA
ATOM     10  H   UNL     1      -1.580   1.427  27.577  1.00  0.00     0.293 HD
ENDBRANCH   6   9
ENDBRANCH   1   3
BRANCH   2  11
ATOM     11  C   UNL     1      -1.679   3.822  19.287  1.00  0.00     0.189 C 
ATOM     12  O   UNL     1      -2.821   3.537  18.833  1.00  0.00    -0.289 OA
BRANCH  11  13
ATOM     13  C   UNL     1      -0.679   4.438  18.384  1.00  0.00     0.064 A 
ATOM     14  C   UNL     1      -0.184   3.762  17.247  1.00  0.00     0.130 A 
ATOM     15  C   UNL     1      -0.189   5.722  18.682  1.00  0.00     0.020 A 
ATOM     16  C   UNL     1       0.752   4.392  16.412  1.00  0.00     0.093 A 
ATOM     17  C   UNL     1       0.748   6.338  17.848  1.00  0.00     0.047 A 
ATOM     18  C   UNL     1       1.217   5.678  16.710  1.00  0.00     0.119 A 
BRANCH  14  19
ATOM     19  O   UNL     1      -0.597   2.461  16.959  1.00  0.00    -0.507 OA
ATOM     20  H   UNL     1      -0.195   1.931  16.195  1.00  0.00     0.293 HD
ENDBRANCH  14  19
BRANCH  18  21
ATOM     21  O   UNL     1       2.147   6.306  15.886  1.00  0.00    -0.508 OA
ATOM     22  H   UNL     1       2.442   5.894  15.009  1.00  0.00     0.293 HD
ENDBRANCH  18  21
ENDBRANCH  11  13
ENDBRANCH   2  11
TORSDOF 6
ENDMDL
