MODEL 1
REMARK VINA RESULT:    -6.126      0.000      0.000
REMARK INTER + INTRA:          -7.779
REMARK INTER:                  -7.201
REMARK INTRA:                  -0.578
REMARK UNBOUND:                -0.578
REMARK SMILES C=C(C)[C@H]1CC[C@]2(CO)CC[C@@]3(C)[C@H](CC[C@@H]4[C@@]5(C)CC[C@H](O)C(C)(C)[C@H]5CC[C@]43C)[C@H]12
REMARK SMILES IDX 4 1 5 2 6 3 7 4 32 5 14 6 15 7 16 8 17 9 18 10 20 11 21 12
REMARK SMILES IDX 22 13 24 14 27 15 28 16 29 17 30 18 12 19 11 20 10 21 13 22
REMARK SMILES IDX 31 23 25 24 26 25 19 26 2 27 3 28 1 29 8 30 9 31 23 33
REMARK H PARENT 9 32 23 34
REMARK Flexibility Score: inf
ROOT
ATOM      1  C   UNL     1      50.350  25.246  22.146  1.00  0.00     0.018 C 
ATOM      2  C   UNL     1      51.761  25.130  21.518  1.00  0.00     0.009 C 
ATOM      3  C   UNL     1      52.144  26.501  20.955  1.00  0.00     0.010 C 
ATOM      4  C   UNL     1      50.843  27.312  20.868  1.00  0.00    -0.003 C 
ATOM      5  C   UNL     1      49.992  26.763  22.052  1.00  0.00     0.008 C 
ATOM      6  C   UNL     1      50.181  27.530  23.422  1.00  0.00    -0.000 C 
ATOM      7  C   UNL     1      51.483  27.181  24.208  1.00  0.00     0.005 C 
ATOM      8  C   UNL     1      51.543  27.857  25.575  1.00  0.00     0.005 C 
ATOM      9  C   UNL     1      51.484  29.402  25.444  1.00  0.00     0.002 C 
ATOM     10  C   UNL     1      51.926  30.215  26.751  1.00  0.00    -0.026 C 
ATOM     11  C   UNL     1      53.390  29.845  27.192  1.00  0.00     0.010 C 
ATOM     12  C   UNL     1      54.489  30.449  26.329  1.00  0.00     0.033 C 
ATOM     13  C   UNL     1      54.446  31.975  26.397  1.00  0.00     0.120 C 
ATOM     14  C   UNL     1      53.088  32.549  25.865  1.00  0.00    -0.006 C 
ATOM     15  C   UNL     1      51.828  31.783  26.502  1.00  0.00     0.003 C 
ATOM     16  C   UNL     1      50.466  32.165  25.858  1.00  0.00     0.005 C 
ATOM     17  C   UNL     1      50.093  31.378  24.590  1.00  0.00     0.008 C 
ATOM     18  C   UNL     1      50.130  29.823  24.725  1.00  0.00    -0.024 C 
ATOM     19  C   UNL     1      50.022  29.090  23.267  1.00  0.00    -0.024 C 
ATOM     20  C   UNL     1      51.132  29.552  22.256  1.00  0.00     0.008 C 
ATOM     21  C   UNL     1      51.104  28.851  20.885  1.00  0.00     0.010 C 
ATOM     22  C   UNL     1      48.630  29.405  22.620  1.00  0.00     0.012 C 
ATOM     23  C   UNL     1      48.876  29.434  25.584  1.00  0.00     0.012 C 
ATOM     24  C   UNL     1      53.130  32.511  24.314  1.00  0.00     0.014 C 
ATOM     25  C   UNL     1      53.035  34.059  26.247  1.00  0.00     0.014 C 
ATOM     26  C   UNL     1      51.037  29.843  27.990  1.00  0.00     0.012 C 
ENDROOT
BRANCH   1  27
ATOM     27  C   UNL     1      49.349  24.252  21.530  1.00  0.00    -0.077 C 
ATOM     28  C   UNL     1      47.868  24.287  21.839  1.00  0.00     0.039 C 
ATOM     29  C   UNL     1      49.826  23.193  20.850  1.00  0.00     0.008 C 
ENDBRANCH   1  27
BRANCH   4  30
ATOM     30  C   UNL     1      50.177  26.968  19.498  1.00  0.00     0.163 C 
BRANCH  30  31
ATOM     31  O   UNL     1      48.790  27.178  19.541  1.00  0.00    -0.396 OA
ATOM     32  H   UNL     1      48.587  27.843  18.831  1.00  0.00     0.210 HD
ENDBRANCH  30  31
ENDBRANCH   4  30
BRANCH  13  33
ATOM     33  O   UNL     1      54.776  32.426  27.693  1.00  0.00    -0.393 OA
ATOM     34  H   UNL     1      55.285  31.716  28.161  1.00  0.00     0.210 HD
ENDBRANCH  13  33
TORSDOF 4
ENDMDL
MODEL 2
REMARK VINA RESULT:    -5.958      7.312     10.405
REMARK INTER + INTRA:          -7.581
REMARK INTER:                  -7.383
REMARK INTRA:                  -0.198
REMARK UNBOUND:                -0.578
REMARK SMILES C=C(C)[C@H]1CC[C@]2(CO)CC[C@@]3(C)[C@H](CC[C@@H]4[C@@]5(C)CC[C@H](O)C(C)(C)[C@H]5CC[C@]43C)[C@H]12
REMARK SMILES IDX 4 1 5 2 6 3 7 4 32 5 14 6 15 7 16 8 17 9 18 10 20 11 21 12
REMARK SMILES IDX 22 13 24 14 27 15 28 16 29 17 30 18 12 19 11 20 10 21 13 22
REMARK SMILES IDX 31 23 25 24 26 25 19 26 2 27 3 28 1 29 8 30 9 31 23 33
REMARK H PARENT 9 32 23 34
REMARK Flexibility Score: inf
ROOT
ATOM      1  C   UNL     1      38.080  25.000  22.388  1.00  0.00     0.018 C 
ATOM      2  C   UNL     1      37.830  24.752  23.896  1.00  0.00     0.009 C 
ATOM      3  C   UNL     1      39.122  24.200  24.507  1.00  0.00     0.010 C 
ATOM      4  C   UNL     1      39.991  23.732  23.330  1.00  0.00    -0.003 C 
ATOM      5  C   UNL     1      39.599  24.706  22.179  1.00  0.00     0.008 C 
ATOM      6  C   UNL     1      40.477  26.019  22.087  1.00  0.00    -0.000 C 
ATOM      7  C   UNL     1      40.131  27.126  23.130  1.00  0.00     0.005 C 
ATOM      8  C   UNL     1      40.925  28.412  22.909  1.00  0.00     0.005 C 
ATOM      9  C   UNL     1      42.452  28.154  22.999  1.00  0.00     0.002 C 
ATOM     10  C   UNL     1      43.357  29.465  23.172  1.00  0.00    -0.026 C 
ATOM     11  C   UNL     1      42.949  30.281  24.453  1.00  0.00     0.010 C 
ATOM     12  C   UNL     1      43.410  29.674  25.771  1.00  0.00     0.033 C 
ATOM     13  C   UNL     1      44.936  29.614  25.827  1.00  0.00     0.120 C 
ATOM     14  C   UNL     1      45.533  28.721  24.686  1.00  0.00    -0.006 C 
ATOM     15  C   UNL     1      44.897  29.082  23.256  1.00  0.00     0.003 C 
ATOM     16  C   UNL     1      45.293  28.093  22.123  1.00  0.00     0.005 C 
ATOM     17  C   UNL     1      44.415  26.835  22.010  1.00  0.00     0.008 C 
ATOM     18  C   UNL     1      42.879  27.092  21.896  1.00  0.00    -0.024 C 
ATOM     19  C   UNL     1      42.023  25.712  22.089  1.00  0.00    -0.024 C 
ATOM     20  C   UNL     1      42.329  24.975  23.443  1.00  0.00     0.008 C 
ATOM     21  C   UNL     1      41.509  23.697  23.695  1.00  0.00     0.010 C 
ATOM     22  C   UNL     1      42.353  24.719  20.923  1.00  0.00     0.012 C 
ATOM     23  C   UNL     1      42.640  27.640  20.445  1.00  0.00     0.012 C 
ATOM     24  C   UNL     1      45.351  27.236  25.100  1.00  0.00     0.014 C 
ATOM     25  C   UNL     1      47.072  28.963  24.656  1.00  0.00     0.014 C 
ATOM     26  C   UNL     1      43.149  30.468  21.984  1.00  0.00     0.012 C 
ENDROOT
BRANCH   1  27
ATOM     27  C   UNL     1      37.090  24.232  21.494  1.00  0.00    -0.077 C 
ATOM     28  C   UNL     1      36.460  24.843  20.262  1.00  0.00     0.039 C 
ATOM     29  C   UNL     1      36.614  23.049  21.925  1.00  0.00     0.008 C 
ENDBRANCH   1  27
BRANCH   4  30
ATOM     30  C   UNL     1      39.560  22.270  22.992  1.00  0.00     0.163 C 
BRANCH  30  31
ATOM     31  O   UNL     1      40.300  21.759  21.914  1.00  0.00    -0.396 OA
ATOM     32  H   UNL     1      41.012  21.189  22.311  1.00  0.00     0.210 HD
ENDBRANCH  30  31
ENDBRANCH   4  30
BRANCH  13  33
ATOM     33  O   UNL     1      45.485  30.914  25.867  1.00  0.00    -0.393 OA
ATOM     34  H   UNL     1      46.203  30.982  25.188  1.00  0.00     0.210 HD
ENDBRANCH  13  33
TORSDOF 4
ENDMDL
MODEL 3
REMARK VINA RESULT:    -5.803      8.839     11.326
REMARK INTER + INTRA:          -7.399
REMARK INTER:                  -6.904
REMARK INTRA:                  -0.495
REMARK UNBOUND:                -0.578
REMARK SMILES C=C(C)[C@H]1CC[C@]2(CO)CC[C@@]3(C)[C@H](CC[C@@H]4[C@@]5(C)CC[C@H](O)C(C)(C)[C@H]5CC[C@]43C)[C@H]12
REMARK SMILES IDX 4 1 5 2 6 3 7 4 32 5 14 6 15 7 16 8 17 9 18 10 20 11 21 12
REMARK SMILES IDX 22 13 24 14 27 15 28 16 29 17 30 18 12 19 11 20 10 21 13 22
REMARK SMILES IDX 31 23 25 24 26 25 19 26 2 27 3 28 1 29 8 30 9 31 23 33
REMARK H PARENT 9 32 23 34
REMARK Flexibility Score: inf
ROOT
ATOM      1  C   UNL     1      37.862  24.622  23.208  1.00  0.00     0.018 C 
ATOM      2  C   UNL     1      38.112  23.731  24.449  1.00  0.00     0.009 C 
ATOM      3  C   UNL     1      39.601  23.807  24.796  1.00  0.00     0.010 C 
ATOM      4  C   UNL     1      40.304  24.385  23.559  1.00  0.00    -0.003 C 
ATOM      5  C   UNL     1      39.230  25.324  22.936  1.00  0.00     0.008 C 
ATOM      6  C   UNL     1      39.271  26.820  23.450  1.00  0.00    -0.000 C 
ATOM      7  C   UNL     1      38.647  27.057  24.860  1.00  0.00     0.005 C 
ATOM      8  C   UNL     1      38.604  28.535  25.243  1.00  0.00     0.005 C 
ATOM      9  C   UNL     1      40.027  29.155  25.257  1.00  0.00     0.002 C 
ATOM     10  C   UNL     1      40.149  30.565  26.009  1.00  0.00    -0.026 C 
ATOM     11  C   UNL     1      39.674  30.461  27.506  1.00  0.00     0.010 C 
ATOM     12  C   UNL     1      40.657  29.770  28.441  1.00  0.00     0.033 C 
ATOM     13  C   UNL     1      41.969  30.550  28.510  1.00  0.00     0.120 C 
ATOM     14  C   UNL     1      42.670  30.647  27.112  1.00  0.00    -0.006 C 
ATOM     15  C   UNL     1      41.644  31.102  25.963  1.00  0.00     0.003 C 
ATOM     16  C   UNL     1      42.229  31.015  24.525  1.00  0.00     0.005 C 
ATOM     17  C   UNL     1      42.114  29.637  23.850  1.00  0.00     0.008 C 
ATOM     18  C   UNL     1      40.680  29.020  23.815  1.00  0.00    -0.024 C 
ATOM     19  C   UNL     1      40.714  27.448  23.363  1.00  0.00    -0.024 C 
ATOM     20  C   UNL     1      41.641  26.561  24.270  1.00  0.00     0.008 C 
ATOM     21  C   UNL     1      41.665  25.063  23.916  1.00  0.00     0.010 C 
ATOM     22  C   UNL     1      41.239  27.333  21.891  1.00  0.00     0.012 C 
ATOM     23  C   UNL     1      39.883  29.841  22.741  1.00  0.00     0.012 C 
ATOM     24  C   UNL     1      43.366  29.289  26.833  1.00  0.00     0.014 C 
ATOM     25  C   UNL     1      43.821  31.691  27.235  1.00  0.00     0.014 C 
ATOM     26  C   UNL     1      39.203  31.642  25.371  1.00  0.00     0.012 C 
ENDROOT
BRANCH   1  27
ATOM     27  C   UNL     1      37.234  23.841  22.040  1.00  0.00    -0.077 C 
ATOM     28  C   UNL     1      36.699  24.519  20.797  1.00  0.00     0.039 C 
ATOM     29  C   UNL     1      36.970  22.531  22.207  1.00  0.00     0.008 C 
ENDBRANCH   1  27
BRANCH   4  30
ATOM     30  C   UNL     1      40.617  23.188  22.606  1.00  0.00     0.163 C 
BRANCH  30  31
ATOM     31  O   UNL     1      41.228  23.629  21.421  1.00  0.00    -0.396 OA
ATOM     32  H   UNL     1      41.479  22.811  20.916  1.00  0.00     0.210 HD
ENDBRANCH  30  31
ENDBRANCH   4  30
BRANCH  13  33
ATOM     33  O   UNL     1      41.772  31.804  29.128  1.00  0.00    -0.393 OA
ATOM     34  H   UNL     1      41.967  31.721  30.096  1.00  0.00     0.210 HD
ENDBRANCH  13  33
TORSDOF 4
ENDMDL
MODEL 4
REMARK VINA RESULT:    -5.796      8.545     12.493
REMARK INTER + INTRA:          -7.390
REMARK INTER:                  -7.018
REMARK INTRA:                  -0.373
REMARK UNBOUND:                -0.578
REMARK SMILES C=C(C)[C@H]1CC[C@]2(CO)CC[C@@]3(C)[C@H](CC[C@@H]4[C@@]5(C)CC[C@H](O)C(C)(C)[C@H]5CC[C@]43C)[C@H]12
REMARK SMILES IDX 4 1 5 2 6 3 7 4 32 5 14 6 15 7 16 8 17 9 18 10 20 11 21 12
REMARK SMILES IDX 22 13 24 14 27 15 28 16 29 17 30 18 12 19 11 20 10 21 13 22
REMARK SMILES IDX 31 23 25 24 26 25 19 26 2 27 3 28 1 29 8 30 9 31 23 33
REMARK H PARENT 9 32 23 34
REMARK Flexibility Score: inf
ROOT
ATOM      1  C   UNL     1      40.646  32.685  22.974  1.00  0.00     0.018 C 
ATOM      2  C   UNL     1      39.839  32.668  21.653  1.00  0.00     0.009 C 
ATOM      3  C   UNL     1      40.468  31.623  20.726  1.00  0.00     0.010 C 
ATOM      4  C   UNL     1      41.860  31.320  21.300  1.00  0.00    -0.003 C 
ATOM      5  C   UNL     1      41.673  31.518  22.833  1.00  0.00     0.008 C 
ATOM      6  C   UNL     1      41.247  30.218  23.628  1.00  0.00    -0.000 C 
ATOM      7  C   UNL     1      39.742  29.825  23.504  1.00  0.00     0.005 C 
ATOM      8  C   UNL     1      39.369  28.640  24.392  1.00  0.00     0.005 C 
ATOM      9  C   UNL     1      40.206  27.383  24.035  1.00  0.00     0.002 C 
ATOM     10  C   UNL     1      39.643  26.000  24.617  1.00  0.00    -0.026 C 
ATOM     11  C   UNL     1      38.171  25.729  24.133  1.00  0.00     0.010 C 
ATOM     12  C   UNL     1      38.047  25.278  22.684  1.00  0.00     0.033 C 
ATOM     13  C   UNL     1      38.768  23.947  22.475  1.00  0.00     0.120 C 
ATOM     14  C   UNL     1      40.301  24.053  22.785  1.00  0.00    -0.006 C 
ATOM     15  C   UNL     1      40.574  24.785  24.188  1.00  0.00     0.003 C 
ATOM     16  C   UNL     1      42.073  25.106  24.451  1.00  0.00     0.005 C 
ATOM     17  C   UNL     1      42.578  26.429  23.852  1.00  0.00     0.008 C 
ATOM     18  C   UNL     1      41.751  27.700  24.227  1.00  0.00    -0.024 C 
ATOM     19  C   UNL     1      42.176  28.985  23.310  1.00  0.00    -0.024 C 
ATOM     20  C   UNL     1      42.047  28.717  21.767  1.00  0.00     0.008 C 
ATOM     21  C   UNL     1      42.385  29.916  20.862  1.00  0.00     0.010 C 
ATOM     22  C   UNL     1      43.666  29.373  23.601  1.00  0.00     0.012 C 
ATOM     23  C   UNL     1      42.094  28.010  25.727  1.00  0.00     0.012 C 
ATOM     24  C   UNL     1      40.985  24.739  21.573  1.00  0.00     0.014 C 
ATOM     25  C   UNL     1      40.873  22.604  22.825  1.00  0.00     0.014 C 
ATOM     26  C   UNL     1      39.542  26.033  26.182  1.00  0.00     0.012 C 
ENDROOT
BRANCH   1  27
ATOM     27  C   UNL     1      41.212  34.079  23.299  1.00  0.00    -0.077 C 
ATOM     28  C   UNL     1      41.637  34.484  24.694  1.00  0.00     0.039 C 
ATOM     29  C   UNL     1      41.146  35.038  22.357  1.00  0.00     0.008 C 
ENDBRANCH   1  27
BRANCH   4  30
ATOM     30  C   UNL     1      42.841  32.386  20.716  1.00  0.00     0.163 C 
BRANCH  30  31
ATOM     31  O   UNL     1      43.848  31.781  19.946  1.00  0.00    -0.396 OA
ATOM     32  H   UNL     1      43.394  31.101  19.381  1.00  0.00     0.210 HD
ENDBRANCH  30  31
ENDBRANCH   4  30
BRANCH  13  33
ATOM     33  O   UNL     1      38.122  22.913  23.185  1.00  0.00    -0.393 OA
ATOM     34  H   UNL     1      38.113  23.142  24.149  1.00  0.00     0.210 HD
ENDBRANCH  13  33
TORSDOF 4
ENDMDL
MODEL 5
REMARK VINA RESULT:    -5.784      4.212      6.541
REMARK INTER + INTRA:          -7.376
REMARK INTER:                  -6.927
REMARK INTRA:                  -0.450
REMARK UNBOUND:                -0.578
REMARK SMILES C=C(C)[C@H]1CC[C@]2(CO)CC[C@@]3(C)[C@H](CC[C@@H]4[C@@]5(C)CC[C@H](O)C(C)(C)[C@H]5CC[C@]43C)[C@H]12
REMARK SMILES IDX 4 1 5 2 6 3 7 4 32 5 14 6 15 7 16 8 17 9 18 10 20 11 21 12
REMARK SMILES IDX 22 13 24 14 27 15 28 16 29 17 30 18 12 19 11 20 10 21 13 22
REMARK SMILES IDX 31 23 25 24 26 25 19 26 2 27 3 28 1 29 8 30 9 31 23 33
REMARK H PARENT 9 32 23 34
REMARK Flexibility Score: inf
ROOT
ATOM      1  C   UNL     1      49.956  24.702  20.048  1.00  0.00     0.018 C 
ATOM      2  C   UNL     1      50.642  23.909  21.188  1.00  0.00     0.009 C 
ATOM      3  C   UNL     1      50.928  24.880  22.337  1.00  0.00     0.010 C 
ATOM      4  C   UNL     1      50.806  26.294  21.749  1.00  0.00    -0.003 C 
ATOM      5  C   UNL     1      49.730  26.132  20.634  1.00  0.00     0.008 C 
ATOM      6  C   UNL     1      48.240  26.380  21.103  1.00  0.00    -0.000 C 
ATOM      7  C   UNL     1      47.585  25.204  21.893  1.00  0.00     0.005 C 
ATOM      8  C   UNL     1      46.112  25.454  22.206  1.00  0.00     0.005 C 
ATOM      9  C   UNL     1      45.926  26.740  23.055  1.00  0.00     0.002 C 
ATOM     10  C   UNL     1      44.497  26.890  23.763  1.00  0.00    -0.026 C 
ATOM     11  C   UNL     1      44.190  25.667  24.704  1.00  0.00     0.010 C 
ATOM     12  C   UNL     1      44.949  25.669  26.023  1.00  0.00     0.033 C 
ATOM     13  C   UNL     1      44.573  26.894  26.856  1.00  0.00     0.120 C 
ATOM     14  C   UNL     1      44.931  28.234  26.127  1.00  0.00    -0.006 C 
ATOM     15  C   UNL     1      44.421  28.237  24.604  1.00  0.00     0.003 C 
ATOM     16  C   UNL     1      44.928  29.449  23.771  1.00  0.00     0.005 C 
ATOM     17  C   UNL     1      46.316  29.273  23.131  1.00  0.00     0.008 C 
ATOM     18  C   UNL     1      46.499  27.991  22.258  1.00  0.00    -0.024 C 
ATOM     19  C   UNL     1      48.071  27.740  21.882  1.00  0.00    -0.024 C 
ATOM     20  C   UNL     1      49.005  27.650  23.143  1.00  0.00     0.008 C 
ATOM     21  C   UNL     1      50.487  27.362  22.842  1.00  0.00     0.010 C 
ATOM     22  C   UNL     1      48.593  28.915  20.987  1.00  0.00     0.012 C 
ATOM     23  C   UNL     1      45.695  28.250  20.936  1.00  0.00     0.012 C 
ATOM     24  C   UNL     1      46.459  28.465  26.279  1.00  0.00     0.014 C 
ATOM     25  C   UNL     1      44.251  29.394  26.914  1.00  0.00     0.014 C 
ATOM     26  C   UNL     1      43.330  26.881  22.714  1.00  0.00     0.012 C 
ENDROOT
BRANCH   1  27
ATOM     27  C   UNL     1      50.726  24.606  18.719  1.00  0.00    -0.077 C 
ATOM     28  C   UNL     1      50.624  25.659  17.637  1.00  0.00     0.039 C 
ATOM     29  C   UNL     1      51.358  23.456  18.421  1.00  0.00     0.008 C 
ENDBRANCH   1  27
BRANCH   4  30
ATOM     30  C   UNL     1      52.194  26.658  21.133  1.00  0.00     0.163 C 
BRANCH  30  31
ATOM     31  O   UNL     1      53.239  26.035  21.835  1.00  0.00    -0.396 OA
ATOM     32  H   UNL     1      54.083  26.389  21.449  1.00  0.00     0.210 HD
ENDBRANCH  30  31
ENDBRANCH   4  30
BRANCH  13  33
ATOM     33  O   UNL     1      43.224  26.822  27.266  1.00  0.00    -0.393 OA
ATOM     34  H   UNL     1      43.094  27.411  28.052  1.00  0.00     0.210 HD
ENDBRANCH  13  33
TORSDOF 4
ENDMDL
MODEL 6
REMARK VINA RESULT:    -5.780      7.032     10.318
REMARK INTER + INTRA:          -7.371
REMARK INTER:                  -6.881
REMARK INTRA:                  -0.490
REMARK UNBOUND:                -0.578
REMARK SMILES C=C(C)[C@H]1CC[C@]2(CO)CC[C@@]3(C)[C@H](CC[C@@H]4[C@@]5(C)CC[C@H](O)C(C)(C)[C@H]5CC[C@]43C)[C@H]12
REMARK SMILES IDX 4 1 5 2 6 3 7 4 32 5 14 6 15 7 16 8 17 9 18 10 20 11 21 12
REMARK SMILES IDX 22 13 24 14 27 15 28 16 29 17 30 18 12 19 11 20 10 21 13 22
REMARK SMILES IDX 31 23 25 24 26 25 19 26 2 27 3 28 1 29 8 30 9 31 23 33
REMARK H PARENT 9 32 23 34
REMARK Flexibility Score: inf
ROOT
ATOM      1  C   UNL     1      46.966  30.769  20.217  1.00  0.00     0.018 C 
ATOM      2  C   UNL     1      46.418  30.047  18.962  1.00  0.00     0.009 C 
ATOM      3  C   UNL     1      45.385  29.014  19.422  1.00  0.00     0.010 C 
ATOM      4  C   UNL     1      45.607  28.822  20.929  1.00  0.00    -0.003 C 
ATOM      5  C   UNL     1      46.114  30.216  21.403  1.00  0.00     0.008 C 
ATOM      6  C   UNL     1      44.979  31.217  21.868  1.00  0.00    -0.000 C 
ATOM      7  C   UNL     1      44.185  31.906  20.715  1.00  0.00     0.005 C 
ATOM      8  C   UNL     1      43.195  32.950  21.227  1.00  0.00     0.005 C 
ATOM      9  C   UNL     1      42.155  32.317  22.189  1.00  0.00     0.002 C 
ATOM     10  C   UNL     1      40.857  33.211  22.475  1.00  0.00    -0.026 C 
ATOM     11  C   UNL     1      40.098  33.565  21.143  1.00  0.00     0.010 C 
ATOM     12  C   UNL     1      39.294  32.421  20.542  1.00  0.00     0.033 C 
ATOM     13  C   UNL     1      38.191  31.978  21.503  1.00  0.00     0.120 C 
ATOM     14  C   UNL     1      38.770  31.458  22.863  1.00  0.00    -0.006 C 
ATOM     15  C   UNL     1      39.864  32.465  23.468  1.00  0.00     0.003 C 
ATOM     16  C   UNL     1      40.623  31.903  24.704  1.00  0.00     0.005 C 
ATOM     17  C   UNL     1      41.847  31.029  24.384  1.00  0.00     0.008 C 
ATOM     18  C   UNL     1      42.906  31.672  23.433  1.00  0.00    -0.024 C 
ATOM     19  C   UNL     1      43.997  30.569  22.916  1.00  0.00    -0.024 C 
ATOM     20  C   UNL     1      43.339  29.332  22.203  1.00  0.00     0.008 C 
ATOM     21  C   UNL     1      44.329  28.290  21.651  1.00  0.00     0.010 C 
ATOM     22  C   UNL     1      44.823  30.031  24.134  1.00  0.00     0.012 C 
ATOM     23  C   UNL     1      43.648  32.759  24.286  1.00  0.00     0.012 C 
ATOM     24  C   UNL     1      39.298  30.016  22.634  1.00  0.00     0.014 C 
ATOM     25  C   UNL     1      37.577  31.315  23.856  1.00  0.00     0.014 C 
ATOM     26  C   UNL     1      41.239  34.602  23.091  1.00  0.00     0.012 C 
ENDROOT
BRANCH   1  27
ATOM     27  C   UNL     1      48.496  30.650  20.342  1.00  0.00    -0.077 C 
ATOM     28  C   UNL     1      49.365  30.089  19.237  1.00  0.00     0.039 C 
ATOM     29  C   UNL     1      49.065  30.867  21.542  1.00  0.00     0.008 C 
ENDBRANCH   1  27
BRANCH   4  30
ATOM     30  C   UNL     1      46.721  27.739  21.096  1.00  0.00     0.163 C 
BRANCH  30  31
ATOM     31  O   UNL     1      46.188  26.444  20.989  1.00  0.00    -0.396 OA
ATOM     32  H   UNL     1      45.229  26.516  21.239  1.00  0.00     0.210 HD
ENDBRANCH  30  31
ENDBRANCH   4  30
BRANCH  13  33
ATOM     33  O   UNL     1      37.227  32.997  21.657  1.00  0.00    -0.393 OA
ATOM     34  H   UNL     1      37.153  33.229  22.617  1.00  0.00     0.210 HD
ENDBRANCH  13  33
TORSDOF 4
ENDMDL
MODEL 7
REMARK VINA RESULT:    -5.769      4.511      7.583
REMARK INTER + INTRA:          -7.359
REMARK INTER:                  -6.861
REMARK INTRA:                  -0.498
REMARK UNBOUND:                -0.578
REMARK SMILES C=C(C)[C@H]1CC[C@]2(CO)CC[C@@]3(C)[C@H](CC[C@@H]4[C@@]5(C)CC[C@H](O)C(C)(C)[C@H]5CC[C@]43C)[C@H]12
REMARK SMILES IDX 4 1 5 2 6 3 7 4 32 5 14 6 15 7 16 8 17 9 18 10 20 11 21 12
REMARK SMILES IDX 22 13 24 14 27 15 28 16 29 17 30 18 12 19 11 20 10 21 13 22
REMARK SMILES IDX 31 23 25 24 26 25 19 26 2 27 3 28 1 29 8 30 9 31 23 33
REMARK H PARENT 9 32 23 34
REMARK Flexibility Score: inf
ROOT
ATOM      1  C   UNL     1      44.628  28.312  22.460  1.00  0.00     0.018 C 
ATOM      2  C   UNL     1      43.809  27.717  21.288  1.00  0.00     0.009 C 
ATOM      3  C   UNL     1      44.181  28.480  20.013  1.00  0.00     0.010 C 
ATOM      4  C   UNL     1      44.882  29.768  20.469  1.00  0.00    -0.003 C 
ATOM      5  C   UNL     1      45.587  29.349  21.793  1.00  0.00     0.008 C 
ATOM      6  C   UNL     1      47.063  28.805  21.621  1.00  0.00    -0.000 C 
ATOM      7  C   UNL     1      47.176  27.336  21.107  1.00  0.00     0.005 C 
ATOM      8  C   UNL     1      48.617  26.831  21.083  1.00  0.00     0.005 C 
ATOM      9  C   UNL     1      49.508  27.712  20.167  1.00  0.00     0.002 C 
ATOM     10  C   UNL     1      50.916  27.065  19.759  1.00  0.00    -0.026 C 
ATOM     11  C   UNL     1      50.726  25.684  19.031  1.00  0.00     0.010 C 
ATOM     12  C   UNL     1      50.248  25.783  17.589  1.00  0.00     0.033 C 
ATOM     13  C   UNL     1      51.273  26.527  16.734  1.00  0.00     0.120 C 
ATOM     14  C   UNL     1      51.503  27.994  17.235  1.00  0.00    -0.006 C 
ATOM     15  C   UNL     1      51.741  28.050  18.822  1.00  0.00     0.003 C 
ATOM     16  C   UNL     1      51.766  29.491  19.405  1.00  0.00     0.005 C 
ATOM     17  C   UNL     1      50.390  30.083  19.758  1.00  0.00     0.008 C 
ATOM     18  C   UNL     1      49.500  29.210  20.698  1.00  0.00    -0.024 C 
ATOM     19  C   UNL     1      47.965  29.771  20.763  1.00  0.00    -0.024 C 
ATOM     20  C   UNL     1      47.283  29.879  19.351  1.00  0.00     0.008 C 
ATOM     21  C   UNL     1      45.819  30.353  19.365  1.00  0.00     0.010 C 
ATOM     22  C   UNL     1      47.951  31.199  21.407  1.00  0.00     0.012 C 
ATOM     23  C   UNL     1      50.142  29.319  22.125  1.00  0.00     0.012 C 
ATOM     24  C   UNL     1      50.309  28.857  16.746  1.00  0.00     0.014 C 
ATOM     25  C   UNL     1      52.755  28.553  16.494  1.00  0.00     0.014 C 
ATOM     26  C   UNL     1      51.782  26.726  21.023  1.00  0.00     0.012 C 
ENDROOT
BRANCH   1  27
ATOM     27  C   UNL     1      43.733  28.823  23.603  1.00  0.00    -0.077 C 
ATOM     28  C   UNL     1      42.229  28.657  23.600  1.00  0.00     0.039 C 
ATOM     29  C   UNL     1      44.277  29.617  24.544  1.00  0.00     0.008 C 
ENDBRANCH   1  27
BRANCH   4  30
ATOM     30  C   UNL     1      43.768  30.827  20.743  1.00  0.00     0.163 C 
BRANCH  30  31
ATOM     31  O   UNL     1      43.983  31.995  19.993  1.00  0.00    -0.396 OA
ATOM     32  H   UNL     1      43.595  32.741  20.523  1.00  0.00     0.210 HD
ENDBRANCH  30  31
ENDBRANCH   4  30
BRANCH  13  33
ATOM     33  O   UNL     1      52.465  25.779  16.622  1.00  0.00    -0.393 OA
ATOM     34  H   UNL     1      52.315  25.026  15.996  1.00  0.00     0.210 HD
ENDBRANCH  13  33
TORSDOF 4
ENDMDL
MODEL 8
REMARK VINA RESULT:    -5.720      4.453      7.315
REMARK INTER + INTRA:          -7.302
REMARK INTER:                  -6.674
REMARK INTRA:                  -0.628
REMARK UNBOUND:                -0.578
REMARK SMILES C=C(C)[C@H]1CC[C@]2(CO)CC[C@@]3(C)[C@H](CC[C@@H]4[C@@]5(C)CC[C@H](O)C(C)(C)[C@H]5CC[C@]43C)[C@H]12
REMARK SMILES IDX 4 1 5 2 6 3 7 4 32 5 14 6 15 7 16 8 17 9 18 10 20 11 21 12
REMARK SMILES IDX 22 13 24 14 27 15 28 16 29 17 30 18 12 19 11 20 10 21 13 22
REMARK SMILES IDX 31 23 25 24 26 25 19 26 2 27 3 28 1 29 8 30 9 31 23 33
REMARK H PARENT 9 32 23 34
REMARK Flexibility Score: inf
ROOT
ATOM      1  C   UNL     1      44.549  25.623  23.461  1.00  0.00     0.018 C 
ATOM      2  C   UNL     1      43.757  25.169  22.210  1.00  0.00     0.009 C 
ATOM      3  C   UNL     1      43.931  26.237  21.126  1.00  0.00     0.010 C 
ATOM      4  C   UNL     1      44.459  27.492  21.836  1.00  0.00    -0.003 C 
ATOM      5  C   UNL     1      45.299  26.917  23.014  1.00  0.00     0.008 C 
ATOM      6  C   UNL     1      46.826  26.666  22.685  1.00  0.00    -0.000 C 
ATOM      7  C   UNL     1      47.126  25.379  21.855  1.00  0.00     0.005 C 
ATOM      8  C   UNL     1      48.622  25.128  21.680  1.00  0.00     0.005 C 
ATOM      9  C   UNL     1      49.312  26.315  20.957  1.00  0.00     0.002 C 
ATOM     10  C   UNL     1      50.773  26.004  20.378  1.00  0.00    -0.026 C 
ATOM     11  C   UNL     1      50.747  24.799  19.367  1.00  0.00     0.010 C 
ATOM     12  C   UNL     1      50.171  25.126  17.996  1.00  0.00     0.033 C 
ATOM     13  C   UNL     1      51.018  26.190  17.299  1.00  0.00     0.120 C 
ATOM     14  C   UNL     1      51.056  27.533  18.106  1.00  0.00    -0.006 C 
ATOM     15  C   UNL     1      51.381  27.285  19.659  1.00  0.00     0.003 C 
ATOM     16  C   UNL     1      51.226  28.553  20.546  1.00  0.00     0.005 C 
ATOM     17  C   UNL     1      49.802  28.828  21.059  1.00  0.00     0.008 C 
ATOM     18  C   UNL     1      49.113  27.643  21.806  1.00  0.00    -0.024 C 
ATOM     19  C   UNL     1      47.519  27.924  22.036  1.00  0.00    -0.024 C 
ATOM     20  C   UNL     1      46.742  28.222  20.703  1.00  0.00     0.008 C 
ATOM     21  C   UNL     1      45.226  28.442  20.862  1.00  0.00     0.010 C 
ATOM     22  C   UNL     1      47.331  29.160  22.981  1.00  0.00     0.012 C 
ATOM     23  C   UNL     1      49.819  27.546  23.204  1.00  0.00     0.012 C 
ATOM     24  C   UNL     1      49.718  28.278  17.853  1.00  0.00     0.014 C 
ATOM     25  C   UNL     1      52.162  28.430  17.472  1.00  0.00     0.014 C 
ATOM     26  C   UNL     1      51.757  25.545  21.511  1.00  0.00     0.012 C 
ENDROOT
BRANCH   1  27
ATOM     27  C   UNL     1      43.661  25.727  24.713  1.00  0.00    -0.077 C 
ATOM     28  C   UNL     1      42.167  25.489  24.677  1.00  0.00     0.039 C 
ATOM     29  C   UNL     1      44.190  26.239  25.840  1.00  0.00     0.008 C 
ENDBRANCH   1  27
BRANCH   4  30
ATOM     30  C   UNL     1      43.217  28.276  22.368  1.00  0.00     0.163 C 
BRANCH  30  31
ATOM     31  O   UNL     1      43.557  29.074  23.473  1.00  0.00    -0.396 OA
ATOM     32  H   UNL     1      43.187  29.977  23.288  1.00  0.00     0.210 HD
ENDBRANCH  30  31
ENDBRANCH   4  30
BRANCH  13  33
ATOM     33  O   UNL     1      52.299  25.683  16.992  1.00  0.00    -0.393 OA
ATOM     34  H   UNL     1      52.212  24.997  16.282  1.00  0.00     0.210 HD
ENDBRANCH  13  33
TORSDOF 4
ENDMDL
MODEL 9
REMARK VINA RESULT:    -5.510      1.653      3.016
REMARK INTER + INTRA:          -7.055
REMARK INTER:                  -6.427
REMARK INTRA:                  -0.627
REMARK UNBOUND:                -0.578
REMARK SMILES C=C(C)[C@H]1CC[C@]2(CO)CC[C@@]3(C)[C@H](CC[C@@H]4[C@@]5(C)CC[C@H](O)C(C)(C)[C@H]5CC[C@]43C)[C@H]12
REMARK SMILES IDX 4 1 5 2 6 3 7 4 32 5 14 6 15 7 16 8 17 9 18 10 20 11 21 12
REMARK SMILES IDX 22 13 24 14 27 15 28 16 29 17 30 18 12 19 11 20 10 21 13 22
REMARK SMILES IDX 31 23 25 24 26 25 19 26 2 27 3 28 1 29 8 30 9 31 23 33
REMARK H PARENT 9 32 23 34
REMARK Flexibility Score: inf
ROOT
ATOM      1  C   UNL     1      51.267  28.307  20.118  1.00  0.00     0.018 C 
ATOM      2  C   UNL     1      51.135  29.683  19.420  1.00  0.00     0.009 C 
ATOM      3  C   UNL     1      50.074  30.495  20.168  1.00  0.00     0.010 C 
ATOM      4  C   UNL     1      49.289  29.493  21.027  1.00  0.00    -0.003 C 
ATOM      5  C   UNL     1      50.348  28.406  21.376  1.00  0.00     0.008 C 
ATOM      6  C   UNL     1      51.155  28.663  22.713  1.00  0.00    -0.000 C 
ATOM      7  C   UNL     1      52.293  29.726  22.609  1.00  0.00     0.005 C 
ATOM      8  C   UNL     1      53.112  29.836  23.893  1.00  0.00     0.005 C 
ATOM      9  C   UNL     1      52.220  30.231  25.100  1.00  0.00     0.002 C 
ATOM     10  C   UNL     1      53.011  30.751  26.392  1.00  0.00    -0.026 C 
ATOM     11  C   UNL     1      53.910  31.997  26.055  1.00  0.00     0.010 C 
ATOM     12  C   UNL     1      53.150  33.304  25.878  1.00  0.00     0.033 C 
ATOM     13  C   UNL     1      52.437  33.689  27.174  1.00  0.00     0.120 C 
ATOM     14  C   UNL     1      51.386  32.611  27.609  1.00  0.00    -0.006 C 
ATOM     15  C   UNL     1      52.000  31.128  27.560  1.00  0.00     0.003 C 
ATOM     16  C   UNL     1      50.949  30.003  27.779  1.00  0.00     0.005 C 
ATOM     17  C   UNL     1      50.194  29.553  26.516  1.00  0.00     0.008 C 
ATOM     18  C   UNL     1      51.090  29.133  25.307  1.00  0.00    -0.024 C 
ATOM     19  C   UNL     1      50.212  28.970  23.937  1.00  0.00    -0.024 C 
ATOM     20  C   UNL     1      49.401  30.263  23.562  1.00  0.00     0.008 C 
ATOM     21  C   UNL     1      48.599  30.177  22.250  1.00  0.00     0.010 C 
ATOM     22  C   UNL     1      49.185  27.798  24.104  1.00  0.00     0.012 C 
ATOM     23  C   UNL     1      51.702  27.740  25.687  1.00  0.00     0.012 C 
ATOM     24  C   UNL     1      50.120  32.798  26.731  1.00  0.00     0.014 C 
ATOM     25  C   UNL     1      50.940  32.950  29.064  1.00  0.00     0.014 C 
ATOM     26  C   UNL     1      54.018  29.672  26.924  1.00  0.00     0.012 C 
ENDROOT
BRANCH   1  27
ATOM     27  C   UNL     1      51.010  27.133  19.156  1.00  0.00    -0.077 C 
ATOM     28  C   UNL     1      50.732  27.331  17.681  1.00  0.00     0.039 C 
ATOM     29  C   UNL     1      50.831  25.903  19.671  1.00  0.00     0.008 C 
ENDBRANCH   1  27
BRANCH   4  30
ATOM     30  C   UNL     1      48.159  28.900  20.127  1.00  0.00     0.163 C 
BRANCH  30  31
ATOM     31  O   UNL     1      47.801  27.609  20.547  1.00  0.00    -0.396 OA
ATOM     32  H   UNL     1      46.850  27.663  20.832  1.00  0.00     0.210 HD
ENDBRANCH  30  31
ENDBRANCH   4  30
BRANCH  13  33
ATOM     33  O   UNL     1      53.373  34.000  28.184  1.00  0.00    -0.393 OA
ATOM     34  H   UNL     1      53.025  33.681  29.055  1.00  0.00     0.210 HD
ENDBRANCH  13  33
TORSDOF 4
ENDMDL
