MODEL 1
REMARK VINA RESULT:    -3.736      0.000      0.000
REMARK INTER + INTRA:          -5.152
REMARK INTER:                  -4.828
REMARK INTRA:                  -0.323
REMARK UNBOUND:                -0.323
REMARK SMILES CCCCCCC(=O)[O-]
REMARK SMILES IDX 5 1 6 2 7 3 8 4 9 5 4 6 3 7 2 8 1 9
REMARK H PARENT
REMARK Flexibility Score: inf
ROOT
ATOM      1  C   UNL     1      15.247  12.645   0.520  1.00  0.00     0.006 C 
ENDROOT
BRANCH   1   2
ATOM      2  C   UNL     1      15.784  11.233   0.790  1.00  0.00     0.053 C 
BRANCH   2   3
ATOM      3  C   UNL     1      17.234  11.285   1.152  1.00  0.00     0.041 C 
ATOM      4  O   UNL     1      17.859  10.226   1.420  1.00  0.00    -0.550 OA
ATOM      5  O   UNL     1      17.909  12.500   1.146  1.00  0.00    -0.550 OA
ENDBRANCH   2   3
ENDBRANCH   1   2
BRANCH   1   6
ATOM      6  C   UNL     1      15.249  13.007  -0.973  1.00  0.00     0.000 C 
BRANCH   6   7
ATOM      7  C   UNL     1      15.174  11.768  -1.882  1.00  0.00    -0.000 C 
BRANCH   7   8
ATOM      8  C   UNL     1      16.311  11.725  -2.914  1.00  0.00    -0.003 C 
ATOM      9  C   UNL     1      17.313  12.866  -2.740  1.00  0.00     0.004 C 
ENDBRANCH   7   8
ENDBRANCH   6   7
ENDBRANCH   1   6
TORSDOF 5
ENDMDL
MODEL 2
REMARK VINA RESULT:    -3.713      2.014      3.670
REMARK INTER + INTRA:          -5.122
REMARK INTER:                  -4.855
REMARK INTRA:                  -0.267
REMARK UNBOUND:                -0.323
REMARK SMILES CCCCCCC(=O)[O-]
REMARK SMILES IDX 5 1 6 2 7 3 8 4 9 5 4 6 3 7 2 8 1 9
REMARK H PARENT
REMARK Flexibility Score: inf
ROOT
ATOM      1  C   UNL     1      14.982  12.536  -1.509  1.00  0.00     0.006 C 
ENDROOT
BRANCH   1   2
ATOM      2  C   UNL     1      16.053  11.668  -2.183  1.00  0.00     0.053 C 
BRANCH   2   3
ATOM      3  C   UNL     1      17.248  12.495  -2.538  1.00  0.00     0.041 C 
ATOM      4  O   UNL     1      17.898  13.089  -1.639  1.00  0.00    -0.550 OA
ATOM      5  O   UNL     1      17.675  12.569  -3.859  1.00  0.00    -0.550 OA
ENDBRANCH   2   3
ENDBRANCH   1   2
BRANCH   1   6
ATOM      6  C   UNL     1      15.125  12.574   0.021  1.00  0.00     0.000 C 
BRANCH   6   7
ATOM      7  C   UNL     1      15.552  11.218   0.609  1.00  0.00    -0.000 C 
BRANCH   7   8
ATOM      8  C   UNL     1      16.731  11.346   1.586  1.00  0.00    -0.003 C 
ATOM      9  C   UNL     1      17.915  10.457   1.207  1.00  0.00     0.004 C 
ENDBRANCH   7   8
ENDBRANCH   6   7
ENDBRANCH   1   6
TORSDOF 5
ENDMDL
MODEL 3
REMARK VINA RESULT:    -3.459      2.514      3.684
REMARK INTER + INTRA:          -4.794
REMARK INTER:                  -4.491
REMARK INTRA:                  -0.303
REMARK UNBOUND:                -0.323
REMARK SMILES CCCCCCC(=O)[O-]
REMARK SMILES IDX 5 1 6 2 7 3 8 4 9 5 4 6 3 7 2 8 1 9
REMARK H PARENT
REMARK Flexibility Score: inf
ROOT
ATOM      1  C   UNL     1      15.277  11.126  -0.159  1.00  0.00     0.006 C 
ENDROOT
BRANCH   1   2
ATOM      2  C   UNL     1      15.362  12.395  -1.017  1.00  0.00     0.053 C 
BRANCH   2   3
ATOM      3  C   UNL     1      15.893  12.071  -2.378  1.00  0.00     0.041 C 
ATOM      4  O   UNL     1      15.142  11.553  -3.245  1.00  0.00    -0.550 OA
ATOM      5  O   UNL     1      17.206  12.388  -2.705  1.00  0.00    -0.550 OA
ENDBRANCH   2   3
ENDBRANCH   1   2
BRANCH   1   6
ATOM      6  C   UNL     1      16.019  11.261   1.179  1.00  0.00     0.000 C 
BRANCH   6   7
ATOM      7  C   UNL     1      17.106  12.351   1.144  1.00  0.00    -0.000 C 
BRANCH   7   8
ATOM      8  C   UNL     1      18.482  11.796   0.746  1.00  0.00    -0.003 C 
ATOM      9  C   UNL     1      19.456  12.887   0.302  1.00  0.00     0.004 C 
ENDBRANCH   7   8
ENDBRANCH   6   7
ENDBRANCH   1   6
TORSDOF 5
ENDMDL
MODEL 4
REMARK VINA RESULT:    -3.456      2.525      4.290
REMARK INTER + INTRA:          -4.790
REMARK INTER:                  -4.616
REMARK INTRA:                  -0.174
REMARK UNBOUND:                -0.323
REMARK SMILES CCCCCCC(=O)[O-]
REMARK SMILES IDX 5 1 6 2 7 3 8 4 9 5 4 6 3 7 2 8 1 9
REMARK H PARENT
REMARK Flexibility Score: inf
ROOT
ATOM      1  C   UNL     1      18.623  13.120  -0.921  1.00  0.00     0.006 C 
ENDROOT
BRANCH   1   2
ATOM      2  C   UNL     1      17.191  13.125  -1.471  1.00  0.00     0.053 C 
BRANCH   2   3
ATOM      3  C   UNL     1      17.130  12.399  -2.777  1.00  0.00     0.041 C 
ATOM      4  O   UNL     1      17.808  12.801  -3.759  1.00  0.00    -0.550 OA
ATOM      5  O   UNL     1      16.362  11.247  -2.897  1.00  0.00    -0.550 OA
ENDBRANCH   2   3
ENDBRANCH   1   2
BRANCH   1   6
ATOM      6  C   UNL     1      18.698  12.654   0.541  1.00  0.00     0.000 C 
BRANCH   6   7
ATOM      7  C   UNL     1      18.205  11.208   0.727  1.00  0.00    -0.000 C 
BRANCH   7   8
ATOM      8  C   UNL     1      16.980  11.118   1.649  1.00  0.00    -0.003 C 
ATOM      9  C   UNL     1      15.658  11.245   0.894  1.00  0.00     0.004 C 
ENDBRANCH   7   8
ENDBRANCH   6   7
ENDBRANCH   1   6
TORSDOF 5
ENDMDL
MODEL 5
REMARK VINA RESULT:    -3.229     17.179     18.522
REMARK INTER + INTRA:          -4.496
REMARK INTER:                  -4.323
REMARK INTRA:                  -0.172
REMARK UNBOUND:                -0.323
REMARK SMILES CCCCCCC(=O)[O-]
REMARK SMILES IDX 5 1 6 2 7 3 8 4 9 5 4 6 3 7 2 8 1 9
REMARK H PARENT
REMARK Flexibility Score: inf
ROOT
ATOM      1  C   UNL     1      13.386  -6.064   2.420  1.00  0.00     0.006 C 
ENDROOT
BRANCH   1   2
ATOM      2  C   UNL     1      12.281  -6.326   1.388  1.00  0.00     0.053 C 
BRANCH   2   3
ATOM      3  C   UNL     1      12.773  -6.023   0.008  1.00  0.00     0.041 C 
ATOM      4  O   UNL     1      12.299  -5.050  -0.635  1.00  0.00    -0.550 OA
ATOM      5  O   UNL     1      13.791  -6.786  -0.551  1.00  0.00    -0.550 OA
ENDBRANCH   2   3
ENDBRANCH   1   2
BRANCH   1   6
ATOM      6  C   UNL     1      12.910  -6.271   3.866  1.00  0.00     0.000 C 
BRANCH   6   7
ATOM      7  C   UNL     1      11.791  -5.293   4.266  1.00  0.00    -0.000 C 
BRANCH   7   8
ATOM      8  C   UNL     1      12.191  -4.393   5.445  1.00  0.00    -0.003 C 
ATOM      9  C   UNL     1      13.261  -3.367   5.073  1.00  0.00     0.004 C 
ENDBRANCH   7   8
ENDBRANCH   6   7
ENDBRANCH   1   6
TORSDOF 5
ENDMDL
MODEL 6
REMARK VINA RESULT:    -3.144     17.065     17.983
REMARK INTER + INTRA:          -4.387
REMARK INTER:                  -4.171
REMARK INTRA:                  -0.216
REMARK UNBOUND:                -0.323
REMARK SMILES CCCCCCC(=O)[O-]
REMARK SMILES IDX 5 1 6 2 7 3 8 4 9 5 4 6 3 7 2 8 1 9
REMARK H PARENT
REMARK Flexibility Score: inf
ROOT
ATOM      1  C   UNL     1      14.029  -5.666   3.269  1.00  0.00     0.006 C 
ENDROOT
BRANCH   1   2
ATOM      2  C   UNL     1      12.624  -5.308   3.771  1.00  0.00     0.053 C 
BRANCH   2   3
ATOM      3  C   UNL     1      12.708  -4.390   4.949  1.00  0.00     0.041 C 
ATOM      4  O   UNL     1      12.117  -4.680   6.022  1.00  0.00    -0.550 OA
ATOM      5  O   UNL     1      13.482  -3.238   4.880  1.00  0.00    -0.550 OA
ENDBRANCH   2   3
ENDBRANCH   1   2
BRANCH   1   6
ATOM      6  C   UNL     1      14.005  -6.605   2.053  1.00  0.00     0.000 C 
BRANCH   6   7
ATOM      7  C   UNL     1      12.655  -6.581   1.315  1.00  0.00    -0.000 C 
BRANCH   7   8
ATOM      8  C   UNL     1      12.801  -6.203  -0.167  1.00  0.00    -0.003 C 
ATOM      9  C   UNL     1      12.161  -4.856  -0.501  1.00  0.00     0.004 C 
ENDBRANCH   7   8
ENDBRANCH   6   7
ENDBRANCH   1   6
TORSDOF 5
ENDMDL
MODEL 7
REMARK VINA RESULT:    -3.111     10.504     11.491
REMARK INTER + INTRA:          -4.344
REMARK INTER:                  -3.899
REMARK INTRA:                  -0.445
REMARK UNBOUND:                -0.323
REMARK SMILES CCCCCCC(=O)[O-]
REMARK SMILES IDX 5 1 6 2 7 3 8 4 9 5 4 6 3 7 2 8 1 9
REMARK H PARENT
REMARK Flexibility Score: inf
ROOT
ATOM      1  C   UNL     1       5.362   8.328   0.426  1.00  0.00     0.006 C 
ENDROOT
BRANCH   1   2
ATOM      2  C   UNL     1       6.853   8.016   0.250  1.00  0.00     0.053 C 
BRANCH   2   3
ATOM      3  C   UNL     1       7.689   9.053   0.930  1.00  0.00     0.041 C 
ATOM      4  O   UNL     1       7.146  10.063   1.450  1.00  0.00    -0.550 OA
ATOM      5  O   UNL     1       9.064   8.881   1.033  1.00  0.00    -0.550 OA
ENDBRANCH   2   3
ENDBRANCH   1   2
BRANCH   1   6
ATOM      6  C   UNL     1       4.693   7.454   1.498  1.00  0.00     0.000 C 
BRANCH   6   7
ATOM      7  C   UNL     1       4.352   8.242   2.775  1.00  0.00    -0.000 C 
BRANCH   7   8
ATOM      8  C   UNL     1       5.441   8.115   3.852  1.00  0.00    -0.003 C 
ATOM      9  C   UNL     1       6.204   6.793   3.772  1.00  0.00     0.004 C 
ENDBRANCH   7   8
ENDBRANCH   6   7
ENDBRANCH   1   6
TORSDOF 5
ENDMDL
MODEL 8
REMARK VINA RESULT:    -3.085     10.427     11.107
REMARK INTER + INTRA:          -4.310
REMARK INTER:                  -3.924
REMARK INTRA:                  -0.386
REMARK UNBOUND:                -0.323
REMARK SMILES CCCCCCC(=O)[O-]
REMARK SMILES IDX 5 1 6 2 7 3 8 4 9 5 4 6 3 7 2 8 1 9
REMARK H PARENT
REMARK Flexibility Score: inf
ROOT
ATOM      1  C   UNL     1       5.157   7.850   1.313  1.00  0.00     0.006 C 
ENDROOT
BRANCH   1   2
ATOM      2  C   UNL     1       5.843   6.694   2.053  1.00  0.00     0.053 C 
BRANCH   2   3
ATOM      3  C   UNL     1       6.089   7.060   3.482  1.00  0.00     0.041 C 
ATOM      4  O   UNL     1       6.493   6.192   4.299  1.00  0.00    -0.550 OA
ATOM      5  O   UNL     1       5.919   8.374   3.902  1.00  0.00    -0.550 OA
ENDBRANCH   2   3
ENDBRANCH   1   2
BRANCH   1   6
ATOM      6  C   UNL     1       5.968   8.348   0.106  1.00  0.00     0.000 C 
BRANCH   6   7
ATOM      7  C   UNL     1       6.361   9.831   0.231  1.00  0.00    -0.000 C 
BRANCH   7   8
ATOM      8  C   UNL     1       7.580  10.042   1.142  1.00  0.00    -0.003 C 
ATOM      9  C   UNL     1       8.652   8.969   0.956  1.00  0.00     0.004 C 
ENDBRANCH   7   8
ENDBRANCH   6   7
ENDBRANCH   1   6
TORSDOF 5
ENDMDL
MODEL 9
REMARK VINA RESULT:    -3.020     11.312     12.322
REMARK INTER + INTRA:          -4.226
REMARK INTER:                  -3.873
REMARK INTRA:                  -0.353
REMARK UNBOUND:                -0.323
REMARK SMILES CCCCCCC(=O)[O-]
REMARK SMILES IDX 5 1 6 2 7 3 8 4 9 5 4 6 3 7 2 8 1 9
REMARK H PARENT
REMARK Flexibility Score: inf
ROOT
ATOM      1  C   UNL     1       4.831   8.596   1.320  1.00  0.00     0.006 C 
ENDROOT
BRANCH   1   2
ATOM      2  C   UNL     1       4.900   7.507   0.241  1.00  0.00     0.053 C 
BRANCH   2   3
ATOM      3  C   UNL     1       6.323   7.183  -0.083  1.00  0.00     0.041 C 
ATOM      4  O   UNL     1       6.595   6.239  -0.871  1.00  0.00    -0.550 OA
ATOM      5  O   UNL     1       7.351   7.954   0.447  1.00  0.00    -0.550 OA
ENDBRANCH   2   3
ENDBRANCH   1   2
BRANCH   1   6
ATOM      6  C   UNL     1       3.927   8.209   2.500  1.00  0.00     0.000 C 
BRANCH   6   7
ATOM      7  C   UNL     1       4.658   8.277   3.852  1.00  0.00    -0.000 C 
BRANCH   7   8
ATOM      8  C   UNL     1       6.127   7.839   3.748  1.00  0.00    -0.003 C 
ATOM      9  C   UNL     1       6.310   6.331   3.921  1.00  0.00     0.004 C 
ENDBRANCH   7   8
ENDBRANCH   6   7
ENDBRANCH   1   6
TORSDOF 5
ENDMDL
