MODEL 1
REMARK VINA RESULT:    -2.847      0.000      0.000
REMARK INTER + INTRA:          -4.684
REMARK INTER:                  -4.179
REMARK INTRA:                  -0.505
REMARK UNBOUND:                -0.505
REMARK SMILES O=C([O-])CCCCCCCC(=O)[O-]
REMARK SMILES IDX 7 1 6 2 5 3 4 4 2 5 1 6 3 7 8 8 9 9 10 10 11 11 12 12 13 13
REMARK H PARENT
REMARK Flexibility Score: inf
ROOT
ATOM      1  C   UNL     1       1.431   8.674   5.123  1.00  0.00     0.000 C 
ENDROOT
BRANCH   1   2
ATOM      2  C   UNL     1       0.549   8.857   3.877  1.00  0.00     0.000 C 
BRANCH   2   3
ATOM      3  C   UNL     1      -0.059   7.536   3.382  1.00  0.00     0.006 C 
BRANCH   3   4
ATOM      4  C   UNL     1       0.592   6.337   4.079  1.00  0.00     0.053 C 
BRANCH   4   5
ATOM      5  C   UNL     1      -0.187   5.088   3.813  1.00  0.00     0.041 C 
ATOM      6  O   UNL     1      -0.657   4.867   2.666  1.00  0.00    -0.550 OA
ATOM      7  O   UNL     1      -0.437   4.192   4.844  1.00  0.00    -0.550 OA
ENDBRANCH   4   5
ENDBRANCH   3   4
ENDBRANCH   2   3
ENDBRANCH   1   2
BRANCH   1   8
ATOM      8  C   UNL     1       2.820   9.317   4.964  1.00  0.00     0.000 C 
BRANCH   8   9
ATOM      9  C   UNL     1       3.687   8.597   3.920  1.00  0.00     0.006 C 
BRANCH   9  10
ATOM     10  C   UNL     1       4.881   7.863   4.546  1.00  0.00     0.053 C 
BRANCH  10  11
ATOM     11  C   UNL     1       5.127   6.568   3.836  1.00  0.00     0.041 C 
ATOM     12  O   UNL     1       6.299   6.225   3.532  1.00  0.00    -0.550 OA
ATOM     13  O   UNL     1       4.066   5.718   3.554  1.00  0.00    -0.550 OA
ENDBRANCH  10  11
ENDBRANCH   9  10
ENDBRANCH   8   9
ENDBRANCH   1   8
TORSDOF 8
ENDMDL
MODEL 2
REMARK VINA RESULT:    -2.766      0.383      4.728
REMARK INTER + INTRA:          -4.564
REMARK INTER:                  -4.046
REMARK INTRA:                  -0.518
REMARK UNBOUND:                -0.505
REMARK SMILES O=C([O-])CCCCCCCC(=O)[O-]
REMARK SMILES IDX 7 1 6 2 5 3 4 4 2 5 1 6 3 7 8 8 9 9 10 10 11 11 12 12 13 13
REMARK H PARENT
REMARK Flexibility Score: inf
ROOT
ATOM      1  C   UNL     1       1.964   8.758   5.083  1.00  0.00     0.000 C 
ENDROOT
BRANCH   1   2
ATOM      2  C   UNL     1       3.057   9.657   4.484  1.00  0.00     0.000 C 
BRANCH   2   3
ATOM      3  C   UNL     1       4.092   8.870   3.666  1.00  0.00     0.006 C 
BRANCH   3   4
ATOM      4  C   UNL     1       4.864   7.892   4.556  1.00  0.00     0.053 C 
BRANCH   4   5
ATOM      5  C   UNL     1       5.107   6.604   3.834  1.00  0.00     0.041 C 
ATOM      6  O   UNL     1       4.145   5.841   3.559  1.00  0.00    -0.550 OA
ATOM      7  O   UNL     1       6.403   6.223   3.510  1.00  0.00    -0.550 OA
ENDBRANCH   4   5
ENDBRANCH   3   4
ENDBRANCH   2   3
ENDBRANCH   1   2
BRANCH   1   8
ATOM      8  C   UNL     1       0.592   8.974   4.422  1.00  0.00     0.000 C 
BRANCH   8   9
ATOM      9  C   UNL     1       0.045   7.696   3.768  1.00  0.00     0.006 C 
BRANCH   9  10
ATOM     10  C   UNL     1       0.851   6.445   4.145  1.00  0.00     0.053 C 
BRANCH  10  11
ATOM     11  C   UNL     1       0.023   5.213   3.951  1.00  0.00     0.041 C 
ATOM     12  O   UNL     1      -0.059   4.354   4.867  1.00  0.00    -0.550 OA
ATOM     13  O   UNL     1      -0.698   5.039   2.777  1.00  0.00    -0.550 OA
ENDBRANCH  10  11
ENDBRANCH   9  10
ENDBRANCH   8   9
ENDBRANCH   1   8
TORSDOF 8
ENDMDL
MODEL 3
REMARK VINA RESULT:    -2.470      1.965      6.191
REMARK INTER + INTRA:          -4.131
REMARK INTER:                  -3.721
REMARK INTRA:                  -0.410
REMARK UNBOUND:                -0.505
REMARK SMILES O=C([O-])CCCCCCCC(=O)[O-]
REMARK SMILES IDX 7 1 6 2 5 3 4 4 2 5 1 6 3 7 8 8 9 9 10 10 11 11 12 12 13 13
REMARK H PARENT
REMARK Flexibility Score: inf
ROOT
ATOM      1  C   UNL     1       3.781   6.315   2.408  1.00  0.00     0.000 C 
ENDROOT
BRANCH   1   2
ATOM      2  C   UNL     1       4.495   6.773   3.690  1.00  0.00     0.000 C 
BRANCH   2   3
ATOM      3  C   UNL     1       5.961   6.316   3.749  1.00  0.00     0.006 C 
BRANCH   3   4
ATOM      4  C   UNL     1       6.602   6.356   2.358  1.00  0.00     0.053 C 
BRANCH   4   5
ATOM      5  C   UNL     1       7.464   7.570   2.212  1.00  0.00     0.041 C 
ATOM      6  O   UNL     1       8.712   7.451   2.090  1.00  0.00    -0.550 OA
ATOM      7  O   UNL     1       6.895   8.836   2.261  1.00  0.00    -0.550 OA
ENDBRANCH   4   5
ENDBRANCH   3   4
ENDBRANCH   2   3
ENDBRANCH   1   2
BRANCH   1   8
ATOM      8  C   UNL     1       2.314   6.774   2.351  1.00  0.00     0.000 C 
BRANCH   8   9
ATOM      9  C   UNL     1       1.746   7.105   3.740  1.00  0.00     0.006 C 
BRANCH   9  10
ATOM     10  C   UNL     1       0.232   6.873   3.833  1.00  0.00     0.053 C 
BRANCH  10  11
ATOM     11  C   UNL     1      -0.070   5.407   3.860  1.00  0.00     0.041 C 
ATOM     12  O   UNL     1      -0.703   4.873   2.912  1.00  0.00    -0.550 OA
ATOM     13  O   UNL     1       0.391   4.622   4.909  1.00  0.00    -0.550 OA
ENDBRANCH  10  11
ENDBRANCH   9  10
ENDBRANCH   8   9
ENDBRANCH   1   8
TORSDOF 8
ENDMDL
MODEL 4
REMARK VINA RESULT:    -2.468      2.366      3.237
REMARK INTER + INTRA:          -4.126
REMARK INTER:                  -3.359
REMARK INTRA:                  -0.767
REMARK UNBOUND:                -0.505
REMARK SMILES O=C([O-])CCCCCCCC(=O)[O-]
REMARK SMILES IDX 7 1 6 2 5 3 4 4 2 5 1 6 3 7 8 8 9 9 10 10 11 11 12 12 13 13
REMARK H PARENT
REMARK Flexibility Score: inf
ROOT
ATOM      1  C   UNL     1       3.595   6.178   3.361  1.00  0.00     0.000 C 
ENDROOT
BRANCH   1   2
ATOM      2  C   UNL     1       2.746   6.618   2.158  1.00  0.00     0.000 C 
BRANCH   2   3
ATOM      3  C   UNL     1       1.237   6.488   2.417  1.00  0.00     0.006 C 
BRANCH   3   4
ATOM      4  C   UNL     1       0.968   5.898   3.805  1.00  0.00     0.053 C 
BRANCH   4   5
ATOM      5  C   UNL     1      -0.277   5.070   3.791  1.00  0.00     0.041 C 
ATOM      6  O   UNL     1      -1.108   5.190   2.852  1.00  0.00    -0.550 OA
ATOM      7  O   UNL     1      -0.545   4.200   4.840  1.00  0.00    -0.550 OA
ENDBRANCH   4   5
ENDBRANCH   3   4
ENDBRANCH   2   3
ENDBRANCH   1   2
BRANCH   1   8
ATOM      8  C   UNL     1       4.507   7.301   3.884  1.00  0.00     0.000 C 
BRANCH   8   9
ATOM      9  C   UNL     1       3.872   8.692   3.738  1.00  0.00     0.006 C 
BRANCH   9  10
ATOM     10  C   UNL     1       2.994   9.073   4.938  1.00  0.00     0.053 C 
BRANCH  10  11
ATOM     11  C   UNL     1       1.631   9.485   4.477  1.00  0.00     0.041 C 
ATOM     12  O   UNL     1       0.641   9.370   5.246  1.00  0.00    -0.550 OA
ATOM     13  O   UNL     1       1.463  10.043   3.217  1.00  0.00    -0.550 OA
ENDBRANCH  10  11
ENDBRANCH   9  10
ENDBRANCH   8   9
ENDBRANCH   1   8
TORSDOF 8
ENDMDL
MODEL 5
REMARK VINA RESULT:    -2.429      2.193      5.124
REMARK INTER + INTRA:          -4.070
REMARK INTER:                  -3.324
REMARK INTRA:                  -0.746
REMARK UNBOUND:                -0.505
REMARK SMILES O=C([O-])CCCCCCCC(=O)[O-]
REMARK SMILES IDX 7 1 6 2 5 3 4 4 2 5 1 6 3 7 8 8 9 9 10 10 11 11 12 12 13 13
REMARK H PARENT
REMARK Flexibility Score: inf
ROOT
ATOM      1  C   UNL     1       3.837   6.071   2.927  1.00  0.00     0.000 C 
ENDROOT
BRANCH   1   2
ATOM      2  C   UNL     1       4.991   7.033   3.248  1.00  0.00     0.000 C 
BRANCH   2   3
ATOM      3  C   UNL     1       4.725   7.883   4.500  1.00  0.00     0.006 C 
BRANCH   3   4
ATOM      4  C   UNL     1       4.228   9.281   4.116  1.00  0.00     0.053 C 
BRANCH   4   5
ATOM      5  C   UNL     1       2.771   9.421   4.423  1.00  0.00     0.041 C 
ATOM      6  O   UNL     1       2.308   8.996   5.514  1.00  0.00    -0.550 OA
ATOM      7  O   UNL     1       1.913   9.977   3.482  1.00  0.00    -0.550 OA
ENDBRANCH   4   5
ENDBRANCH   3   4
ENDBRANCH   2   3
ENDBRANCH   1   2
BRANCH   1   8
ATOM      8  C   UNL     1       2.822   6.672   1.940  1.00  0.00     0.000 C 
BRANCH   8   9
ATOM      9  C   UNL     1       1.367   6.448   2.379  1.00  0.00     0.006 C 
BRANCH   9  10
ATOM     10  C   UNL     1       1.251   6.003   3.843  1.00  0.00     0.053 C 
BRANCH  10  11
ATOM     11  C   UNL     1      -0.094   5.400   4.101  1.00  0.00     0.041 C 
ATOM     12  O   UNL     1      -1.125   5.907   3.585  1.00  0.00    -0.550 OA
ATOM     13  O   UNL     1      -0.204   4.249   4.870  1.00  0.00    -0.550 OA
ENDBRANCH  10  11
ENDBRANCH   9  10
ENDBRANCH   8   9
ENDBRANCH   1   8
TORSDOF 8
ENDMDL
MODEL 6
REMARK VINA RESULT:    -2.346      2.124      2.763
REMARK INTER + INTRA:          -3.948
REMARK INTER:                  -3.564
REMARK INTRA:                  -0.384
REMARK UNBOUND:                -0.505
REMARK SMILES O=C([O-])CCCCCCCC(=O)[O-]
REMARK SMILES IDX 7 1 6 2 5 3 4 4 2 5 1 6 3 7 8 8 9 9 10 10 11 11 12 12 13 13
REMARK H PARENT
REMARK Flexibility Score: inf
ROOT
ATOM      1  C   UNL     1       3.600   6.382   2.510  1.00  0.00     0.000 C 
ENDROOT
BRANCH   1   2
ATOM      2  C   UNL     1       2.633   7.556   2.289  1.00  0.00     0.000 C 
BRANCH   2   3
ATOM      3  C   UNL     1       1.158   7.141   2.407  1.00  0.00     0.006 C 
BRANCH   3   4
ATOM      4  C   UNL     1       0.830   6.685   3.832  1.00  0.00     0.053 C 
BRANCH   4   5
ATOM      5  C   UNL     1       0.130   5.362   3.812  1.00  0.00     0.041 C 
ATOM      6  O   UNL     1      -0.549   5.020   2.808  1.00  0.00    -0.550 OA
ATOM      7  O   UNL     1       0.188   4.529   4.921  1.00  0.00    -0.550 OA
ENDBRANCH   4   5
ENDBRANCH   3   4
ENDBRANCH   2   3
ENDBRANCH   1   2
BRANCH   1   8
ATOM      8  C   UNL     1       4.506   6.584   3.736  1.00  0.00     0.000 C 
BRANCH   8   9
ATOM      9  C   UNL     1       5.936   6.073   3.503  1.00  0.00     0.006 C 
BRANCH   9  10
ATOM     10  C   UNL     1       6.496   6.480   2.134  1.00  0.00     0.053 C 
BRANCH  10  11
ATOM     11  C   UNL     1       7.333   7.715   2.259  1.00  0.00     0.041 C 
ATOM     12  O   UNL     1       8.589   7.636   2.217  1.00  0.00    -0.550 OA
ATOM     13  O   UNL     1       6.725   8.958   2.372  1.00  0.00    -0.550 OA
ENDBRANCH  10  11
ENDBRANCH   9  10
ENDBRANCH   8   9
ENDBRANCH   1   8
TORSDOF 8
ENDMDL
MODEL 7
REMARK VINA RESULT:    -2.266      1.702      2.203
REMARK INTER + INTRA:          -3.830
REMARK INTER:                  -3.426
REMARK INTRA:                  -0.405
REMARK UNBOUND:                -0.505
REMARK SMILES O=C([O-])CCCCCCCC(=O)[O-]
REMARK SMILES IDX 7 1 6 2 5 3 4 4 2 5 1 6 3 7 8 8 9 9 10 10 11 11 12 12 13 13
REMARK H PARENT
REMARK Flexibility Score: inf
ROOT
ATOM      1  C   UNL     1       3.594   8.145   4.187  1.00  0.00     0.000 C 
ENDROOT
BRANCH   1   2
ATOM      2  C   UNL     1       2.157   8.578   4.517  1.00  0.00     0.000 C 
BRANCH   2   3
ATOM      3  C   UNL     1       1.106   7.852   3.663  1.00  0.00     0.006 C 
BRANCH   3   4
ATOM      4  C   UNL     1       1.392   6.348   3.607  1.00  0.00     0.053 C 
BRANCH   4   5
ATOM      5  C   UNL     1       0.211   5.571   4.098  1.00  0.00     0.041 C 
ATOM      6  O   UNL     1       0.379   4.532   4.789  1.00  0.00    -0.550 OA
ATOM      7  O   UNL     1      -1.074   5.966   3.751  1.00  0.00    -0.550 OA
ENDBRANCH   4   5
ENDBRANCH   3   4
ENDBRANCH   2   3
ENDBRANCH   1   2
BRANCH   1   8
ATOM      8  C   UNL     1       4.320   9.150   3.276  1.00  0.00     0.000 C 
BRANCH   8   9
ATOM      9  C   UNL     1       5.004   8.473   2.078  1.00  0.00     0.006 C 
BRANCH   9  10
ATOM     10  C   UNL     1       6.530   8.631   2.099  1.00  0.00     0.053 C 
BRANCH  10  11
ATOM     11  C   UNL     1       7.188   7.308   2.337  1.00  0.00     0.041 C 
ATOM     12  O   UNL     1       8.360   7.100   1.926  1.00  0.00    -0.550 OA
ATOM     13  O   UNL     1       6.526   6.322   3.056  1.00  0.00    -0.550 OA
ENDBRANCH  10  11
ENDBRANCH   9  10
ENDBRANCH   8   9
ENDBRANCH   1   8
TORSDOF 8
ENDMDL
MODEL 8
REMARK VINA RESULT:    -2.258      2.071      4.821
REMARK INTER + INTRA:          -3.819
REMARK INTER:                  -3.227
REMARK INTRA:                  -0.592
REMARK UNBOUND:                -0.505
REMARK SMILES O=C([O-])CCCCCCCC(=O)[O-]
REMARK SMILES IDX 7 1 6 2 5 3 4 4 2 5 1 6 3 7 8 8 9 9 10 10 11 11 12 12 13 13
REMARK H PARENT
REMARK Flexibility Score: inf
ROOT
ATOM      1  C   UNL     1       4.988   8.938   3.457  1.00  0.00     0.000 C 
ENDROOT
BRANCH   1   2
ATOM      2  C   UNL     1       5.681   8.307   2.239  1.00  0.00     0.000 C 
BRANCH   2   3
ATOM      3  C   UNL     1       6.578   7.118   2.616  1.00  0.00     0.006 C 
BRANCH   3   4
ATOM      4  C   UNL     1       6.010   6.366   3.823  1.00  0.00     0.053 C 
BRANCH   4   5
ATOM      5  C   UNL     1       5.060   5.299   3.378  1.00  0.00     0.041 C 
ATOM      6  O   UNL     1       3.824   5.425   3.585  1.00  0.00    -0.550 OA
ATOM      7  O   UNL     1       5.544   4.143   2.780  1.00  0.00    -0.550 OA
ENDBRANCH   4   5
ENDBRANCH   3   4
ENDBRANCH   2   3
ENDBRANCH   1   2
BRANCH   1   8
ATOM      8  C   UNL     1       3.641   9.590   3.100  1.00  0.00     0.000 C 
BRANCH   8   9
ATOM      9  C   UNL     1       2.650   8.593   2.480  1.00  0.00     0.006 C 
BRANCH   9  10
ATOM     10  C   UNL     1       1.225   8.756   3.027  1.00  0.00     0.053 C 
BRANCH  10  11
ATOM     11  C   UNL     1       1.073   8.011   4.316  1.00  0.00     0.041 C 
ATOM     12  O   UNL     1       0.792   6.784   4.310  1.00  0.00    -0.550 OA
ATOM     13  O   UNL     1       1.291   8.661   5.524  1.00  0.00    -0.550 OA
ENDBRANCH  10  11
ENDBRANCH   9  10
ENDBRANCH   8   9
ENDBRANCH   1   8
TORSDOF 8
ENDMDL
MODEL 9
REMARK VINA RESULT:    -2.185      1.975      3.080
REMARK INTER + INTRA:          -3.711
REMARK INTER:                  -3.220
REMARK INTRA:                  -0.492
REMARK UNBOUND:                -0.505
REMARK SMILES O=C([O-])CCCCCCCC(=O)[O-]
REMARK SMILES IDX 7 1 6 2 5 3 4 4 2 5 1 6 3 7 8 8 9 9 10 10 11 11 12 12 13 13
REMARK H PARENT
REMARK Flexibility Score: inf
ROOT
ATOM      1  C   UNL     1       4.417   8.340   4.389  1.00  0.00     0.000 C 
ENDROOT
BRANCH   1   2
ATOM      2  C   UNL     1       3.701   9.700   4.414  1.00  0.00     0.000 C 
BRANCH   2   3
ATOM      3  C   UNL     1       2.271   9.628   3.856  1.00  0.00     0.006 C 
BRANCH   3   4
ATOM      4  C   UNL     1       1.320   8.982   4.868  1.00  0.00     0.053 C 
BRANCH   4   5
ATOM      5  C   UNL     1       0.440   7.978   4.193  1.00  0.00     0.041 C 
ATOM      6  O   UNL     1       0.803   6.775   4.104  1.00  0.00    -0.550 OA
ATOM      7  O   UNL     1      -0.759   8.379   3.619  1.00  0.00    -0.550 OA
ENDBRANCH   4   5
ENDBRANCH   3   4
ENDBRANCH   2   3
ENDBRANCH   1   2
BRANCH   1   8
ATOM      8  C   UNL     1       4.579   7.784   2.964  1.00  0.00     0.000 C 
BRANCH   8   9
ATOM      9  C   UNL     1       4.002   6.368   2.815  1.00  0.00     0.006 C 
BRANCH   9  10
ATOM     10  C   UNL     1       4.839   5.306   3.541  1.00  0.00     0.053 C 
BRANCH  10  11
ATOM     11  C   UNL     1       5.762   4.623   2.581  1.00  0.00     0.041 C 
ATOM     12  O   UNL     1       5.655   3.386   2.372  1.00  0.00    -0.550 OA
ATOM     13  O   UNL     1       6.706   5.361   1.881  1.00  0.00    -0.550 OA
ENDBRANCH  10  11
ENDBRANCH   9  10
ENDBRANCH   8   9
ENDBRANCH   1   8
TORSDOF 8
ENDMDL
