MODEL 1
REMARK VINA RESULT:    -4.458      0.000      0.000
REMARK INTER + INTRA:          -4.807
REMARK INTER:                  -4.718
REMARK INTRA:                  -0.089
REMARK UNBOUND:                -0.089
REMARK SMILES C=C(C)[C@@H]1CC=C(C)C(=O)C1
REMARK SMILES IDX 8 1 7 2 6 3 5 4 4 5 11 6 9 7 10 8 2 9 1 10 3 11
REMARK H PARENT
REMARK Flexibility Score: inf
ROOT
ATOM      1  C   UNL     1      30.284  41.288 144.800  1.00  0.00     0.048 C 
ATOM      2  C   UNL     1      29.142  42.046 144.184  1.00  0.00    -0.012 C 
ATOM      3  C   UNL     1      28.970  43.348 144.470  1.00  0.00    -0.019 C 
ATOM      4  C   UNL     1      27.854  44.158 143.865  1.00  0.00     0.036 C 
ATOM      5  C   UNL     1      26.606  43.288 143.625  1.00  0.00     0.025 C 
ATOM      6  C   UNL     1      26.966  42.062 142.767  1.00  0.00     0.089 C 
ATOM      7  C   UNL     1      28.136  41.327 143.360  1.00  0.00     0.158 C 
ATOM      8  O   UNL     1      28.276  40.097 143.120  1.00  0.00    -0.295 OA
ENDROOT
BRANCH   5   9
ATOM      9  C   UNL     1      25.478  44.096 142.996  1.00  0.00    -0.077 C 
ATOM     10  C   UNL     1      24.219  43.952 143.440  1.00  0.00     0.008 C 
ATOM     11  C   UNL     1      25.738  45.065 141.870  1.00  0.00     0.039 C 
ENDBRANCH   5   9
TORSDOF 1
ENDMDL
MODEL 2
REMARK VINA RESULT:    -4.446      2.207      4.668
REMARK INTER + INTRA:          -4.795
REMARK INTER:                  -4.704
REMARK INTRA:                  -0.092
REMARK UNBOUND:                -0.089
REMARK SMILES C=C(C)[C@@H]1CC=C(C)C(=O)C1
REMARK SMILES IDX 8 1 7 2 6 3 5 4 4 5 11 6 9 7 10 8 2 9 1 10 3 11
REMARK H PARENT
REMARK Flexibility Score: inf
ROOT
ATOM      1  C   UNL     1      24.111  44.830 142.790  1.00  0.00     0.048 C 
ATOM      2  C   UNL     1      25.464  44.174 142.832  1.00  0.00    -0.012 C 
ATOM      3  C   UNL     1      25.610  42.979 143.430  1.00  0.00    -0.019 C 
ATOM      4  C   UNL     1      26.938  42.271 143.484  1.00  0.00     0.036 C 
ATOM      5  C   UNL     1      28.101  43.278 143.559  1.00  0.00     0.025 C 
ATOM      6  C   UNL     1      28.020  44.276 142.390  1.00  0.00     0.089 C 
ATOM      7  C   UNL     1      26.654  44.901 142.322  1.00  0.00     0.158 C 
ATOM      8  O   UNL     1      26.523  46.037 141.791  1.00  0.00    -0.295 OA
ENDROOT
BRANCH   5   9
ATOM      9  C   UNL     1      29.449  42.570 143.594  1.00  0.00    -0.077 C 
ATOM     10  C   UNL     1      29.786  41.817 144.653  1.00  0.00     0.008 C 
ATOM     11  C   UNL     1      30.432  42.694 142.456  1.00  0.00     0.039 C 
ENDBRANCH   5   9
TORSDOF 1
ENDMDL
MODEL 3
REMARK VINA RESULT:    -4.347     12.590     13.533
REMARK INTER + INTRA:          -4.690
REMARK INTER:                  -4.595
REMARK INTRA:                  -0.095
REMARK UNBOUND:                -0.089
REMARK SMILES C=C(C)[C@@H]1CC=C(C)C(=O)C1
REMARK SMILES IDX 8 1 7 2 6 3 5 4 4 5 11 6 9 7 10 8 2 9 1 10 3 11
REMARK H PARENT
REMARK Flexibility Score: inf
ROOT
ATOM      1  C   UNL     1      30.128  32.139 137.962  1.00  0.00     0.048 C 
ATOM      2  C   UNL     1      28.856  31.363 138.165  1.00  0.00    -0.012 C 
ATOM      3  C   UNL     1      27.749  31.702 137.482  1.00  0.00    -0.019 C 
ATOM      4  C   UNL     1      26.455  30.947 137.634  1.00  0.00     0.036 C 
ATOM      5  C   UNL     1      26.298  30.400 139.066  1.00  0.00     0.025 C 
ATOM      6  C   UNL     1      27.519  29.546 139.449  1.00  0.00     0.089 C 
ATOM      7  C   UNL     1      28.794  30.306 139.206  1.00  0.00     0.158 C 
ATOM      8  O   UNL     1      29.822  30.011 139.872  1.00  0.00    -0.295 OA
ENDROOT
BRANCH   5   9
ATOM      9  C   UNL     1      25.000  29.619 139.223  1.00  0.00    -0.077 C 
ATOM     10  C   UNL     1      23.843  30.140 138.784  1.00  0.00     0.008 C 
ATOM     11  C   UNL     1      24.976  28.256 139.870  1.00  0.00     0.039 C 
ENDBRANCH   5   9
TORSDOF 1
ENDMDL
MODEL 4
REMARK VINA RESULT:    -4.329     12.023     13.273
REMARK INTER + INTRA:          -4.671
REMARK INTER:                  -4.581
REMARK INTRA:                  -0.091
REMARK UNBOUND:                -0.089
REMARK SMILES C=C(C)[C@@H]1CC=C(C)C(=O)C1
REMARK SMILES IDX 8 1 7 2 6 3 5 4 4 5 11 6 9 7 10 8 2 9 1 10 3 11
REMARK H PARENT
REMARK Flexibility Score: inf
ROOT
ATOM      1  C   UNL     1      29.817  33.871 135.571  1.00  0.00     0.048 C 
ATOM      2  C   UNL     1      29.525  32.734 136.510  1.00  0.00    -0.012 C 
ATOM      3  C   UNL     1      28.631  31.792 136.164  1.00  0.00    -0.019 C 
ATOM      4  C   UNL     1      28.316  30.623 137.060  1.00  0.00     0.036 C 
ATOM      5  C   UNL     1      28.431  31.016 138.545  1.00  0.00     0.025 C 
ATOM      6  C   UNL     1      29.820  31.613 138.833  1.00  0.00     0.089 C 
ATOM      7  C   UNL     1      30.131  32.722 137.866  1.00  0.00     0.158 C 
ATOM      8  O   UNL     1      30.943  33.624 138.206  1.00  0.00    -0.295 OA
ENDROOT
BRANCH   5   9
ATOM      9  C   UNL     1      28.133  29.834 139.458  1.00  0.00    -0.077 C 
ATOM     10  C   UNL     1      26.872  29.392 139.596  1.00  0.00     0.008 C 
ATOM     11  C   UNL     1      29.228  29.137 140.225  1.00  0.00     0.039 C 
ENDBRANCH   5   9
TORSDOF 1
ENDMDL
MODEL 5
REMARK VINA RESULT:    -4.324      8.449      9.992
REMARK INTER + INTRA:          -4.666
REMARK INTER:                  -4.570
REMARK INTRA:                  -0.096
REMARK UNBOUND:                -0.089
REMARK SMILES C=C(C)[C@@H]1CC=C(C)C(=O)C1
REMARK SMILES IDX 8 1 7 2 6 3 5 4 4 5 11 6 9 7 10 8 2 9 1 10 3 11
REMARK H PARENT
REMARK Flexibility Score: inf
ROOT
ATOM      1  C   UNL     1      34.349  42.211 148.692  1.00  0.00     0.048 C 
ATOM      2  C   UNL     1      35.380  42.282 147.599  1.00  0.00    -0.012 C 
ATOM      3  C   UNL     1      36.533  42.940 147.809  1.00  0.00    -0.019 C 
ATOM      4  C   UNL     1      37.606  43.026 146.756  1.00  0.00     0.036 C 
ATOM      5  C   UNL     1      36.994  43.048 145.343  1.00  0.00     0.025 C 
ATOM      6  C   UNL     1      36.075  41.831 145.139  1.00  0.00     0.089 C 
ATOM      7  C   UNL     1      35.070  41.734 146.254  1.00  0.00     0.158 C 
ATOM      8  O   UNL     1      33.974  41.148 146.045  1.00  0.00    -0.295 OA
ENDROOT
BRANCH   5   9
ATOM      9  C   UNL     1      38.074  43.116 144.270  1.00  0.00    -0.077 C 
ATOM     10  C   UNL     1      39.161  43.881 144.457  1.00  0.00     0.008 C 
ATOM     11  C   UNL     1      37.954  42.336 142.984  1.00  0.00     0.039 C 
ENDBRANCH   5   9
TORSDOF 1
ENDMDL
MODEL 6
REMARK VINA RESULT:    -4.315     15.900     17.440
REMARK INTER + INTRA:          -4.656
REMARK INTER:                  -4.558
REMARK INTRA:                  -0.099
REMARK UNBOUND:                -0.089
REMARK SMILES C=C(C)[C@@H]1CC=C(C)C(=O)C1
REMARK SMILES IDX 8 1 7 2 6 3 5 4 4 5 11 6 9 7 10 8 2 9 1 10 3 11
REMARK H PARENT
REMARK Flexibility Score: inf
ROOT
ATOM      1  C   UNL     1      33.754  33.329 131.284  1.00  0.00     0.048 C 
ATOM      2  C   UNL     1      35.082  33.476 131.975  1.00  0.00    -0.012 C 
ATOM      3  C   UNL     1      36.206  33.588 131.247  1.00  0.00    -0.019 C 
ATOM      4  C   UNL     1      37.559  33.756 131.888  1.00  0.00     0.036 C 
ATOM      5  C   UNL     1      37.628  33.017 133.238  1.00  0.00     0.025 C 
ATOM      6  C   UNL     1      36.485  33.480 134.159  1.00  0.00     0.089 C 
ATOM      7  C   UNL     1      35.161  33.373 133.454  1.00  0.00     0.158 C 
ATOM      8  O   UNL     1      34.110  33.233 134.137  1.00  0.00    -0.295 OA
ENDROOT
BRANCH   5   9
ATOM      9  C   UNL     1      38.986  33.197 133.902  1.00  0.00    -0.077 C 
ATOM     10  C   UNL     1      39.098  33.943 135.013  1.00  0.00     0.008 C 
ATOM     11  C   UNL     1      40.228  32.554 133.338  1.00  0.00     0.039 C 
ENDBRANCH   5   9
TORSDOF 1
ENDMDL
MODEL 7
REMARK VINA RESULT:    -4.288     11.439     13.018
REMARK INTER + INTRA:          -4.628
REMARK INTER:                  -4.538
REMARK INTRA:                  -0.090
REMARK UNBOUND:                -0.089
REMARK SMILES C=C(C)[C@@H]1CC=C(C)C(=O)C1
REMARK SMILES IDX 8 1 7 2 6 3 5 4 4 5 11 6 9 7 10 8 2 9 1 10 3 11
REMARK H PARENT
REMARK Flexibility Score: inf
ROOT
ATOM      1  C   UNL     1      29.387  33.169 136.030  1.00  0.00     0.048 C 
ATOM      2  C   UNL     1      28.408  32.401 136.875  1.00  0.00    -0.012 C 
ATOM      3  C   UNL     1      28.340  31.063 136.771  1.00  0.00    -0.019 C 
ATOM      4  C   UNL     1      27.392  30.245 137.608  1.00  0.00     0.036 C 
ATOM      5  C   UNL     1      26.097  31.027 137.901  1.00  0.00     0.025 C 
ATOM      6  C   UNL     1      26.426  32.382 138.551  1.00  0.00     0.089 C 
ATOM      7  C   UNL     1      27.437  33.132 137.729  1.00  0.00     0.158 C 
ATOM      8  O   UNL     1      27.476  34.390 137.800  1.00  0.00    -0.295 OA
ENDROOT
BRANCH   5   9
ATOM      9  C   UNL     1      25.139  30.213 138.762  1.00  0.00    -0.077 C 
ATOM     10  C   UNL     1      23.813  30.375 138.630  1.00  0.00     0.008 C 
ATOM     11  C   UNL     1      25.646  29.218 139.776  1.00  0.00     0.039 C 
ENDBRANCH   5   9
TORSDOF 1
ENDMDL
MODEL 8
REMARK VINA RESULT:    -4.280      1.296      4.248
REMARK INTER + INTRA:          -4.619
REMARK INTER:                  -4.522
REMARK INTRA:                  -0.097
REMARK UNBOUND:                -0.089
REMARK SMILES C=C(C)[C@@H]1CC=C(C)C(=O)C1
REMARK SMILES IDX 8 1 7 2 6 3 5 4 4 5 11 6 9 7 10 8 2 9 1 10 3 11
REMARK H PARENT
REMARK Flexibility Score: inf
ROOT
ATOM      1  C   UNL     1      25.127  43.845 143.415  1.00  0.00     0.048 C 
ATOM      2  C   UNL     1      26.513  43.310 143.648  1.00  0.00    -0.012 C 
ATOM      3  C   UNL     1      27.491  44.138 144.052  1.00  0.00    -0.019 C 
ATOM      4  C   UNL     1      28.891  43.650 144.318  1.00  0.00     0.036 C 
ATOM      5  C   UNL     1      29.257  42.482 143.383  1.00  0.00     0.025 C 
ATOM      6  C   UNL     1      28.215  41.355 143.502  1.00  0.00     0.089 C 
ATOM      7  C   UNL     1      26.826  41.897 143.312  1.00  0.00     0.158 C 
ATOM      8  O   UNL     1      25.917  41.127 142.899  1.00  0.00    -0.295 OA
ENDROOT
BRANCH   5   9
ATOM      9  C   UNL     1      30.665  41.970 143.657  1.00  0.00    -0.077 C 
ATOM     10  C   UNL     1      30.863  40.998 144.562  1.00  0.00     0.008 C 
ATOM     11  C   UNL     1      31.861  42.533 142.932  1.00  0.00     0.039 C 
ENDBRANCH   5   9
TORSDOF 1
ENDMDL
MODEL 9
REMARK VINA RESULT:    -4.178      1.950      4.547
REMARK INTER + INTRA:          -4.511
REMARK INTER:                  -4.412
REMARK INTRA:                  -0.098
REMARK UNBOUND:                -0.089
REMARK SMILES C=C(C)[C@@H]1CC=C(C)C(=O)C1
REMARK SMILES IDX 8 1 7 2 6 3 5 4 4 5 11 6 9 7 10 8 2 9 1 10 3 11
REMARK H PARENT
REMARK Flexibility Score: inf
ROOT
ATOM      1  C   UNL     1      23.760  44.491 140.463  1.00  0.00     0.048 C 
ATOM      2  C   UNL     1      24.844  44.234 141.473  1.00  0.00    -0.012 C 
ATOM      3  C   UNL     1      25.941  45.010 141.490  1.00  0.00    -0.019 C 
ATOM      4  C   UNL     1      27.047  44.808 142.491  1.00  0.00     0.036 C 
ATOM      5  C   UNL     1      27.193  43.319 142.862  1.00  0.00     0.025 C 
ATOM      6  C   UNL     1      25.849  42.757 143.356  1.00  0.00     0.089 C 
ATOM      7  C   UNL     1      24.756  43.051 142.367  1.00  0.00     0.158 C 
ATOM      8  O   UNL     1      23.743  42.302 142.328  1.00  0.00    -0.295 OA
ENDROOT
BRANCH   5   9
ATOM      9  C   UNL     1      28.297  43.107 143.889  1.00  0.00    -0.077 C 
ATOM     10  C   UNL     1      28.638  44.101 144.725  1.00  0.00     0.008 C 
ATOM     11  C   UNL     1      29.032  41.794 143.994  1.00  0.00     0.039 C 
ENDBRANCH   5   9
TORSDOF 1
ENDMDL
