MODEL 1
REMARK VINA RESULT:    -4.011      0.000      0.000
REMARK INTER + INTRA:         -12.816
REMARK INTER:                 -10.577
REMARK INTRA:                  -2.239
REMARK UNBOUND:                -2.239
REMARK SMILES CCCCCCCCCCCCCCCCCCCCCCCCCCCCCC(=O)[O-]
REMARK SMILES IDX 16 1 17 2 18 3 19 4 20 5 21 6 22 7 23 8 24 9 25 10 26 11
REMARK SMILES IDX 27 12 28 13 29 14 30 15 31 16 32 17 15 18 14 19 13 20 12 21
REMARK SMILES IDX 11 22 10 23 9 24 8 25 7 26 6 27 5 28 4 29 3 30 2 31 1 32
REMARK H PARENT
REMARK Flexibility Score: inf
ROOT
ATOM      1  C   UNL     1      47.862   6.022  15.741  1.00  0.00     0.000 C 
ENDROOT
BRANCH   1   2
ATOM      2  C   UNL     1      47.727   4.518  15.459  1.00  0.00     0.000 C 
BRANCH   2   3
ATOM      3  C   UNL     1      46.916   4.216  14.186  1.00  0.00     0.000 C 
BRANCH   3   4
ATOM      4  C   UNL     1      45.390   4.387  14.331  1.00  0.00     0.000 C 
BRANCH   4   5
ATOM      5  C   UNL     1      44.550   3.176  13.875  1.00  0.00     0.000 C 
BRANCH   5   6
ATOM      6  C   UNL     1      45.243   1.807  14.028  1.00  0.00     0.000 C 
BRANCH   6   7
ATOM      7  C   UNL     1      44.290   0.611  14.195  1.00  0.00     0.000 C 
BRANCH   7   8
ATOM      8  C   UNL     1      44.964  -0.737  13.896  1.00  0.00     0.000 C 
BRANCH   8   9
ATOM      9  C   UNL     1      44.934  -1.648  15.133  1.00  0.00     0.000 C 
BRANCH   9  10
ATOM     10  C   UNL     1      45.923  -2.821  15.033  1.00  0.00     0.000 C 
BRANCH  10  11
ATOM     11  C   UNL     1      47.322  -2.461  15.560  1.00  0.00     0.000 C 
BRANCH  11  12
ATOM     12  C   UNL     1      47.452  -2.649  17.080  1.00  0.00     0.000 C 
BRANCH  12  13
ATOM     13  C   UNL     1      48.275  -3.892  17.458  1.00  0.00     0.006 C 
BRANCH  13  14
ATOM     14  C   UNL     1      48.702  -4.667  16.207  1.00  0.00     0.053 C 
BRANCH  14  15
ATOM     15  C   UNL     1      49.044  -6.084  16.551  1.00  0.00     0.041 C 
ATOM     16  O   UNL     1      48.137  -6.894  16.878  1.00  0.00    -0.550 OA
ATOM     17  O   UNL     1      50.363  -6.516  16.490  1.00  0.00    -0.550 OA
ENDBRANCH  14  15
ENDBRANCH  13  14
ENDBRANCH  12  13
ENDBRANCH  11  12
ENDBRANCH  10  11
ENDBRANCH   9  10
ENDBRANCH   8   9
ENDBRANCH   7   8
ENDBRANCH   6   7
ENDBRANCH   5   6
ENDBRANCH   4   5
ENDBRANCH   3   4
ENDBRANCH   2   3
ENDBRANCH   1   2
BRANCH   1  18
ATOM     18  C   UNL     1      47.048   6.421  16.980  1.00  0.00     0.000 C 
BRANCH  18  19
ATOM     19  C   UNL     1      46.284   7.743  16.788  1.00  0.00     0.000 C 
BRANCH  19  20
ATOM     20  C   UNL     1      44.866   7.768  17.393  1.00  0.00     0.000 C 
BRANCH  20  21
ATOM     21  C   UNL     1      43.918   8.820  16.789  1.00  0.00     0.000 C 
BRANCH  21  22
ATOM     22  C   UNL     1      44.057  10.197  17.453  1.00  0.00     0.000 C 
BRANCH  22  23
ATOM     23  C   UNL     1      43.015  10.378  18.567  1.00  0.00     0.000 C 
BRANCH  23  24
ATOM     24  C   UNL     1      43.637  10.843  19.895  1.00  0.00    -0.000 C 
BRANCH  24  25
ATOM     25  C   UNL     1      44.147   9.709  20.808  1.00  0.00    -0.000 C 
BRANCH  25  26
ATOM     26  C   UNL     1      45.664   9.438  20.732  1.00  0.00    -0.000 C 
BRANCH  26  27
ATOM     27  C   UNL     1      46.079   7.987  21.037  1.00  0.00    -0.000 C 
BRANCH  27  28
ATOM     28  C   UNL     1      47.122   7.893  22.162  1.00  0.00    -0.000 C 
BRANCH  28  29
ATOM     29  C   UNL     1      46.794   8.871  23.301  1.00  0.00    -0.000 C 
BRANCH  29  30
ATOM     30  C   UNL     1      45.521   8.484  24.077  1.00  0.00    -0.000 C 
BRANCH  30  31
ATOM     31  C   UNL     1      44.748   9.669  24.684  1.00  0.00    -0.003 C 
ATOM     32  C   UNL     1      43.252   9.629  24.375  1.00  0.00     0.004 C 
ENDBRANCH  30  31
ENDBRANCH  29  30
ENDBRANCH  28  29
ENDBRANCH  27  28
ENDBRANCH  26  27
ENDBRANCH  25  26
ENDBRANCH  24  25
ENDBRANCH  23  24
ENDBRANCH  22  23
ENDBRANCH  21  22
ENDBRANCH  20  21
ENDBRANCH  19  20
ENDBRANCH  18  19
ENDBRANCH   1  18
TORSDOF 28
ENDMDL
MODEL 2
REMARK VINA RESULT:    -3.548      5.151     12.030
REMARK INTER + INTRA:         -11.594
REMARK INTER:                  -9.402
REMARK INTRA:                  -2.192
REMARK UNBOUND:                -2.239
REMARK SMILES CCCCCCCCCCCCCCCCCCCCCCCCCCCCCC(=O)[O-]
REMARK SMILES IDX 16 1 17 2 18 3 19 4 20 5 21 6 22 7 23 8 24 9 25 10 26 11
REMARK SMILES IDX 27 12 28 13 29 14 30 15 31 16 32 17 15 18 14 19 13 20 12 21
REMARK SMILES IDX 11 22 10 23 9 24 8 25 7 26 6 27 5 28 4 29 3 30 2 31 1 32
REMARK H PARENT
REMARK Flexibility Score: inf
ROOT
ATOM      1  C   UNL     1      47.423   5.105  15.370  1.00  0.00     0.000 C 
ENDROOT
BRANCH   1   2
ATOM      2  C   UNL     1      47.097   6.576  15.075  1.00  0.00     0.000 C 
BRANCH   2   3
ATOM      3  C   UNL     1      45.707   6.769  14.444  1.00  0.00     0.000 C 
BRANCH   3   4
ATOM      4  C   UNL     1      45.397   8.207  13.980  1.00  0.00     0.000 C 
BRANCH   4   5
ATOM      5  C   UNL     1      46.080   9.321  14.800  1.00  0.00     0.000 C 
BRANCH   5   6
ATOM      6  C   UNL     1      45.332   9.741  16.081  1.00  0.00     0.000 C 
BRANCH   6   7
ATOM      7  C   UNL     1      46.152   9.630  17.378  1.00  0.00     0.000 C 
BRANCH   7   8
ATOM      8  C   UNL     1      45.320   9.138  18.572  1.00  0.00     0.000 C 
BRANCH   8   9
ATOM      9  C   UNL     1      44.066  10.006  18.759  1.00  0.00     0.000 C 
BRANCH   9  10
ATOM     10  C   UNL     1      44.189  10.984  19.939  1.00  0.00     0.000 C 
BRANCH  10  11
ATOM     11  C   UNL     1      45.527  10.843  20.685  1.00  0.00     0.000 C 
BRANCH  11  12
ATOM     12  C   UNL     1      45.348  10.723  22.207  1.00  0.00     0.000 C 
BRANCH  12  13
ATOM     13  C   UNL     1      44.033  10.032  22.600  1.00  0.00     0.006 C 
BRANCH  13  14
ATOM     14  C   UNL     1      44.257   9.034  23.742  1.00  0.00     0.053 C 
BRANCH  14  15
ATOM     15  C   UNL     1      43.462   9.421  24.950  1.00  0.00     0.041 C 
ATOM     16  O   UNL     1      44.039   9.620  26.052  1.00  0.00    -0.550 OA
ATOM     17  O   UNL     1      42.085   9.584  24.855  1.00  0.00    -0.550 OA
ENDBRANCH  14  15
ENDBRANCH  13  14
ENDBRANCH  12  13
ENDBRANCH  11  12
ENDBRANCH  10  11
ENDBRANCH   9  10
ENDBRANCH   8   9
ENDBRANCH   7   8
ENDBRANCH   6   7
ENDBRANCH   5   6
ENDBRANCH   4   5
ENDBRANCH   3   4
ENDBRANCH   2   3
ENDBRANCH   1   2
BRANCH   1  18
ATOM     18  C   UNL     1      48.036   4.423  14.139  1.00  0.00     0.000 C 
BRANCH  18  19
ATOM     19  C   UNL     1      47.594   2.956  13.990  1.00  0.00     0.000 C 
BRANCH  19  20
ATOM     20  C   UNL     1      46.073   2.722  14.101  1.00  0.00     0.000 C 
BRANCH  20  21
ATOM     21  C   UNL     1      45.620   1.268  13.876  1.00  0.00     0.000 C 
BRANCH  21  22
ATOM     22  C   UNL     1      44.287   0.947  14.567  1.00  0.00     0.000 C 
BRANCH  22  23
ATOM     23  C   UNL     1      43.805  -0.465  14.201  1.00  0.00     0.000 C 
BRANCH  23  24
ATOM     24  C   UNL     1      44.157  -1.510  15.274  1.00  0.00    -0.000 C 
BRANCH  24  25
ATOM     25  C   UNL     1      44.125  -2.975  14.792  1.00  0.00    -0.000 C 
BRANCH  25  26
ATOM     26  C   UNL     1      45.452  -3.503  14.210  1.00  0.00    -0.000 C 
BRANCH  26  27
ATOM     27  C   UNL     1      46.681  -2.621  14.499  1.00  0.00    -0.000 C 
BRANCH  27  28
ATOM     28  C   UNL     1      47.526  -3.146  15.671  1.00  0.00    -0.000 C 
BRANCH  28  29
ATOM     29  C   UNL     1      47.727  -2.056  16.735  1.00  0.00    -0.000 C 
BRANCH  29  30
ATOM     30  C   UNL     1      46.583  -2.004  17.765  1.00  0.00    -0.000 C 
BRANCH  30  31
ATOM     31  C   UNL     1      45.857  -0.650  17.858  1.00  0.00    -0.003 C 
ATOM     32  C   UNL     1      45.701  -0.152  19.293  1.00  0.00     0.004 C 
ENDBRANCH  30  31
ENDBRANCH  29  30
ENDBRANCH  28  29
ENDBRANCH  27  28
ENDBRANCH  26  27
ENDBRANCH  25  26
ENDBRANCH  24  25
ENDBRANCH  23  24
ENDBRANCH  22  23
ENDBRANCH  21  22
ENDBRANCH  20  21
ENDBRANCH  19  20
ENDBRANCH  18  19
ENDBRANCH   1  18
TORSDOF 28
ENDMDL
MODEL 3
REMARK VINA RESULT:    -3.537      4.064     11.789
REMARK INTER + INTRA:         -11.567
REMARK INTER:                 -10.369
REMARK INTRA:                  -1.197
REMARK UNBOUND:                -2.239
REMARK SMILES CCCCCCCCCCCCCCCCCCCCCCCCCCCCCC(=O)[O-]
REMARK SMILES IDX 16 1 17 2 18 3 19 4 20 5 21 6 22 7 23 8 24 9 25 10 26 11
REMARK SMILES IDX 27 12 28 13 29 14 30 15 31 16 32 17 15 18 14 19 13 20 12 21
REMARK SMILES IDX 11 22 10 23 9 24 8 25 7 26 6 27 5 28 4 29 3 30 2 31 1 32
REMARK H PARENT
REMARK Flexibility Score: inf
ROOT
ATOM      1  C   UNL     1      45.914   7.312  16.122  1.00  0.00     0.000 C 
ENDROOT
BRANCH   1   2
ATOM      2  C   UNL     1      46.379   8.768  16.266  1.00  0.00     0.000 C 
BRANCH   2   3
ATOM      3  C   UNL     1      45.234   9.783  16.100  1.00  0.00     0.000 C 
BRANCH   3   4
ATOM      4  C   UNL     1      43.916   9.399  16.803  1.00  0.00     0.000 C 
BRANCH   4   5
ATOM      5  C   UNL     1      43.649  10.128  18.136  1.00  0.00     0.000 C 
BRANCH   5   6
ATOM      6  C   UNL     1      44.782  11.062  18.606  1.00  0.00     0.000 C 
BRANCH   6   7
ATOM      7  C   UNL     1      45.286  10.804  20.036  1.00  0.00     0.000 C 
BRANCH   7   8
ATOM      8  C   UNL     1      45.216   9.323  20.437  1.00  0.00     0.000 C 
BRANCH   8   9
ATOM      9  C   UNL     1      44.111   9.090  21.479  1.00  0.00     0.000 C 
BRANCH   9  10
ATOM     10  C   UNL     1      44.020  10.222  22.515  1.00  0.00     0.000 C 
BRANCH  10  11
ATOM     11  C   UNL     1      44.500   9.786  23.909  1.00  0.00     0.000 C 
BRANCH  11  12
ATOM     12  C   UNL     1      45.850  10.412  24.296  1.00  0.00     0.000 C 
BRANCH  12  13
ATOM     13  C   UNL     1      46.995   9.978  23.368  1.00  0.00     0.006 C 
BRANCH  13  14
ATOM     14  C   UNL     1      46.863   8.499  22.989  1.00  0.00     0.053 C 
BRANCH  14  15
ATOM     15  C   UNL     1      48.211   7.884  22.767  1.00  0.00     0.041 C 
ATOM     16  O   UNL     1      48.310   6.664  22.471  1.00  0.00    -0.550 OA
ATOM     17  O   UNL     1      49.356   8.665  22.865  1.00  0.00    -0.550 OA
ENDBRANCH  14  15
ENDBRANCH  13  14
ENDBRANCH  12  13
ENDBRANCH  11  12
ENDBRANCH  10  11
ENDBRANCH   9  10
ENDBRANCH   8   9
ENDBRANCH   7   8
ENDBRANCH   6   7
ENDBRANCH   5   6
ENDBRANCH   4   5
ENDBRANCH   3   4
ENDBRANCH   2   3
ENDBRANCH   1   2
BRANCH   1  18
ATOM     18  C   UNL     1      45.372   7.048  14.710  1.00  0.00     0.000 C 
BRANCH  18  19
ATOM     19  C   UNL     1      46.068   5.860  14.020  1.00  0.00     0.000 C 
BRANCH  19  20
ATOM     20  C   UNL     1      47.455   5.499  14.589  1.00  0.00     0.000 C 
BRANCH  20  21
ATOM     21  C   UNL     1      47.580   4.069  15.143  1.00  0.00     0.000 C 
BRANCH  21  22
ATOM     22  C   UNL     1      47.578   3.002  14.039  1.00  0.00     0.000 C 
BRANCH  22  23
ATOM     23  C   UNL     1      46.181   2.384  13.875  1.00  0.00     0.000 C 
BRANCH  23  24
ATOM     24  C   UNL     1      46.180   0.857  14.067  1.00  0.00    -0.000 C 
BRANCH  24  25
ATOM     25  C   UNL     1      44.785   0.198  14.028  1.00  0.00    -0.000 C 
BRANCH  25  26
ATOM     26  C   UNL     1      44.342  -0.475  15.343  1.00  0.00    -0.000 C 
BRANCH  26  27
ATOM     27  C   UNL     1      45.003  -1.835  15.630  1.00  0.00    -0.000 C 
BRANCH  27  28
ATOM     28  C   UNL     1      45.873  -2.331  14.464  1.00  0.00    -0.000 C 
BRANCH  28  29
ATOM     29  C   UNL     1      47.009  -3.233  14.969  1.00  0.00    -0.000 C 
BRANCH  29  30
ATOM     30  C   UNL     1      47.958  -2.514  15.947  1.00  0.00    -0.000 C 
BRANCH  30  31
ATOM     31  C   UNL     1      48.628  -3.427  16.988  1.00  0.00    -0.003 C 
ATOM     32  C   UNL     1      47.856  -4.722  17.233  1.00  0.00     0.004 C 
ENDBRANCH  30  31
ENDBRANCH  29  30
ENDBRANCH  28  29
ENDBRANCH  27  28
ENDBRANCH  26  27
ENDBRANCH  25  26
ENDBRANCH  24  25
ENDBRANCH  23  24
ENDBRANCH  22  23
ENDBRANCH  21  22
ENDBRANCH  20  21
ENDBRANCH  19  20
ENDBRANCH  18  19
ENDBRANCH   1  18
TORSDOF 28
ENDMDL
MODEL 4
REMARK VINA RESULT:    -3.513      1.404      2.875
REMARK INTER + INTRA:         -11.501
REMARK INTER:                  -9.563
REMARK INTRA:                  -1.938
REMARK UNBOUND:                -2.239
REMARK SMILES CCCCCCCCCCCCCCCCCCCCCCCCCCCCCC(=O)[O-]
REMARK SMILES IDX 16 1 17 2 18 3 19 4 20 5 21 6 22 7 23 8 24 9 25 10 26 11
REMARK SMILES IDX 27 12 28 13 29 14 30 15 31 16 32 17 15 18 14 19 13 20 12 21
REMARK SMILES IDX 11 22 10 23 9 24 8 25 7 26 6 27 5 28 4 29 3 30 2 31 1 32
REMARK H PARENT
REMARK Flexibility Score: inf
ROOT
ATOM      1  C   UNL     1      43.510   6.975  15.585  1.00  0.00     0.000 C 
ENDROOT
BRANCH   1   2
ATOM      2  C   UNL     1      43.885   6.791  14.108  1.00  0.00     0.000 C 
BRANCH   2   3
ATOM      3  C   UNL     1      45.376   6.467  13.904  1.00  0.00     0.000 C 
BRANCH   3   4
ATOM      4  C   UNL     1      45.887   5.236  14.680  1.00  0.00     0.000 C 
BRANCH   4   5
ATOM      5  C   UNL     1      45.913   3.920  13.875  1.00  0.00     0.000 C 
BRANCH   5   6
ATOM      6  C   UNL     1      44.629   3.072  13.970  1.00  0.00     0.000 C 
BRANCH   6   7
ATOM      7  C   UNL     1      44.847   1.551  13.889  1.00  0.00     0.000 C 
BRANCH   7   8
ATOM      8  C   UNL     1      46.312   1.145  14.106  1.00  0.00     0.000 C 
BRANCH   8   9
ATOM      9  C   UNL     1      46.407  -0.294  14.638  1.00  0.00     0.000 C 
BRANCH   9  10
ATOM     10  C   UNL     1      45.029  -0.937  14.867  1.00  0.00     0.000 C 
BRANCH  10  11
ATOM     11  C   UNL     1      44.815  -2.196  14.010  1.00  0.00     0.000 C 
BRANCH  11  12
ATOM     12  C   UNL     1      45.649  -3.394  14.494  1.00  0.00     0.000 C 
BRANCH  12  13
ATOM     13  C   UNL     1      46.234  -3.182  15.899  1.00  0.00     0.006 C 
BRANCH  13  14
ATOM     14  C   UNL     1      47.767  -3.189  15.861  1.00  0.00     0.053 C 
BRANCH  14  15
ATOM     15  C   UNL     1      48.317  -4.214  16.805  1.00  0.00     0.041 C 
ATOM     16  O   UNL     1      47.626  -5.217  17.125  1.00  0.00    -0.550 OA
ATOM     17  O   UNL     1      49.602  -4.071  17.315  1.00  0.00    -0.550 OA
ENDBRANCH  14  15
ENDBRANCH  13  14
ENDBRANCH  12  13
ENDBRANCH  11  12
ENDBRANCH  10  11
ENDBRANCH   9  10
ENDBRANCH   8   9
ENDBRANCH   7   8
ENDBRANCH   6   7
ENDBRANCH   5   6
ENDBRANCH   4   5
ENDBRANCH   3   4
ENDBRANCH   2   3
ENDBRANCH   1   2
BRANCH   1  18
ATOM     18  C   UNL     1      44.396   8.040  16.247  1.00  0.00     0.000 C 
BRANCH  18  19
ATOM     19  C   UNL     1      43.886   8.456  17.639  1.00  0.00     0.000 C 
BRANCH  19  20
ATOM     20  C   UNL     1      43.365   9.905  17.734  1.00  0.00     0.000 C 
BRANCH  20  21
ATOM     21  C   UNL     1      44.310  10.892  18.441  1.00  0.00     0.000 C 
BRANCH  21  22
ATOM     22  C   UNL     1      45.610  10.230  18.922  1.00  0.00     0.000 C 
BRANCH  22  23
ATOM     23  C   UNL     1      45.695  10.236  20.455  1.00  0.00     0.000 C 
BRANCH  23  24
ATOM     24  C   UNL     1      44.623  11.125  21.108  1.00  0.00    -0.000 C 
BRANCH  24  25
ATOM     25  C   UNL     1      43.702  10.403  22.113  1.00  0.00    -0.000 C 
BRANCH  25  26
ATOM     26  C   UNL     1      43.938  10.764  23.594  1.00  0.00    -0.000 C 
BRANCH  26  27
ATOM     27  C   UNL     1      44.937   9.853  24.331  1.00  0.00    -0.000 C 
BRANCH  27  28
ATOM     28  C   UNL     1      45.174   8.520  23.604  1.00  0.00    -0.000 C 
BRANCH  28  29
ATOM     29  C   UNL     1      46.549   7.934  23.964  1.00  0.00    -0.000 C 
BRANCH  29  30
ATOM     30  C   UNL     1      47.641   8.292  22.938  1.00  0.00    -0.000 C 
BRANCH  30  31
ATOM     31  C   UNL     1      48.021   7.153  21.975  1.00  0.00    -0.003 C 
ATOM     32  C   UNL     1      46.888   6.769  21.025  1.00  0.00     0.004 C 
ENDBRANCH  30  31
ENDBRANCH  29  30
ENDBRANCH  28  29
ENDBRANCH  27  28
ENDBRANCH  26  27
ENDBRANCH  25  26
ENDBRANCH  24  25
ENDBRANCH  23  24
ENDBRANCH  22  23
ENDBRANCH  21  22
ENDBRANCH  20  21
ENDBRANCH  19  20
ENDBRANCH  18  19
ENDBRANCH   1  18
TORSDOF 28
ENDMDL
MODEL 5
REMARK VINA RESULT:    -3.481      2.661      6.953
REMARK INTER + INTRA:         -11.419
REMARK INTER:                  -8.973
REMARK INTRA:                  -2.445
REMARK UNBOUND:                -2.239
REMARK SMILES CCCCCCCCCCCCCCCCCCCCCCCCCCCCCC(=O)[O-]
REMARK SMILES IDX 16 1 17 2 18 3 19 4 20 5 21 6 22 7 23 8 24 9 25 10 26 11
REMARK SMILES IDX 27 12 28 13 29 14 30 15 31 16 32 17 15 18 14 19 13 20 12 21
REMARK SMILES IDX 11 22 10 23 9 24 8 25 7 26 6 27 5 28 4 29 3 30 2 31 1 32
REMARK H PARENT
REMARK Flexibility Score: inf
ROOT
ATOM      1  C   UNL     1      44.594   8.124  22.399  1.00  0.00     0.000 C 
ENDROOT
BRANCH   1   2
ATOM      2  C   UNL     1      46.038   7.954  22.893  1.00  0.00     0.000 C 
BRANCH   2   3
ATOM      3  C   UNL     1      46.887   7.062  21.970  1.00  0.00     0.000 C 
BRANCH   3   4
ATOM      4  C   UNL     1      47.440   7.765  20.713  1.00  0.00     0.000 C 
BRANCH   4   5
ATOM      5  C   UNL     1      46.540   7.674  19.464  1.00  0.00     0.000 C 
BRANCH   5   6
ATOM      6  C   UNL     1      46.835   6.480  18.534  1.00  0.00     0.000 C 
BRANCH   6   7
ATOM      7  C   UNL     1      47.077   6.848  17.060  1.00  0.00     0.000 C 
BRANCH   7   8
ATOM      8  C   UNL     1      46.560   5.780  16.084  1.00  0.00     0.000 C 
BRANCH   8   9
ATOM      9  C   UNL     1      47.728   5.033  15.422  1.00  0.00     0.000 C 
BRANCH   9  10
ATOM     10  C   UNL     1      47.363   4.458  14.044  1.00  0.00     0.000 C 
BRANCH  10  11
ATOM     11  C   UNL     1      46.190   3.466  14.110  1.00  0.00     0.000 C 
BRANCH  11  12
ATOM     12  C   UNL     1      46.634   2.006  13.929  1.00  0.00     0.000 C 
BRANCH  12  13
ATOM     13  C   UNL     1      45.524   0.999  14.271  1.00  0.00     0.006 C 
BRANCH  13  14
ATOM     14  C   UNL     1      45.963  -0.433  13.943  1.00  0.00     0.053 C 
BRANCH  14  15
ATOM     15  C   UNL     1      45.018  -1.429  14.543  1.00  0.00     0.041 C 
ATOM     16  O   UNL     1      43.844  -1.087  14.845  1.00  0.00    -0.550 OA
ATOM     17  O   UNL     1      45.428  -2.740  14.749  1.00  0.00    -0.550 OA
ENDBRANCH  14  15
ENDBRANCH  13  14
ENDBRANCH  12  13
ENDBRANCH  11  12
ENDBRANCH  10  11
ENDBRANCH   9  10
ENDBRANCH   8   9
ENDBRANCH   7   8
ENDBRANCH   6   7
ENDBRANCH   5   6
ENDBRANCH   4   5
ENDBRANCH   3   4
ENDBRANCH   2   3
ENDBRANCH   1   2
BRANCH   1  18
ATOM     18  C   UNL     1      43.787   9.007  23.361  1.00  0.00     0.000 C 
BRANCH  18  19
ATOM     19  C   UNL     1      43.779  10.489  22.942  1.00  0.00     0.000 C 
BRANCH  19  20
ATOM     20  C   UNL     1      45.026  10.950  22.160  1.00  0.00     0.000 C 
BRANCH  20  21
ATOM     21  C   UNL     1      44.835  11.062  20.637  1.00  0.00     0.000 C 
BRANCH  21  22
ATOM     22  C   UNL     1      43.502  10.467  20.160  1.00  0.00     0.000 C 
BRANCH  22  23
ATOM     23  C   UNL     1      43.045  11.125  18.849  1.00  0.00     0.000 C 
BRANCH  23  24
ATOM     24  C   UNL     1      43.387  10.280  17.609  1.00  0.00    -0.000 C 
BRANCH  24  25
ATOM     25  C   UNL     1      44.382  10.936  16.629  1.00  0.00    -0.000 C 
BRANCH  25  26
ATOM     26  C   UNL     1      45.870  10.757  16.990  1.00  0.00    -0.000 C 
BRANCH  26  27
ATOM     27  C   UNL     1      46.858  11.125  15.867  1.00  0.00    -0.000 C 
BRANCH  27  28
ATOM     28  C   UNL     1      46.534  10.425  14.538  1.00  0.00    -0.000 C 
BRANCH  28  29
ATOM     29  C   UNL     1      46.359   8.912  14.741  1.00  0.00    -0.000 C 
BRANCH  29  30
ATOM     30  C   UNL     1      45.116   8.349  14.025  1.00  0.00    -0.000 C 
BRANCH  30  31
ATOM     31  C   UNL     1      44.026   7.797  14.960  1.00  0.00    -0.003 C 
ATOM     32  C   UNL     1      43.270   6.611  14.363  1.00  0.00     0.004 C 
ENDBRANCH  30  31
ENDBRANCH  29  30
ENDBRANCH  28  29
ENDBRANCH  27  28
ENDBRANCH  26  27
ENDBRANCH  25  26
ENDBRANCH  24  25
ENDBRANCH  23  24
ENDBRANCH  22  23
ENDBRANCH  21  22
ENDBRANCH  20  21
ENDBRANCH  19  20
ENDBRANCH  18  19
ENDBRANCH   1  18
TORSDOF 28
ENDMDL
MODEL 6
REMARK VINA RESULT:    -3.362      4.733     11.885
REMARK INTER + INTRA:         -11.104
REMARK INTER:                 -10.600
REMARK INTRA:                  -0.503
REMARK UNBOUND:                -2.239
REMARK SMILES CCCCCCCCCCCCCCCCCCCCCCCCCCCCCC(=O)[O-]
REMARK SMILES IDX 16 1 17 2 18 3 19 4 20 5 21 6 22 7 23 8 24 9 25 10 26 11
REMARK SMILES IDX 27 12 28 13 29 14 30 15 31 16 32 17 15 18 14 19 13 20 12 21
REMARK SMILES IDX 11 22 10 23 9 24 8 25 7 26 6 27 5 28 4 29 3 30 2 31 1 32
REMARK H PARENT
REMARK Flexibility Score: inf
ROOT
ATOM      1  C   UNL     1      45.731   7.018  16.627  1.00  0.00     0.000 C 
ENDROOT
BRANCH   1   2
ATOM      2  C   UNL     1      46.298   8.322  16.046  1.00  0.00     0.000 C 
BRANCH   2   3
ATOM      3  C   UNL     1      45.488   9.564  16.457  1.00  0.00     0.000 C 
BRANCH   3   4
ATOM      4  C   UNL     1      43.960   9.357  16.509  1.00  0.00     0.000 C 
BRANCH   4   5
ATOM      5  C   UNL     1      43.242  10.071  17.673  1.00  0.00     0.000 C 
BRANCH   5   6
ATOM      6  C   UNL     1      44.110  11.075  18.456  1.00  0.00     0.000 C 
BRANCH   6   7
ATOM      7  C   UNL     1      43.886  11.079  19.979  1.00  0.00     0.000 C 
BRANCH   7   8
ATOM      8  C   UNL     1      45.095  10.546  20.763  1.00  0.00     0.000 C 
BRANCH   8   9
ATOM      9  C   UNL     1      45.658   9.277  20.103  1.00  0.00     0.000 C 
BRANCH   9  10
ATOM     10  C   UNL     1      45.586   8.046  21.022  1.00  0.00     0.000 C 
BRANCH  10  11
ATOM     11  C   UNL     1      46.814   7.924  21.941  1.00  0.00     0.000 C 
BRANCH  11  12
ATOM     12  C   UNL     1      47.263   9.276  22.517  1.00  0.00     0.000 C 
BRANCH  12  13
ATOM     13  C   UNL     1      46.615   9.587  23.876  1.00  0.00     0.006 C 
BRANCH  13  14
ATOM     14  C   UNL     1      45.618   8.493  24.272  1.00  0.00     0.053 C 
BRANCH  14  15
ATOM     15  C   UNL     1      44.242   9.061  24.433  1.00  0.00     0.041 C 
ATOM     16  O   UNL     1      43.465   9.132  23.444  1.00  0.00    -0.550 OA
ATOM     17  O   UNL     1      43.809   9.494  25.681  1.00  0.00    -0.550 OA
ENDBRANCH  14  15
ENDBRANCH  13  14
ENDBRANCH  12  13
ENDBRANCH  11  12
ENDBRANCH  10  11
ENDBRANCH   9  10
ENDBRANCH   8   9
ENDBRANCH   7   8
ENDBRANCH   6   7
ENDBRANCH   5   6
ENDBRANCH   4   5
ENDBRANCH   3   4
ENDBRANCH   2   3
ENDBRANCH   1   2
BRANCH   1  18
ATOM     18  C   UNL     1      44.379   6.676  15.986  1.00  0.00     0.000 C 
BRANCH  18  19
ATOM     19  C   UNL     1      44.495   5.594  14.897  1.00  0.00     0.000 C 
BRANCH  19  20
ATOM     20  C   UNL     1      45.754   5.694  14.012  1.00  0.00     0.000 C 
BRANCH  20  21
ATOM     21  C   UNL     1      47.017   5.039  14.600  1.00  0.00     0.000 C 
BRANCH  21  22
ATOM     22  C   UNL     1      47.350   3.694  13.940  1.00  0.00     0.000 C 
BRANCH  22  23
ATOM     23  C   UNL     1      46.110   2.790  13.877  1.00  0.00     0.000 C 
BRANCH  23  24
ATOM     24  C   UNL     1      46.357   1.398  14.485  1.00  0.00    -0.000 C 
BRANCH  24  25
ATOM     25  C   UNL     1      45.498   0.265  13.887  1.00  0.00    -0.000 C 
BRANCH  25  26
ATOM     26  C   UNL     1      44.750  -0.604  14.918  1.00  0.00    -0.000 C 
BRANCH  26  27
ATOM     27  C   UNL     1      45.279  -2.044  15.057  1.00  0.00    -0.000 C 
BRANCH  27  28
ATOM     28  C   UNL     1      46.747  -2.181  14.627  1.00  0.00    -0.000 C 
BRANCH  28  29
ATOM     29  C   UNL     1      47.685  -2.112  15.843  1.00  0.00    -0.000 C 
BRANCH  29  30
ATOM     30  C   UNL     1      47.163  -2.914  17.050  1.00  0.00    -0.000 C 
BRANCH  30  31
ATOM     31  C   UNL     1      48.113  -4.013  17.557  1.00  0.00    -0.003 C 
ATOM     32  C   UNL     1      48.369  -5.106  16.521  1.00  0.00     0.004 C 
ENDBRANCH  30  31
ENDBRANCH  29  30
ENDBRANCH  28  29
ENDBRANCH  27  28
ENDBRANCH  26  27
ENDBRANCH  25  26
ENDBRANCH  24  25
ENDBRANCH  23  24
ENDBRANCH  22  23
ENDBRANCH  21  22
ENDBRANCH  20  21
ENDBRANCH  19  20
ENDBRANCH  18  19
ENDBRANCH   1  18
TORSDOF 28
ENDMDL
MODEL 7
REMARK VINA RESULT:    -3.165      1.648      3.433
REMARK INTER + INTRA:         -10.584
REMARK INTER:                 -11.414
REMARK INTRA:                   0.830
REMARK UNBOUND:                -2.239
REMARK SMILES CCCCCCCCCCCCCCCCCCCCCCCCCCCCCC(=O)[O-]
REMARK SMILES IDX 16 1 17 2 18 3 19 4 20 5 21 6 22 7 23 8 24 9 25 10 26 11
REMARK SMILES IDX 27 12 28 13 29 14 30 15 31 16 32 17 15 18 14 19 13 20 12 21
REMARK SMILES IDX 11 22 10 23 9 24 8 25 7 26 6 27 5 28 4 29 3 30 2 31 1 32
REMARK H PARENT
REMARK Flexibility Score: inf
ROOT
ATOM      1  C   UNL     1      44.482   8.372  15.273  1.00  0.00     0.000 C 
ENDROOT
BRANCH   1   2
ATOM      2  C   UNL     1      44.644   7.733  13.886  1.00  0.00     0.000 C 
BRANCH   2   3
ATOM      3  C   UNL     1      44.350   6.223  13.883  1.00  0.00     0.000 C 
BRANCH   3   4
ATOM      4  C   UNL     1      44.838   5.462  15.133  1.00  0.00     0.000 C 
BRANCH   4   5
ATOM      5  C   UNL     1      45.941   6.172  15.943  1.00  0.00     0.000 C 
BRANCH   5   6
ATOM      6  C   UNL     1      47.349   6.114  15.317  1.00  0.00     0.000 C 
BRANCH   6   7
ATOM      7  C   UNL     1      47.848   4.700  14.972  1.00  0.00     0.000 C 
BRANCH   7   8
ATOM      8  C   UNL     1      47.012   4.021  13.877  1.00  0.00     0.000 C 
BRANCH   8   9
ATOM      9  C   UNL     1      47.241   2.502  13.877  1.00  0.00     0.000 C 
BRANCH   9  10
ATOM     10  C   UNL     1      45.937   1.702  14.027  1.00  0.00     0.000 C 
BRANCH  10  11
ATOM     11  C   UNL     1      46.174   0.182  14.027  1.00  0.00     0.000 C 
BRANCH  11  12
ATOM     12  C   UNL     1      45.120  -0.584  14.843  1.00  0.00     0.000 C 
BRANCH  12  13
ATOM     13  C   UNL     1      45.729  -1.363  16.020  1.00  0.00     0.006 C 
BRANCH  13  14
ATOM     14  C   UNL     1      46.206  -2.749  15.571  1.00  0.00     0.053 C 
BRANCH  14  15
ATOM     15  C   UNL     1      47.438  -3.155  16.321  1.00  0.00     0.041 C 
ATOM     16  O   UNL     1      47.439  -4.207  17.014  1.00  0.00    -0.550 OA
ATOM     17  O   UNL     1      48.590  -2.384  16.237  1.00  0.00    -0.550 OA
ENDBRANCH  14  15
ENDBRANCH  13  14
ENDBRANCH  12  13
ENDBRANCH  11  12
ENDBRANCH  10  11
ENDBRANCH   9  10
ENDBRANCH   8   9
ENDBRANCH   7   8
ENDBRANCH   6   7
ENDBRANCH   5   6
ENDBRANCH   4   5
ENDBRANCH   3   4
ENDBRANCH   2   3
ENDBRANCH   1   2
BRANCH   1  18
ATOM     18  C   UNL     1      45.620   9.362  15.556  1.00  0.00     0.000 C 
BRANCH  18  19
ATOM     19  C   UNL     1      45.159  10.576  16.382  1.00  0.00     0.000 C 
BRANCH  19  20
ATOM     20  C   UNL     1      46.193  11.102  17.399  1.00  0.00     0.000 C 
BRANCH  20  21
ATOM     21  C   UNL     1      45.733  11.077  18.867  1.00  0.00     0.000 C 
BRANCH  21  22
ATOM     22  C   UNL     1      44.271  10.636  19.025  1.00  0.00     0.000 C 
BRANCH  22  23
ATOM     23  C   UNL     1      43.817  10.753  20.488  1.00  0.00     0.000 C 
BRANCH  23  24
ATOM     24  C   UNL     1      44.610   9.833  21.433  1.00  0.00    -0.000 C 
BRANCH  24  25
ATOM     25  C   UNL     1      45.640   8.918  20.738  1.00  0.00    -0.000 C 
BRANCH  25  26
ATOM     26  C   UNL     1      46.278   7.844  21.643  1.00  0.00    -0.000 C 
BRANCH  26  27
ATOM     27  C   UNL     1      46.764   8.356  23.011  1.00  0.00    -0.000 C 
BRANCH  27  28
ATOM     28  C   UNL     1      45.623   8.506  24.029  1.00  0.00    -0.000 C 
BRANCH  28  29
ATOM     29  C   UNL     1      45.649   9.895  24.685  1.00  0.00    -0.000 C 
BRANCH  29  30
ATOM     30  C   UNL     1      44.247  10.406  25.067  1.00  0.00    -0.000 C 
BRANCH  30  31
ATOM     31  C   UNL     1      43.100   9.419  24.783  1.00  0.00    -0.003 C 
ATOM     32  C   UNL     1      41.723   9.991  25.113  1.00  0.00     0.004 C 
ENDBRANCH  30  31
ENDBRANCH  29  30
ENDBRANCH  28  29
ENDBRANCH  27  28
ENDBRANCH  26  27
ENDBRANCH  25  26
ENDBRANCH  24  25
ENDBRANCH  23  24
ENDBRANCH  22  23
ENDBRANCH  21  22
ENDBRANCH  20  21
ENDBRANCH  19  20
ENDBRANCH  18  19
ENDBRANCH   1  18
TORSDOF 28
ENDMDL
