MODEL 1
REMARK VINA RESULT:    -5.358      0.000      0.000
REMARK INTER + INTRA:          -6.879
REMARK INTER:                  -6.611
REMARK INTRA:                  -0.268
REMARK UNBOUND:                -0.268
REMARK SMILES O=c1c(O)c(-c2cc(O)c(O)c(O)c2)oc2cc(O)cc(O)c12
REMARK SMILES IDX 5 1 3 2 2 3 1 4 23 5 21 6 20 7 18 8 17 9 16 10 15 11 6 12
REMARK SMILES IDX 7 13 8 14 14 15 10 16 12 17 9 18 11 20 13 22 4 24 22 26
REMARK SMILES IDX 19 28
REMARK H PARENT 9 19 11 21 13 23 4 25 22 27 19 29
REMARK Flexibility Score: inf
ROOT
ATOM      1  C   UNL     1      14.637  37.607   6.364  1.00  0.00     0.180 A 
ATOM      2  C   UNL     1      15.133  36.626   7.246  1.00  0.00     0.208 A 
ATOM      3  C   UNL     1      16.375  36.033   6.971  1.00  0.00     0.238 A 
ATOM      4  O   UNL     1      16.824  35.147   7.747  1.00  0.00    -0.285 OA
ATOM      5  C   UNL     1      17.107  36.441   5.837  1.00  0.00     0.111 A 
ATOM      6  C   UNL     1      18.367  35.896   5.491  1.00  0.00     0.134 A 
ATOM      7  C   UNL     1      19.038  36.362   4.350  1.00  0.00     0.093 A 
ATOM      8  C   UNL     1      18.473  37.361   3.551  1.00  0.00     0.123 A 
ATOM      9  C   UNL     1      17.230  37.901   3.887  1.00  0.00     0.094 A 
ATOM     10  C   UNL     1      16.546  37.449   5.019  1.00  0.00     0.146 A 
ATOM     11  O   UNL     1      15.362  37.977   5.313  1.00  0.00    -0.452 OA
ENDROOT
BRANCH   1  12
ATOM     12  C   UNL     1      13.328  38.265   6.576  1.00  0.00     0.029 A 
ATOM     13  C   UNL     1      12.238  37.912   5.765  1.00  0.00     0.062 A 
ATOM     14  C   UNL     1      10.984  38.505   5.959  1.00  0.00     0.162 A 
ATOM     15  C   UNL     1      13.136  39.194   7.613  1.00  0.00     0.062 A 
ATOM     16  C   UNL     1      10.803  39.446   6.980  1.00  0.00     0.200 A 
ATOM     17  C   UNL     1      11.882  39.789   7.813  1.00  0.00     0.162 A 
BRANCH  14  18
ATOM     18  O   UNL     1       9.909  38.162   5.141  1.00  0.00    -0.504 OA
ATOM     19  H   UNL     1       8.966  38.470   5.346  1.00  0.00     0.293 HD
ENDBRANCH  14  18
BRANCH  16  20
ATOM     20  O   UNL     1       9.548  40.028   7.157  1.00  0.00    -0.502 OA
ATOM     21  H   UNL     1       9.060  39.998   8.044  1.00  0.00     0.293 HD
ENDBRANCH  16  20
BRANCH  17  22
ATOM     22  O   UNL     1      11.704  40.714   8.841  1.00  0.00    -0.504 OA
ATOM     23  H   UNL     1      12.430  41.375   9.094  1.00  0.00     0.293 HD
ENDBRANCH  17  22
ENDBRANCH   1  12
BRANCH   2  24
ATOM     24  O   UNL     1      14.411  36.275   8.389  1.00  0.00    -0.502 OA
ATOM     25  H   UNL     1      14.860  35.950   9.236  1.00  0.00     0.293 HD
ENDBRANCH   2  24
BRANCH   6  26
ATOM     26  O   UNL     1      18.957  34.899   6.270  1.00  0.00    -0.507 OA
ATOM     27  H   UNL     1      18.458  34.053   6.521  1.00  0.00     0.293 HD
ENDBRANCH   6  26
BRANCH   8  28
ATOM     28  O   UNL     1      19.138  37.825   2.418  1.00  0.00    -0.508 OA
ATOM     29  H   UNL     1      18.691  37.839   1.509  1.00  0.00     0.293 HD
ENDBRANCH   8  28
TORSDOF 7
ENDMDL
MODEL 2
REMARK VINA RESULT:    -5.293     13.789     14.810
REMARK INTER + INTRA:          -6.799
REMARK INTER:                  -6.643
REMARK INTRA:                  -0.156
REMARK UNBOUND:                -0.268
REMARK SMILES O=c1c(O)c(-c2cc(O)c(O)c(O)c2)oc2cc(O)cc(O)c12
REMARK SMILES IDX 5 1 3 2 2 3 1 4 23 5 21 6 20 7 18 8 17 9 16 10 15 11 6 12
REMARK SMILES IDX 7 13 8 14 14 15 10 16 12 17 9 18 11 20 13 22 4 24 22 26
REMARK SMILES IDX 19 28
REMARK H PARENT 9 19 11 21 13 23 4 25 22 27 19 29
REMARK Flexibility Score: inf
ROOT
ATOM      1  C   UNL     1       8.166  24.321   5.986  1.00  0.00     0.180 A 
ATOM      2  C   UNL     1       8.153  22.982   6.424  1.00  0.00     0.208 A 
ATOM      3  C   UNL     1       9.352  22.253   6.411  1.00  0.00     0.238 A 
ATOM      4  O   UNL     1       9.351  21.051   6.790  1.00  0.00    -0.285 OA
ATOM      5  C   UNL     1      10.542  22.876   5.982  1.00  0.00     0.111 A 
ATOM      6  C   UNL     1      11.793  22.212   5.941  1.00  0.00     0.134 A 
ATOM      7  C   UNL     1      12.935  22.905   5.510  1.00  0.00     0.093 A 
ATOM      8  C   UNL     1      12.849  24.246   5.120  1.00  0.00     0.123 A 
ATOM      9  C   UNL     1      11.619  24.903   5.157  1.00  0.00     0.094 A 
ATOM     10  C   UNL     1      10.469  24.231   5.582  1.00  0.00     0.146 A 
ATOM     11  O   UNL     1       9.310  24.880   5.603  1.00  0.00    -0.452 OA
ENDROOT
BRANCH   1  12
ATOM     12  C   UNL     1       6.939  25.150   5.953  1.00  0.00     0.029 A 
ATOM     13  C   UNL     1       6.914  26.373   6.641  1.00  0.00     0.062 A 
ATOM     14  C   UNL     1       5.773  27.185   6.608  1.00  0.00     0.162 A 
ATOM     15  C   UNL     1       5.818  24.767   5.198  1.00  0.00     0.062 A 
ATOM     16  C   UNL     1       4.650  26.788   5.872  1.00  0.00     0.200 A 
ATOM     17  C   UNL     1       4.673  25.576   5.160  1.00  0.00     0.162 A 
BRANCH  14  18
ATOM     18  O   UNL     1       5.748  28.392   7.306  1.00  0.00    -0.504 OA
ATOM     19  H   UNL     1       4.967  28.645   7.900  1.00  0.00     0.293 HD
ENDBRANCH  14  18
BRANCH  16  20
ATOM     20  O   UNL     1       3.521  27.607   5.853  1.00  0.00    -0.502 OA
ATOM     21  H   UNL     1       3.095  27.958   6.702  1.00  0.00     0.293 HD
ENDBRANCH  16  20
BRANCH  17  22
ATOM     22  O   UNL     1       3.564  25.183   4.413  1.00  0.00    -0.504 OA
ATOM     23  H   UNL     1       2.669  25.649   4.504  1.00  0.00     0.293 HD
ENDBRANCH  17  22
ENDBRANCH   1  12
BRANCH   2  24
ATOM     24  O   UNL     1       6.970  22.404   6.890  1.00  0.00    -0.502 OA
ATOM     25  H   UNL     1       6.944  21.807   7.707  1.00  0.00     0.293 HD
ENDBRANCH   2  24
BRANCH   6  26
ATOM     26  O   UNL     1      11.910  20.876   6.326  1.00  0.00    -0.507 OA
ATOM     27  H   UNL     1      11.338  20.150   5.911  1.00  0.00     0.293 HD
ENDBRANCH   6  26
BRANCH   8  28
ATOM     28  O   UNL     1      13.982  24.934   4.692  1.00  0.00    -0.508 OA
ATOM     29  H   UNL     1      14.910  24.537   4.785  1.00  0.00     0.293 HD
ENDBRANCH   8  28
TORSDOF 7
ENDMDL
MODEL 3
REMARK VINA RESULT:    -5.282      1.906      7.383
REMARK INTER + INTRA:          -6.784
REMARK INTER:                  -6.676
REMARK INTRA:                  -0.108
REMARK UNBOUND:                -0.268
REMARK SMILES O=c1c(O)c(-c2cc(O)c(O)c(O)c2)oc2cc(O)cc(O)c12
REMARK SMILES IDX 5 1 3 2 2 3 1 4 23 5 21 6 20 7 18 8 17 9 16 10 15 11 6 12
REMARK SMILES IDX 7 13 8 14 14 15 10 16 12 17 9 18 11 20 13 22 4 24 22 26
REMARK SMILES IDX 19 28
REMARK H PARENT 9 19 11 21 13 23 4 25 22 27 19 29
REMARK Flexibility Score: inf
ROOT
ATOM      1  C   UNL     1      12.907  37.530   6.364  1.00  0.00     0.180 A 
ATOM      2  C   UNL     1      12.885  38.838   6.885  1.00  0.00     0.208 A 
ATOM      3  C   UNL     1      11.692  39.574   6.820  1.00  0.00     0.238 A 
ATOM      4  O   UNL     1      11.663  40.751   7.273  1.00  0.00    -0.285 OA
ATOM      5  C   UNL     1      10.541  38.987   6.256  1.00  0.00     0.111 A 
ATOM      6  C   UNL     1       9.298  39.659   6.156  1.00  0.00     0.134 A 
ATOM      7  C   UNL     1       8.195  39.002   5.590  1.00  0.00     0.093 A 
ATOM      8  C   UNL     1       8.311  37.688   5.124  1.00  0.00     0.123 A 
ATOM      9  C   UNL     1       9.534  37.022   5.220  1.00  0.00     0.094 A 
ATOM     10  C   UNL     1      10.645  37.659   5.780  1.00  0.00     0.146 A 
ATOM     11  O   UNL     1      11.798  37.003   5.854  1.00  0.00    -0.452 OA
ENDROOT
BRANCH   1  12
ATOM     12  C   UNL     1      14.132  36.697   6.380  1.00  0.00     0.029 A 
ATOM     13  C   UNL     1      14.078  35.400   6.912  1.00  0.00     0.062 A 
ATOM     14  C   UNL     1      15.218  34.585   6.919  1.00  0.00     0.162 A 
ATOM     15  C   UNL     1      15.336  37.157   5.818  1.00  0.00     0.062 A 
ATOM     16  C   UNL     1      16.420  35.056   6.378  1.00  0.00     0.200 A 
ATOM     17  C   UNL     1      16.479  36.345   5.822  1.00  0.00     0.162 A 
BRANCH  14  18
ATOM     18  O   UNL     1      15.162  33.303   7.463  1.00  0.00    -0.504 OA
ATOM     19  H   UNL     1      14.794  33.136   8.393  1.00  0.00     0.293 HD
ENDBRANCH  14  18
BRANCH  16  20
ATOM     20  O   UNL     1      17.545  34.232   6.397  1.00  0.00    -0.502 OA
ATOM     21  H   UNL     1      17.485  33.233   6.242  1.00  0.00     0.293 HD
ENDBRANCH  16  20
BRANCH  17  22
ATOM     22  O   UNL     1      17.669  36.813   5.268  1.00  0.00    -0.504 OA
ATOM     23  H   UNL     1      17.710  37.685   4.754  1.00  0.00     0.293 HD
ENDBRANCH  17  22
ENDBRANCH   1  12
BRANCH   2  24
ATOM     24  O   UNL     1      14.026  39.380   7.482  1.00  0.00    -0.502 OA
ATOM     25  H   UNL     1      14.744  39.854   6.949  1.00  0.00     0.293 HD
ENDBRANCH   2  24
BRANCH   6  26
ATOM     26  O   UNL     1       9.151  40.969   6.613  1.00  0.00    -0.507 OA
ATOM     27  H   UNL     1       8.255  41.441   6.599  1.00  0.00     0.293 HD
ENDBRANCH   6  26
BRANCH   8  28
ATOM     28  O   UNL     1       7.216  37.034   4.563  1.00  0.00    -0.508 OA
ATOM     29  H   UNL     1       6.306  37.477   4.506  1.00  0.00     0.293 HD
ENDBRANCH   8  28
TORSDOF 7
ENDMDL
MODEL 4
REMARK VINA RESULT:    -5.259      1.191      2.805
REMARK INTER + INTRA:          -6.756
REMARK INTER:                  -6.416
REMARK INTRA:                  -0.340
REMARK UNBOUND:                -0.268
REMARK SMILES O=c1c(O)c(-c2cc(O)c(O)c(O)c2)oc2cc(O)cc(O)c12
REMARK SMILES IDX 5 1 3 2 2 3 1 4 23 5 21 6 20 7 18 8 17 9 16 10 15 11 6 12
REMARK SMILES IDX 7 13 8 14 14 15 10 16 12 17 9 18 11 20 13 22 4 24 22 26
REMARK SMILES IDX 19 28
REMARK H PARENT 9 19 11 21 13 23 4 25 22 27 19 29
REMARK Flexibility Score: inf
ROOT
ATOM      1  C   UNL     1      14.452  37.894   5.776  1.00  0.00     0.180 A 
ATOM      2  C   UNL     1      15.206  38.423   4.711  1.00  0.00     0.208 A 
ATOM      3  C   UNL     1      16.471  37.878   4.439  1.00  0.00     0.238 A 
ATOM      4  O   UNL     1      17.160  38.351   3.495  1.00  0.00    -0.285 OA
ATOM      5  C   UNL     1      16.950  36.806   5.219  1.00  0.00     0.111 A 
ATOM      6  C   UNL     1      18.211  36.197   5.008  1.00  0.00     0.134 A 
ATOM      7  C   UNL     1      18.612  35.127   5.821  1.00  0.00     0.093 A 
ATOM      8  C   UNL     1      17.777  34.654   6.840  1.00  0.00     0.123 A 
ATOM      9  C   UNL     1      16.534  35.251   7.052  1.00  0.00     0.094 A 
ATOM     10  C   UNL     1      16.116  36.319   6.253  1.00  0.00     0.146 A 
ATOM     11  O   UNL     1      14.929  36.872   6.480  1.00  0.00    -0.452 OA
ENDROOT
BRANCH   1  12
ATOM     12  C   UNL     1      13.118  38.427   6.136  1.00  0.00     0.029 A 
ATOM     13  C   UNL     1      11.984  37.977   5.443  1.00  0.00     0.062 A 
ATOM     14  C   UNL     1      10.709  38.449   5.779  1.00  0.00     0.162 A 
ATOM     15  C   UNL     1      12.954  39.331   7.200  1.00  0.00     0.062 A 
ATOM     16  C   UNL     1      10.554  39.367   6.825  1.00  0.00     0.200 A 
ATOM     17  C   UNL     1      11.680  39.807   7.541  1.00  0.00     0.162 A 
BRANCH  14  18
ATOM     18  O   UNL     1       9.588  38.010   5.076  1.00  0.00    -0.504 OA
ATOM     19  H   UNL     1       9.311  38.435   4.199  1.00  0.00     0.293 HD
ENDBRANCH  14  18
BRANCH  16  20
ATOM     20  O   UNL     1       9.277  39.830   7.143  1.00  0.00    -0.502 OA
ATOM     21  H   UNL     1       8.674  39.342   7.794  1.00  0.00     0.293 HD
ENDBRANCH  16  20
BRANCH  17  22
ATOM     22  O   UNL     1      11.530  40.709   8.593  1.00  0.00    -0.504 OA
ATOM     23  H   UNL     1      11.706  40.440   9.554  1.00  0.00     0.293 HD
ENDBRANCH  17  22
ENDBRANCH   1  12
BRANCH   2  24
ATOM     24  O   UNL     1      14.688  39.454   3.923  1.00  0.00    -0.502 OA
ATOM     25  H   UNL     1      14.485  39.334   2.939  1.00  0.00     0.293 HD
ENDBRANCH   2  24
BRANCH   6  26
ATOM     26  O   UNL     1      19.065  36.646   3.999  1.00  0.00    -0.507 OA
ATOM     27  H   UNL     1      18.711  37.022   3.128  1.00  0.00     0.293 HD
ENDBRANCH   6  26
BRANCH   8  28
ATOM     28  O   UNL     1      18.174  33.591   7.647  1.00  0.00    -0.508 OA
ATOM     29  H   UNL     1      17.915  33.543   8.626  1.00  0.00     0.293 HD
ENDBRANCH   8  28
TORSDOF 7
ENDMDL
MODEL 5
REMARK VINA RESULT:    -5.126     11.320     12.425
REMARK INTER + INTRA:          -6.592
REMARK INTER:                  -6.770
REMARK INTRA:                   0.178
REMARK UNBOUND:                -0.268
REMARK SMILES O=c1c(O)c(-c2cc(O)c(O)c(O)c2)oc2cc(O)cc(O)c12
REMARK SMILES IDX 5 1 3 2 2 3 1 4 23 5 21 6 20 7 18 8 17 9 16 10 15 11 6 12
REMARK SMILES IDX 7 13 8 14 14 15 10 16 12 17 9 18 11 20 13 22 4 24 22 26
REMARK SMILES IDX 19 28
REMARK H PARENT 9 19 11 21 13 23 4 25 22 27 19 29
REMARK Flexibility Score: inf
ROOT
ATOM      1  C   UNL     1       8.721  27.350   6.133  1.00  0.00     0.180 A 
ATOM      2  C   UNL     1       9.432  28.566   6.146  1.00  0.00     0.208 A 
ATOM      3  C   UNL     1      10.812  28.547   5.892  1.00  0.00     0.238 A 
ATOM      4  O   UNL     1      11.462  29.628   5.913  1.00  0.00    -0.285 OA
ATOM      5  C   UNL     1      11.453  27.323   5.610  1.00  0.00     0.111 A 
ATOM      6  C   UNL     1      12.838  27.218   5.339  1.00  0.00     0.134 A 
ATOM      7  C   UNL     1      13.400  25.963   5.057  1.00  0.00     0.093 A 
ATOM      8  C   UNL     1      12.602  24.814   5.041  1.00  0.00     0.123 A 
ATOM      9  C   UNL     1      11.236  24.913   5.308  1.00  0.00     0.094 A 
ATOM     10  C   UNL     1      10.658  26.153   5.592  1.00  0.00     0.146 A 
ATOM     11  O   UNL     1       9.355  26.217   5.847  1.00  0.00    -0.452 OA
ENDROOT
BRANCH   1  12
ATOM     12  C   UNL     1       7.268  27.286   6.409  1.00  0.00     0.029 A 
ATOM     13  C   UNL     1       6.426  28.293   5.913  1.00  0.00     0.062 A 
ATOM     14  C   UNL     1       5.044  28.244   6.143  1.00  0.00     0.162 A 
ATOM     15  C   UNL     1       6.703  26.204   7.107  1.00  0.00     0.062 A 
ATOM     16  C   UNL     1       4.490  27.176   6.858  1.00  0.00     0.200 A 
ATOM     17  C   UNL     1       5.321  26.150   7.339  1.00  0.00     0.162 A 
BRANCH  14  18
ATOM     18  O   UNL     1       4.215  29.255   5.660  1.00  0.00    -0.504 OA
ATOM     19  H   UNL     1       4.593  30.105   5.257  1.00  0.00     0.293 HD
ENDBRANCH  14  18
BRANCH  16  20
ATOM     20  O   UNL     1       3.113  27.145   7.080  1.00  0.00    -0.502 OA
ATOM     21  H   UNL     1       2.705  26.672   7.877  1.00  0.00     0.293 HD
ENDBRANCH  16  20
BRANCH  17  22
ATOM     22  O   UNL     1       4.772  25.076   8.038  1.00  0.00    -0.504 OA
ATOM     23  H   UNL     1       4.079  24.467   7.620  1.00  0.00     0.293 HD
ENDBRANCH  17  22
ENDBRANCH   1  12
BRANCH   2  24
ATOM     24  O   UNL     1       8.766  29.771   6.381  1.00  0.00    -0.502 OA
ATOM     25  H   UNL     1       8.588  30.120   7.314  1.00  0.00     0.293 HD
ENDBRANCH   2  24
BRANCH   6  26
ATOM     26  O   UNL     1      13.659  28.347   5.347  1.00  0.00    -0.507 OA
ATOM     27  H   UNL     1      13.281  29.283   5.262  1.00  0.00     0.293 HD
ENDBRANCH   6  26
BRANCH   8  28
ATOM     28  O   UNL     1      13.158  23.568   4.760  1.00  0.00    -0.508 OA
ATOM     29  H   UNL     1      13.665  23.044   5.464  1.00  0.00     0.293 HD
ENDBRANCH   8  28
TORSDOF 7
ENDMDL
MODEL 6
REMARK VINA RESULT:    -5.121     11.724     12.839
REMARK INTER + INTRA:          -6.586
REMARK INTER:                  -6.245
REMARK INTRA:                  -0.341
REMARK UNBOUND:                -0.268
REMARK SMILES O=c1c(O)c(-c2cc(O)c(O)c(O)c2)oc2cc(O)cc(O)c12
REMARK SMILES IDX 5 1 3 2 2 3 1 4 23 5 21 6 20 7 18 8 17 9 16 10 15 11 6 12
REMARK SMILES IDX 7 13 8 14 14 15 10 16 12 17 9 18 11 20 13 22 4 24 22 26
REMARK SMILES IDX 19 28
REMARK H PARENT 9 19 11 21 13 23 4 25 22 27 19 29
REMARK Flexibility Score: inf
ROOT
ATOM      1  C   UNL     1       7.352  27.077   5.282  1.00  0.00     0.180 A 
ATOM      2  C   UNL     1       7.413  25.671   5.352  1.00  0.00     0.208 A 
ATOM      3  C   UNL     1       8.669  25.050   5.424  1.00  0.00     0.238 A 
ATOM      4  O   UNL     1       8.737  23.792   5.475  1.00  0.00    -0.285 OA
ATOM      5  C   UNL     1       9.837  25.839   5.445  1.00  0.00     0.111 A 
ATOM      6  C   UNL     1      11.141  25.292   5.520  1.00  0.00     0.134 A 
ATOM      7  C   UNL     1      12.255  26.146   5.546  1.00  0.00     0.093 A 
ATOM      8  C   UNL     1      12.088  27.534   5.499  1.00  0.00     0.123 A 
ATOM      9  C   UNL     1      10.805  28.078   5.424  1.00  0.00     0.094 A 
ATOM     10  C   UNL     1       9.684  27.244   5.396  1.00  0.00     0.146 A 
ATOM     11  O   UNL     1       8.474  27.790   5.320  1.00  0.00    -0.452 OA
ENDROOT
BRANCH   1  12
ATOM     12  C   UNL     1       6.066  27.805   5.186  1.00  0.00     0.029 A 
ATOM     13  C   UNL     1       5.576  28.178   3.925  1.00  0.00     0.062 A 
ATOM     14  C   UNL     1       4.352  28.848   3.806  1.00  0.00     0.162 A 
ATOM     15  C   UNL     1       5.293  28.077   6.328  1.00  0.00     0.062 A 
ATOM     16  C   UNL     1       3.596  29.136   4.948  1.00  0.00     0.200 A 
ATOM     17  C   UNL     1       4.066  28.747   6.214  1.00  0.00     0.162 A 
BRANCH  14  18
ATOM     18  O   UNL     1       3.878  29.229   2.551  1.00  0.00    -0.504 OA
ATOM     19  H   UNL     1       3.498  30.154   2.386  1.00  0.00     0.293 HD
ENDBRANCH  14  18
BRANCH  16  20
ATOM     20  O   UNL     1       2.381  29.807   4.811  1.00  0.00    -0.502 OA
ATOM     21  H   UNL     1       2.133  30.307   3.966  1.00  0.00     0.293 HD
ENDBRANCH  16  20
BRANCH  17  22
ATOM     22  O   UNL     1       3.311  29.018   7.354  1.00  0.00    -0.504 OA
ATOM     23  H   UNL     1       3.723  29.014   8.279  1.00  0.00     0.293 HD
ENDBRANCH  17  22
ENDBRANCH   1  12
BRANCH   2  24
ATOM     24  O   UNL     1       6.239  24.915   5.378  1.00  0.00    -0.502 OA
ATOM     25  H   UNL     1       5.892  24.424   4.564  1.00  0.00     0.293 HD
ENDBRANCH   2  24
BRANCH   6  26
ATOM     26  O   UNL     1      11.339  23.911   5.569  1.00  0.00    -0.507 OA
ATOM     27  H   UNL     1      12.083  23.498   6.118  1.00  0.00     0.293 HD
ENDBRANCH   6  26
BRANCH   8  28
ATOM     28  O   UNL     1      13.193  28.382   5.526  1.00  0.00    -0.508 OA
ATOM     29  H   UNL     1      14.117  28.042   5.765  1.00  0.00     0.293 HD
ENDBRANCH   8  28
TORSDOF 7
ENDMDL
MODEL 7
REMARK VINA RESULT:    -5.118     11.132     12.381
REMARK INTER + INTRA:          -6.582
REMARK INTER:                  -6.223
REMARK INTRA:                  -0.360
REMARK UNBOUND:                -0.268
REMARK SMILES O=c1c(O)c(-c2cc(O)c(O)c(O)c2)oc2cc(O)cc(O)c12
REMARK SMILES IDX 5 1 3 2 2 3 1 4 23 5 21 6 20 7 18 8 17 9 16 10 15 11 6 12
REMARK SMILES IDX 7 13 8 14 14 15 10 16 12 17 9 18 11 20 13 22 4 24 22 26
REMARK SMILES IDX 19 28
REMARK H PARENT 9 19 11 21 13 23 4 25 22 27 19 29
REMARK Flexibility Score: inf
ROOT
ATOM      1  C   UNL     1       7.961  27.981   5.346  1.00  0.00     0.180 A 
ATOM      2  C   UNL     1       8.972  28.937   5.568  1.00  0.00     0.208 A 
ATOM      3  C   UNL     1      10.300  28.503   5.697  1.00  0.00     0.238 A 
ATOM      4  O   UNL     1      11.212  29.348   5.907  1.00  0.00    -0.285 OA
ATOM      5  C   UNL     1      10.598  27.130   5.582  1.00  0.00     0.111 A 
ATOM      6  C   UNL     1      11.910  26.610   5.696  1.00  0.00     0.134 A 
ATOM      7  C   UNL     1      12.127  25.230   5.560  1.00  0.00     0.093 A 
ATOM      8  C   UNL     1      11.058  24.362   5.313  1.00  0.00     0.123 A 
ATOM      9  C   UNL     1       9.762  24.870   5.201  1.00  0.00     0.094 A 
ATOM     10  C   UNL     1       9.526  26.241   5.334  1.00  0.00     0.146 A 
ATOM     11  O   UNL     1       8.282  26.696   5.228  1.00  0.00    -0.452 OA
ENDROOT
BRANCH   1  12
ATOM     12  C   UNL     1       6.535  28.360   5.217  1.00  0.00     0.029 A 
ATOM     13  C   UNL     1       6.020  28.690   3.955  1.00  0.00     0.062 A 
ATOM     14  C   UNL     1       4.670  29.031   3.803  1.00  0.00     0.162 A 
ATOM     15  C   UNL     1       5.670  28.336   6.324  1.00  0.00     0.062 A 
ATOM     16  C   UNL     1       3.817  29.028   4.913  1.00  0.00     0.200 A 
ATOM     17  C   UNL     1       4.317  28.675   6.178  1.00  0.00     0.162 A 
BRANCH  14  18
ATOM     18  O   UNL     1       4.167  29.374   2.549  1.00  0.00    -0.504 OA
ATOM     19  H   UNL     1       3.530  28.765   2.048  1.00  0.00     0.293 HD
ENDBRANCH  14  18
BRANCH  16  20
ATOM     20  O   UNL     1       2.476  29.373   4.744  1.00  0.00    -0.502 OA
ATOM     21  H   UNL     1       1.743  28.676   4.686  1.00  0.00     0.293 HD
ENDBRANCH  16  20
BRANCH  17  22
ATOM     22  O   UNL     1       3.469  28.656   7.284  1.00  0.00    -0.504 OA
ATOM     23  H   UNL     1       2.881  29.448   7.519  1.00  0.00     0.293 HD
ENDBRANCH  17  22
ENDBRANCH   1  12
BRANCH   2  24
ATOM     24  O   UNL     1       8.656  30.297   5.629  1.00  0.00    -0.502 OA
ATOM     25  H   UNL     1       8.337  30.742   6.481  1.00  0.00     0.293 HD
ENDBRANCH   2  24
BRANCH   6  26
ATOM     26  O   UNL     1      12.997  27.450   5.941  1.00  0.00    -0.507 OA
ATOM     27  H   UNL     1      13.940  27.194   5.674  1.00  0.00     0.293 HD
ENDBRANCH   6  26
BRANCH   8  28
ATOM     28  O   UNL     1      11.272  22.993   5.177  1.00  0.00    -0.508 OA
ATOM     29  H   UNL     1      12.173  22.622   4.899  1.00  0.00     0.293 HD
ENDBRANCH   8  28
TORSDOF 7
ENDMDL
MODEL 8
REMARK VINA RESULT:    -5.096     11.730     12.928
REMARK INTER + INTRA:          -6.555
REMARK INTER:                  -6.212
REMARK INTRA:                  -0.343
REMARK UNBOUND:                -0.268
REMARK SMILES O=c1c(O)c(-c2cc(O)c(O)c(O)c2)oc2cc(O)cc(O)c12
REMARK SMILES IDX 5 1 3 2 2 3 1 4 23 5 21 6 20 7 18 8 17 9 16 10 15 11 6 12
REMARK SMILES IDX 7 13 8 14 14 15 10 16 12 17 9 18 11 20 13 22 4 24 22 26
REMARK SMILES IDX 19 28
REMARK H PARENT 9 19 11 21 13 23 4 25 22 27 19 29
REMARK Flexibility Score: inf
ROOT
ATOM      1  C   UNL     1       7.333  27.036   5.262  1.00  0.00     0.180 A 
ATOM      2  C   UNL     1       7.404  25.630   5.328  1.00  0.00     0.208 A 
ATOM      3  C   UNL     1       8.663  25.017   5.415  1.00  0.00     0.238 A 
ATOM      4  O   UNL     1       8.740  23.760   5.463  1.00  0.00    -0.285 OA
ATOM      5  C   UNL     1       9.825  25.815   5.455  1.00  0.00     0.111 A 
ATOM      6  C   UNL     1      11.131  25.277   5.545  1.00  0.00     0.134 A 
ATOM      7  C   UNL     1      12.238  26.139   5.590  1.00  0.00     0.093 A 
ATOM      8  C   UNL     1      12.062  27.526   5.546  1.00  0.00     0.123 A 
ATOM      9  C   UNL     1      10.777  28.061   5.455  1.00  0.00     0.094 A 
ATOM     10  C   UNL     1       9.662  27.219   5.409  1.00  0.00     0.146 A 
ATOM     11  O   UNL     1       8.449  27.756   5.318  1.00  0.00    -0.452 OA
ENDROOT
BRANCH   1  12
ATOM     12  C   UNL     1       6.043  27.754   5.151  1.00  0.00     0.029 A 
ATOM     13  C   UNL     1       5.308  28.036   6.313  1.00  0.00     0.062 A 
ATOM     14  C   UNL     1       4.095  28.733   6.237  1.00  0.00     0.162 A 
ATOM     15  C   UNL     1       5.566  28.214   3.912  1.00  0.00     0.062 A 
ATOM     16  C   UNL     1       3.614  29.170   4.997  1.00  0.00     0.200 A 
ATOM     17  C   UNL     1       4.354  28.913   3.830  1.00  0.00     0.162 A 
BRANCH  14  18
ATOM     18  O   UNL     1       3.362  28.997   7.393  1.00  0.00    -0.504 OA
ATOM     19  H   UNL     1       3.028  28.251   7.991  1.00  0.00     0.293 HD
ENDBRANCH  14  18
BRANCH  16  20
ATOM     20  O   UNL     1       2.403  29.860   4.939  1.00  0.00    -0.502 OA
ATOM     21  H   UNL     1       1.519  29.387   4.798  1.00  0.00     0.293 HD
ENDBRANCH  16  20
BRANCH  17  22
ATOM     22  O   UNL     1       3.887  29.359   2.594  1.00  0.00    -0.504 OA
ATOM     23  H   UNL     1       2.899  29.497   2.417  1.00  0.00     0.293 HD
ENDBRANCH  17  22
ENDBRANCH   1  12
BRANCH   2  24
ATOM     24  O   UNL     1       6.235  24.864   5.336  1.00  0.00    -0.502 OA
ATOM     25  H   UNL     1       6.150  24.010   5.872  1.00  0.00     0.293 HD
ENDBRANCH   2  24
BRANCH   6  26
ATOM     26  O   UNL     1      11.339  23.898   5.593  1.00  0.00    -0.507 OA
ATOM     27  H   UNL     1      10.585  23.239   5.434  1.00  0.00     0.293 HD
ENDBRANCH   6  26
BRANCH   8  28
ATOM     28  O   UNL     1      13.160  28.382   5.590  1.00  0.00    -0.508 OA
ATOM     29  H   UNL     1      13.050  29.388   5.529  1.00  0.00     0.293 HD
ENDBRANCH   8  28
TORSDOF 7
ENDMDL
MODEL 9
REMARK VINA RESULT:    -5.089      2.943      4.303
REMARK INTER + INTRA:          -6.547
REMARK INTER:                  -6.734
REMARK INTRA:                   0.187
REMARK UNBOUND:                -0.268
REMARK SMILES O=c1c(O)c(-c2cc(O)c(O)c(O)c2)oc2cc(O)cc(O)c12
REMARK SMILES IDX 5 1 3 2 2 3 1 4 23 5 21 6 20 7 18 8 17 9 16 10 15 11 6 12
REMARK SMILES IDX 7 13 8 14 14 15 10 16 12 17 9 18 11 20 13 22 4 24 22 26
REMARK SMILES IDX 19 28
REMARK H PARENT 9 19 11 21 13 23 4 25 22 27 19 29
REMARK Flexibility Score: inf
ROOT
ATOM      1  C   UNL     1      13.047  35.509   5.482  1.00  0.00     0.180 A 
ATOM      2  C   UNL     1      13.614  36.610   4.810  1.00  0.00     0.208 A 
ATOM      3  C   UNL     1      15.012  36.723   4.754  1.00  0.00     0.238 A 
ATOM      4  O   UNL     1      15.531  37.710   4.165  1.00  0.00    -0.285 OA
ATOM      5  C   UNL     1      15.816  35.730   5.349  1.00  0.00     0.111 A 
ATOM      6  C   UNL     1      17.232  35.768   5.334  1.00  0.00     0.134 A 
ATOM      7  C   UNL     1      17.962  34.734   5.941  1.00  0.00     0.093 A 
ATOM      8  C   UNL     1      17.304  33.666   6.561  1.00  0.00     0.123 A 
ATOM      9  C   UNL     1      15.909  33.626   6.579  1.00  0.00     0.094 A 
ATOM     10  C   UNL     1      15.164  34.646   5.981  1.00  0.00     0.146 A 
ATOM     11  O   UNL     1      13.837  34.584   6.018  1.00  0.00    -0.452 OA
ENDROOT
BRANCH   1  12
ATOM     12  C   UNL     1      11.582  35.330   5.599  1.00  0.00     0.029 A 
ATOM     13  C   UNL     1      11.050  34.035   5.689  1.00  0.00     0.062 A 
ATOM     14  C   UNL     1       9.669  33.839   5.823  1.00  0.00     0.162 A 
ATOM     15  C   UNL     1      10.714  36.433   5.684  1.00  0.00     0.062 A 
ATOM     16  C   UNL     1       8.807  34.940   5.884  1.00  0.00     0.200 A 
ATOM     17  C   UNL     1       9.332  36.243   5.818  1.00  0.00     0.162 A 
BRANCH  14  18
ATOM     18  O   UNL     1       9.145  32.549   5.896  1.00  0.00    -0.504 OA
ATOM     19  H   UNL     1       8.510  32.275   6.637  1.00  0.00     0.293 HD
ENDBRANCH  14  18
BRANCH  16  20
ATOM     20  O   UNL     1       7.435  34.727   6.013  1.00  0.00    -0.502 OA
ATOM     21  H   UNL     1       6.757  35.214   5.441  1.00  0.00     0.293 HD
ENDBRANCH  16  20
BRANCH  17  22
ATOM     22  O   UNL     1       8.479  37.343   5.894  1.00  0.00    -0.504 OA
ATOM     23  H   UNL     1       7.690  37.363   6.529  1.00  0.00     0.293 HD
ENDBRANCH  17  22
ENDBRANCH   1  12
BRANCH   2  24
ATOM     24  O   UNL     1      12.796  37.555   4.187  1.00  0.00    -0.502 OA
ATOM     25  H   UNL     1      11.885  37.321   3.813  1.00  0.00     0.293 HD
ENDBRANCH   2  24
BRANCH   6  26
ATOM     26  O   UNL     1      17.916  36.819   4.722  1.00  0.00    -0.507 OA
ATOM     27  H   UNL     1      17.740  37.081   3.759  1.00  0.00     0.293 HD
ENDBRANCH   6  26
BRANCH   8  28
ATOM     28  O   UNL     1      18.028  32.640   7.163  1.00  0.00    -0.508 OA
ATOM     29  H   UNL     1      18.756  32.142   6.664  1.00  0.00     0.293 HD
ENDBRANCH   8  28
TORSDOF 7
ENDMDL
