MODEL 1
REMARK VINA RESULT:    -1.278      0.000      0.000
REMARK INTER + INTRA:          -3.215
REMARK INTER:                  -2.249
REMARK INTRA:                  -0.965
REMARK UNBOUND:                -0.965
REMARK SMILES CCCCCCC=CCCCCCCCC(=O)[O-]
REMARK SMILES IDX 10 1 11 2 12 3 13 4 14 5 15 6 16 7 17 8 18 9 9 10 8 11 7 12
REMARK SMILES IDX 6 13 5 14 4 15 3 16 2 17 1 18
REMARK H PARENT
REMARK Flexibility Score: inf
ROOT
ATOM      1  C   UNL     1      21.164  13.379  41.658  1.00  0.00     0.004 C 
ENDROOT
BRANCH   1   2
ATOM      2  C   UNL     1      19.688  13.423  42.095  1.00  0.00     0.000 C 
BRANCH   2   3
ATOM      3  C   UNL     1      18.831  12.248  41.591  1.00  0.00     0.000 C 
BRANCH   3   4
ATOM      4  C   UNL     1      17.926  12.633  40.407  1.00  0.00     0.000 C 
BRANCH   4   5
ATOM      5  C   UNL     1      18.687  13.380  39.300  1.00  0.00     0.006 C 
BRANCH   5   6
ATOM      6  C   UNL     1      18.345  14.875  39.256  1.00  0.00     0.053 C 
BRANCH   6   7
ATOM      7  C   UNL     1      19.591  15.698  39.346  1.00  0.00     0.041 C 
ATOM      8  O   UNL     1      20.607  15.385  38.670  1.00  0.00    -0.550 OA
ATOM      9  O   UNL     1      19.649  16.779  40.215  1.00  0.00    -0.550 OA
ENDBRANCH   6   7
ENDBRANCH   5   6
ENDBRANCH   4   5
ENDBRANCH   3   4
ENDBRANCH   2   3
ENDBRANCH   1   2
BRANCH   1  10
ATOM     10  C   UNL     1      21.572  12.025  41.062  1.00  0.00     0.027 C 
BRANCH  10  11
ATOM     11  C   UNL     1      21.921  12.157  39.605  1.00  0.00    -0.031 C 
ATOM     12  C   UNL     1      21.115  11.681  38.646  1.00  0.00    -0.031 C 
BRANCH  12  13
ATOM     13  C   UNL     1      21.466  11.798  37.187  1.00  0.00     0.027 C 
BRANCH  13  14
ATOM     14  C   UNL     1      22.236  13.090  36.874  1.00  0.00     0.004 C 
BRANCH  14  15
ATOM     15  C   UNL     1      21.402  14.075  36.041  1.00  0.00     0.000 C 
BRANCH  15  16
ATOM     16  C   UNL     1      20.122  13.405  35.520  1.00  0.00    -0.000 C 
BRANCH  16  17
ATOM     17  C   UNL     1      19.992  13.487  33.991  1.00  0.00    -0.003 C 
ATOM     18  C   UNL     1      18.793  12.706  33.456  1.00  0.00     0.004 C 
ENDBRANCH  16  17
ENDBRANCH  15  16
ENDBRANCH  14  15
ENDBRANCH  13  14
ENDBRANCH  12  13
ENDBRANCH  10  11
ENDBRANCH   1  10
TORSDOF 13
ENDMDL
MODEL 2
REMARK VINA RESULT:    -0.974      2.378      5.084
REMARK INTER + INTRA:          -2.680
REMARK INTER:                  -1.424
REMARK INTRA:                  -1.256
REMARK UNBOUND:                -0.965
REMARK SMILES CCCCCCC=CCCCCCCCC(=O)[O-]
REMARK SMILES IDX 10 1 11 2 12 3 13 4 14 5 15 6 16 7 17 8 18 9 9 10 8 11 7 12
REMARK SMILES IDX 6 13 5 14 4 15 3 16 2 17 1 18
REMARK H PARENT
REMARK Flexibility Score: inf
ROOT
ATOM      1  C   UNL     1      22.937  12.315  39.186  1.00  0.00     0.004 C 
ENDROOT
BRANCH   1   2
ATOM      2  C   UNL     1      22.215  11.445  38.141  1.00  0.00     0.000 C 
BRANCH   2   3
ATOM      3  C   UNL     1      21.655  12.218  36.933  1.00  0.00     0.000 C 
BRANCH   3   4
ATOM      4  C   UNL     1      22.114  13.687  36.899  1.00  0.00     0.000 C 
BRANCH   4   5
ATOM      5  C   UNL     1      21.204  14.570  36.030  1.00  0.00     0.006 C 
BRANCH   5   6
ATOM      6  C   UNL     1      19.938  13.837  35.570  1.00  0.00     0.053 C 
BRANCH   6   7
ATOM      7  C   UNL     1      20.092  13.367  34.158  1.00  0.00     0.041 C 
ATOM      8  O   UNL     1      21.180  13.541  33.547  1.00  0.00    -0.550 OA
ATOM      9  O   UNL     1      19.018  12.785  33.498  1.00  0.00    -0.550 OA
ENDBRANCH   6   7
ENDBRANCH   5   6
ENDBRANCH   4   5
ENDBRANCH   3   4
ENDBRANCH   2   3
ENDBRANCH   1   2
BRANCH   1  10
ATOM     10  C   UNL     1      22.261  12.280  40.564  1.00  0.00     0.027 C 
BRANCH  10  11
ATOM     11  C   UNL     1      20.791  11.986  40.440  1.00  0.00    -0.031 C 
ATOM     12  C   UNL     1      19.930  12.294  41.419  1.00  0.00    -0.031 C 
BRANCH  12  13
ATOM     13  C   UNL     1      18.460  11.988  41.305  1.00  0.00     0.027 C 
BRANCH  13  14
ATOM     14  C   UNL     1      17.886  12.386  39.937  1.00  0.00     0.004 C 
BRANCH  14  15
ATOM     15  C   UNL     1      17.917  13.906  39.715  1.00  0.00     0.000 C 
BRANCH  15  16
ATOM     16  C   UNL     1      19.226  14.334  39.035  1.00  0.00    -0.000 C 
BRANCH  16  17
ATOM     17  C   UNL     1      19.706  15.718  39.498  1.00  0.00    -0.003 C 
ATOM     18  C   UNL     1      20.377  15.684  40.870  1.00  0.00     0.004 C 
ENDBRANCH  16  17
ENDBRANCH  15  16
ENDBRANCH  14  15
ENDBRANCH  13  14
ENDBRANCH  12  13
ENDBRANCH  10  11
ENDBRANCH   1  10
TORSDOF 13
ENDMDL
MODEL 3
REMARK VINA RESULT:    -0.510      1.989      3.157
REMARK INTER + INTRA:          -1.863
REMARK INTER:                  -0.765
REMARK INTRA:                  -1.099
REMARK UNBOUND:                -0.965
REMARK SMILES CCCCCCC=CCCCCCCCC(=O)[O-]
REMARK SMILES IDX 10 1 11 2 12 3 13 4 14 5 15 6 16 7 17 8 18 9 9 10 8 11 7 12
REMARK SMILES IDX 6 13 5 14 4 15 3 16 2 17 1 18
REMARK H PARENT
REMARK Flexibility Score: inf
ROOT
ATOM      1  C   UNL     1      20.172  14.466  40.879  1.00  0.00     0.004 C 
ENDROOT
BRANCH   1   2
ATOM      2  C   UNL     1      19.743  13.130  41.513  1.00  0.00     0.000 C 
BRANCH   2   3
ATOM      3  C   UNL     1      18.893  12.227  40.602  1.00  0.00     0.000 C 
BRANCH   3   4
ATOM      4  C   UNL     1      19.741  11.250  39.767  1.00  0.00     0.000 C 
BRANCH   4   5
ATOM      5  C   UNL     1      19.729  11.591  38.269  1.00  0.00     0.006 C 
BRANCH   5   6
ATOM      6  C   UNL     1      20.995  11.111  37.546  1.00  0.00     0.053 C 
BRANCH   6   7
ATOM      7  C   UNL     1      22.193  11.855  38.044  1.00  0.00     0.041 C 
ATOM      8  O   UNL     1      23.048  12.298  37.231  1.00  0.00    -0.550 OA
ATOM      9  O   UNL     1      22.395  12.015  39.409  1.00  0.00    -0.550 OA
ENDBRANCH   6   7
ENDBRANCH   5   6
ENDBRANCH   4   5
ENDBRANCH   3   4
ENDBRANCH   2   3
ENDBRANCH   1   2
BRANCH   1  10
ATOM     10  C   UNL     1      19.187  14.966  39.813  1.00  0.00     0.027 C 
BRANCH  10  11
ATOM     11  C   UNL     1      19.758  14.807  38.431  1.00  0.00    -0.031 C 
ATOM     12  C   UNL     1      20.923  15.372  38.086  1.00  0.00    -0.031 C 
BRANCH  12  13
ATOM     13  C   UNL     1      21.492  15.228  36.699  1.00  0.00     0.027 C 
BRANCH  13  14
ATOM     14  C   UNL     1      20.645  14.300  35.815  1.00  0.00     0.004 C 
BRANCH  14  15
ATOM     15  C   UNL     1      21.421  13.805  34.585  1.00  0.00     0.000 C 
BRANCH  15  16
ATOM     16  C   UNL     1      20.466  13.495  33.423  1.00  0.00    -0.000 C 
BRANCH  16  17
ATOM     17  C   UNL     1      19.013  13.305  33.887  1.00  0.00    -0.003 C 
ATOM     18  C   UNL     1      18.365  12.051  33.302  1.00  0.00     0.004 C 
ENDBRANCH  16  17
ENDBRANCH  15  16
ENDBRANCH  14  15
ENDBRANCH  13  14
ENDBRANCH  12  13
ENDBRANCH  10  11
ENDBRANCH   1  10
TORSDOF 13
ENDMDL
MODEL 4
REMARK VINA RESULT:     0.176      1.960      3.203
REMARK INTER + INTRA:          -0.655
REMARK INTER:                   0.446
REMARK INTRA:                  -1.101
REMARK UNBOUND:                -0.965
REMARK SMILES CCCCCCC=CCCCCCCCC(=O)[O-]
REMARK SMILES IDX 10 1 11 2 12 3 13 4 14 5 15 6 16 7 17 8 18 9 9 10 8 11 7 12
REMARK SMILES IDX 6 13 5 14 4 15 3 16 2 17 1 18
REMARK H PARENT
REMARK Flexibility Score: inf
ROOT
ATOM      1  C   UNL     1      20.245  16.012  42.082  1.00  0.00     0.004 C 
ENDROOT
BRANCH   1   2
ATOM      2  C   UNL     1      21.450  15.054  42.094  1.00  0.00     0.000 C 
BRANCH   2   3
ATOM      3  C   UNL     1      21.094  13.567  41.919  1.00  0.00     0.000 C 
BRANCH   3   4
ATOM      4  C   UNL     1      19.576  13.312  41.913  1.00  0.00     0.000 C 
BRANCH   4   5
ATOM      5  C   UNL     1      19.192  12.047  41.130  1.00  0.00     0.006 C 
BRANCH   5   6
ATOM      6  C   UNL     1      19.161  12.280  39.614  1.00  0.00     0.053 C 
BRANCH   6   7
ATOM      7  C   UNL     1      20.292  11.559  38.952  1.00  0.00     0.041 C 
ATOM      8  O   UNL     1      21.448  11.596  39.453  1.00  0.00    -0.550 OA
ATOM      9  O   UNL     1      20.083  10.889  37.754  1.00  0.00    -0.550 OA
ENDBRANCH   6   7
ENDBRANCH   5   6
ENDBRANCH   4   5
ENDBRANCH   3   4
ENDBRANCH   2   3
ENDBRANCH   1   2
BRANCH   1  10
ATOM     10  C   UNL     1      20.130  16.813  40.776  1.00  0.00     0.027 C 
BRANCH  10  11
ATOM     11  C   UNL     1      19.784  15.917  39.620  1.00  0.00    -0.031 C 
ATOM     12  C   UNL     1      20.710  15.534  38.729  1.00  0.00    -0.031 C 
BRANCH  12  13
ATOM     13  C   UNL     1      20.365  14.649  37.561  1.00  0.00     0.027 C 
BRANCH  13  14
ATOM     14  C   UNL     1      21.614  14.077  36.874  1.00  0.00     0.004 C 
BRANCH  14  15
ATOM     15  C   UNL     1      21.291  13.459  35.505  1.00  0.00     0.000 C 
BRANCH  15  16
ATOM     16  C   UNL     1      19.783  13.520  35.218  1.00  0.00    -0.000 C 
BRANCH  16  17
ATOM     17  C   UNL     1      19.468  13.515  33.715  1.00  0.00    -0.003 C 
ATOM     18  C   UNL     1      18.752  12.242  33.265  1.00  0.00     0.004 C 
ENDBRANCH  16  17
ENDBRANCH  15  16
ENDBRANCH  14  15
ENDBRANCH  13  14
ENDBRANCH  12  13
ENDBRANCH  10  11
ENDBRANCH   1  10
TORSDOF 13
ENDMDL
MODEL 5
REMARK VINA RESULT:     0.342      1.195      2.373
REMARK INTER + INTRA:          -0.364
REMARK INTER:                   0.118
REMARK INTRA:                  -0.481
REMARK UNBOUND:                -0.965
REMARK SMILES CCCCCCC=CCCCCCCCC(=O)[O-]
REMARK SMILES IDX 10 1 11 2 12 3 13 4 14 5 15 6 16 7 17 8 18 9 9 10 8 11 7 12
REMARK SMILES IDX 6 13 5 14 4 15 3 16 2 17 1 18
REMARK H PARENT
REMARK Flexibility Score: inf
ROOT
ATOM      1  C   UNL     1      21.269  10.876  38.985  1.00  0.00     0.004 C 
ENDROOT
BRANCH   1   2
ATOM      2  C   UNL     1      20.977  11.874  40.121  1.00  0.00     0.000 C 
BRANCH   2   3
ATOM      3  C   UNL     1      19.518  11.881  40.613  1.00  0.00     0.000 C 
BRANCH   3   4
ATOM      4  C   UNL     1      19.223  13.033  41.591  1.00  0.00     0.000 C 
BRANCH   4   5
ATOM      5  C   UNL     1      20.407  14.002  41.736  1.00  0.00     0.006 C 
BRANCH   5   6
ATOM      6  C   UNL     1      20.104  15.392  41.162  1.00  0.00     0.053 C 
BRANCH   6   7
ATOM      7  C   UNL     1      19.656  15.282  39.739  1.00  0.00     0.041 C 
ATOM      8  O   UNL     1      18.558  14.729  39.460  1.00  0.00    -0.550 OA
ATOM      9  O   UNL     1      20.473  15.743  38.715  1.00  0.00    -0.550 OA
ENDBRANCH   6   7
ENDBRANCH   5   6
ENDBRANCH   4   5
ENDBRANCH   3   4
ENDBRANCH   2   3
ENDBRANCH   1   2
BRANCH   1  10
ATOM     10  C   UNL     1      20.357  11.072  37.766  1.00  0.00     0.027 C 
BRANCH  10  11
ATOM     11  C   UNL     1      20.597  12.407  37.118  1.00  0.00    -0.031 C 
ATOM     12  C   UNL     1      21.814  12.972  37.108  1.00  0.00    -0.031 C 
BRANCH  12  13
ATOM     13  C   UNL     1      22.056  14.315  36.474  1.00  0.00     0.027 C 
BRANCH  13  14
ATOM     14  C   UNL     1      20.978  14.677  35.442  1.00  0.00     0.004 C 
BRANCH  14  15
ATOM     15  C   UNL     1      21.400  14.315  34.010  1.00  0.00     0.000 C 
BRANCH  15  16
ATOM     16  C   UNL     1      20.592  13.119  33.486  1.00  0.00    -0.000 C 
BRANCH  16  17
ATOM     17  C   UNL     1      19.107  13.194  33.874  1.00  0.00    -0.003 C 
ATOM     18  C   UNL     1      18.285  12.043  33.295  1.00  0.00     0.004 C 
ENDBRANCH  16  17
ENDBRANCH  15  16
ENDBRANCH  14  15
ENDBRANCH  13  14
ENDBRANCH  12  13
ENDBRANCH  10  11
ENDBRANCH   1  10
TORSDOF 13
ENDMDL
MODEL 6
REMARK VINA RESULT:     0.697      1.741      4.876
REMARK INTER + INTRA:           0.262
REMARK INTER:                   1.260
REMARK INTRA:                  -0.999
REMARK UNBOUND:                -0.965
REMARK SMILES CCCCCCC=CCCCCCCCC(=O)[O-]
REMARK SMILES IDX 10 1 11 2 12 3 13 4 14 5 15 6 16 7 17 8 18 9 9 10 8 11 7 12
REMARK SMILES IDX 6 13 5 14 4 15 3 16 2 17 1 18
REMARK H PARENT
REMARK Flexibility Score: inf
ROOT
ATOM      1  C   UNL     1      21.686  13.125  35.974  1.00  0.00     0.004 C 
ENDROOT
BRANCH   1   2
ATOM      2  C   UNL     1      21.369  14.630  35.915  1.00  0.00     0.000 C 
BRANCH   2   3
ATOM      3  C   UNL     1      21.392  15.349  37.276  1.00  0.00     0.000 C 
BRANCH   3   4
ATOM      4  C   UNL     1      20.038  15.290  38.006  1.00  0.00     0.000 C 
BRANCH   4   5
ATOM      5  C   UNL     1      20.193  15.243  39.535  1.00  0.00     0.006 C 
BRANCH   5   6
ATOM      6  C   UNL     1      19.749  16.545  40.212  1.00  0.00     0.053 C 
BRANCH   6   7
ATOM      7  C   UNL     1      20.537  16.778  41.462  1.00  0.00     0.041 C 
ATOM      8  O   UNL     1      21.228  15.849  41.959  1.00  0.00    -0.550 OA
ATOM      9  O   UNL     1      20.468  18.005  42.109  1.00  0.00    -0.550 OA
ENDBRANCH   6   7
ENDBRANCH   5   6
ENDBRANCH   4   5
ENDBRANCH   3   4
ENDBRANCH   2   3
ENDBRANCH   1   2
BRANCH   1  10
ATOM     10  C   UNL     1      22.621  12.755  37.135  1.00  0.00     0.027 C 
BRANCH  10  11
ATOM     11  C   UNL     1      21.852  12.148  38.277  1.00  0.00    -0.031 C 
ATOM     12  C   UNL     1      20.582  11.746  38.130  1.00  0.00    -0.031 C 
BRANCH  12  13
ATOM     13  C   UNL     1      19.804  11.152  39.273  1.00  0.00     0.027 C 
BRANCH  13  14
ATOM     14  C   UNL     1      18.323  11.559  39.246  1.00  0.00     0.004 C 
BRANCH  14  15
ATOM     15  C   UNL     1      17.957  12.495  40.407  1.00  0.00     0.000 C 
BRANCH  15  16
ATOM     16  C   UNL     1      18.703  12.097  41.688  1.00  0.00    -0.000 C 
BRANCH  16  17
ATOM     17  C   UNL     1      19.732  13.152  42.125  1.00  0.00    -0.003 C 
ATOM     18  C   UNL     1      21.159  12.791  41.715  1.00  0.00     0.004 C 
ENDBRANCH  16  17
ENDBRANCH  15  16
ENDBRANCH  14  15
ENDBRANCH  13  14
ENDBRANCH  12  13
ENDBRANCH  10  11
ENDBRANCH   1  10
TORSDOF 13
ENDMDL
MODEL 7
REMARK VINA RESULT:     0.903      1.391      5.295
REMARK INTER + INTRA:           0.624
REMARK INTER:                   0.994
REMARK INTRA:                  -0.370
REMARK UNBOUND:                -0.965
REMARK SMILES CCCCCCC=CCCCCCCCC(=O)[O-]
REMARK SMILES IDX 10 1 11 2 12 3 13 4 14 5 15 6 16 7 17 8 18 9 9 10 8 11 7 12
REMARK SMILES IDX 6 13 5 14 4 15 3 16 2 17 1 18
REMARK H PARENT
REMARK Flexibility Score: inf
ROOT
ATOM      1  C   UNL     1      20.461  11.997  36.395  1.00  0.00     0.004 C 
ENDROOT
BRANCH   1   2
ATOM      2  C   UNL     1      21.291  12.851  35.419  1.00  0.00     0.000 C 
BRANCH   2   3
ATOM      3  C   UNL     1      20.905  14.341  35.377  1.00  0.00     0.000 C 
BRANCH   3   4
ATOM      4  C   UNL     1      21.738  15.203  36.343  1.00  0.00     0.000 C 
BRANCH   4   5
ATOM      5  C   UNL     1      21.205  15.157  37.784  1.00  0.00     0.006 C 
BRANCH   5   6
ATOM      6  C   UNL     1      19.740  14.710  37.855  1.00  0.00     0.053 C 
BRANCH   6   7
ATOM      7  C   UNL     1      19.070  15.306  39.052  1.00  0.00     0.041 C 
ATOM      8  O   UNL     1      17.925  14.912  39.401  1.00  0.00    -0.550 OA
ATOM      9  O   UNL     1      19.686  16.335  39.753  1.00  0.00    -0.550 OA
ENDBRANCH   6   7
ENDBRANCH   5   6
ENDBRANCH   4   5
ENDBRANCH   3   4
ENDBRANCH   2   3
ENDBRANCH   1   2
BRANCH   1  10
ATOM     10  C   UNL     1      21.278  11.494  37.594  1.00  0.00     0.027 C 
BRANCH  10  11
ATOM     11  C   UNL     1      20.385  11.178  38.762  1.00  0.00    -0.031 C 
ATOM     12  C   UNL     1      19.596  12.111  39.313  1.00  0.00    -0.031 C 
BRANCH  12  13
ATOM     13  C   UNL     1      18.712  11.804  40.492  1.00  0.00     0.027 C 
BRANCH  13  14
ATOM     14  C   UNL     1      19.380  12.157  41.829  1.00  0.00     0.004 C 
BRANCH  14  15
ATOM     15  C   UNL     1      19.699  13.655  41.941  1.00  0.00     0.000 C 
BRANCH  15  16
ATOM     16  C   UNL     1      21.211  13.885  42.082  1.00  0.00    -0.000 C 
BRANCH  16  17
ATOM     17  C   UNL     1      22.011  12.573  42.076  1.00  0.00    -0.003 C 
ATOM     18  C   UNL     1      23.512  12.796  41.895  1.00  0.00     0.004 C 
ENDBRANCH  16  17
ENDBRANCH  15  16
ENDBRANCH  14  15
ENDBRANCH  13  14
ENDBRANCH  12  13
ENDBRANCH  10  11
ENDBRANCH   1  10
TORSDOF 13
ENDMDL
