MODEL 1
REMARK VINA RESULT:     8.127      0.000      0.000
REMARK INTER + INTRA:          13.678
REMARK INTER:                  14.304
REMARK INTRA:                  -0.626
REMARK UNBOUND:                -0.626
REMARK SMILES CCCCCCCCCCCCCCC(=O)[O-]
REMARK SMILES IDX 9 1 10 2 11 3 12 4 13 5 14 6 15 7 16 8 17 9 8 10 7 11 6 12
REMARK SMILES IDX 5 13 4 14 3 15 2 16 1 17
REMARK H PARENT
REMARK Flexibility Score: inf
ROOT
ATOM      1  C   UNL     1       2.796   7.596  -3.105  1.00  0.00     0.000 C 
ENDROOT
BRANCH   1   2
ATOM      2  C   UNL     1       1.323   7.214  -2.870  1.00  0.00     0.000 C 
BRANCH   2   3
ATOM      3  C   UNL     1       0.478   7.258  -4.152  1.00  0.00     0.000 C 
BRANCH   3   4
ATOM      4  C   UNL     1       0.091   8.701  -4.505  1.00  0.00     0.000 C 
BRANCH   4   5
ATOM      5  C   UNL     1       0.392   9.054  -5.970  1.00  0.00     0.006 C 
BRANCH   5   6
ATOM      6  C   UNL     1       1.821   8.679  -6.387  1.00  0.00     0.053 C 
BRANCH   6   7
ATOM      7  C   UNL     1       1.929   8.615  -7.878  1.00  0.00     0.041 C 
ATOM      8  O   UNL     1       2.971   9.021  -8.455  1.00  0.00    -0.550 OA
ATOM      9  O   UNL     1       0.859   8.153  -8.634  1.00  0.00    -0.550 OA
ENDBRANCH   6   7
ENDBRANCH   5   6
ENDBRANCH   4   5
ENDBRANCH   3   4
ENDBRANCH   2   3
ENDBRANCH   1   2
BRANCH   1  10
ATOM     10  C   UNL     1       3.761   7.214  -1.967  1.00  0.00     0.000 C 
BRANCH  10  11
ATOM     11  C   UNL     1       5.208   7.662  -2.233  1.00  0.00    -0.000 C 
BRANCH  11  12
ATOM     12  C   UNL     1       6.126   6.490  -2.614  1.00  0.00    -0.000 C 
BRANCH  12  13
ATOM     13  C   UNL     1       5.362   5.322  -3.264  1.00  0.00    -0.000 C 
BRANCH  13  14
ATOM     14  C   UNL     1       6.039   4.818  -4.549  1.00  0.00    -0.000 C 
BRANCH  14  15
ATOM     15  C   UNL     1       6.716   3.449  -4.361  1.00  0.00    -0.000 C 
BRANCH  15  16
ATOM     16  C   UNL     1       7.001   3.131  -2.885  1.00  0.00    -0.003 C 
ATOM     17  C   UNL     1       7.393   1.672  -2.661  1.00  0.00     0.004 C 
ENDBRANCH  15  16
ENDBRANCH  14  15
ENDBRANCH  13  14
ENDBRANCH  12  13
ENDBRANCH  11  12
ENDBRANCH  10  11
ENDBRANCH   1  10
TORSDOF 13
ENDMDL
MODEL 2
REMARK VINA RESULT:     8.824      3.223      7.580
REMARK INTER + INTRA:          14.904
REMARK INTER:                  15.225
REMARK INTRA:                  -0.321
REMARK UNBOUND:                -0.626
REMARK SMILES CCCCCCCCCCCCCCC(=O)[O-]
REMARK SMILES IDX 9 1 10 2 11 3 12 4 13 5 14 6 15 7 16 8 17 9 8 10 7 11 6 12
REMARK SMILES IDX 5 13 4 14 3 15 2 16 1 17
REMARK H PARENT
REMARK Flexibility Score: inf
ROOT
ATOM      1  C   UNL     1       1.269   7.529  -3.268  1.00  0.00     0.000 C 
ENDROOT
BRANCH   1   2
ATOM      2  C   UNL     1       2.793   7.660  -3.446  1.00  0.00     0.000 C 
BRANCH   2   3
ATOM      3  C   UNL     1       3.579   7.331  -2.168  1.00  0.00     0.000 C 
BRANCH   3   4
ATOM      4  C   UNL     1       5.053   7.735  -2.312  1.00  0.00     0.000 C 
BRANCH   4   5
ATOM      5  C   UNL     1       5.961   6.548  -2.670  1.00  0.00     0.006 C 
BRANCH   5   6
ATOM      6  C   UNL     1       5.177   5.351  -3.225  1.00  0.00     0.053 C 
BRANCH   6   7
ATOM      7  C   UNL     1       6.042   4.537  -4.135  1.00  0.00     0.041 C 
ATOM      8  O   UNL     1       5.990   4.709  -5.380  1.00  0.00    -0.550 OA
ATOM      9  O   UNL     1       6.871   3.553  -3.610  1.00  0.00    -0.550 OA
ENDBRANCH   6   7
ENDBRANCH   5   6
ENDBRANCH   4   5
ENDBRANCH   3   4
ENDBRANCH   2   3
ENDBRANCH   1   2
BRANCH   1  10
ATOM     10  C   UNL     1       0.444   7.678  -4.560  1.00  0.00     0.000 C 
BRANCH  10  11
ATOM     11  C   UNL     1       0.864   8.895  -5.402  1.00  0.00    -0.000 C 
BRANCH  11  12
ATOM     12  C   UNL     1       1.305   8.504  -6.821  1.00  0.00    -0.000 C 
BRANCH  12  13
ATOM     13  C   UNL     1       0.127   8.418  -7.808  1.00  0.00    -0.000 C 
BRANCH  13  14
ATOM     14  C   UNL     1       0.589   8.284  -9.267  1.00  0.00    -0.000 C 
BRANCH  14  15
ATOM     15  C   UNL     1      -0.547   8.541 -10.272  1.00  0.00    -0.000 C 
BRANCH  15  16
ATOM     16  C   UNL     1      -0.640   7.448 -11.348  1.00  0.00    -0.003 C 
ATOM     17  C   UNL     1      -0.404   7.987 -12.758  1.00  0.00     0.004 C 
ENDBRANCH  15  16
ENDBRANCH  14  15
ENDBRANCH  13  14
ENDBRANCH  12  13
ENDBRANCH  11  12
ENDBRANCH  10  11
ENDBRANCH   1  10
TORSDOF 13
ENDMDL
MODEL 3
REMARK VINA RESULT:     8.893      0.821      1.060
REMARK INTER + INTRA:          15.026
REMARK INTER:                  14.307
REMARK INTRA:                   0.719
REMARK UNBOUND:                -0.626
REMARK SMILES CCCCCCCCCCCCCCC(=O)[O-]
REMARK SMILES IDX 9 1 10 2 11 3 12 4 13 5 14 6 15 7 16 8 17 9 8 10 7 11 6 12
REMARK SMILES IDX 5 13 4 14 3 15 2 16 1 17
REMARK H PARENT
REMARK Flexibility Score: inf
ROOT
ATOM      1  C   UNL     1       2.773   7.649  -3.592  1.00  0.00     0.000 C 
ENDROOT
BRANCH   1   2
ATOM      2  C   UNL     1       1.285   7.259  -3.643  1.00  0.00     0.000 C 
BRANCH   2   3
ATOM      3  C   UNL     1       0.383   8.393  -4.152  1.00  0.00     0.000 C 
BRANCH   3   4
ATOM      4  C   UNL     1       0.864   8.908  -5.517  1.00  0.00     0.000 C 
BRANCH   4   5
ATOM      5  C   UNL     1       0.147   8.228  -6.694  1.00  0.00     0.006 C 
BRANCH   5   6
ATOM      6  C   UNL     1       0.839   8.489  -8.038  1.00  0.00     0.053 C 
BRANCH   6   7
ATOM      7  C   UNL     1       2.294   8.769  -7.829  1.00  0.00     0.041 C 
ATOM      8  O   UNL     1       2.803   8.657  -6.684  1.00  0.00    -0.550 OA
ATOM      9  O   UNL     1       3.078   9.203  -8.891  1.00  0.00    -0.550 OA
ENDBRANCH   6   7
ENDBRANCH   5   6
ENDBRANCH   4   5
ENDBRANCH   3   4
ENDBRANCH   2   3
ENDBRANCH   1   2
BRANCH   1  10
ATOM     10  C   UNL     1       3.513   7.240  -2.305  1.00  0.00     0.000 C 
BRANCH  10  11
ATOM     11  C   UNL     1       4.943   7.799  -2.232  1.00  0.00    -0.000 C 
BRANCH  11  12
ATOM     12  C   UNL     1       6.009   6.730  -2.522  1.00  0.00    -0.000 C 
BRANCH  12  13
ATOM     13  C   UNL     1       5.399   5.383  -2.949  1.00  0.00    -0.000 C 
BRANCH  13  14
ATOM     14  C   UNL     1       5.821   4.969  -4.368  1.00  0.00    -0.000 C 
BRANCH  14  15
ATOM     15  C   UNL     1       6.636   3.665  -4.385  1.00  0.00    -0.000 C 
BRANCH  15  16
ATOM     16  C   UNL     1       7.014   3.188  -2.973  1.00  0.00    -0.003 C 
ATOM     17  C   UNL     1       7.085   1.666  -2.864  1.00  0.00     0.004 C 
ENDBRANCH  15  16
ENDBRANCH  14  15
ENDBRANCH  13  14
ENDBRANCH  12  13
ENDBRANCH  11  12
ENDBRANCH  10  11
ENDBRANCH   1  10
TORSDOF 13
ENDMDL
MODEL 4
REMARK VINA RESULT:     9.215      1.345      2.097
REMARK INTER + INTRA:          15.592
REMARK INTER:                  16.264
REMARK INTRA:                  -0.672
REMARK UNBOUND:                -0.626
REMARK SMILES CCCCCCCCCCCCCCC(=O)[O-]
REMARK SMILES IDX 9 1 10 2 11 3 12 4 13 5 14 6 15 7 16 8 17 9 8 10 7 11 6 12
REMARK SMILES IDX 5 13 4 14 3 15 2 16 1 17
REMARK H PARENT
REMARK Flexibility Score: inf
ROOT
ATOM      1  C   UNL     1       1.246   7.027  -3.238  1.00  0.00     0.000 C 
ENDROOT
BRANCH   1   2
ATOM      2  C   UNL     1       0.336   7.477  -4.395  1.00  0.00     0.000 C 
BRANCH   2   3
ATOM      3  C   UNL     1       0.561   8.940  -4.804  1.00  0.00     0.000 C 
BRANCH   3   4
ATOM      4  C   UNL     1       1.004   9.039  -6.271  1.00  0.00     0.000 C 
BRANCH   4   5
ATOM      5  C   UNL     1       0.273   8.038  -7.180  1.00  0.00     0.006 C 
BRANCH   5   6
ATOM      6  C   UNL     1       0.719   8.136  -8.645  1.00  0.00     0.053 C 
BRANCH   6   7
ATOM      7  C   UNL     1      -0.385   8.687  -9.490  1.00  0.00     0.041 C 
ATOM      8  O   UNL     1      -1.200   9.515  -9.008  1.00  0.00    -0.550 OA
ATOM      9  O   UNL     1      -0.544   8.247 -10.799  1.00  0.00    -0.550 OA
ENDBRANCH   6   7
ENDBRANCH   5   6
ENDBRANCH   4   5
ENDBRANCH   3   4
ENDBRANCH   2   3
ENDBRANCH   1   2
BRANCH   1  10
ATOM     10  C   UNL     1       2.697   7.539  -3.309  1.00  0.00     0.000 C 
BRANCH  10  11
ATOM     11  C   UNL     1       3.577   7.002  -2.168  1.00  0.00    -0.000 C 
BRANCH  11  12
ATOM     12  C   UNL     1       5.008   7.562  -2.216  1.00  0.00    -0.000 C 
BRANCH  12  13
ATOM     13  C   UNL     1       6.044   6.511  -2.652  1.00  0.00    -0.000 C 
BRANCH  13  14
ATOM     14  C   UNL     1       5.392   5.246  -3.230  1.00  0.00    -0.000 C 
BRANCH  14  15
ATOM     15  C   UNL     1       6.093   4.751  -4.507  1.00  0.00    -0.000 C 
BRANCH  15  16
ATOM     16  C   UNL     1       6.754   3.376  -4.321  1.00  0.00    -0.003 C 
ATOM     17  C   UNL     1       7.018   3.042  -2.853  1.00  0.00     0.004 C 
ENDBRANCH  15  16
ENDBRANCH  14  15
ENDBRANCH  13  14
ENDBRANCH  12  13
ENDBRANCH  11  12
ENDBRANCH  10  11
ENDBRANCH   1  10
TORSDOF 13
ENDMDL
MODEL 5
REMARK VINA RESULT:     9.316      2.239      4.228
REMARK INTER + INTRA:          15.769
REMARK INTER:                  16.433
REMARK INTRA:                  -0.663
REMARK UNBOUND:                -0.626
REMARK SMILES CCCCCCCCCCCCCCC(=O)[O-]
REMARK SMILES IDX 9 1 10 2 11 3 12 4 13 5 14 6 15 7 16 8 17 9 8 10 7 11 6 12
REMARK SMILES IDX 5 13 4 14 3 15 2 16 1 17
REMARK H PARENT
REMARK Flexibility Score: inf
ROOT
ATOM      1  C   UNL     1       1.208   8.653  -5.908  1.00  0.00     0.000 C 
ENDROOT
BRANCH   1   2
ATOM      2  C   UNL     1       0.450   8.646  -7.248  1.00  0.00     0.000 C 
BRANCH   2   3
ATOM      3  C   UNL     1       1.359   8.363  -8.452  1.00  0.00     0.000 C 
BRANCH   3   4
ATOM      4  C   UNL     1       2.652   9.188  -8.371  1.00  0.00     0.000 C 
BRANCH   4   5
ATOM      5  C   UNL     1       3.409   9.238  -9.707  1.00  0.00     0.006 C 
BRANCH   5   6
ATOM      6  C   UNL     1       3.126  10.522 -10.499  1.00  0.00     0.053 C 
BRANCH   6   7
ATOM      7  C   UNL     1       3.194  10.253 -11.969  1.00  0.00     0.041 C 
ATOM      8  O   UNL     1       2.676  11.058 -12.786  1.00  0.00    -0.550 OA
ATOM      9  O   UNL     1       3.788   9.087 -12.436  1.00  0.00    -0.550 OA
ENDBRANCH   6   7
ENDBRANCH   5   6
ENDBRANCH   4   5
ENDBRANCH   3   4
ENDBRANCH   2   3
ENDBRANCH   1   2
BRANCH   1  10
ATOM     10  C   UNL     1       0.326   8.498  -4.656  1.00  0.00     0.000 C 
BRANCH  10  11
ATOM     11  C   UNL     1       0.986   7.647  -3.558  1.00  0.00    -0.000 C 
BRANCH  11  12
ATOM     12  C   UNL     1       2.521   7.712  -3.607  1.00  0.00    -0.000 C 
BRANCH  12  13
ATOM     13  C   UNL     1       3.187   6.935  -2.457  1.00  0.00    -0.000 C 
BRANCH  13  14
ATOM     14  C   UNL     1       4.572   7.492  -2.094  1.00  0.00    -0.000 C 
BRANCH  14  15
ATOM     15  C   UNL     1       5.714   6.731  -2.789  1.00  0.00    -0.000 C 
BRANCH  15  16
ATOM     16  C   UNL     1       5.337   5.279  -3.124  1.00  0.00    -0.003 C 
ATOM     17  C   UNL     1       6.025   4.767  -4.388  1.00  0.00     0.004 C 
ENDBRANCH  15  16
ENDBRANCH  14  15
ENDBRANCH  13  14
ENDBRANCH  12  13
ENDBRANCH  11  12
ENDBRANCH  10  11
ENDBRANCH   1  10
TORSDOF 13
ENDMDL
MODEL 6
REMARK VINA RESULT:     9.471      2.862      7.046
REMARK INTER + INTRA:          16.043
REMARK INTER:                  16.693
REMARK INTRA:                  -0.650
REMARK UNBOUND:                -0.626
REMARK SMILES CCCCCCCCCCCCCCC(=O)[O-]
REMARK SMILES IDX 9 1 10 2 11 3 12 4 13 5 14 6 15 7 16 8 17 9 8 10 7 11 6 12
REMARK SMILES IDX 5 13 4 14 3 15 2 16 1 17
REMARK H PARENT
REMARK Flexibility Score: inf
ROOT
ATOM      1  C   UNL     1       1.439   7.339  -3.521  1.00  0.00     0.000 C 
ENDROOT
BRANCH   1   2
ATOM      2  C   UNL     1       2.878   7.872  -3.402  1.00  0.00     0.000 C 
BRANCH   2   3
ATOM      3  C   UNL     1       3.641   7.283  -2.206  1.00  0.00     0.000 C 
BRANCH   3   4
ATOM      4  C   UNL     1       5.129   7.657  -2.265  1.00  0.00     0.000 C 
BRANCH   4   5
ATOM      5  C   UNL     1       6.022   6.476  -2.674  1.00  0.00     0.006 C 
BRANCH   5   6
ATOM      6  C   UNL     1       5.230   5.335  -3.328  1.00  0.00     0.053 C 
BRANCH   6   7
ATOM      7  C   UNL     1       6.102   4.569  -4.272  1.00  0.00     0.041 C 
ATOM      8  O   UNL     1       6.131   4.869  -5.494  1.00  0.00    -0.550 OA
ATOM      9  O   UNL     1       6.846   3.490  -3.810  1.00  0.00    -0.550 OA
ENDBRANCH   6   7
ENDBRANCH   5   6
ENDBRANCH   4   5
ENDBRANCH   3   4
ENDBRANCH   2   3
ENDBRANCH   1   2
BRANCH   1  10
ATOM     10  C   UNL     1       0.491   8.200  -4.376  1.00  0.00     0.000 C 
BRANCH  10  11
ATOM     11  C   UNL     1       1.154   8.726  -5.660  1.00  0.00    -0.000 C 
BRANCH  11  12
ATOM     12  C   UNL     1       0.377   8.334  -6.927  1.00  0.00    -0.000 C 
BRANCH  12  13
ATOM     13  C   UNL     1       1.192   8.549  -8.215  1.00  0.00    -0.000 C 
BRANCH  13  14
ATOM     14  C   UNL     1       2.621   9.038  -7.933  1.00  0.00    -0.000 C 
BRANCH  14  15
ATOM     15  C   UNL     1       3.452   9.204  -9.217  1.00  0.00    -0.000 C 
BRANCH  15  16
ATOM     16  C   UNL     1       2.695   9.968 -10.314  1.00  0.00    -0.003 C 
ATOM     17  C   UNL     1       3.453  10.002 -11.640  1.00  0.00     0.004 C 
ENDBRANCH  15  16
ENDBRANCH  14  15
ENDBRANCH  13  14
ENDBRANCH  12  13
ENDBRANCH  11  12
ENDBRANCH  10  11
ENDBRANCH   1  10
TORSDOF 13
ENDMDL
MODEL 7
REMARK VINA RESULT:     9.677      3.549      7.672
REMARK INTER + INTRA:          16.406
REMARK INTER:                  17.117
REMARK INTRA:                  -0.712
REMARK UNBOUND:                -0.626
REMARK SMILES CCCCCCCCCCCCCCC(=O)[O-]
REMARK SMILES IDX 9 1 10 2 11 3 12 4 13 5 14 6 15 7 16 8 17 9 8 10 7 11 6 12
REMARK SMILES IDX 5 13 4 14 3 15 2 16 1 17
REMARK H PARENT
REMARK Flexibility Score: inf
ROOT
ATOM      1  C   UNL     1       0.931   8.791  -5.756  1.00  0.00     0.000 C 
ENDROOT
BRANCH   1   2
ATOM      2  C   UNL     1       0.118   8.420  -4.504  1.00  0.00     0.000 C 
BRANCH   2   3
ATOM      3  C   UNL     1       0.871   7.478  -3.554  1.00  0.00     0.000 C 
BRANCH   3   4
ATOM      4  C   UNL     1       2.389   7.666  -3.683  1.00  0.00     0.000 C 
BRANCH   4   5
ATOM      5  C   UNL     1       3.186   6.650  -2.850  1.00  0.00     0.006 C 
BRANCH   5   6
ATOM      6  C   UNL     1       4.063   7.319  -1.783  1.00  0.00     0.053 C 
BRANCH   6   7
ATOM      7  C   UNL     1       5.487   7.373  -2.238  1.00  0.00     0.041 C 
ATOM      8  O   UNL     1       6.155   8.431  -2.107  1.00  0.00    -0.550 OA
ATOM      9  O   UNL     1       6.063   6.268  -2.852  1.00  0.00    -0.550 OA
ENDBRANCH   6   7
ENDBRANCH   5   6
ENDBRANCH   4   5
ENDBRANCH   3   4
ENDBRANCH   2   3
ENDBRANCH   1   2
BRANCH   1  10
ATOM     10  C   UNL     1       0.235   8.502  -7.099  1.00  0.00     0.000 C 
BRANCH  10  11
ATOM     11  C   UNL     1       1.210   8.488  -8.289  1.00  0.00    -0.000 C 
BRANCH  11  12
ATOM     12  C   UNL     1       2.633   8.911  -7.889  1.00  0.00    -0.000 C 
BRANCH  12  13
ATOM     13  C   UNL     1       3.530   9.204  -9.104  1.00  0.00    -0.000 C 
BRANCH  13  14
ATOM     14  C   UNL     1       2.805  10.014 -10.190  1.00  0.00    -0.000 C 
BRANCH  14  15
ATOM     15  C   UNL     1       3.564  10.019 -11.528  1.00  0.00    -0.000 C 
BRANCH  15  16
ATOM     16  C   UNL     1       2.619  10.023 -12.741  1.00  0.00    -0.003 C 
ATOM     17  C   UNL     1       2.405  11.421 -13.317  1.00  0.00     0.004 C 
ENDBRANCH  15  16
ENDBRANCH  14  15
ENDBRANCH  13  14
ENDBRANCH  12  13
ENDBRANCH  11  12
ENDBRANCH  10  11
ENDBRANCH   1  10
TORSDOF 13
ENDMDL
MODEL 8
REMARK VINA RESULT:    10.078      3.432      7.195
REMARK INTER + INTRA:          17.111
REMARK INTER:                  17.707
REMARK INTRA:                  -0.596
REMARK UNBOUND:                -0.626
REMARK SMILES CCCCCCCCCCCCCCC(=O)[O-]
REMARK SMILES IDX 9 1 10 2 11 3 12 4 13 5 14 6 15 7 16 8 17 9 8 10 7 11 6 12
REMARK SMILES IDX 5 13 4 14 3 15 2 16 1 17
REMARK H PARENT
REMARK Flexibility Score: inf
ROOT
ATOM      1  C   UNL     1       2.991   6.888  -2.262  1.00  0.00     0.000 C 
ENDROOT
BRANCH   1   2
ATOM      2  C   UNL     1       4.273   7.506  -1.677  1.00  0.00     0.000 C 
BRANCH   2   3
ATOM      3  C   UNL     1       5.509   7.275  -2.558  1.00  0.00     0.000 C 
BRANCH   3   4
ATOM      4  C   UNL     1       5.316   6.051  -3.465  1.00  0.00     0.000 C 
BRANCH   4   5
ATOM      5  C   UNL     1       6.324   4.929  -3.170  1.00  0.00     0.006 C 
BRANCH   5   6
ATOM      6  C   UNL     1       6.360   3.863  -4.273  1.00  0.00     0.053 C 
BRANCH   6   7
ATOM      7  C   UNL     1       6.924   2.583  -3.742  1.00  0.00     0.041 C 
ATOM      8  O   UNL     1       7.196   2.469  -2.519  1.00  0.00    -0.550 OA
ATOM      9  O   UNL     1       7.198   1.531  -4.609  1.00  0.00    -0.550 OA
ENDBRANCH   6   7
ENDBRANCH   5   6
ENDBRANCH   4   5
ENDBRANCH   3   4
ENDBRANCH   2   3
ENDBRANCH   1   2
BRANCH   1  10
ATOM     10  C   UNL     1       2.422   7.609  -3.499  1.00  0.00     0.000 C 
BRANCH  10  11
ATOM     11  C   UNL     1       0.920   7.350  -3.705  1.00  0.00    -0.000 C 
BRANCH  11  12
ATOM     12  C   UNL     1       0.169   8.600  -4.191  1.00  0.00    -0.000 C 
BRANCH  12  13
ATOM     13  C   UNL     1       0.661   9.095  -5.562  1.00  0.00    -0.000 C 
BRANCH  13  14
ATOM     14  C   UNL     1       0.105   8.258  -6.725  1.00  0.00    -0.000 C 
BRANCH  14  15
ATOM     15  C   UNL     1       0.973   8.357  -7.991  1.00  0.00    -0.000 C 
BRANCH  15  16
ATOM     16  C   UNL     1       2.410   8.808  -7.687  1.00  0.00    -0.003 C 
ATOM     17  C   UNL     1       3.159   9.272  -8.934  1.00  0.00     0.004 C 
ENDBRANCH  15  16
ENDBRANCH  14  15
ENDBRANCH  13  14
ENDBRANCH  12  13
ENDBRANCH  11  12
ENDBRANCH  10  11
ENDBRANCH   1  10
TORSDOF 13
ENDMDL
MODEL 9
REMARK VINA RESULT:    11.102      2.870      4.669
REMARK INTER + INTRA:          18.914
REMARK INTER:                  19.442
REMARK INTRA:                  -0.529
REMARK UNBOUND:                -0.626
REMARK SMILES CCCCCCCCCCCCCCC(=O)[O-]
REMARK SMILES IDX 9 1 10 2 11 3 12 4 13 5 14 6 15 7 16 8 17 9 8 10 7 11 6 12
REMARK SMILES IDX 5 13 4 14 3 15 2 16 1 17
REMARK H PARENT
REMARK Flexibility Score: inf
ROOT
ATOM      1  C   UNL     1       0.321   8.495  -6.143  1.00  0.00     0.000 C 
ENDROOT
BRANCH   1   2
ATOM      2  C   UNL     1       1.190   8.264  -7.392  1.00  0.00     0.000 C 
BRANCH   2   3
ATOM      3  C   UNL     1       0.594   8.887  -8.663  1.00  0.00     0.000 C 
BRANCH   3   4
ATOM      4  C   UNL     1       0.198   7.801  -9.674  1.00  0.00     0.000 C 
BRANCH   4   5
ATOM      5  C   UNL     1      -0.831   8.295 -10.703  1.00  0.00     0.006 C 
BRANCH   5   6
ATOM      6  C   UNL     1      -1.005   7.324 -11.878  1.00  0.00     0.053 C 
BRANCH   6   7
ATOM      7  C   UNL     1      -0.194   7.774 -13.052  1.00  0.00     0.041 C 
ATOM      8  O   UNL     1      -0.440   8.877 -13.607  1.00  0.00    -0.550 OA
ATOM      9  O   UNL     1       0.803   6.954 -13.564  1.00  0.00    -0.550 OA
ENDBRANCH   6   7
ENDBRANCH   5   6
ENDBRANCH   4   5
ENDBRANCH   3   4
ENDBRANCH   2   3
ENDBRANCH   1   2
BRANCH   1  10
ATOM     10  C   UNL     1       1.100   8.633  -4.821  1.00  0.00     0.000 C 
BRANCH  10  11
ATOM     11  C   UNL     1       0.550   7.730  -3.705  1.00  0.00    -0.000 C 
BRANCH  11  12
ATOM     12  C   UNL     1       1.666   7.090  -2.862  1.00  0.00    -0.000 C 
BRANCH  12  13
ATOM     13  C   UNL     1       3.073   7.517  -3.316  1.00  0.00    -0.000 C 
BRANCH  13  14
ATOM     14  C   UNL     1       4.144   7.245  -2.248  1.00  0.00    -0.000 C 
BRANCH  14  15
ATOM     15  C   UNL     1       5.476   6.772  -2.854  1.00  0.00    -0.000 C 
BRANCH  15  16
ATOM     16  C   UNL     1       5.537   5.246  -3.024  1.00  0.00    -0.003 C 
ATOM     17  C   UNL     1       6.172   4.824  -4.347  1.00  0.00     0.004 C 
ENDBRANCH  15  16
ENDBRANCH  14  15
ENDBRANCH  13  14
ENDBRANCH  12  13
ENDBRANCH  11  12
ENDBRANCH  10  11
ENDBRANCH   1  10
TORSDOF 13
ENDMDL
