MODEL 1
REMARK VINA RESULT:    -2.041      0.000      0.000
REMARK INTER + INTRA:          -5.424
REMARK INTER:                  -3.949
REMARK INTRA:                  -1.475
REMARK UNBOUND:                -1.475
REMARK SMILES CCCCCCCCCCCCCCCCCC(=O)[O-]
REMARK SMILES IDX 10 1 11 2 12 3 13 4 14 5 15 6 16 7 17 8 18 9 19 10 20 11
REMARK SMILES IDX 9 12 8 13 7 14 6 15 5 16 4 17 3 18 2 19 1 20
REMARK H PARENT
REMARK Flexibility Score: inf
ROOT
ATOM      1  C   UNL     1      17.967 -15.897  13.086  1.00  0.00     0.000 C 
ENDROOT
BRANCH   1   2
ATOM      2  C   UNL     1      17.082 -17.148  13.178  1.00  0.00     0.000 C 
BRANCH   2   3
ATOM      3  C   UNL     1      17.250 -18.093  11.976  1.00  0.00     0.000 C 
BRANCH   3   4
ATOM      4  C   UNL     1      16.892 -17.441  10.624  1.00  0.00     0.000 C 
BRANCH   4   5
ATOM      5  C   UNL     1      18.084 -17.431   9.651  1.00  0.00     0.000 C 
BRANCH   5   6
ATOM      6  C   UNL     1      19.388 -16.960  10.313  1.00  0.00     0.000 C 
BRANCH   6   7
ATOM      7  C   UNL     1      20.228 -18.125  10.864  1.00  0.00     0.006 C 
BRANCH   7   8
ATOM      8  C   UNL     1      20.885 -17.779  12.206  1.00  0.00     0.053 C 
BRANCH   8   9
ATOM      9  C   UNL     1      22.378 -17.723  12.097  1.00  0.00     0.041 C 
ATOM     10  O   UNL     1      23.099 -18.027  13.083  1.00  0.00    -0.550 OA
ATOM     11  O   UNL     1      22.973 -17.359  10.895  1.00  0.00    -0.550 OA
ENDBRANCH   8   9
ENDBRANCH   7   8
ENDBRANCH   6   7
ENDBRANCH   5   6
ENDBRANCH   4   5
ENDBRANCH   3   4
ENDBRANCH   2   3
ENDBRANCH   1   2
BRANCH   1  12
ATOM     12  C   UNL     1      18.531 -15.520  14.463  1.00  0.00     0.000 C 
BRANCH  12  13
ATOM     13  C   UNL     1      17.984 -16.408  15.593  1.00  0.00    -0.000 C 
BRANCH  13  14
ATOM     14  C   UNL     1      18.931 -17.568  15.942  1.00  0.00    -0.000 C 
BRANCH  14  15
ATOM     15  C   UNL     1      19.887 -17.231  17.102  1.00  0.00    -0.000 C 
BRANCH  15  16
ATOM     16  C   UNL     1      21.264 -17.921  17.037  1.00  0.00    -0.000 C 
BRANCH  16  17
ATOM     17  C   UNL     1      22.475 -16.972  17.125  1.00  0.00    -0.000 C 
BRANCH  17  18
ATOM     18  C   UNL     1      22.259 -15.579  16.500  1.00  0.00    -0.000 C 
BRANCH  18  19
ATOM     19  C   UNL     1      22.864 -15.398  15.097  1.00  0.00    -0.003 C 
ATOM     20  C   UNL     1      21.932 -14.659  14.137  1.00  0.00     0.004 C 
ENDBRANCH  18  19
ENDBRANCH  17  18
ENDBRANCH  16  17
ENDBRANCH  15  16
ENDBRANCH  14  15
ENDBRANCH  13  14
ENDBRANCH  12  13
ENDBRANCH   1  12
TORSDOF 16
ENDMDL
MODEL 2
REMARK VINA RESULT:    -1.879      5.718      7.781
REMARK INTER + INTRA:          -5.111
REMARK INTER:                  -3.998
REMARK INTRA:                  -1.113
REMARK UNBOUND:                -1.475
REMARK SMILES CCCCCCCCCCCCCCCCCC(=O)[O-]
REMARK SMILES IDX 10 1 11 2 12 3 13 4 14 5 15 6 16 7 17 8 18 9 19 10 20 11
REMARK SMILES IDX 9 12 8 13 7 14 6 15 5 16 4 17 3 18 2 19 1 20
REMARK H PARENT
REMARK Flexibility Score: inf
ROOT
ATOM      1  C   UNL     1      17.192 -17.214  12.428  1.00  0.00     0.000 C 
ENDROOT
BRANCH   1   2
ATOM      2  C   UNL     1      16.596 -18.112  13.521  1.00  0.00     0.000 C 
BRANCH   2   3
ATOM      3  C   UNL     1      15.824 -17.322  14.592  1.00  0.00     0.000 C 
BRANCH   3   4
ATOM      4  C   UNL     1      14.530 -18.021  15.061  1.00  0.00     0.000 C 
BRANCH   4   5
ATOM      5  C   UNL     1      14.450 -18.125  16.594  1.00  0.00     0.000 C 
BRANCH   5   6
ATOM      6  C   UNL     1      13.006 -18.093  17.118  1.00  0.00     0.000 C 
BRANCH   6   7
ATOM      7  C   UNL     1      12.039 -17.392  16.147  1.00  0.00     0.006 C 
BRANCH   7   8
ATOM      8  C   UNL     1      10.695 -18.124  16.042  1.00  0.00     0.053 C 
BRANCH   8   9
ATOM      9  C   UNL     1       9.554 -17.255  16.474  1.00  0.00     0.041 C 
ATOM     10  O   UNL     1       9.772 -16.179  17.091  1.00  0.00    -0.550 OA
ATOM     11  O   UNL     1       8.248 -17.621  16.171  1.00  0.00    -0.550 OA
ENDBRANCH   8   9
ENDBRANCH   7   8
ENDBRANCH   6   7
ENDBRANCH   5   6
ENDBRANCH   4   5
ENDBRANCH   3   4
ENDBRANCH   2   3
ENDBRANCH   1   2
BRANCH   1  12
ATOM     12  C   UNL     1      17.166 -17.918  11.064  1.00  0.00     0.000 C 
BRANCH  12  13
ATOM     13  C   UNL     1      18.076 -17.239  10.027  1.00  0.00    -0.000 C 
BRANCH  13  14
ATOM     14  C   UNL     1      19.331 -16.616  10.662  1.00  0.00    -0.000 C 
BRANCH  14  15
ATOM     15  C   UNL     1      20.349 -17.671  11.132  1.00  0.00    -0.000 C 
BRANCH  15  16
ATOM     16  C   UNL     1      21.074 -17.339  12.452  1.00  0.00    -0.000 C 
BRANCH  16  17
ATOM     17  C   UNL     1      20.363 -16.306  13.347  1.00  0.00    -0.000 C 
BRANCH  17  18
ATOM     18  C   UNL     1      21.196 -15.795  14.539  1.00  0.00    -0.000 C 
BRANCH  18  19
ATOM     19  C   UNL     1      20.438 -15.727  15.877  1.00  0.00    -0.003 C 
ATOM     20  C   UNL     1      18.998 -16.227  15.771  1.00  0.00     0.004 C 
ENDBRANCH  18  19
ENDBRANCH  17  18
ENDBRANCH  16  17
ENDBRANCH  15  16
ENDBRANCH  14  15
ENDBRANCH  13  14
ENDBRANCH  12  13
ENDBRANCH   1  12
TORSDOF 16
ENDMDL
MODEL 3
REMARK VINA RESULT:    -1.809      2.762      5.610
REMARK INTER + INTRA:          -4.976
REMARK INTER:                  -3.783
REMARK INTRA:                  -1.193
REMARK UNBOUND:                -1.475
REMARK SMILES CCCCCCCCCCCCCCCCCC(=O)[O-]
REMARK SMILES IDX 10 1 11 2 12 3 13 4 14 5 15 6 16 7 17 8 18 9 19 10 20 11
REMARK SMILES IDX 9 12 8 13 7 14 6 15 5 16 4 17 3 18 2 19 1 20
REMARK H PARENT
REMARK Flexibility Score: inf
ROOT
ATOM      1  C   UNL     1      17.360 -17.271  10.834  1.00  0.00     0.000 C 
ENDROOT
BRANCH   1   2
ATOM      2  C   UNL     1      18.786 -16.735  11.018  1.00  0.00     0.000 C 
BRANCH   2   3
ATOM      3  C   UNL     1      19.826 -17.852  11.220  1.00  0.00     0.000 C 
BRANCH   3   4
ATOM      4  C   UNL     1      21.285 -17.369  11.075  1.00  0.00     0.000 C 
BRANCH   4   5
ATOM      5  C   UNL     1      21.935 -17.072  12.438  1.00  0.00     0.000 C 
BRANCH   5   6
ATOM      6  C   UNL     1      20.930 -16.542  13.472  1.00  0.00     0.000 C 
BRANCH   6   7
ATOM      7  C   UNL     1      21.518 -15.425  14.352  1.00  0.00     0.006 C 
BRANCH   7   8
ATOM      8  C   UNL     1      21.151 -15.600  15.831  1.00  0.00     0.053 C 
BRANCH   8   9
ATOM      9  C   UNL     1      21.781 -16.824  16.420  1.00  0.00     0.041 C 
ATOM     10  O   UNL     1      23.035 -16.942  16.447  1.00  0.00    -0.550 OA
ATOM     11  O   UNL     1      20.985 -17.824  16.962  1.00  0.00    -0.550 OA
ENDBRANCH   8   9
ENDBRANCH   7   8
ENDBRANCH   6   7
ENDBRANCH   5   6
ENDBRANCH   4   5
ENDBRANCH   3   4
ENDBRANCH   2   3
ENDBRANCH   1   2
BRANCH   1  12
ATOM     12  C   UNL     1      16.812 -17.838  12.151  1.00  0.00     0.000 C 
BRANCH  12  13
ATOM     13  C   UNL     1      17.193 -16.983  13.371  1.00  0.00    -0.000 C 
BRANCH  13  14
ATOM     14  C   UNL     1      18.040 -17.759  14.393  1.00  0.00    -0.000 C 
BRANCH  14  15
ATOM     15  C   UNL     1      17.537 -17.588  15.839  1.00  0.00    -0.000 C 
BRANCH  15  16
ATOM     16  C   UNL     1      16.093 -17.062  15.971  1.00  0.00    -0.000 C 
BRANCH  16  17
ATOM     17  C   UNL     1      15.042 -18.124  16.344  1.00  0.00    -0.000 C 
BRANCH  17  18
ATOM     18  C   UNL     1      13.770 -18.116  15.473  1.00  0.00    -0.000 C 
BRANCH  18  19
ATOM     19  C   UNL     1      12.447 -18.097  16.259  1.00  0.00    -0.003 C 
ATOM     20  C   UNL     1      11.218 -18.003  15.355  1.00  0.00     0.004 C 
ENDBRANCH  18  19
ENDBRANCH  17  18
ENDBRANCH  16  17
ENDBRANCH  15  16
ENDBRANCH  14  15
ENDBRANCH  13  14
ENDBRANCH  12  13
ENDBRANCH   1  12
TORSDOF 16
ENDMDL
MODEL 4
REMARK VINA RESULT:    -1.557      3.011      4.762
REMARK INTER + INTRA:          -4.489
REMARK INTER:                  -3.364
REMARK INTRA:                  -1.125
REMARK UNBOUND:                -1.475
REMARK SMILES CCCCCCCCCCCCCCCCCC(=O)[O-]
REMARK SMILES IDX 10 1 11 2 12 3 13 4 14 5 15 6 16 7 17 8 18 9 19 10 20 11
REMARK SMILES IDX 9 12 8 13 7 14 6 15 5 16 4 17 3 18 2 19 1 20
REMARK H PARENT
REMARK Flexibility Score: inf
ROOT
ATOM      1  C   UNL     1      20.814 -16.970  12.073  1.00  0.00     0.000 C 
ENDROOT
BRANCH   1   2
ATOM      2  C   UNL     1      20.117 -17.111  10.712  1.00  0.00     0.000 C 
BRANCH   2   3
ATOM      3  C   UNL     1      18.926 -16.150  10.546  1.00  0.00     0.000 C 
BRANCH   3   4
ATOM      4  C   UNL     1      17.781 -16.730   9.689  1.00  0.00     0.000 C 
BRANCH   4   5
ATOM      5  C   UNL     1      17.173 -17.998  10.315  1.00  0.00     0.000 C 
BRANCH   5   6
ATOM      6  C   UNL     1      17.480 -18.125  11.816  1.00  0.00     0.000 C 
BRANCH   6   7
ATOM      7  C   UNL     1      16.297 -17.695  12.701  1.00  0.00     0.006 C 
BRANCH   7   8
ATOM      8  C   UNL     1      16.506 -18.080  14.171  1.00  0.00     0.053 C 
BRANCH   8   9
ATOM      9  C   UNL     1      15.288 -17.800  14.997  1.00  0.00     0.041 C 
ATOM     10  O   UNL     1      14.144 -18.092  14.561  1.00  0.00    -0.550 OA
ATOM     11  O   UNL     1      15.420 -17.240  16.262  1.00  0.00    -0.550 OA
ENDBRANCH   8   9
ENDBRANCH   7   8
ENDBRANCH   6   7
ENDBRANCH   5   6
ENDBRANCH   4   5
ENDBRANCH   3   4
ENDBRANCH   2   3
ENDBRANCH   1   2
BRANCH   1  12
ATOM     12  C   UNL     1      22.341 -16.977  11.910  1.00  0.00     0.000 C 
BRANCH  12  13
ATOM     13  C   UNL     1      23.072 -16.418  13.142  1.00  0.00    -0.000 C 
BRANCH  13  14
ATOM     14  C   UNL     1      22.123 -16.157  14.324  1.00  0.00    -0.000 C 
BRANCH  14  15
ATOM     15  C   UNL     1      22.649 -16.735  15.651  1.00  0.00    -0.000 C 
BRANCH  15  16
ATOM     16  C   UNL     1      21.811 -17.886  16.242  1.00  0.00    -0.000 C 
BRANCH  16  17
ATOM     17  C   UNL     1      20.435 -18.100  15.581  1.00  0.00    -0.000 C 
BRANCH  17  18
ATOM     18  C   UNL     1      19.261 -17.381  16.274  1.00  0.00    -0.000 C 
BRANCH  18  19
ATOM     19  C   UNL     1      19.028 -15.931  15.816  1.00  0.00    -0.003 C 
ATOM     20  C   UNL     1      17.823 -15.278  16.491  1.00  0.00     0.004 C 
ENDBRANCH  18  19
ENDBRANCH  17  18
ENDBRANCH  16  17
ENDBRANCH  15  16
ENDBRANCH  14  15
ENDBRANCH  13  14
ENDBRANCH  12  13
ENDBRANCH   1  12
TORSDOF 16
ENDMDL
MODEL 5
REMARK VINA RESULT:    -1.459      1.518      5.224
REMARK INTER + INTRA:          -4.299
REMARK INTER:                  -4.040
REMARK INTRA:                  -0.259
REMARK UNBOUND:                -1.475
REMARK SMILES CCCCCCCCCCCCCCCCCC(=O)[O-]
REMARK SMILES IDX 10 1 11 2 12 3 13 4 14 5 15 6 16 7 17 8 18 9 19 10 20 11
REMARK SMILES IDX 9 12 8 13 7 14 6 15 5 16 4 17 3 18 2 19 1 20
REMARK H PARENT
REMARK Flexibility Score: inf
ROOT
ATOM      1  C   UNL     1      16.766 -17.437  15.223  1.00  0.00     0.000 C 
ENDROOT
BRANCH   1   2
ATOM      2  C   UNL     1      17.652 -16.191  15.090  1.00  0.00     0.000 C 
BRANCH   2   3
ATOM      3  C   UNL     1      19.074 -16.405  15.639  1.00  0.00     0.000 C 
BRANCH   3   4
ATOM      4  C   UNL     1      19.107 -17.124  17.004  1.00  0.00     0.000 C 
BRANCH   4   5
ATOM      5  C   UNL     1      20.284 -18.109  17.113  1.00  0.00     0.000 C 
BRANCH   5   6
ATOM      6  C   UNL     1      21.175 -18.110  15.861  1.00  0.00     0.000 C 
BRANCH   6   7
ATOM      7  C   UNL     1      22.659 -17.872  16.190  1.00  0.00     0.006 C 
BRANCH   7   8
ATOM      8  C   UNL     1      23.026 -16.383  16.158  1.00  0.00     0.053 C 
BRANCH   8   9
ATOM      9  C   UNL     1      22.401 -15.681  14.992  1.00  0.00     0.041 C 
ATOM     10  O   UNL     1      21.659 -14.680  15.176  1.00  0.00    -0.550 OA
ATOM     11  O   UNL     1      22.659 -16.116  13.698  1.00  0.00    -0.550 OA
ENDBRANCH   8   9
ENDBRANCH   7   8
ENDBRANCH   6   7
ENDBRANCH   5   6
ENDBRANCH   4   5
ENDBRANCH   3   4
ENDBRANCH   2   3
ENDBRANCH   1   2
BRANCH   1  12
ATOM     12  C   UNL     1      16.524 -18.087  13.852  1.00  0.00     0.000 C 
BRANCH  12  13
ATOM     13  C   UNL     1      17.619 -17.742  12.830  1.00  0.00    -0.000 C 
BRANCH  13  14
ATOM     14  C   UNL     1      17.226 -18.125  11.393  1.00  0.00    -0.000 C 
BRANCH  14  15
ATOM     15  C   UNL     1      17.682 -17.086  10.352  1.00  0.00    -0.000 C 
BRANCH  15  16
ATOM     16  C   UNL     1      19.005 -16.366  10.683  1.00  0.00    -0.000 C 
BRANCH  16  17
ATOM     17  C   UNL     1      19.856 -17.032  11.781  1.00  0.00    -0.000 C 
BRANCH  17  18
ATOM     18  C   UNL     1      20.823 -18.125  11.283  1.00  0.00    -0.000 C 
BRANCH  18  19
ATOM     19  C   UNL     1      21.605 -17.764  10.008  1.00  0.00    -0.003 C 
ATOM     20  C   UNL     1      23.117 -17.919  10.171  1.00  0.00     0.004 C 
ENDBRANCH  18  19
ENDBRANCH  17  18
ENDBRANCH  16  17
ENDBRANCH  15  16
ENDBRANCH  14  15
ENDBRANCH  13  14
ENDBRANCH  12  13
ENDBRANCH   1  12
TORSDOF 16
ENDMDL
MODEL 6
REMARK VINA RESULT:    -1.394      2.242      4.204
REMARK INTER + INTRA:          -4.174
REMARK INTER:                  -3.837
REMARK INTRA:                  -0.337
REMARK UNBOUND:                -1.475
REMARK SMILES CCCCCCCCCCCCCCCCCC(=O)[O-]
REMARK SMILES IDX 10 1 11 2 12 3 13 4 14 5 15 6 16 7 17 8 18 9 19 10 20 11
REMARK SMILES IDX 9 12 8 13 7 14 6 15 5 16 4 17 3 18 2 19 1 20
REMARK H PARENT
REMARK Flexibility Score: inf
ROOT
ATOM      1  C   UNL     1      20.354 -17.243  12.573  1.00  0.00     0.000 C 
ENDROOT
BRANCH   1   2
ATOM      2  C   UNL     1      19.803 -17.594  11.184  1.00  0.00     0.000 C 
BRANCH   2   3
ATOM      3  C   UNL     1      18.828 -16.535  10.640  1.00  0.00     0.000 C 
BRANCH   3   4
ATOM      4  C   UNL     1      17.839 -17.087   9.592  1.00  0.00     0.000 C 
BRANCH   4   5
ATOM      5  C   UNL     1      16.713 -17.915  10.236  1.00  0.00     0.000 C 
BRANCH   5   6
ATOM      6  C   UNL     1      16.873 -18.053  11.758  1.00  0.00     0.000 C 
BRANCH   6   7
ATOM      7  C   UNL     1      15.523 -18.105  12.494  1.00  0.00     0.006 C 
BRANCH   7   8
ATOM      8  C   UNL     1      15.694 -18.063  14.018  1.00  0.00     0.053 C 
BRANCH   8   9
ATOM      9  C   UNL     1      16.988 -17.422  14.415  1.00  0.00     0.041 C 
ATOM     10  O   UNL     1      17.936 -18.125  14.855  1.00  0.00    -0.550 OA
ATOM     11  O   UNL     1      17.156 -16.050  14.276  1.00  0.00    -0.550 OA
ENDBRANCH   8   9
ENDBRANCH   7   8
ENDBRANCH   6   7
ENDBRANCH   5   6
ENDBRANCH   4   5
ENDBRANCH   3   4
ENDBRANCH   2   3
ENDBRANCH   1   2
BRANCH   1  12
ATOM     12  C   UNL     1      21.628 -18.045  12.877  1.00  0.00     0.000 C 
BRANCH  12  13
ATOM     13  C   UNL     1      22.847 -17.147  13.142  1.00  0.00    -0.000 C 
BRANCH  13  14
ATOM     14  C   UNL     1      22.571 -15.669  12.821  1.00  0.00    -0.000 C 
BRANCH  14  15
ATOM     15  C   UNL     1      23.086 -14.714  13.914  1.00  0.00    -0.000 C 
BRANCH  15  16
ATOM     16  C   UNL     1      22.255 -14.698  15.213  1.00  0.00    -0.000 C 
BRANCH  16  17
ATOM     17  C   UNL     1      22.698 -15.712  16.286  1.00  0.00    -0.000 C 
BRANCH  17  18
ATOM     18  C   UNL     1      22.012 -17.091  16.201  1.00  0.00    -0.000 C 
BRANCH  18  19
ATOM     19  C   UNL     1      20.484 -17.043  16.021  1.00  0.00    -0.003 C 
ATOM     20  C   UNL     1      19.779 -16.256  17.125  1.00  0.00     0.004 C 
ENDBRANCH  18  19
ENDBRANCH  17  18
ENDBRANCH  16  17
ENDBRANCH  15  16
ENDBRANCH  14  15
ENDBRANCH  13  14
ENDBRANCH  12  13
ENDBRANCH   1  12
TORSDOF 16
ENDMDL
MODEL 7
REMARK VINA RESULT:    -1.246      1.992      4.944
REMARK INTER + INTRA:          -3.887
REMARK INTER:                  -3.841
REMARK INTRA:                  -0.046
REMARK UNBOUND:                -1.475
REMARK SMILES CCCCCCCCCCCCCCCCCC(=O)[O-]
REMARK SMILES IDX 10 1 11 2 12 3 13 4 14 5 15 6 16 7 17 8 18 9 19 10 20 11
REMARK SMILES IDX 9 12 8 13 7 14 6 15 5 16 4 17 3 18 2 19 1 20
REMARK H PARENT
REMARK Flexibility Score: inf
ROOT
ATOM      1  C   UNL     1      16.980 -18.125  12.407  1.00  0.00     0.000 C 
ENDROOT
BRANCH   1   2
ATOM      2  C   UNL     1      16.345 -17.271  13.513  1.00  0.00     0.000 C 
BRANCH   2   3
ATOM      3  C   UNL     1      15.394 -18.074  14.419  1.00  0.00     0.000 C 
BRANCH   3   4
ATOM      4  C   UNL     1      15.800 -18.058  15.908  1.00  0.00     0.000 C 
BRANCH   4   5
ATOM      5  C   UNL     1      17.290 -17.725  16.099  1.00  0.00     0.000 C 
BRANCH   5   6
ATOM      6  C   UNL     1      17.627 -16.273  15.727  1.00  0.00     0.000 C 
BRANCH   6   7
ATOM      7  C   UNL     1      19.024 -15.847  16.211  1.00  0.00     0.006 C 
BRANCH   7   8
ATOM      8  C   UNL     1      19.849 -17.038  16.715  1.00  0.00     0.053 C 
BRANCH   8   9
ATOM      9  C   UNL     1      21.283 -16.668  16.936  1.00  0.00     0.041 C 
ATOM     10  O   UNL     1      21.610 -15.462  17.098  1.00  0.00    -0.550 OA
ATOM     11  O   UNL     1      22.257 -17.657  16.991  1.00  0.00    -0.550 OA
ENDBRANCH   8   9
ENDBRANCH   7   8
ENDBRANCH   6   7
ENDBRANCH   5   6
ENDBRANCH   4   5
ENDBRANCH   3   4
ENDBRANCH   2   3
ENDBRANCH   1   2
BRANCH   1  12
ATOM     12  C   UNL     1      16.228 -17.951  11.079  1.00  0.00     0.000 C 
BRANCH  12  13
ATOM     13  C   UNL     1      17.148 -18.077   9.854  1.00  0.00    -0.000 C 
BRANCH  13  14
ATOM     14  C   UNL     1      18.447 -17.268  10.006  1.00  0.00    -0.000 C 
BRANCH  14  15
ATOM     15  C   UNL     1      19.433 -17.903  11.005  1.00  0.00    -0.000 C 
BRANCH  15  16
ATOM     16  C   UNL     1      20.895 -17.433  10.871  1.00  0.00    -0.000 C 
BRANCH  16  17
ATOM     17  C   UNL     1      21.894 -18.125  11.818  1.00  0.00    -0.000 C 
BRANCH  17  18
ATOM     18  C   UNL     1      21.846 -17.641  13.281  1.00  0.00    -0.000 C 
BRANCH  18  19
ATOM     19  C   UNL     1      21.640 -16.126  13.455  1.00  0.00    -0.003 C 
ATOM     20  C   UNL     1      22.953 -15.344  13.477  1.00  0.00     0.004 C 
ENDBRANCH  18  19
ENDBRANCH  17  18
ENDBRANCH  16  17
ENDBRANCH  15  16
ENDBRANCH  14  15
ENDBRANCH  13  14
ENDBRANCH  12  13
ENDBRANCH   1  12
TORSDOF 16
ENDMDL
