MODEL 1
REMARK VINA RESULT:    -5.335      0.000      0.000
REMARK INTER + INTRA:          -5.705
REMARK INTER:                  -5.647
REMARK INTRA:                  -0.058
REMARK UNBOUND:                -0.058
REMARK SMILES CC(=O)c1ccccc1
REMARK SMILES IDX 4 1 5 2 6 3 7 4 8 5 9 6 2 7 1 8 3 9
REMARK H PARENT
REMARK Flexibility Score: inf
ROOT
ATOM      1  C   UNL     1     137.124 119.228 139.211  1.00  0.00     0.017 A 
ATOM      2  C   UNL     1     137.694 119.171 137.923  1.00  0.00     0.012 A 
ATOM      3  C   UNL     1     137.020 118.532 136.876  1.00  0.00     0.001 A 
ATOM      4  C   UNL     1     135.775 117.942 137.099  1.00  0.00     0.000 A 
ATOM      5  C   UNL     1     135.198 117.990 138.370  1.00  0.00     0.001 A 
ATOM      6  C   UNL     1     135.865 118.628 139.419  1.00  0.00     0.012 A 
ENDROOT
BRANCH   1   7
ATOM      7  C   UNL     1     137.822 119.903 140.338  1.00  0.00     0.159 C 
ATOM      8  C   UNL     1     137.584 121.347 140.667  1.00  0.00     0.093 C 
ATOM      9  O   UNL     1     138.642 119.256 141.045  1.00  0.00    -0.295 OA
ENDBRANCH   1   7
TORSDOF 1
ENDMDL
MODEL 2
REMARK VINA RESULT:    -5.281      2.222      3.798
REMARK INTER + INTRA:          -5.648
REMARK INTER:                  -5.585
REMARK INTRA:                  -0.063
REMARK UNBOUND:                -0.058
REMARK SMILES CC(=O)c1ccccc1
REMARK SMILES IDX 4 1 5 2 6 3 7 4 8 5 9 6 2 7 1 8 3 9
REMARK H PARENT
REMARK Flexibility Score: inf
ROOT
ATOM      1  C   UNL     1     137.533 118.768 138.106  1.00  0.00     0.017 A 
ATOM      2  C   UNL     1     136.412 119.601 137.914  1.00  0.00     0.012 A 
ATOM      3  C   UNL     1     136.073 120.567 138.867  1.00  0.00     0.001 A 
ATOM      4  C   UNL     1     136.844 120.715 140.021  1.00  0.00     0.000 A 
ATOM      5  C   UNL     1     137.957 119.898 140.226  1.00  0.00     0.001 A 
ATOM      6  C   UNL     1     138.302 118.931 139.277  1.00  0.00     0.012 A 
ENDROOT
BRANCH   1   7
ATOM      7  C   UNL     1     137.912 117.735 137.105  1.00  0.00     0.159 C 
ATOM      8  C   UNL     1     138.113 116.298 137.485  1.00  0.00     0.093 C 
ATOM      9  O   UNL     1     138.073 118.063 135.898  1.00  0.00    -0.295 OA
ENDBRANCH   1   7
TORSDOF 1
ENDMDL
MODEL 3
REMARK VINA RESULT:    -5.276      2.220      3.736
REMARK INTER + INTRA:          -5.643
REMARK INTER:                  -5.581
REMARK INTRA:                  -0.062
REMARK UNBOUND:                -0.058
REMARK SMILES CC(=O)c1ccccc1
REMARK SMILES IDX 4 1 5 2 6 3 7 4 8 5 9 6 2 7 1 8 3 9
REMARK H PARENT
REMARK Flexibility Score: inf
ROOT
ATOM      1  C   UNL     1     137.549 118.774 138.123  1.00  0.00     0.017 A 
ATOM      2  C   UNL     1     138.310 118.952 139.297  1.00  0.00     0.012 A 
ATOM      3  C   UNL     1     137.951 119.928 140.234  1.00  0.00     0.001 A 
ATOM      4  C   UNL     1     136.835 120.736 140.013  1.00  0.00     0.000 A 
ATOM      5  C   UNL     1     136.074 120.572 138.854  1.00  0.00     0.001 A 
ATOM      6  C   UNL     1     136.425 119.598 137.916  1.00  0.00     0.012 A 
ENDROOT
BRANCH   1   7
ATOM      7  C   UNL     1     137.912 117.741 137.115  1.00  0.00     0.159 C 
ATOM      8  C   UNL     1     138.112 116.303 137.490  1.00  0.00     0.093 C 
ATOM      9  O   UNL     1     138.060 118.071 135.907  1.00  0.00    -0.295 OA
ENDBRANCH   1   7
TORSDOF 1
ENDMDL
MODEL 4
REMARK VINA RESULT:    -5.271      0.167      1.615
REMARK INTER + INTRA:          -5.637
REMARK INTER:                  -5.578
REMARK INTRA:                  -0.059
REMARK UNBOUND:                -0.058
REMARK SMILES CC(=O)c1ccccc1
REMARK SMILES IDX 4 1 5 2 6 3 7 4 8 5 9 6 2 7 1 8 3 9
REMARK H PARENT
REMARK Flexibility Score: inf
ROOT
ATOM      1  C   UNL     1     137.140 119.216 139.186  1.00  0.00     0.017 A 
ATOM      2  C   UNL     1     135.829 118.705 139.269  1.00  0.00     0.012 A 
ATOM      3  C   UNL     1     135.246 118.062 138.172  1.00  0.00     0.001 A 
ATOM      4  C   UNL     1     135.959 117.922 136.981  1.00  0.00     0.000 A 
ATOM      5  C   UNL     1     137.258 118.423 136.883  1.00  0.00     0.001 A 
ATOM      6  C   UNL     1     137.847 119.065 137.976  1.00  0.00     0.012 A 
ENDROOT
BRANCH   1   7
ATOM      7  C   UNL     1     137.779 119.902 140.341  1.00  0.00     0.159 C 
ATOM      8  C   UNL     1     137.466 121.327 140.689  1.00  0.00     0.093 C 
ATOM      9  O   UNL     1     138.611 119.280 141.056  1.00  0.00    -0.295 OA
ENDBRANCH   1   7
TORSDOF 1
ENDMDL
MODEL 5
REMARK VINA RESULT:    -5.218      1.964      2.685
REMARK INTER + INTRA:          -5.581
REMARK INTER:                  -5.512
REMARK INTRA:                  -0.069
REMARK UNBOUND:                -0.058
REMARK SMILES CC(=O)c1ccccc1
REMARK SMILES IDX 4 1 5 2 6 3 7 4 8 5 9 6 2 7 1 8 3 9
REMARK H PARENT
REMARK Flexibility Score: inf
ROOT
ATOM      1  C   UNL     1     136.047 119.710 139.708  1.00  0.00     0.017 A 
ATOM      2  C   UNL     1     135.423 118.693 138.957  1.00  0.00     0.012 A 
ATOM      3  C   UNL     1     136.187 117.806 138.191  1.00  0.00     0.001 A 
ATOM      4  C   UNL     1     137.577 117.920 138.164  1.00  0.00     0.000 A 
ATOM      5  C   UNL     1     138.209 118.922 138.902  1.00  0.00     0.001 A 
ATOM      6  C   UNL     1     137.452 119.812 139.670  1.00  0.00     0.012 A 
ENDROOT
BRANCH   1   7
ATOM      7  C   UNL     1     135.253 120.664 140.529  1.00  0.00     0.159 C 
ATOM      8  C   UNL     1     133.754 120.677 140.503  1.00  0.00     0.093 C 
ATOM      9  O   UNL     1     135.845 121.492 141.273  1.00  0.00    -0.295 OA
ENDBRANCH   1   7
TORSDOF 1
ENDMDL
MODEL 6
REMARK VINA RESULT:    -5.202      2.486      3.189
REMARK INTER + INTRA:          -5.565
REMARK INTER:                  -5.507
REMARK INTRA:                  -0.058
REMARK UNBOUND:                -0.058
REMARK SMILES CC(=O)c1ccccc1
REMARK SMILES IDX 4 1 5 2 6 3 7 4 8 5 9 6 2 7 1 8 3 9
REMARK H PARENT
REMARK Flexibility Score: inf
ROOT
ATOM      1  C   UNL     1     135.857 120.395 139.694  1.00  0.00     0.017 A 
ATOM      2  C   UNL     1     136.119 119.916 138.394  1.00  0.00     0.012 A 
ATOM      3  C   UNL     1     137.330 119.280 138.102  1.00  0.00     0.001 A 
ATOM      4  C   UNL     1     138.294 119.115 139.098  1.00  0.00     0.000 A 
ATOM      5  C   UNL     1     138.049 119.585 140.390  1.00  0.00     0.001 A 
ATOM      6  C   UNL     1     136.840 120.220 140.688  1.00  0.00     0.012 A 
ENDROOT
BRANCH   1   7
ATOM      7  C   UNL     1     134.575 121.074 140.026  1.00  0.00     0.159 C 
ATOM      8  C   UNL     1     134.425 122.564 139.955  1.00  0.00     0.093 C 
ATOM      9  O   UNL     1     133.577 120.388 140.379  1.00  0.00    -0.295 OA
ENDBRANCH   1   7
TORSDOF 1
ENDMDL
MODEL 7
REMARK VINA RESULT:    -5.197      1.954      2.564
REMARK INTER + INTRA:          -5.559
REMARK INTER:                  -5.490
REMARK INTRA:                  -0.069
REMARK UNBOUND:                -0.058
REMARK SMILES CC(=O)c1ccccc1
REMARK SMILES IDX 4 1 5 2 6 3 7 4 8 5 9 6 2 7 1 8 3 9
REMARK H PARENT
REMARK Flexibility Score: inf
ROOT
ATOM      1  C   UNL     1     136.277 120.019 139.681  1.00  0.00     0.017 A 
ATOM      2  C   UNL     1     137.578 119.650 140.080  1.00  0.00     0.012 A 
ATOM      3  C   UNL     1     138.395 118.899 139.229  1.00  0.00     0.001 A 
ATOM      4  C   UNL     1     137.929 118.506 137.974  1.00  0.00     0.000 A 
ATOM      5  C   UNL     1     136.642 118.863 137.566  1.00  0.00     0.001 A 
ATOM      6  C   UNL     1     135.820 119.615 138.411  1.00  0.00     0.012 A 
ENDROOT
BRANCH   1   7
ATOM      7  C   UNL     1     135.391 120.818 140.571  1.00  0.00     0.159 C 
ATOM      8  C   UNL     1     133.896 120.739 140.480  1.00  0.00     0.093 C 
ATOM      9  O   UNL     1     135.898 121.590 141.430  1.00  0.00    -0.295 OA
ENDBRANCH   1   7
TORSDOF 1
ENDMDL
MODEL 8
REMARK VINA RESULT:    -5.140      1.655      2.229
REMARK INTER + INTRA:          -5.499
REMARK INTER:                  -5.427
REMARK INTRA:                  -0.071
REMARK UNBOUND:                -0.058
REMARK SMILES CC(=O)c1ccccc1
REMARK SMILES IDX 4 1 5 2 6 3 7 4 8 5 9 6 2 7 1 8 3 9
REMARK H PARENT
REMARK Flexibility Score: inf
ROOT
ATOM      1  C   UNL     1     137.105 118.699 138.079  1.00  0.00     0.017 A 
ATOM      2  C   UNL     1     136.183 118.842 137.022  1.00  0.00     0.012 A 
ATOM      3  C   UNL     1     136.115 117.883 136.006  1.00  0.00     0.001 A 
ATOM      4  C   UNL     1     136.961 116.774 136.029  1.00  0.00     0.000 A 
ATOM      5  C   UNL     1     137.880 116.620 137.069  1.00  0.00     0.001 A 
ATOM      6  C   UNL     1     137.952 117.573 138.089  1.00  0.00     0.012 A 
ENDROOT
BRANCH   1   7
ATOM      7  C   UNL     1     137.193 119.707 139.170  1.00  0.00     0.159 C 
ATOM      8  C   UNL     1     138.138 119.545 140.325  1.00  0.00     0.093 C 
ATOM      9  O   UNL     1     136.459 120.732 139.138  1.00  0.00    -0.295 OA
ENDBRANCH   1   7
TORSDOF 1
ENDMDL
MODEL 9
REMARK VINA RESULT:    -5.093      2.722      4.275
REMARK INTER + INTRA:          -5.449
REMARK INTER:                  -5.388
REMARK INTRA:                  -0.061
REMARK UNBOUND:                -0.058
REMARK SMILES CC(=O)c1ccccc1
REMARK SMILES IDX 4 1 5 2 6 3 7 4 8 5 9 6 2 7 1 8 3 9
REMARK H PARENT
REMARK Flexibility Score: inf
ROOT
ATOM      1  C   UNL     1     135.187 120.538 139.810  1.00  0.00     0.017 A 
ATOM      2  C   UNL     1     133.843 120.666 140.216  1.00  0.00     0.012 A 
ATOM      3  C   UNL     1     133.225 121.921 140.239  1.00  0.00     0.001 A 
ATOM      4  C   UNL     1     133.936 123.061 139.861  1.00  0.00     0.000 A 
ATOM      5  C   UNL     1     135.268 122.949 139.458  1.00  0.00     0.001 A 
ATOM      6  C   UNL     1     135.891 121.698 139.431  1.00  0.00     0.012 A 
ENDROOT
BRANCH   1   7
ATOM      7  C   UNL     1     135.862 119.213 139.777  1.00  0.00     0.159 C 
ATOM      8  C   UNL     1     135.358 118.087 138.924  1.00  0.00     0.093 C 
ATOM      9  O   UNL     1     136.889 119.015 140.482  1.00  0.00    -0.295 OA
ENDBRANCH   1   7
TORSDOF 1
ENDMDL
