MODEL 1
REMARK VINA RESULT:    -4.450      0.000      0.000
REMARK INTER + INTRA:          -8.040
REMARK INTER:                  -6.791
REMARK INTRA:                  -1.249
REMARK UNBOUND:                -1.249
REMARK SMILES CCCCCCCCCCC(=O)[O-]
REMARK SMILES IDX 7 1 8 2 9 3 10 4 11 5 12 6 13 7 6 8 5 9 4 10 3 11 2 12 1 13
REMARK H PARENT
REMARK Flexibility Score: inf
ROOT
ATOM      1  C   UNL     1     138.421 130.620 129.436  1.00  0.00     0.000 C 
ENDROOT
BRANCH   1   2
ATOM      2  C   UNL     1     139.675 131.408 129.845  1.00  0.00     0.000 C 
BRANCH   2   3
ATOM      3  C   UNL     1     139.344 132.680 130.649  1.00  0.00     0.006 C 
BRANCH   3   4
ATOM      4  C   UNL     1     139.454 133.984 129.843  1.00  0.00     0.053 C 
BRANCH   4   5
ATOM      5  C   UNL     1     140.161 135.060 130.609  1.00  0.00     0.041 C 
ATOM      6  O   UNL     1     140.079 136.260 130.239  1.00  0.00    -0.550 OA
ATOM      7  O   UNL     1     140.939 134.731 131.713  1.00  0.00    -0.550 OA
ENDBRANCH   4   5
ENDBRANCH   3   4
ENDBRANCH   2   3
ENDBRANCH   1   2
BRANCH   1   8
ATOM      8  C   UNL     1     138.106 130.827 127.947  1.00  0.00     0.000 C 
BRANCH   8   9
ATOM      9  C   UNL     1     136.718 131.445 127.714  1.00  0.00    -0.000 C 
BRANCH   9  10
ATOM     10  C   UNL     1     136.749 132.980 127.695  1.00  0.00    -0.000 C 
BRANCH  10  11
ATOM     11  C   UNL     1     135.712 133.561 128.667  1.00  0.00    -0.000 C 
BRANCH  11  12
ATOM     12  C   UNL     1     135.208 132.525 129.683  1.00  0.00    -0.003 C 
ATOM     13  C   UNL     1     135.722 132.788 131.099  1.00  0.00     0.004 C 
ENDBRANCH  11  12
ENDBRANCH  10  11
ENDBRANCH   9  10
ENDBRANCH   8   9
ENDBRANCH   1   8
TORSDOF 9
ENDMDL
MODEL 2
REMARK VINA RESULT:    -4.429      0.942      2.985
REMARK INTER + INTRA:          -8.009
REMARK INTER:                  -6.634
REMARK INTRA:                  -1.375
REMARK UNBOUND:                -1.249
REMARK SMILES CCCCCCCCCCC(=O)[O-]
REMARK SMILES IDX 7 1 8 2 9 3 10 4 11 5 12 6 13 7 6 8 5 9 4 10 3 11 2 12 1 13
REMARK H PARENT
REMARK Flexibility Score: inf
ROOT
ATOM      1  C   UNL     1     136.873 133.482 131.039  1.00  0.00     0.000 C 
ENDROOT
BRANCH   1   2
ATOM      2  C   UNL     1     136.969 134.534 129.924  1.00  0.00     0.000 C 
BRANCH   2   3
ATOM      3  C   UNL     1     138.280 134.435 129.122  1.00  0.00     0.006 C 
BRANCH   3   4
ATOM      4  C   UNL     1     139.483 133.930 129.934  1.00  0.00     0.053 C 
BRANCH   4   5
ATOM      5  C   UNL     1     140.195 135.044 130.636  1.00  0.00     0.041 C 
ATOM      6  O   UNL     1     140.912 134.804 131.643  1.00  0.00    -0.550 OA
ATOM      7  O   UNL     1     140.040 136.354 130.199  1.00  0.00    -0.550 OA
ENDBRANCH   4   5
ENDBRANCH   3   4
ENDBRANCH   2   3
ENDBRANCH   1   2
BRANCH   1   8
ATOM      8  C   UNL     1     135.535 132.730 130.969  1.00  0.00     0.000 C 
BRANCH   8   9
ATOM      9  C   UNL     1     135.139 132.357 129.532  1.00  0.00    -0.000 C 
BRANCH   9  10
ATOM     10  C   UNL     1     135.769 131.036 129.068  1.00  0.00    -0.000 C 
BRANCH  10  11
ATOM     11  C   UNL     1     136.783 131.279 127.940  1.00  0.00    -0.000 C 
BRANCH  11  12
ATOM     12  C   UNL     1     138.188 130.765 128.286  1.00  0.00    -0.003 C 
ATOM     13  C   UNL     1     138.283 130.222 129.712  1.00  0.00     0.004 C 
ENDBRANCH  11  12
ENDBRANCH  10  11
ENDBRANCH   9  10
ENDBRANCH   8   9
ENDBRANCH   1   8
TORSDOF 9
ENDMDL
MODEL 3
REMARK VINA RESULT:    -4.357      1.469      2.406
REMARK INTER + INTRA:          -7.899
REMARK INTER:                  -6.947
REMARK INTRA:                  -0.951
REMARK UNBOUND:                -1.249
REMARK SMILES CCCCCCCCCCC(=O)[O-]
REMARK SMILES IDX 7 1 8 2 9 3 10 4 11 5 12 6 13 7 6 8 5 9 4 10 3 11 2 12 1 13
REMARK H PARENT
REMARK Flexibility Score: inf
ROOT
ATOM      1  C   UNL     1     138.973 132.172 130.843  1.00  0.00     0.000 C 
ENDROOT
BRANCH   1   2
ATOM      2  C   UNL     1     139.854 133.424 130.966  1.00  0.00     0.000 C 
BRANCH   2   3
ATOM      3  C   UNL     1     139.703 134.380 129.769  1.00  0.00     0.006 C 
BRANCH   3   4
ATOM      4  C   UNL     1     140.105 135.835 130.066  1.00  0.00     0.053 C 
BRANCH   4   5
ATOM      5  C   UNL     1     138.913 136.708 130.310  1.00  0.00     0.041 C 
ATOM      6  O   UNL     1     139.005 137.957 130.183  1.00  0.00    -0.550 OA
ATOM      7  O   UNL     1     137.708 136.144 130.712  1.00  0.00    -0.550 OA
ENDBRANCH   4   5
ENDBRANCH   3   4
ENDBRANCH   2   3
ENDBRANCH   1   2
BRANCH   1   8
ATOM      8  C   UNL     1     139.555 131.192 129.812  1.00  0.00     0.000 C 
BRANCH   8   9
ATOM      9  C   UNL     1     138.477 130.330 129.138  1.00  0.00    -0.000 C 
BRANCH   9  10
ATOM     10  C   UNL     1     138.036 130.890 127.777  1.00  0.00    -0.000 C 
BRANCH  10  11
ATOM     11  C   UNL     1     136.661 131.564 127.881  1.00  0.00    -0.000 C 
BRANCH  11  12
ATOM     12  C   UNL     1     136.750 133.098 127.859  1.00  0.00    -0.003 C 
ATOM     13  C   UNL     1     135.788 133.759 128.845  1.00  0.00     0.004 C 
ENDBRANCH  11  12
ENDBRANCH  10  11
ENDBRANCH   9  10
ENDBRANCH   8   9
ENDBRANCH   1   8
TORSDOF 9
ENDMDL
MODEL 4
REMARK VINA RESULT:    -4.342      3.624      5.743
REMARK INTER + INTRA:          -7.877
REMARK INTER:                  -7.016
REMARK INTRA:                  -0.861
REMARK UNBOUND:                -1.249
REMARK SMILES CCCCCCCCCCC(=O)[O-]
REMARK SMILES IDX 7 1 8 2 9 3 10 4 11 5 12 6 13 7 6 8 5 9 4 10 3 11 2 12 1 13
REMARK H PARENT
REMARK Flexibility Score: inf
ROOT
ATOM      1  C   UNL     1     136.948 133.973 129.358  1.00  0.00     0.000 C 
ENDROOT
BRANCH   1   2
ATOM      2  C   UNL     1     135.628 134.633 129.786  1.00  0.00     0.000 C 
BRANCH   2   3
ATOM      3  C   UNL     1     134.410 133.712 129.591  1.00  0.00     0.006 C 
BRANCH   3   4
ATOM      4  C   UNL     1     134.313 132.564 130.609  1.00  0.00     0.053 C 
BRANCH   4   5
ATOM      5  C   UNL     1     134.235 131.226 129.941  1.00  0.00     0.041 C 
ATOM      6  O   UNL     1     135.061 130.916 129.042  1.00  0.00    -0.550 OA
ATOM      7  O   UNL     1     133.227 130.333 130.286  1.00  0.00    -0.550 OA
ENDBRANCH   4   5
ENDBRANCH   3   4
ENDBRANCH   2   3
ENDBRANCH   1   2
BRANCH   1   8
ATOM      8  C   UNL     1     137.906 133.839 130.552  1.00  0.00     0.000 C 
BRANCH   8   9
ATOM      9  C   UNL     1     139.367 133.641 130.121  1.00  0.00    -0.000 C 
BRANCH   9  10
ATOM     10  C   UNL     1     140.065 134.963 129.767  1.00  0.00    -0.000 C 
BRANCH  10  11
ATOM     11  C   UNL     1     139.741 136.048 130.804  1.00  0.00    -0.000 C 
BRANCH  11  12
ATOM     12  C   UNL     1     139.195 137.334 130.166  1.00  0.00    -0.003 C 
ATOM     13  C   UNL     1     137.747 137.621 130.562  1.00  0.00     0.004 C 
ENDBRANCH  11  12
ENDBRANCH  10  11
ENDBRANCH   9  10
ENDBRANCH   8   9
ENDBRANCH   1   8
TORSDOF 9
ENDMDL
MODEL 5
REMARK VINA RESULT:    -4.320      1.365      2.738
REMARK INTER + INTRA:          -7.842
REMARK INTER:                  -6.605
REMARK INTRA:                  -1.237
REMARK UNBOUND:                -1.249
REMARK SMILES CCCCCCCCCCC(=O)[O-]
REMARK SMILES IDX 7 1 8 2 9 3 10 4 11 5 12 6 13 7 6 8 5 9 4 10 3 11 2 12 1 13
REMARK H PARENT
REMARK Flexibility Score: inf
ROOT
ATOM      1  C   UNL     1     137.993 132.505 131.192  1.00  0.00     0.000 C 
ENDROOT
BRANCH   1   2
ATOM      2  C   UNL     1     137.536 133.867 130.650  1.00  0.00     0.000 C 
BRANCH   2   3
ATOM      3  C   UNL     1     138.229 134.248 129.329  1.00  0.00     0.006 C 
BRANCH   3   4
ATOM      4  C   UNL     1     138.886 135.638 129.335  1.00  0.00     0.053 C 
BRANCH   4   5
ATOM      5  C   UNL     1     139.724 135.858 130.557  1.00  0.00     0.041 C 
ATOM      6  O   UNL     1     139.512 136.851 131.301  1.00  0.00    -0.550 OA
ATOM      7  O   UNL     1     140.763 134.984 130.855  1.00  0.00    -0.550 OA
ENDBRANCH   4   5
ENDBRANCH   3   4
ENDBRANCH   2   3
ENDBRANCH   1   2
BRANCH   1   8
ATOM      8  C   UNL     1     139.234 132.004 130.438  1.00  0.00     0.000 C 
BRANCH   8   9
ATOM      9  C   UNL     1     139.242 130.479 130.255  1.00  0.00    -0.000 C 
BRANCH   9  10
ATOM     10  C   UNL     1     138.130 129.989 129.316  1.00  0.00    -0.000 C 
BRANCH  10  11
ATOM     11  C   UNL     1     138.145 130.771 127.994  1.00  0.00    -0.000 C 
BRANCH  11  12
ATOM     12  C   UNL     1     136.760 131.318 127.615  1.00  0.00    -0.003 C 
ATOM     13  C   UNL     1     135.710 131.070 128.698  1.00  0.00     0.004 C 
ENDBRANCH  11  12
ENDBRANCH  10  11
ENDBRANCH   9  10
ENDBRANCH   8   9
ENDBRANCH   1   8
TORSDOF 9
ENDMDL
MODEL 6
REMARK VINA RESULT:    -4.313      3.143      4.962
REMARK INTER + INTRA:          -7.832
REMARK INTER:                  -6.910
REMARK INTRA:                  -0.922
REMARK UNBOUND:                -1.249
REMARK SMILES CCCCCCCCCCC(=O)[O-]
REMARK SMILES IDX 7 1 8 2 9 3 10 4 11 5 12 6 13 7 6 8 5 9 4 10 3 11 2 12 1 13
REMARK H PARENT
REMARK Flexibility Score: inf
ROOT
ATOM      1  C   UNL     1     138.757 130.471 129.347  1.00  0.00     0.000 C 
ENDROOT
BRANCH   1   2
ATOM      2  C   UNL     1     138.081 130.857 128.023  1.00  0.00     0.000 C 
BRANCH   2   3
ATOM      3  C   UNL     1     136.607 131.263 128.201  1.00  0.00     0.006 C 
BRANCH   3   4
ATOM      4  C   UNL     1     135.953 130.729 129.485  1.00  0.00     0.053 C 
BRANCH   4   5
ATOM      5  C   UNL     1     134.627 131.373 129.750  1.00  0.00     0.041 C 
ATOM      6  O   UNL     1     133.596 130.664 129.900  1.00  0.00    -0.550 OA
ATOM      7  O   UNL     1     134.523 132.758 129.799  1.00  0.00    -0.550 OA
ENDBRANCH   4   5
ENDBRANCH   3   4
ENDBRANCH   2   3
ENDBRANCH   1   2
BRANCH   1   8
ATOM      8  C   UNL     1     139.635 131.619 129.868  1.00  0.00     0.000 C 
BRANCH   8   9
ATOM      9  C   UNL     1     138.974 132.398 131.016  1.00  0.00    -0.000 C 
BRANCH   9  10
ATOM     10  C   UNL     1     138.226 133.648 130.529  1.00  0.00    -0.000 C 
BRANCH  10  11
ATOM     11  C   UNL     1     139.073 134.434 129.518  1.00  0.00    -0.000 C 
BRANCH  11  12
ATOM     12  C   UNL     1     140.152 135.296 130.192  1.00  0.00    -0.003 C 
ATOM     13  C   UNL     1     139.571 136.520 130.901  1.00  0.00     0.004 C 
ENDBRANCH  11  12
ENDBRANCH  10  11
ENDBRANCH   9  10
ENDBRANCH   8   9
ENDBRANCH   1   8
TORSDOF 9
ENDMDL
MODEL 7
REMARK VINA RESULT:    -4.291      2.585      4.407
REMARK INTER + INTRA:          -7.797
REMARK INTER:                  -6.405
REMARK INTRA:                  -1.392
REMARK UNBOUND:                -1.249
REMARK SMILES CCCCCCCCCCC(=O)[O-]
REMARK SMILES IDX 7 1 8 2 9 3 10 4 11 5 12 6 13 7 6 8 5 9 4 10 3 11 2 12 1 13
REMARK H PARENT
REMARK Flexibility Score: inf
ROOT
ATOM      1  C   UNL     1     139.392 134.490 130.386  1.00  0.00     0.000 C 
ENDROOT
BRANCH   1   2
ATOM      2  C   UNL     1     138.198 134.428 129.422  1.00  0.00     0.000 C 
BRANCH   2   3
ATOM      3  C   UNL     1     136.844 134.585 130.138  1.00  0.00     0.006 C 
BRANCH   3   4
ATOM      4  C   UNL     1     135.879 133.406 129.936  1.00  0.00     0.053 C 
BRANCH   4   5
ATOM      5  C   UNL     1     135.447 132.803 131.237  1.00  0.00     0.041 C 
ATOM      6  O   UNL     1     134.262 132.407 131.390  1.00  0.00    -0.550 OA
ATOM      7  O   UNL     1     136.346 132.709 132.293  1.00  0.00    -0.550 OA
ENDBRANCH   4   5
ENDBRANCH   3   4
ENDBRANCH   2   3
ENDBRANCH   1   2
BRANCH   1   8
ATOM      8  C   UNL     1     139.627 133.127 131.055  1.00  0.00     0.000 C 
BRANCH   8   9
ATOM      9  C   UNL     1     139.627 131.964 130.051  1.00  0.00    -0.000 C 
BRANCH   9  10
ATOM     10  C   UNL     1     138.772 130.777 130.518  1.00  0.00    -0.000 C 
BRANCH  10  11
ATOM     11  C   UNL     1     137.850 130.289 129.392  1.00  0.00    -0.000 C 
BRANCH  11  12
ATOM     12  C   UNL     1     138.227 130.874 128.022  1.00  0.00    -0.003 C 
ATOM     13  C   UNL     1     137.008 131.311 127.211  1.00  0.00     0.004 C 
ENDBRANCH  11  12
ENDBRANCH  10  11
ENDBRANCH   9  10
ENDBRANCH   8   9
ENDBRANCH   1   8
TORSDOF 9
ENDMDL
MODEL 8
REMARK VINA RESULT:    -4.285      3.453      5.394
REMARK INTER + INTRA:          -7.789
REMARK INTER:                  -6.594
REMARK INTRA:                  -1.196
REMARK UNBOUND:                -1.249
REMARK SMILES CCCCCCCCCCC(=O)[O-]
REMARK SMILES IDX 7 1 8 2 9 3 10 4 11 5 12 6 13 7 6 8 5 9 4 10 3 11 2 12 1 13
REMARK H PARENT
REMARK Flexibility Score: inf
ROOT
ATOM      1  C   UNL     1     137.214 134.716 129.865  1.00  0.00     0.000 C 
ENDROOT
BRANCH   1   2
ATOM      2  C   UNL     1     136.161 133.882 129.119  1.00  0.00     0.000 C 
BRANCH   2   3
ATOM      3  C   UNL     1     135.068 133.329 130.050  1.00  0.00     0.006 C 
BRANCH   3   4
ATOM      4  C   UNL     1     135.322 131.895 130.545  1.00  0.00     0.053 C 
BRANCH   4   5
ATOM      5  C   UNL     1     134.463 130.895 129.834  1.00  0.00     0.041 C 
ATOM      6  O   UNL     1     134.800 130.462 128.701  1.00  0.00    -0.550 OA
ATOM      7  O   UNL     1     133.272 130.467 130.408  1.00  0.00    -0.550 OA
ENDBRANCH   4   5
ENDBRANCH   3   4
ENDBRANCH   2   3
ENDBRANCH   1   2
BRANCH   1   8
ATOM      8  C   UNL     1     138.593 134.576 129.204  1.00  0.00     0.000 C 
BRANCH   8   9
ATOM      9  C   UNL     1     139.621 133.885 130.113  1.00  0.00    -0.000 C 
BRANCH   9  10
ATOM     10  C   UNL     1     139.119 132.540 130.659  1.00  0.00    -0.000 C 
BRANCH  10  11
ATOM     11  C   UNL     1     139.637 131.374 129.804  1.00  0.00    -0.000 C 
BRANCH  11  12
ATOM     12  C   UNL     1     138.504 130.497 129.252  1.00  0.00    -0.003 C 
ATOM     13  C   UNL     1     138.074 130.905 127.843  1.00  0.00     0.004 C 
ENDBRANCH  11  12
ENDBRANCH  10  11
ENDBRANCH   9  10
ENDBRANCH   8   9
ENDBRANCH   1   8
TORSDOF 9
ENDMDL
MODEL 9
REMARK VINA RESULT:    -4.280      2.996      5.067
REMARK INTER + INTRA:          -7.782
REMARK INTER:                  -6.674
REMARK INTRA:                  -1.108
REMARK UNBOUND:                -1.249
REMARK SMILES CCCCCCCCCCC(=O)[O-]
REMARK SMILES IDX 7 1 8 2 9 3 10 4 11 5 12 6 13 7 6 8 5 9 4 10 3 11 2 12 1 13
REMARK H PARENT
REMARK Flexibility Score: inf
ROOT
ATOM      1  C   UNL     1     137.241 133.609 128.346  1.00  0.00     0.000 C 
ENDROOT
BRANCH   1   2
ATOM      2  C   UNL     1     136.367 134.272 129.421  1.00  0.00     0.000 C 
BRANCH   2   3
ATOM      3  C   UNL     1     134.868 134.254 129.068  1.00  0.00     0.006 C 
BRANCH   3   4
ATOM      4  C   UNL     1     133.945 133.891 130.242  1.00  0.00     0.053 C 
BRANCH   4   5
ATOM      5  C   UNL     1     134.356 132.614 130.907  1.00  0.00     0.041 C 
ATOM      6  O   UNL     1     134.708 132.614 132.116  1.00  0.00    -0.550 OA
ATOM      7  O   UNL     1     134.385 131.429 130.182  1.00  0.00    -0.550 OA
ENDBRANCH   4   5
ENDBRANCH   3   4
ENDBRANCH   2   3
ENDBRANCH   1   2
BRANCH   1   8
ATOM      8  C   UNL     1     137.576 132.160 128.730  1.00  0.00     0.000 C 
BRANCH   8   9
ATOM      9  C   UNL     1     138.099 132.033 130.169  1.00  0.00    -0.000 C 
BRANCH   9  10
ATOM     10  C   UNL     1     139.611 132.285 130.274  1.00  0.00    -0.000 C 
BRANCH  10  11
ATOM     11  C   UNL     1     139.898 133.576 131.054  1.00  0.00    -0.000 C 
BRANCH  11  12
ATOM     12  C   UNL     1     140.216 134.765 130.133  1.00  0.00    -0.003 C 
ATOM     13  C   UNL     1     139.584 136.070 130.615  1.00  0.00     0.004 C 
ENDBRANCH  11  12
ENDBRANCH  10  11
ENDBRANCH   9  10
ENDBRANCH   8   9
ENDBRANCH   1   8
TORSDOF 9
ENDMDL
