MODEL 1
REMARK VINA RESULT:    -5.146      0.000      0.000
REMARK INTER + INTRA:         -10.967
REMARK INTER:                  -9.357
REMARK INTRA:                  -1.610
REMARK UNBOUND:                -1.610
REMARK SMILES CCCCCCCCCCCCCC[C@H](C)C(=O)[O-]
REMARK SMILES IDX 9 1 10 2 11 3 12 4 13 5 14 6 15 7 16 8 17 9 18 10 19 11 8 12
REMARK SMILES IDX 7 13 6 14 5 15 4 16 3 17 2 18 1 19
REMARK H PARENT
REMARK Flexibility Score: inf
ROOT
ATOM      1  C   UNL     1      15.489 -22.919 -27.235  1.00  0.00     0.000 C 
ENDROOT
BRANCH   1   2
ATOM      2  C   UNL     1      15.399 -23.536 -28.641  1.00  0.00     0.000 C 
BRANCH   2   3
ATOM      3  C   UNL     1      14.031 -23.307 -29.303  1.00  0.00     0.000 C 
BRANCH   3   4
ATOM      4  C   UNL     1      12.913 -23.983 -28.493  1.00  0.00     0.000 C 
BRANCH   4   5
ATOM      5  C   UNL     1      11.759 -23.023 -28.154  1.00  0.00     0.001 C 
BRANCH   5   6
ATOM      6  C   UNL     1      11.942 -21.632 -28.786  1.00  0.00     0.009 C 
BRANCH   6   7
ATOM      7  C   UNL     1      12.356 -20.559 -27.756  1.00  0.00     0.032 C 
ATOM      8  C   UNL     1      11.892 -20.904 -26.333  1.00  0.00     0.014 C 
BRANCH   7   9
ATOM      9  C   UNL     1      11.803 -19.219 -28.157  1.00  0.00     0.044 C 
ATOM     10  O   UNL     1      10.733 -19.141 -28.820  1.00  0.00    -0.550 OA
ATOM     11  O   UNL     1      12.469 -18.055 -27.795  1.00  0.00    -0.550 OA
ENDBRANCH   7   9
ENDBRANCH   6   7
ENDBRANCH   5   6
ENDBRANCH   4   5
ENDBRANCH   3   4
ENDBRANCH   2   3
ENDBRANCH   1   2
BRANCH   1  12
ATOM     12  C   UNL     1      16.885 -23.074 -26.611  1.00  0.00     0.000 C 
BRANCH  12  13
ATOM     13  C   UNL     1      16.928 -24.141 -25.502  1.00  0.00    -0.000 C 
BRANCH  13  14
ATOM     14  C   UNL     1      17.832 -25.357 -25.790  1.00  0.00    -0.000 C 
BRANCH  14  15
ATOM     15  C   UNL     1      18.841 -25.173 -26.939  1.00  0.00    -0.000 C 
BRANCH  15  16
ATOM     16  C   UNL     1      18.811 -26.329 -27.952  1.00  0.00    -0.000 C 
BRANCH  16  17
ATOM     17  C   UNL     1      17.687 -27.339 -27.670  1.00  0.00    -0.000 C 
BRANCH  17  18
ATOM     18  C   UNL     1      17.080 -27.962 -28.946  1.00  0.00    -0.003 C 
ATOM     19  C   UNL     1      15.856 -27.192 -29.441  1.00  0.00     0.004 C 
ENDBRANCH  17  18
ENDBRANCH  16  17
ENDBRANCH  15  16
ENDBRANCH  14  15
ENDBRANCH  13  14
ENDBRANCH  12  13
ENDBRANCH   1  12
TORSDOF 14
ENDMDL
MODEL 2
REMARK VINA RESULT:    -5.109      2.294      4.074
REMARK INTER + INTRA:         -10.901
REMARK INTER:                  -9.996
REMARK INTRA:                  -0.905
REMARK UNBOUND:                -1.610
REMARK SMILES CCCCCCCCCCCCCC[C@H](C)C(=O)[O-]
REMARK SMILES IDX 9 1 10 2 11 3 12 4 13 5 14 6 15 7 16 8 17 9 18 10 19 11 8 12
REMARK SMILES IDX 7 13 6 14 5 15 4 16 3 17 2 18 1 19
REMARK H PARENT
REMARK Flexibility Score: inf
ROOT
ATOM      1  C   UNL     1      12.968 -22.532 -27.295  1.00  0.00     0.000 C 
ENDROOT
BRANCH   1   2
ATOM      2  C   UNL     1      12.219 -21.257 -27.715  1.00  0.00     0.000 C 
BRANCH   2   3
ATOM      3  C   UNL     1      12.607 -20.034 -26.870  1.00  0.00     0.000 C 
BRANCH   3   4
ATOM      4  C   UNL     1      11.369 -19.420 -26.197  1.00  0.00     0.000 C 
BRANCH   4   5
ATOM      5  C   UNL     1      10.984 -18.054 -26.788  1.00  0.00     0.001 C 
BRANCH   5   6
ATOM      6  C   UNL     1       9.993 -18.173 -27.959  1.00  0.00     0.009 C 
BRANCH   6   7
ATOM      7  C   UNL     1       8.822 -17.171 -27.853  1.00  0.00     0.032 C 
ATOM      8  C   UNL     1       7.664 -17.712 -27.001  1.00  0.00     0.014 C 
BRANCH   7   9
ATOM      9  C   UNL     1       8.319 -16.821 -29.226  1.00  0.00     0.044 C 
ATOM     10  O   UNL     1       7.814 -15.688 -29.453  1.00  0.00    -0.550 OA
ATOM     11  O   UNL     1       8.412 -17.747 -30.258  1.00  0.00    -0.550 OA
ENDBRANCH   7   9
ENDBRANCH   6   7
ENDBRANCH   5   6
ENDBRANCH   4   5
ENDBRANCH   3   4
ENDBRANCH   2   3
ENDBRANCH   1   2
BRANCH   1  12
ATOM     12  C   UNL     1      13.693 -23.206 -28.472  1.00  0.00     0.000 C 
BRANCH  12  13
ATOM     13  C   UNL     1      15.191 -23.434 -28.199  1.00  0.00    -0.000 C 
BRANCH  13  14
ATOM     14  C   UNL     1      15.757 -22.697 -26.968  1.00  0.00    -0.000 C 
BRANCH  14  15
ATOM     15  C   UNL     1      17.186 -23.095 -26.559  1.00  0.00    -0.000 C 
BRANCH  15  16
ATOM     16  C   UNL     1      17.217 -24.094 -25.390  1.00  0.00    -0.000 C 
BRANCH  16  17
ATOM     17  C   UNL     1      17.719 -25.486 -25.810  1.00  0.00    -0.000 C 
BRANCH  17  18
ATOM     18  C   UNL     1      18.582 -25.473 -27.090  1.00  0.00    -0.003 C 
ATOM     19  C   UNL     1      18.489 -26.786 -27.865  1.00  0.00     0.004 C 
ENDBRANCH  17  18
ENDBRANCH  16  17
ENDBRANCH  15  16
ENDBRANCH  14  15
ENDBRANCH  13  14
ENDBRANCH  12  13
ENDBRANCH   1  12
TORSDOF 14
ENDMDL
MODEL 3
REMARK VINA RESULT:    -5.109      3.616      7.452
REMARK INTER + INTRA:         -10.900
REMARK INTER:                  -9.379
REMARK INTRA:                  -1.521
REMARK UNBOUND:                -1.610
REMARK SMILES CCCCCCCCCCCCCC[C@H](C)C(=O)[O-]
REMARK SMILES IDX 9 1 10 2 11 3 12 4 13 5 14 6 15 7 16 8 17 9 18 10 19 11 8 12
REMARK SMILES IDX 7 13 6 14 5 15 4 16 3 17 2 18 1 19
REMARK H PARENT
REMARK Flexibility Score: inf
ROOT
ATOM      1  C   UNL     1      16.712 -23.908 -25.559  1.00  0.00     0.000 C 
ENDROOT
BRANCH   1   2
ATOM      2  C   UNL     1      17.655 -25.121 -25.621  1.00  0.00     0.000 C 
BRANCH   2   3
ATOM      3  C   UNL     1      18.859 -24.890 -26.547  1.00  0.00     0.000 C 
BRANCH   3   4
ATOM      4  C   UNL     1      19.102 -26.115 -27.442  1.00  0.00     0.000 C 
BRANCH   4   5
ATOM      5  C   UNL     1      17.864 -27.020 -27.564  1.00  0.00     0.001 C 
BRANCH   5   6
ATOM      6  C   UNL     1      17.866 -27.854 -28.857  1.00  0.00     0.009 C 
BRANCH   6   7
ATOM      7  C   UNL     1      16.813 -27.372 -29.879  1.00  0.00     0.032 C 
ATOM      8  C   UNL     1      16.239 -25.993 -29.520  1.00  0.00     0.014 C 
BRANCH   7   9
ATOM      9  C   UNL     1      15.696 -28.374 -29.979  1.00  0.00     0.044 C 
ATOM     10  O   UNL     1      14.618 -28.196 -29.349  1.00  0.00    -0.550 OA
ATOM     11  O   UNL     1      15.847 -29.505 -30.771  1.00  0.00    -0.550 OA
ENDBRANCH   7   9
ENDBRANCH   6   7
ENDBRANCH   5   6
ENDBRANCH   4   5
ENDBRANCH   3   4
ENDBRANCH   2   3
ENDBRANCH   1   2
BRANCH   1  12
ATOM     12  C   UNL     1      17.055 -22.838 -26.609  1.00  0.00     0.000 C 
BRANCH  12  13
ATOM     13  C   UNL     1      16.051 -22.803 -27.775  1.00  0.00    -0.000 C 
BRANCH  13  14
ATOM     14  C   UNL     1      14.568 -22.940 -27.373  1.00  0.00    -0.000 C 
BRANCH  14  15
ATOM     15  C   UNL     1      13.554 -22.772 -28.519  1.00  0.00    -0.000 C 
BRANCH  15  16
ATOM     16  C   UNL     1      12.171 -22.312 -28.032  1.00  0.00    -0.000 C 
BRANCH  16  17
ATOM     17  C   UNL     1      12.168 -21.901 -26.550  1.00  0.00    -0.000 C 
BRANCH  17  18
ATOM     18  C   UNL     1      11.813 -20.416 -26.320  1.00  0.00    -0.003 C 
ATOM     19  C   UNL     1      12.983 -19.484 -26.634  1.00  0.00     0.004 C 
ENDBRANCH  17  18
ENDBRANCH  16  17
ENDBRANCH  15  16
ENDBRANCH  14  15
ENDBRANCH  13  14
ENDBRANCH  12  13
ENDBRANCH   1  12
TORSDOF 14
ENDMDL
MODEL 4
REMARK VINA RESULT:    -5.090      2.023      2.988
REMARK INTER + INTRA:         -10.866
REMARK INTER:                  -8.553
REMARK INTRA:                  -2.313
REMARK UNBOUND:                -1.610
REMARK SMILES CCCCCCCCCCCCCC[C@H](C)C(=O)[O-]
REMARK SMILES IDX 9 1 10 2 11 3 12 4 13 5 14 6 15 7 16 8 17 9 18 10 19 11 8 12
REMARK SMILES IDX 7 13 6 14 5 15 4 16 3 17 2 18 1 19
REMARK H PARENT
REMARK Flexibility Score: inf
ROOT
ATOM      1  C   UNL     1      18.372 -21.520 -26.302  1.00  0.00     0.000 C 
ENDROOT
BRANCH   1   2
ATOM      2  C   UNL     1      17.299 -22.168 -27.193  1.00  0.00     0.000 C 
BRANCH   2   3
ATOM      3  C   UNL     1      17.862 -22.666 -28.533  1.00  0.00     0.000 C 
BRANCH   3   4
ATOM      4  C   UNL     1      16.867 -23.611 -29.225  1.00  0.00     0.000 C 
BRANCH   4   5
ATOM      5  C   UNL     1      15.536 -23.736 -28.465  1.00  0.00     0.001 C 
BRANCH   5   6
ATOM      6  C   UNL     1      14.312 -23.545 -29.380  1.00  0.00     0.009 C 
BRANCH   6   7
ATOM      7  C   UNL     1      13.264 -22.583 -28.778  1.00  0.00     0.032 C 
ATOM      8  C   UNL     1      13.510 -22.308 -27.288  1.00  0.00     0.014 C 
BRANCH   7   9
ATOM      9  C   UNL     1      11.882 -23.146 -28.967  1.00  0.00     0.044 C 
ATOM     10  O   UNL     1      11.478 -24.105 -28.254  1.00  0.00    -0.550 OA
ATOM     11  O   UNL     1      11.038 -22.608 -29.930  1.00  0.00    -0.550 OA
ENDBRANCH   7   9
ENDBRANCH   6   7
ENDBRANCH   5   6
ENDBRANCH   4   5
ENDBRANCH   3   4
ENDBRANCH   2   3
ENDBRANCH   1   2
BRANCH   1  12
ATOM     12  C   UNL     1      18.887 -22.471 -25.209  1.00  0.00     0.000 C 
BRANCH  12  13
ATOM     13  C   UNL     1      17.837 -23.514 -24.783  1.00  0.00    -0.000 C 
BRANCH  13  14
ATOM     14  C   UNL     1      18.275 -24.986 -24.924  1.00  0.00    -0.000 C 
BRANCH  14  15
ATOM     15  C   UNL     1      17.792 -25.700 -26.200  1.00  0.00    -0.000 C 
BRANCH  15  16
ATOM     16  C   UNL     1      18.924 -25.955 -27.208  1.00  0.00    -0.000 C 
BRANCH  16  17
ATOM     17  C   UNL     1      18.570 -27.041 -28.238  1.00  0.00    -0.000 C 
BRANCH  17  18
ATOM     18  C   UNL     1      17.136 -27.595 -28.086  1.00  0.00    -0.003 C 
ATOM     19  C   UNL     1      16.282 -27.337 -29.326  1.00  0.00     0.004 C 
ENDBRANCH  17  18
ENDBRANCH  16  17
ENDBRANCH  15  16
ENDBRANCH  14  15
ENDBRANCH  13  14
ENDBRANCH  12  13
ENDBRANCH   1  12
TORSDOF 14
ENDMDL
MODEL 5
REMARK VINA RESULT:    -5.060      1.593      3.774
REMARK INTER + INTRA:         -10.812
REMARK INTER:                  -9.077
REMARK INTRA:                  -1.735
REMARK UNBOUND:                -1.610
REMARK SMILES CCCCCCCCCCCCCC[C@H](C)C(=O)[O-]
REMARK SMILES IDX 9 1 10 2 11 3 12 4 13 5 14 6 15 7 16 8 17 9 18 10 19 11 8 12
REMARK SMILES IDX 7 13 6 14 5 15 4 16 3 17 2 18 1 19
REMARK H PARENT
REMARK Flexibility Score: inf
ROOT
ATOM      1  C   UNL     1      17.414 -26.437 -29.163  1.00  0.00     0.000 C 
ENDROOT
BRANCH   1   2
ATOM      2  C   UNL     1      15.920 -26.186 -29.425  1.00  0.00     0.000 C 
BRANCH   2   3
ATOM      3  C   UNL     1      15.642 -24.779 -29.976  1.00  0.00     0.000 C 
BRANCH   3   4
ATOM      4  C   UNL     1      16.116 -23.702 -28.987  1.00  0.00     0.000 C 
BRANCH   4   5
ATOM      5  C   UNL     1      15.033 -23.311 -27.967  1.00  0.00     0.001 C 
BRANCH   5   6
ATOM      6  C   UNL     1      13.611 -23.404 -28.549  1.00  0.00     0.009 C 
BRANCH   6   7
ATOM      7  C   UNL     1      12.630 -22.413 -27.885  1.00  0.00     0.032 C 
ATOM      8  C   UNL     1      11.751 -23.084 -26.820  1.00  0.00     0.014 C 
BRANCH   7   9
ATOM      9  C   UNL     1      11.758 -21.774 -28.931  1.00  0.00     0.044 C 
ATOM     10  O   UNL     1      11.475 -20.547 -28.867  1.00  0.00    -0.550 OA
ATOM     11  O   UNL     1      11.261 -22.536 -29.980  1.00  0.00    -0.550 OA
ENDBRANCH   7   9
ENDBRANCH   6   7
ENDBRANCH   5   6
ENDBRANCH   4   5
ENDBRANCH   3   4
ENDBRANCH   2   3
ENDBRANCH   1   2
BRANCH   1  12
ATOM     12  C   UNL     1      17.674 -27.069 -27.785  1.00  0.00     0.000 C 
BRANCH  12  13
ATOM     13  C   UNL     1      18.039 -26.028 -26.711  1.00  0.00    -0.000 C 
BRANCH  13  14
ATOM     14  C   UNL     1      19.132 -25.017 -27.116  1.00  0.00    -0.000 C 
BRANCH  14  15
ATOM     15  C   UNL     1      18.953 -23.592 -26.560  1.00  0.00    -0.000 C 
BRANCH  15  16
ATOM     16  C   UNL     1      17.752 -23.467 -25.609  1.00  0.00    -0.000 C 
BRANCH  16  17
ATOM     17  C   UNL     1      18.171 -23.179 -24.158  1.00  0.00    -0.000 C 
BRANCH  17  18
ATOM     18  C   UNL     1      17.578 -24.171 -23.133  1.00  0.00    -0.003 C 
ATOM     19  C   UNL     1      16.153 -24.589 -23.491  1.00  0.00     0.004 C 
ENDBRANCH  17  18
ENDBRANCH  16  17
ENDBRANCH  15  16
ENDBRANCH  14  15
ENDBRANCH  13  14
ENDBRANCH  12  13
ENDBRANCH   1  12
TORSDOF 14
ENDMDL
MODEL 6
REMARK VINA RESULT:    -5.057      2.153      3.533
REMARK INTER + INTRA:         -10.806
REMARK INTER:                  -9.385
REMARK INTRA:                  -1.421
REMARK UNBOUND:                -1.610
REMARK SMILES CCCCCCCCCCCCCC[C@H](C)C(=O)[O-]
REMARK SMILES IDX 9 1 10 2 11 3 12 4 13 5 14 6 15 7 16 8 17 9 18 10 19 11 8 12
REMARK SMILES IDX 7 13 6 14 5 15 4 16 3 17 2 18 1 19
REMARK H PARENT
REMARK Flexibility Score: inf
ROOT
ATOM      1  C   UNL     1      13.876 -23.160 -29.293  1.00  0.00     0.000 C 
ENDROOT
BRANCH   1   2
ATOM      2  C   UNL     1      12.678 -24.005 -28.830  1.00  0.00     0.000 C 
BRANCH   2   3
ATOM      3  C   UNL     1      11.599 -23.169 -28.124  1.00  0.00     0.000 C 
BRANCH   3   4
ATOM      4  C   UNL     1      11.938 -22.984 -26.636  1.00  0.00     0.000 C 
BRANCH   4   5
ATOM      5  C   UNL     1      11.815 -21.523 -26.173  1.00  0.00     0.001 C 
BRANCH   5   6
ATOM      6  C   UNL     1      12.876 -20.608 -26.811  1.00  0.00     0.009 C 
BRANCH   6   7
ATOM      7  C   UNL     1      12.445 -19.126 -26.840  1.00  0.00     0.032 C 
ATOM      8  C   UNL     1      11.669 -18.717 -25.579  1.00  0.00     0.014 C 
BRANCH   7   9
ATOM      9  C   UNL     1      11.605 -18.858 -28.059  1.00  0.00     0.044 C 
ATOM     10  O   UNL     1      10.722 -17.958 -28.043  1.00  0.00    -0.550 OA
ATOM     11  O   UNL     1      11.802 -19.603 -29.215  1.00  0.00    -0.550 OA
ENDBRANCH   7   9
ENDBRANCH   6   7
ENDBRANCH   5   6
ENDBRANCH   4   5
ENDBRANCH   3   4
ENDBRANCH   2   3
ENDBRANCH   1   2
BRANCH   1  12
ATOM     12  C   UNL     1      15.209 -23.656 -28.707  1.00  0.00     0.000 C 
BRANCH  12  13
ATOM     13  C   UNL     1      15.567 -22.972 -27.376  1.00  0.00    -0.000 C 
BRANCH  13  14
ATOM     14  C   UNL     1      16.738 -23.611 -26.600  1.00  0.00    -0.000 C 
BRANCH  14  15
ATOM     15  C   UNL     1      18.020 -22.761 -26.521  1.00  0.00    -0.000 C 
BRANCH  15  16
ATOM     16  C   UNL     1      18.448 -22.458 -25.076  1.00  0.00    -0.000 C 
BRANCH  16  17
ATOM     17  C   UNL     1      18.773 -23.728 -24.272  1.00  0.00    -0.000 C 
BRANCH  17  18
ATOM     18  C   UNL     1      18.117 -23.761 -22.875  1.00  0.00    -0.003 C 
ATOM     19  C   UNL     1      16.655 -24.204 -22.932  1.00  0.00     0.004 C 
ENDBRANCH  17  18
ENDBRANCH  16  17
ENDBRANCH  15  16
ENDBRANCH  14  15
ENDBRANCH  13  14
ENDBRANCH  12  13
ENDBRANCH   1  12
TORSDOF 14
ENDMDL
MODEL 7
REMARK VINA RESULT:    -5.005      2.241      4.203
REMARK INTER + INTRA:         -10.712
REMARK INTER:                  -9.636
REMARK INTRA:                  -1.075
REMARK UNBOUND:                -1.610
REMARK SMILES CCCCCCCCCCCCCC[C@H](C)C(=O)[O-]
REMARK SMILES IDX 9 1 10 2 11 3 12 4 13 5 14 6 15 7 16 8 17 9 18 10 19 11 8 12
REMARK SMILES IDX 7 13 6 14 5 15 4 16 3 17 2 18 1 19
REMARK H PARENT
REMARK Flexibility Score: inf
ROOT
ATOM      1  C   UNL     1      12.291 -23.255 -27.745  1.00  0.00     0.000 C 
ENDROOT
BRANCH   1   2
ATOM      2  C   UNL     1      12.388 -22.214 -26.618  1.00  0.00     0.000 C 
BRANCH   2   3
ATOM      3  C   UNL     1      11.859 -20.834 -27.037  1.00  0.00     0.000 C 
BRANCH   3   4
ATOM      4  C   UNL     1      12.814 -19.721 -26.579  1.00  0.00     0.000 C 
BRANCH   4   5
ATOM      5  C   UNL     1      12.078 -18.515 -25.971  1.00  0.00     0.001 C 
BRANCH   5   6
ATOM      6  C   UNL     1      10.563 -18.549 -26.243  1.00  0.00     0.009 C 
BRANCH   6   7
ATOM      7  C   UNL     1      10.108 -17.436 -27.213  1.00  0.00     0.032 C 
ATOM      8  C   UNL     1       8.719 -16.884 -26.859  1.00  0.00     0.014 C 
BRANCH   7   9
ATOM      9  C   UNL     1      10.100 -17.956 -28.624  1.00  0.00     0.044 C 
ATOM     10  O   UNL     1      11.181 -18.117 -29.253  1.00  0.00    -0.550 OA
ATOM     11  O   UNL     1       8.896 -18.267 -29.244  1.00  0.00    -0.550 OA
ENDBRANCH   7   9
ENDBRANCH   6   7
ENDBRANCH   5   6
ENDBRANCH   4   5
ENDBRANCH   3   4
ENDBRANCH   2   3
ENDBRANCH   1   2
BRANCH   1  12
ATOM     12  C   UNL     1      13.608 -23.407 -28.524  1.00  0.00     0.000 C 
BRANCH  12  13
ATOM     13  C   UNL     1      14.846 -23.059 -27.677  1.00  0.00    -0.000 C 
BRANCH  13  14
ATOM     14  C   UNL     1      16.194 -23.548 -28.246  1.00  0.00    -0.000 C 
BRANCH  14  15
ATOM     15  C   UNL     1      17.430 -22.746 -27.801  1.00  0.00    -0.000 C 
BRANCH  15  16
ATOM     16  C   UNL     1      17.441 -22.452 -26.292  1.00  0.00    -0.000 C 
BRANCH  16  17
ATOM     17  C   UNL     1      18.099 -23.576 -25.473  1.00  0.00    -0.000 C 
BRANCH  17  18
ATOM     18  C   UNL     1      17.623 -23.631 -24.005  1.00  0.00    -0.003 C 
ATOM     19  C   UNL     1      16.414 -24.547 -23.821  1.00  0.00     0.004 C 
ENDBRANCH  17  18
ENDBRANCH  16  17
ENDBRANCH  15  16
ENDBRANCH  14  15
ENDBRANCH  13  14
ENDBRANCH  12  13
ENDBRANCH   1  12
TORSDOF 14
ENDMDL
MODEL 8
REMARK VINA RESULT:    -4.996      3.316      7.577
REMARK INTER + INTRA:         -10.695
REMARK INTER:                  -9.275
REMARK INTRA:                  -1.421
REMARK UNBOUND:                -1.610
REMARK SMILES CCCCCCCCCCCCCC[C@H](C)C(=O)[O-]
REMARK SMILES IDX 9 1 10 2 11 3 12 4 13 5 14 6 15 7 16 8 17 9 18 10 19 11 8 12
REMARK SMILES IDX 7 13 6 14 5 15 4 16 3 17 2 18 1 19
REMARK H PARENT
REMARK Flexibility Score: inf
ROOT
ATOM      1  C   UNL     1      16.274 -23.346 -28.438  1.00  0.00     0.000 C 
ENDROOT
BRANCH   1   2
ATOM      2  C   UNL     1      17.381 -23.361 -27.371  1.00  0.00     0.000 C 
BRANCH   2   3
ATOM      3  C   UNL     1      16.981 -24.144 -26.111  1.00  0.00     0.000 C 
BRANCH   3   4
ATOM      4  C   UNL     1      17.978 -25.280 -25.835  1.00  0.00     0.000 C 
BRANCH   4   5
ATOM      5  C   UNL     1      18.539 -25.907 -27.122  1.00  0.00     0.001 C 
BRANCH   5   6
ATOM      6  C   UNL     1      17.753 -27.155 -27.564  1.00  0.00     0.009 C 
BRANCH   6   7
ATOM      7  C   UNL     1      17.656 -27.285 -29.100  1.00  0.00     0.032 C 
ATOM      8  C   UNL     1      18.252 -26.072 -29.828  1.00  0.00     0.014 C 
BRANCH   7   9
ATOM      9  C   UNL     1      16.221 -27.467 -29.511  1.00  0.00     0.044 C 
ATOM     10  O   UNL     1      15.642 -28.574 -29.341  1.00  0.00    -0.550 OA
ATOM     11  O   UNL     1      15.522 -26.410 -30.078  1.00  0.00    -0.550 OA
ENDBRANCH   7   9
ENDBRANCH   6   7
ENDBRANCH   5   6
ENDBRANCH   4   5
ENDBRANCH   3   4
ENDBRANCH   2   3
ENDBRANCH   1   2
BRANCH   1  12
ATOM     12  C   UNL     1      14.891 -23.022 -27.850  1.00  0.00     0.000 C 
BRANCH  12  13
ATOM     13  C   UNL     1      13.739 -23.659 -28.648  1.00  0.00    -0.000 C 
BRANCH  13  14
ATOM     14  C   UNL     1      12.326 -23.165 -28.275  1.00  0.00    -0.000 C 
BRANCH  14  15
ATOM     15  C   UNL     1      12.083 -22.926 -26.774  1.00  0.00    -0.000 C 
BRANCH  15  16
ATOM     16  C   UNL     1      12.026 -21.435 -26.406  1.00  0.00    -0.000 C 
BRANCH  16  17
ATOM     17  C   UNL     1      12.098 -20.516 -27.637  1.00  0.00    -0.000 C 
BRANCH  17  18
ATOM     18  C   UNL     1      12.288 -19.024 -27.286  1.00  0.00    -0.003 C 
ATOM     19  C   UNL     1      12.744 -18.822 -25.842  1.00  0.00     0.004 C 
ENDBRANCH  17  18
ENDBRANCH  16  17
ENDBRANCH  15  16
ENDBRANCH  14  15
ENDBRANCH  13  14
ENDBRANCH  12  13
ENDBRANCH   1  12
TORSDOF 14
ENDMDL
MODEL 9
REMARK VINA RESULT:    -4.985      1.228      1.991
REMARK INTER + INTRA:         -10.674
REMARK INTER:                  -8.785
REMARK INTRA:                  -1.889
REMARK UNBOUND:                -1.610
REMARK SMILES CCCCCCCCCCCCCC[C@H](C)C(=O)[O-]
REMARK SMILES IDX 9 1 10 2 11 3 12 4 13 5 14 6 15 7 16 8 17 9 18 10 19 11 8 12
REMARK SMILES IDX 7 13 6 14 5 15 4 16 3 17 2 18 1 19
REMARK H PARENT
REMARK Flexibility Score: inf
ROOT
ATOM      1  C   UNL     1      16.252 -23.378 -26.488  1.00  0.00     0.000 C 
ENDROOT
BRANCH   1   2
ATOM      2  C   UNL     1      16.879 -22.624 -27.672  1.00  0.00     0.000 C 
BRANCH   2   3
ATOM      3  C   UNL     1      16.542 -23.262 -29.028  1.00  0.00     0.000 C 
BRANCH   3   4
ATOM      4  C   UNL     1      15.188 -23.987 -28.969  1.00  0.00     0.000 C 
BRANCH   4   5
ATOM      5  C   UNL     1      14.051 -23.180 -29.619  1.00  0.00     0.001 C 
BRANCH   5   6
ATOM      6  C   UNL     1      12.756 -23.208 -28.788  1.00  0.00     0.009 C 
BRANCH   6   7
ATOM      7  C   UNL     1      12.827 -22.296 -27.544  1.00  0.00     0.032 C 
ATOM      8  C   UNL     1      12.133 -22.917 -26.322  1.00  0.00     0.014 C 
BRANCH   7   9
ATOM      9  C   UNL     1      12.209 -20.959 -27.850  1.00  0.00     0.044 C 
ATOM     10  O   UNL     1      12.370 -19.985 -27.067  1.00  0.00    -0.550 OA
ATOM     11  O   UNL     1      11.457 -20.790 -29.006  1.00  0.00    -0.550 OA
ENDBRANCH   7   9
ENDBRANCH   6   7
ENDBRANCH   5   6
ENDBRANCH   4   5
ENDBRANCH   3   4
ENDBRANCH   2   3
ENDBRANCH   1   2
BRANCH   1  12
ATOM     12  C   UNL     1      17.287 -23.761 -25.417  1.00  0.00     0.000 C 
BRANCH  12  13
ATOM     13  C   UNL     1      17.641 -25.259 -25.437  1.00  0.00    -0.000 C 
BRANCH  13  14
ATOM     14  C   UNL     1      18.685 -25.676 -26.493  1.00  0.00    -0.000 C 
BRANCH  14  15
ATOM     15  C   UNL     1      18.167 -26.610 -27.602  1.00  0.00    -0.000 C 
BRANCH  15  16
ATOM     16  C   UNL     1      18.577 -26.152 -29.011  1.00  0.00    -0.000 C 
BRANCH  16  17
ATOM     17  C   UNL     1      17.797 -26.874 -30.123  1.00  0.00    -0.000 C 
BRANCH  17  18
ATOM     18  C   UNL     1      16.816 -27.943 -29.596  1.00  0.00    -0.003 C 
ATOM     19  C   UNL     1      16.269 -28.829 -30.715  1.00  0.00     0.004 C 
ENDBRANCH  17  18
ENDBRANCH  16  17
ENDBRANCH  15  16
ENDBRANCH  14  15
ENDBRANCH  13  14
ENDBRANCH  12  13
ENDBRANCH   1  12
TORSDOF 14
ENDMDL
