MODEL 1
REMARK VINA RESULT:    -3.476      0.000      0.000
REMARK INTER + INTRA:          -4.707
REMARK INTER:                  -4.594
REMARK INTRA:                  -0.113
REMARK UNBOUND:                -0.113
REMARK SMILES CCCCCCCO
REMARK SMILES IDX 5 1 4 2 3 3 2 4 1 5 6 6 7 7 8 8
REMARK H PARENT 8 9
REMARK Flexibility Score: inf
ROOT
ATOM      1  C   UNL     1     165.398 178.549 166.888  1.00  0.00     0.002 C 
ENDROOT
BRANCH   1   2
ATOM      2  C   UNL     1     164.887 178.013 168.233  1.00  0.00     0.000 C 
BRANCH   2   3
ATOM      3  C   UNL     1     163.386 178.283 168.397  1.00  0.00    -0.000 C 
BRANCH   3   4
ATOM      4  C   UNL     1     162.918 177.938 169.815  1.00  0.00    -0.003 C 
ATOM      5  C   UNL     1     161.414 177.678 169.851  1.00  0.00     0.004 C 
ENDBRANCH   3   4
ENDBRANCH   2   3
ENDBRANCH   1   2
BRANCH   1   6
ATOM      6  C   UNL     1     165.953 177.443 165.973  1.00  0.00     0.028 C 
BRANCH   6   7
ATOM      7  C   UNL     1     165.567 176.029 166.421  1.00  0.00     0.156 C 
BRANCH   7   8
ATOM      8  O   UNL     1     166.716 175.268 166.676  1.00  0.00    -0.396 OA
ATOM      9  H   UNL     1     166.422 174.321 166.683  1.00  0.00     0.210 HD
ENDBRANCH   7   8
ENDBRANCH   6   7
ENDBRANCH   1   6
TORSDOF 6
ENDMDL
MODEL 2
REMARK VINA RESULT:    -3.412     17.784     18.445
REMARK INTER + INTRA:          -4.622
REMARK INTER:                  -4.465
REMARK INTRA:                  -0.156
REMARK UNBOUND:                -0.113
REMARK SMILES CCCCCCCO
REMARK SMILES IDX 5 1 4 2 3 3 2 4 1 5 6 6 7 7 8 8
REMARK H PARENT 8 9
REMARK Flexibility Score: inf
ROOT
ATOM      1  C   UNL     1     173.739 162.314 167.905  1.00  0.00     0.002 C 
ENDROOT
BRANCH   1   2
ATOM      2  C   UNL     1     172.329 161.712 167.996  1.00  0.00     0.000 C 
BRANCH   2   3
ATOM      3  C   UNL     1     171.667 161.652 166.614  1.00  0.00    -0.000 C 
BRANCH   3   4
ATOM      4  C   UNL     1     172.610 162.186 165.530  1.00  0.00    -0.003 C 
ATOM      5  C   UNL     1     172.689 161.225 164.346  1.00  0.00     0.004 C 
ENDBRANCH   3   4
ENDBRANCH   2   3
ENDBRANCH   1   2
BRANCH   1   6
ATOM      6  C   UNL     1     174.440 162.411 169.271  1.00  0.00     0.028 C 
BRANCH   6   7
ATOM      7  C   UNL     1     175.727 161.582 169.357  1.00  0.00     0.156 C 
BRANCH   7   8
ATOM      8  O   UNL     1     175.956 161.173 170.677  1.00  0.00    -0.396 OA
ATOM      9  H   UNL     1     176.684 161.753 171.022  1.00  0.00     0.210 HD
ENDBRANCH   7   8
ENDBRANCH   6   7
ENDBRANCH   1   6
TORSDOF 6
ENDMDL
MODEL 3
REMARK VINA RESULT:    -3.390     11.326     12.039
REMARK INTER + INTRA:          -4.593
REMARK INTER:                  -4.470
REMARK INTRA:                  -0.123
REMARK UNBOUND:                -0.113
REMARK SMILES CCCCCCCO
REMARK SMILES IDX 5 1 4 2 3 3 2 4 1 5 6 6 7 7 8 8
REMARK H PARENT 8 9
REMARK Flexibility Score: inf
ROOT
ATOM      1  C   UNL     1     177.055 174.453 169.503  1.00  0.00     0.002 C 
ENDROOT
BRANCH   1   2
ATOM      2  C   UNL     1     176.030 175.399 170.146  1.00  0.00     0.000 C 
BRANCH   2   3
ATOM      3  C   UNL     1     176.552 176.840 170.170  1.00  0.00    -0.000 C 
BRANCH   3   4
ATOM      4  C   UNL     1     175.650 177.737 171.025  1.00  0.00    -0.003 C 
ATOM      5  C   UNL     1     176.454 178.462 172.102  1.00  0.00     0.004 C 
ENDBRANCH   3   4
ENDBRANCH   2   3
ENDBRANCH   1   2
BRANCH   1   6
ATOM      6  C   UNL     1     176.449 173.573 168.397  1.00  0.00     0.028 C 
BRANCH   6   7
ATOM      7  C   UNL     1     175.309 174.254 167.630  1.00  0.00     0.156 C 
BRANCH   7   8
ATOM      8  O   UNL     1     174.231 173.373 167.476  1.00  0.00    -0.396 OA
ATOM      9  H   UNL     1     173.997 173.062 168.389  1.00  0.00     0.210 HD
ENDBRANCH   7   8
ENDBRANCH   6   7
ENDBRANCH   1   6
TORSDOF 6
ENDMDL
MODEL 4
REMARK VINA RESULT:    -3.380     11.388     12.727
REMARK INTER + INTRA:          -4.579
REMARK INTER:                  -4.304
REMARK INTRA:                  -0.275
REMARK UNBOUND:                -0.113
REMARK SMILES CCCCCCCO
REMARK SMILES IDX 5 1 4 2 3 3 2 4 1 5 6 6 7 7 8 8
REMARK H PARENT 8 9
REMARK Flexibility Score: inf
ROOT
ATOM      1  C   UNL     1     177.242 173.338 168.741  1.00  0.00     0.002 C 
ENDROOT
BRANCH   1   2
ATOM      2  C   UNL     1     177.046 174.068 170.077  1.00  0.00     0.000 C 
BRANCH   2   3
ATOM      3  C   UNL     1     178.229 174.996 170.375  1.00  0.00    -0.000 C 
BRANCH   3   4
ATOM      4  C   UNL     1     177.780 176.462 170.420  1.00  0.00    -0.003 C 
ATOM      5  C   UNL     1     176.260 176.575 170.332  1.00  0.00     0.004 C 
ENDBRANCH   3   4
ENDBRANCH   2   3
ENDBRANCH   1   2
BRANCH   1   6
ATOM      6  C   UNL     1     176.447 173.973 167.587  1.00  0.00     0.028 C 
BRANCH   6   7
ATOM      7  C   UNL     1     174.932 173.987 167.824  1.00  0.00     0.156 C 
BRANCH   7   8
ATOM      8  O   UNL     1     174.250 173.709 166.633  1.00  0.00    -0.396 OA
ATOM      9  H   UNL     1     174.219 174.562 166.127  1.00  0.00     0.210 HD
ENDBRANCH   7   8
ENDBRANCH   6   7
ENDBRANCH   1   6
TORSDOF 6
ENDMDL
MODEL 5
REMARK VINA RESULT:    -3.336     17.919     19.400
REMARK INTER + INTRA:          -4.522
REMARK INTER:                  -4.385
REMARK INTRA:                  -0.137
REMARK UNBOUND:                -0.113
REMARK SMILES CCCCCCCO
REMARK SMILES IDX 5 1 4 2 3 3 2 4 1 5 6 6 7 7 8 8
REMARK H PARENT 8 9
REMARK Flexibility Score: inf
ROOT
ATOM      1  C   UNL     1     174.579 162.330 169.422  1.00  0.00     0.002 C 
ENDROOT
BRANCH   1   2
ATOM      2  C   UNL     1     175.958 161.701 169.176  1.00  0.00     0.000 C 
BRANCH   2   3
ATOM      3  C   UNL     1     176.952 162.743 168.652  1.00  0.00    -0.000 C 
BRANCH   3   4
ATOM      4  C   UNL     1     178.397 162.261 168.827  1.00  0.00    -0.003 C 
ATOM      5  C   UNL     1     178.549 161.420 170.092  1.00  0.00     0.004 C 
ENDBRANCH   3   4
ENDBRANCH   2   3
ENDBRANCH   1   2
BRANCH   1   6
ATOM      6  C   UNL     1     173.631 162.192 168.218  1.00  0.00     0.028 C 
BRANCH   6   7
ATOM      7  C   UNL     1     172.334 161.443 168.544  1.00  0.00     0.156 C 
BRANCH   7   8
ATOM      8  O   UNL     1     172.226 161.234 169.925  1.00  0.00    -0.396 OA
ATOM      9  H   UNL     1     171.272 161.386 170.153  1.00  0.00     0.210 HD
ENDBRANCH   7   8
ENDBRANCH   6   7
ENDBRANCH   1   6
TORSDOF 6
ENDMDL
MODEL 6
REMARK VINA RESULT:    -3.335     13.067     14.196
REMARK INTER + INTRA:          -4.520
REMARK INTER:                  -4.276
REMARK INTRA:                  -0.244
REMARK UNBOUND:                -0.113
REMARK SMILES CCCCCCCO
REMARK SMILES IDX 5 1 4 2 3 3 2 4 1 5 6 6 7 7 8 8
REMARK H PARENT 8 9
REMARK Flexibility Score: inf
ROOT
ATOM      1  C   UNL     1     160.755 165.274 166.888  1.00  0.00     0.002 C 
ENDROOT
BRANCH   1   2
ATOM      2  C   UNL     1     159.790 164.103 166.652  1.00  0.00     0.000 C 
BRANCH   2   3
ATOM      3  C   UNL     1     160.392 162.786 167.154  1.00  0.00    -0.000 C 
BRANCH   3   4
ATOM      4  C   UNL     1     160.440 162.752 168.686  1.00  0.00    -0.003 C 
ATOM      5  C   UNL     1     161.123 161.482 169.189  1.00  0.00     0.004 C 
ENDBRANCH   3   4
ENDBRANCH   2   3
ENDBRANCH   1   2
BRANCH   1   6
ATOM      6  C   UNL     1     160.057 166.522 167.456  1.00  0.00     0.028 C 
BRANCH   6   7
ATOM      7  C   UNL     1     159.038 166.205 168.557  1.00  0.00     0.156 C 
BRANCH   7   8
ATOM      8  O   UNL     1     159.650 166.252 169.816  1.00  0.00    -0.396 OA
ATOM      9  H   UNL     1     160.506 165.758 169.725  1.00  0.00     0.210 HD
ENDBRANCH   7   8
ENDBRANCH   6   7
ENDBRANCH   1   6
TORSDOF 6
ENDMDL
MODEL 7
REMARK VINA RESULT:    -3.273     16.347     18.407
REMARK INTER + INTRA:          -4.438
REMARK INTER:                  -4.264
REMARK INTRA:                  -0.174
REMARK UNBOUND:                -0.113
REMARK SMILES CCCCCCCO
REMARK SMILES IDX 5 1 4 2 3 3 2 4 1 5 6 6 7 7 8 8
REMARK H PARENT 8 9
REMARK Flexibility Score: inf
ROOT
ATOM      1  C   UNL     1     174.249 162.238 167.846  1.00  0.00     0.002 C 
ENDROOT
BRANCH   1   2
ATOM      2  C   UNL     1     174.555 162.365 169.346  1.00  0.00     0.000 C 
BRANCH   2   3
ATOM      3  C   UNL     1     175.930 161.773 169.678  1.00  0.00    -0.000 C 
BRANCH   3   4
ATOM      4  C   UNL     1     176.859 161.823 168.460  1.00  0.00    -0.003 C 
ATOM      5  C   UNL     1     177.857 162.973 168.574  1.00  0.00     0.004 C 
ENDBRANCH   3   4
ENDBRANCH   2   3
ENDBRANCH   1   2
BRANCH   1   6
ATOM      6  C   UNL     1     172.744 162.288 167.533  1.00  0.00     0.028 C 
BRANCH   6   7
ATOM      7  C   UNL     1     172.331 163.513 166.710  1.00  0.00     0.156 C 
BRANCH   7   8
ATOM      8  O   UNL     1     173.462 164.154 166.189  1.00  0.00    -0.396 OA
ATOM      9  H   UNL     1     173.328 164.196 165.207  1.00  0.00     0.210 HD
ENDBRANCH   7   8
ENDBRANCH   6   7
ENDBRANCH   1   6
TORSDOF 6
ENDMDL
MODEL 8
REMARK VINA RESULT:    -3.252     11.469     12.957
REMARK INTER + INTRA:          -4.410
REMARK INTER:                  -4.175
REMARK INTRA:                  -0.235
REMARK UNBOUND:                -0.113
REMARK SMILES CCCCCCCO
REMARK SMILES IDX 5 1 4 2 3 3 2 4 1 5 6 6 7 7 8 8
REMARK H PARENT 8 9
REMARK Flexibility Score: inf
ROOT
ATOM      1  C   UNL     1     178.064 175.075 170.251  1.00  0.00     0.002 C 
ENDROOT
BRANCH   1   2
ATOM      2  C   UNL     1     176.915 174.076 170.050  1.00  0.00     0.000 C 
BRANCH   2   3
ATOM      3  C   UNL     1     177.073 173.315 168.729  1.00  0.00    -0.000 C 
BRANCH   3   4
ATOM      4  C   UNL     1     176.410 174.075 167.574  1.00  0.00    -0.003 C 
ATOM      5  C   UNL     1     174.901 173.841 167.554  1.00  0.00     0.004 C 
ENDBRANCH   3   4
ENDBRANCH   2   3
ENDBRANCH   1   2
BRANCH   1   6
ATOM      6  C   UNL     1     177.574 176.515 170.485  1.00  0.00     0.028 C 
BRANCH   6   7
ATOM      7  C   UNL     1     176.166 176.778 169.938  1.00  0.00     0.156 C 
BRANCH   7   8
ATOM      8  O   UNL     1     175.418 177.524 170.857  1.00  0.00    -0.396 OA
ATOM      9  H   UNL     1     174.790 178.073 170.320  1.00  0.00     0.210 HD
ENDBRANCH   7   8
ENDBRANCH   6   7
ENDBRANCH   1   6
TORSDOF 6
ENDMDL
MODEL 9
REMARK VINA RESULT:    -3.217      2.319      4.480
REMARK INTER + INTRA:          -4.364
REMARK INTER:                  -4.202
REMARK INTRA:                  -0.162
REMARK UNBOUND:                -0.113
REMARK SMILES CCCCCCCO
REMARK SMILES IDX 5 1 4 2 3 3 2 4 1 5 6 6 7 7 8 8
REMARK H PARENT 8 9
REMARK Flexibility Score: inf
ROOT
ATOM      1  C   UNL     1     163.458 178.160 167.448  1.00  0.00     0.002 C 
ENDROOT
BRANCH   1   2
ATOM      2  C   UNL     1     164.895 177.803 167.855  1.00  0.00     0.000 C 
BRANCH   2   3
ATOM      3  C   UNL     1     165.905 178.338 166.833  1.00  0.00    -0.000 C 
BRANCH   3   4
ATOM      4  C   UNL     1     165.993 177.416 165.612  1.00  0.00    -0.003 C 
ATOM      5  C   UNL     1     166.078 175.951 166.032  1.00  0.00     0.004 C 
ENDBRANCH   3   4
ENDBRANCH   2   3
ENDBRANCH   1   2
BRANCH   1   6
ATOM      6  C   UNL     1     162.566 178.520 168.649  1.00  0.00     0.028 C 
BRANCH   6   7
ATOM      7  C   UNL     1     163.100 177.994 169.986  1.00  0.00     0.156 C 
BRANCH   7   8
ATOM      8  O   UNL     1     162.220 177.045 170.522  1.00  0.00    -0.396 OA
ATOM      9  H   UNL     1     161.427 177.037 169.927  1.00  0.00     0.210 HD
ENDBRANCH   7   8
ENDBRANCH   6   7
ENDBRANCH   1   6
TORSDOF 6
ENDMDL
