MODEL 1
REMARK VINA RESULT:    -4.581      0.000      0.000
REMARK INTER + INTRA:          -7.381
REMARK INTER:                  -6.054
REMARK INTRA:                  -1.327
REMARK UNBOUND:                -1.327
REMARK SMILES CC[C@@H](C=C[C@H](C)[C@@H]1CC[C@H]2C3=CC[C@H]4C[C@@H](O)CC[C@@]4(C)[C@@H]3CC[C@]21C)C(C)C
REMARK SMILES IDX 6 1 7 2 5 3 4 4 3 5 2 6 1 7 28 8 29 9 30 10 8 11 9 12 26 13
REMARK SMILES IDX 10 14 11 15 25 16 27 17 12 18 24 19 23 20 13 21 21 22 14 23
REMARK SMILES IDX 15 24 20 25 22 26 16 27 19 28 17 29 18 30
REMARK H PARENT 18 31
REMARK Flexibility Score: inf
ROOT
ATOM      1  C   UNL     1       5.321   7.042  -7.225  1.00  0.00     0.012 C 
ATOM      2  C   UNL     1       4.005   6.583  -7.904  1.00  0.00     0.012 C 
ENDROOT
BRANCH   1   3
ATOM      3  C   UNL     1       6.498   6.502  -8.031  1.00  0.00    -0.028 C 
ATOM      4  C   UNL     1       7.271   5.491  -7.597  1.00  0.00    -0.027 C 
BRANCH   4   5
ATOM      5  C   UNL     1       8.501   5.019  -8.352  1.00  0.00     0.014 C 
BRANCH   5   6
ATOM      6  C   UNL     1       9.485   4.392  -7.323  1.00  0.00     0.004 C 
ATOM      7  C   UNL     1       9.843   2.914  -7.613  1.00  0.00     0.004 C 
ENDBRANCH   5   6
BRANCH   5   8
ATOM      8  C   UNL     1       9.099   6.236  -9.147  1.00  0.00    -0.011 C 
ATOM      9  C   UNL     1      10.095   7.059  -8.318  1.00  0.00     0.008 C 
ATOM     10  C   UNL     1       9.796   5.769 -10.442  1.00  0.00     0.008 C 
ENDBRANCH   5   8
ENDBRANCH   4   5
ENDBRANCH   1   3
BRANCH   1  11
ATOM     11  C   UNL     1       5.491   8.593  -6.998  1.00  0.00     0.002 C 
ATOM     12  C   UNL     1       6.931   9.005  -7.389  1.00  0.00     0.005 C 
ATOM     13  C   UNL     1       5.372   9.181  -5.541  1.00  0.00    -0.023 C 
ATOM     14  C   UNL     1       7.763   8.929  -6.102  1.00  0.00     0.009 C 
ATOM     15  C   UNL     1       6.763   8.887  -4.935  1.00  0.00     0.021 C 
ATOM     16  C   UNL     1       5.073  10.732  -5.659  1.00  0.00     0.008 C 
ATOM     17  C   UNL     1       4.265   8.570  -4.656  1.00  0.00     0.012 C 
ATOM     18  C   UNL     1       7.063   9.843  -3.795  1.00  0.00    -0.067 C 
ATOM     19  C   UNL     1       5.515  11.601  -4.452  1.00  0.00     0.009 C 
ATOM     20  C   UNL     1       6.994  11.308  -4.107  1.00  0.00     0.021 C 
ATOM     21  C   UNL     1       6.876   9.438  -2.530  1.00  0.00    -0.027 C 
ATOM     22  C   UNL     1       7.673  12.164  -2.973  1.00  0.00    -0.023 C 
ATOM     23  C   UNL     1       6.434  10.397  -1.461  1.00  0.00     0.031 C 
ATOM     24  C   UNL     1       7.062  11.819  -1.552  1.00  0.00     0.002 C 
ATOM     25  C   UNL     1       9.192  11.818  -2.965  1.00  0.00     0.010 C 
ATOM     26  C   UNL     1       7.532  13.681  -3.329  1.00  0.00     0.012 C 
ATOM     27  C   UNL     1       8.063  12.010  -0.374  1.00  0.00     0.036 C 
ATOM     28  C   UNL     1       9.998  12.537  -1.864  1.00  0.00     0.032 C 
ATOM     29  C   UNL     1       9.159  13.029  -0.670  1.00  0.00     0.114 C 
BRANCH  29  30
ATOM     30  O   UNL     1      10.002  13.184   0.444  1.00  0.00    -0.393 OA
ATOM     31  H   UNL     1       9.663  12.581   1.170  1.00  0.00     0.210 HD
ENDBRANCH  29  30
ENDBRANCH   1  11
TORSDOF 6
ENDMDL
MODEL 2
REMARK VINA RESULT:    -4.526      3.555      8.858
REMARK INTER + INTRA:          -7.308
REMARK INTER:                  -5.863
REMARK INTRA:                  -1.445
REMARK UNBOUND:                -1.327
REMARK SMILES CC[C@@H](C=C[C@H](C)[C@@H]1CC[C@H]2C3=CC[C@H]4C[C@@H](O)CC[C@@]4(C)[C@@H]3CC[C@]21C)C(C)C
REMARK SMILES IDX 6 1 7 2 5 3 4 4 3 5 2 6 1 7 28 8 29 9 30 10 8 11 9 12 26 13
REMARK SMILES IDX 10 14 11 15 25 16 27 17 12 18 24 19 23 20 13 21 21 22 14 23
REMARK SMILES IDX 15 24 20 25 22 26 16 27 19 28 17 29 18 30
REMARK H PARENT 18 31
REMARK Flexibility Score: inf
ROOT
ATOM      1  C   UNL     1       9.868  10.328  -6.333  1.00  0.00     0.012 C 
ATOM      2  C   UNL     1      11.053  11.271  -6.662  1.00  0.00     0.012 C 
ENDROOT
BRANCH   1   3
ATOM      3  C   UNL     1       8.901  11.064  -5.410  1.00  0.00    -0.028 C 
ATOM      4  C   UNL     1       8.712  10.709  -4.127  1.00  0.00    -0.027 C 
BRANCH   4   5
ATOM      5  C   UNL     1       7.680  11.378  -3.237  1.00  0.00     0.014 C 
BRANCH   5   6
ATOM      6  C   UNL     1       8.348  11.670  -1.863  1.00  0.00     0.004 C 
ATOM      7  C   UNL     1       9.788  12.228  -1.968  1.00  0.00     0.004 C 
ENDBRANCH   5   6
BRANCH   5   8
ATOM      8  C   UNL     1       6.416  10.447  -3.148  1.00  0.00    -0.011 C 
ATOM      9  C   UNL     1       5.438  10.656  -4.312  1.00  0.00     0.008 C 
ATOM     10  C   UNL     1       6.821   8.960  -3.100  1.00  0.00     0.008 C 
ENDBRANCH   5   8
ENDBRANCH   4   5
ENDBRANCH   1   3
BRANCH   1  11
ATOM     11  C   UNL     1       9.085   9.728  -7.564  1.00  0.00     0.002 C 
ATOM     12  C   UNL     1       7.596   9.550  -7.176  1.00  0.00     0.005 C 
ATOM     13  C   UNL     1       9.455   8.291  -8.092  1.00  0.00    -0.023 C 
ATOM     14  C   UNL     1       7.460   8.117  -6.647  1.00  0.00     0.009 C 
ATOM     15  C   UNL     1       8.717   7.359  -7.102  1.00  0.00     0.021 C 
ATOM     16  C   UNL     1       8.914   8.156  -9.574  1.00  0.00     0.008 C 
ATOM     17  C   UNL     1      10.959   7.951  -8.124  1.00  0.00     0.012 C 
ATOM     18  C   UNL     1       8.460   6.004  -7.734  1.00  0.00    -0.067 C 
ATOM     19  C   UNL     1       8.609   6.713 -10.056  1.00  0.00     0.009 C 
ATOM     20  C   UNL     1       7.703   5.996  -9.029  1.00  0.00     0.021 C 
ATOM     21  C   UNL     1       9.280   4.980  -7.454  1.00  0.00    -0.027 C 
ATOM     22  C   UNL     1       7.189   4.549  -9.379  1.00  0.00    -0.023 C 
ATOM     23  C   UNL     1       9.584   3.921  -8.476  1.00  0.00     0.031 C 
ATOM     24  C   UNL     1       8.377   3.501  -9.366  1.00  0.00     0.002 C 
ATOM     25  C   UNL     1       6.148   4.142  -8.293  1.00  0.00     0.010 C 
ATOM     26  C   UNL     1       6.448   4.593 -10.756  1.00  0.00     0.012 C 
ATOM     27  C   UNL     1       7.938   2.057  -8.980  1.00  0.00     0.036 C 
ATOM     28  C   UNL     1       5.585   2.716  -8.461  1.00  0.00     0.032 C 
ATOM     29  C   UNL     1       6.473   1.767  -9.288  1.00  0.00     0.114 C 
BRANCH  29  30
ATOM     30  O   UNL     1       6.152   0.440  -8.954  1.00  0.00    -0.393 OA
ATOM     31  H   UNL     1       6.395  -0.139  -9.736  1.00  0.00     0.210 HD
ENDBRANCH  29  30
ENDBRANCH   1  11
TORSDOF 6
ENDMDL
MODEL 3
REMARK VINA RESULT:    -4.449      4.840      8.849
REMARK INTER + INTRA:          -7.206
REMARK INTER:                  -6.290
REMARK INTRA:                  -0.917
REMARK UNBOUND:                -1.327
REMARK SMILES CC[C@@H](C=C[C@H](C)[C@@H]1CC[C@H]2C3=CC[C@H]4C[C@@H](O)CC[C@@]4(C)[C@@H]3CC[C@]21C)C(C)C
REMARK SMILES IDX 6 1 7 2 5 3 4 4 3 5 2 6 1 7 28 8 29 9 30 10 8 11 9 12 26 13
REMARK SMILES IDX 10 14 11 15 25 16 27 17 12 18 24 19 23 20 13 21 21 22 14 23
REMARK SMILES IDX 15 24 20 25 22 26 16 27 19 28 17 29 18 30
REMARK H PARENT 18 31
REMARK Flexibility Score: inf
ROOT
ATOM      1  C   UNL     1      10.506  11.282  -9.315  1.00  0.00     0.012 C 
ATOM      2  C   UNL     1       9.950  12.705  -9.578  1.00  0.00     0.012 C 
ENDROOT
BRANCH   1   3
ATOM      3  C   UNL     1      11.934  11.407  -8.791  1.00  0.00    -0.028 C 
ATOM      4  C   UNL     1      12.345  12.448  -8.047  1.00  0.00    -0.027 C 
BRANCH   4   5
ATOM      5  C   UNL     1      13.789  12.621  -7.609  1.00  0.00     0.014 C 
BRANCH   5   6
ATOM      6  C   UNL     1      14.641  11.533  -8.324  1.00  0.00     0.004 C 
ATOM      7  C   UNL     1      16.029  12.029  -8.797  1.00  0.00     0.004 C 
ENDBRANCH   5   6
BRANCH   5   8
ATOM      8  C   UNL     1      13.849  12.550  -6.040  1.00  0.00    -0.011 C 
ATOM      9  C   UNL     1      15.044  13.316  -5.454  1.00  0.00     0.008 C 
ATOM     10  C   UNL     1      12.552  13.093  -5.406  1.00  0.00     0.008 C 
ENDBRANCH   5   8
ENDBRANCH   4   5
ENDBRANCH   1   3
BRANCH   1  11
ATOM     11  C   UNL     1       9.659  10.363  -8.353  1.00  0.00     0.002 C 
ATOM     12  C   UNL     1      10.612   9.676  -7.344  1.00  0.00     0.005 C 
ATOM     13  C   UNL     1       8.878   9.131  -8.949  1.00  0.00    -0.023 C 
ATOM     14  C   UNL     1      10.996   8.328  -7.966  1.00  0.00     0.009 C 
ATOM     15  C   UNL     1       9.981   8.057  -9.088  1.00  0.00     0.021 C 
ATOM     16  C   UNL     1       7.751   8.717  -7.916  1.00  0.00     0.008 C 
ATOM     17  C   UNL     1       8.186   9.364 -10.307  1.00  0.00     0.012 C 
ATOM     18  C   UNL     1       9.376   6.665  -9.088  1.00  0.00    -0.067 C 
ATOM     19  C   UNL     1       7.292   7.236  -7.971  1.00  0.00     0.009 C 
ATOM     20  C   UNL     1       8.523   6.301  -7.910  1.00  0.00     0.021 C 
ATOM     21  C   UNL     1       9.180   6.033 -10.254  1.00  0.00    -0.027 C 
ATOM     22  C   UNL     1       8.269   4.748  -7.849  1.00  0.00    -0.023 C 
ATOM     23  C   UNL     1       8.019   5.098 -10.449  1.00  0.00     0.031 C 
ATOM     24  C   UNL     1       7.675   4.211  -9.217  1.00  0.00     0.002 C 
ATOM     25  C   UNL     1       9.642   4.055  -7.591  1.00  0.00     0.010 C 
ATOM     26  C   UNL     1       7.340   4.432  -6.632  1.00  0.00     0.012 C 
ATOM     27  C   UNL     1       8.056   2.733  -9.530  1.00  0.00     0.036 C 
ATOM     28  C   UNL     1       9.575   2.515  -7.560  1.00  0.00     0.032 C 
ATOM     29  C   UNL     1       8.359   1.908  -8.284  1.00  0.00     0.114 C 
BRANCH  29  30
ATOM     30  O   UNL     1       8.656   0.579  -8.632  1.00  0.00    -0.393 OA
ATOM     31  H   UNL     1       8.417  -0.003  -7.851  1.00  0.00     0.210 HD
ENDBRANCH  29  30
ENDBRANCH   1  11
TORSDOF 6
ENDMDL
MODEL 4
REMARK VINA RESULT:    -4.331      3.178      8.608
REMARK INTER + INTRA:          -7.051
REMARK INTER:                  -5.831
REMARK INTRA:                  -1.220
REMARK UNBOUND:                -1.327
REMARK SMILES CC[C@@H](C=C[C@H](C)[C@@H]1CC[C@H]2C3=CC[C@H]4C[C@@H](O)CC[C@@]4(C)[C@@H]3CC[C@]21C)C(C)C
REMARK SMILES IDX 6 1 7 2 5 3 4 4 3 5 2 6 1 7 28 8 29 9 30 10 8 11 9 12 26 13
REMARK SMILES IDX 10 14 11 15 25 16 27 17 12 18 24 19 23 20 13 21 21 22 14 23
REMARK SMILES IDX 15 24 20 25 22 26 16 27 19 28 17 29 18 30
REMARK H PARENT 18 31
REMARK Flexibility Score: inf
ROOT
ATOM      1  C   UNL     1       9.112  12.344  -5.694  1.00  0.00     0.012 C 
ATOM      2  C   UNL     1       9.381  13.768  -6.245  1.00  0.00     0.012 C 
ENDROOT
BRANCH   1   3
ATOM      3  C   UNL     1       8.676  12.461  -4.237  1.00  0.00    -0.028 C 
ATOM      4  C   UNL     1       9.492  12.170  -3.210  1.00  0.00    -0.027 C 
BRANCH   4   5
ATOM      5  C   UNL     1       9.028  12.192  -1.764  1.00  0.00     0.014 C 
BRANCH   5   6
ATOM      6  C   UNL     1       7.476  12.071  -1.757  1.00  0.00     0.004 C 
ATOM      7  C   UNL     1       6.948  10.781  -1.083  1.00  0.00     0.004 C 
ENDBRANCH   5   6
BRANCH   5   8
ATOM      8  C   UNL     1       9.569  13.501  -1.083  1.00  0.00    -0.011 C 
ATOM      9  C   UNL     1       9.613  13.402   0.448  1.00  0.00     0.008 C 
ATOM     10  C   UNL     1      10.979  13.856  -1.599  1.00  0.00     0.008 C 
ENDBRANCH   5   8
ENDBRANCH   4   5
ENDBRANCH   1   3
BRANCH   1  11
ATOM     11  C   UNL     1       8.079  11.464  -6.496  1.00  0.00     0.002 C 
ATOM     12  C   UNL     1       7.264  10.607  -5.497  1.00  0.00     0.005 C 
ATOM     13  C   UNL     1       8.607  10.371  -7.502  1.00  0.00    -0.023 C 
ATOM     14  C   UNL     1       8.004   9.269  -5.376  1.00  0.00     0.009 C 
ATOM     15  C   UNL     1       8.969   9.192  -6.570  1.00  0.00     0.021 C 
ATOM     16  C   UNL     1       7.435  10.018  -8.506  1.00  0.00     0.008 C 
ATOM     17  C   UNL     1       9.830  10.773  -8.352  1.00  0.00     0.012 C 
ATOM     18  C   UNL     1       8.945   7.881  -7.334  1.00  0.00    -0.067 C 
ATOM     19  C   UNL     1       7.493   8.606  -9.146  1.00  0.00     0.009 C 
ATOM     20  C   UNL     1       7.669   7.536  -8.043  1.00  0.00     0.021 C 
ATOM     21  C   UNL     1      10.097   7.355  -7.776  1.00  0.00    -0.027 C 
ATOM     22  C   UNL     1       7.648   6.021  -8.473  1.00  0.00    -0.023 C 
ATOM     23  C   UNL     1      10.157   6.573  -9.058  1.00  0.00     0.031 C 
ATOM     24  C   UNL     1       8.932   5.649  -9.323  1.00  0.00     0.002 C 
ATOM     25  C   UNL     1       7.639   5.161  -7.172  1.00  0.00     0.010 C 
ATOM     26  C   UNL     1       6.318   5.731  -9.245  1.00  0.00     0.012 C 
ATOM     27  C   UNL     1       9.374   4.162  -9.176  1.00  0.00     0.036 C 
ATOM     28  C   UNL     1       7.675   3.640  -7.421  1.00  0.00     0.032 C 
ATOM     29  C   UNL     1       8.232   3.226  -8.795  1.00  0.00     0.114 C 
BRANCH  29  30
ATOM     30  O   UNL     1       8.688   1.898  -8.718  1.00  0.00    -0.393 OA
ATOM     31  H   UNL     1       9.223   1.807  -7.875  1.00  0.00     0.210 HD
ENDBRANCH  29  30
ENDBRANCH   1  11
TORSDOF 6
ENDMDL
MODEL 5
REMARK VINA RESULT:    -4.182      3.242      8.665
REMARK INTER + INTRA:          -6.854
REMARK INTER:                  -5.758
REMARK INTRA:                  -1.097
REMARK UNBOUND:                -1.327
REMARK SMILES CC[C@@H](C=C[C@H](C)[C@@H]1CC[C@H]2C3=CC[C@H]4C[C@@H](O)CC[C@@]4(C)[C@@H]3CC[C@]21C)C(C)C
REMARK SMILES IDX 6 1 7 2 5 3 4 4 3 5 2 6 1 7 28 8 29 9 30 10 8 11 9 12 26 13
REMARK SMILES IDX 10 14 11 15 25 16 27 17 12 18 24 19 23 20 13 21 21 22 14 23
REMARK SMILES IDX 15 24 20 25 22 26 16 27 19 28 17 29 18 30
REMARK H PARENT 18 31
REMARK Flexibility Score: inf
ROOT
ATOM      1  C   UNL     1       8.985  11.794  -5.643  1.00  0.00     0.012 C 
ATOM      2  C   UNL     1       9.684  13.054  -6.215  1.00  0.00     0.012 C 
ENDROOT
BRANCH   1   3
ATOM      3  C   UNL     1       8.243  12.186  -4.368  1.00  0.00    -0.028 C 
ATOM      4  C   UNL     1       8.667  11.828  -3.144  1.00  0.00    -0.027 C 
BRANCH   4   5
ATOM      5  C   UNL     1       7.877  12.133  -1.883  1.00  0.00     0.014 C 
BRANCH   5   6
ATOM      6  C   UNL     1       8.853  12.756  -0.844  1.00  0.00     0.004 C 
ATOM      7  C   UNL     1      10.180  13.269  -1.455  1.00  0.00     0.004 C 
ENDBRANCH   5   6
BRANCH   5   8
ATOM      8  C   UNL     1       7.183  10.810  -1.394  1.00  0.00    -0.011 C 
ATOM      9  C   UNL     1       6.754  10.871   0.079  1.00  0.00     0.008 C 
ATOM     10  C   UNL     1       5.949  10.475  -2.258  1.00  0.00     0.008 C 
ENDBRANCH   5   8
ENDBRANCH   4   5
ENDBRANCH   1   3
BRANCH   1  11
ATOM     11  C   UNL     1       8.011  11.027  -6.618  1.00  0.00     0.002 C 
ATOM     12  C   UNL     1       6.988  10.223  -5.779  1.00  0.00     0.005 C 
ATOM     13  C   UNL     1       8.589   9.916  -7.574  1.00  0.00    -0.023 C 
ATOM     14  C   UNL     1       7.587   8.823  -5.600  1.00  0.00     0.009 C 
ATOM     15  C   UNL     1       8.708   8.688  -6.643  1.00  0.00     0.021 C 
ATOM     16  C   UNL     1       7.552   9.692  -8.751  1.00  0.00     0.008 C 
ATOM     17  C   UNL     1       9.953  10.228  -8.223  1.00  0.00     0.012 C 
ATOM     18  C   UNL     1       8.687   7.402  -7.449  1.00  0.00    -0.067 C 
ATOM     19  C   UNL     1       7.585   8.295  -9.425  1.00  0.00     0.009 C 
ATOM     20  C   UNL     1       7.506   7.188  -8.348  1.00  0.00     0.021 C 
ATOM     21  C   UNL     1       9.844   6.787  -7.737  1.00  0.00    -0.027 C 
ATOM     22  C   UNL     1       7.421   5.691  -8.830  1.00  0.00    -0.023 C 
ATOM     23  C   UNL     1      10.027   6.033  -9.024  1.00  0.00     0.031 C 
ATOM     24  C   UNL     1       8.781   5.227  -9.497  1.00  0.00     0.002 C 
ATOM     25  C   UNL     1       7.148   4.806  -7.576  1.00  0.00     0.010 C 
ATOM     26  C   UNL     1       6.201   5.538  -9.797  1.00  0.00     0.012 C 
ATOM     27  C   UNL     1       9.070   3.704  -9.341  1.00  0.00     0.036 C 
ATOM     28  C   UNL     1       7.092   3.294  -7.872  1.00  0.00     0.032 C 
ATOM     29  C   UNL     1       7.810   2.864  -9.164  1.00  0.00     0.114 C 
BRANCH  29  30
ATOM     30  O   UNL     1       8.136   1.500  -9.069  1.00  0.00    -0.393 OA
ATOM     31  H   UNL     1       8.638   1.247  -9.900  1.00  0.00     0.210 HD
ENDBRANCH  29  30
ENDBRANCH   1  11
TORSDOF 6
ENDMDL
MODEL 6
REMARK VINA RESULT:    -4.098      2.791      3.659
REMARK INTER + INTRA:          -6.742
REMARK INTER:                  -5.476
REMARK INTRA:                  -1.266
REMARK UNBOUND:                -1.327
REMARK SMILES CC[C@@H](C=C[C@H](C)[C@@H]1CC[C@H]2C3=CC[C@H]4C[C@@H](O)CC[C@@]4(C)[C@@H]3CC[C@]21C)C(C)C
REMARK SMILES IDX 6 1 7 2 5 3 4 4 3 5 2 6 1 7 28 8 29 9 30 10 8 11 9 12 26 13
REMARK SMILES IDX 10 14 11 15 25 16 27 17 12 18 24 19 23 20 13 21 21 22 14 23
REMARK SMILES IDX 15 24 20 25 22 26 16 27 19 28 17 29 18 30
REMARK H PARENT 18 31
REMARK Flexibility Score: inf
ROOT
ATOM      1  C   UNL     1       6.217   6.326  -7.205  1.00  0.00     0.012 C 
ATOM      2  C   UNL     1       4.685   6.220  -6.992  1.00  0.00     0.012 C 
ENDROOT
BRANCH   1   3
ATOM      3  C   UNL     1       6.689   5.090  -7.963  1.00  0.00    -0.028 C 
ATOM      4  C   UNL     1       7.370   4.093  -7.373  1.00  0.00    -0.027 C 
BRANCH   4   5
ATOM      5  C   UNL     1       7.926   2.910  -8.147  1.00  0.00     0.014 C 
BRANCH   5   6
ATOM      6  C   UNL     1       9.441   2.788  -7.813  1.00  0.00     0.004 C 
ATOM      7  C   UNL     1       9.913   3.725  -6.675  1.00  0.00     0.004 C 
ENDBRANCH   5   6
BRANCH   5   8
ATOM      8  C   UNL     1       7.624   3.125  -9.675  1.00  0.00    -0.011 C 
ATOM      9  C   UNL     1       8.830   3.675 -10.449  1.00  0.00     0.008 C 
ATOM     10  C   UNL     1       7.161   1.813 -10.341  1.00  0.00     0.008 C 
ENDBRANCH   5   8
ENDBRANCH   4   5
ENDBRANCH   1   3
BRANCH   1  11
ATOM     11  C   UNL     1       6.737   7.630  -7.923  1.00  0.00     0.002 C 
ATOM     12  C   UNL     1       8.128   7.344  -8.540  1.00  0.00     0.005 C 
ATOM     13  C   UNL     1       7.022   8.924  -7.070  1.00  0.00    -0.023 C 
ATOM     14  C   UNL     1       9.159   7.758  -7.482  1.00  0.00     0.009 C 
ATOM     15  C   UNL     1       8.415   8.638  -6.465  1.00  0.00     0.021 C 
ATOM     16  C   UNL     1       7.025  10.168  -8.049  1.00  0.00     0.008 C 
ATOM     17  C   UNL     1       6.006   9.229  -5.950  1.00  0.00     0.012 C 
ATOM     18  C   UNL     1       9.116   9.934  -6.100  1.00  0.00    -0.067 C 
ATOM     19  C   UNL     1       7.859  11.392  -7.586  1.00  0.00     0.009 C 
ATOM     20  C   UNL     1       9.286  10.941  -7.198  1.00  0.00     0.021 C 
ATOM     21  C   UNL     1       9.098  10.356  -4.827  1.00  0.00    -0.027 C 
ATOM     22  C   UNL     1      10.329  12.051  -6.796  1.00  0.00    -0.023 C 
ATOM     23  C   UNL     1       9.073  11.820  -4.491  1.00  0.00     0.031 C 
ATOM     24  C   UNL     1       9.946  12.722  -5.413  1.00  0.00     0.002 C 
ATOM     25  C   UNL     1      11.720  11.362  -6.652  1.00  0.00     0.010 C 
ATOM     26  C   UNL     1      10.431  13.095  -7.956  1.00  0.00     0.012 C 
ATOM     27  C   UNL     1      11.173  13.241  -4.605  1.00  0.00     0.036 C 
ATOM     28  C   UNL     1      12.850  12.310  -6.205  1.00  0.00     0.032 C 
ATOM     29  C   UNL     1      12.374  13.582  -5.481  1.00  0.00     0.114 C 
BRANCH  29  30
ATOM     30  O   UNL     1      13.429  14.080  -4.697  1.00  0.00    -0.393 OA
ATOM     31  H   UNL     1      14.274  13.637  -5.004  1.00  0.00     0.210 HD
ENDBRANCH  29  30
ENDBRANCH   1  11
TORSDOF 6
ENDMDL
MODEL 7
REMARK VINA RESULT:    -4.012     16.080     19.715
REMARK INTER + INTRA:          -6.629
REMARK INTER:                  -5.583
REMARK INTRA:                  -1.046
REMARK UNBOUND:                -1.327
REMARK SMILES CC[C@@H](C=C[C@H](C)[C@@H]1CC[C@H]2C3=CC[C@H]4C[C@@H](O)CC[C@@]4(C)[C@@H]3CC[C@]21C)C(C)C
REMARK SMILES IDX 6 1 7 2 5 3 4 4 3 5 2 6 1 7 28 8 29 9 30 10 8 11 9 12 26 13
REMARK SMILES IDX 10 14 11 15 25 16 27 17 12 18 24 19 23 20 13 21 21 22 14 23
REMARK SMILES IDX 15 24 20 25 22 26 16 27 19 28 17 29 18 30
REMARK H PARENT 18 31
REMARK Flexibility Score: inf
ROOT
ATOM      1  C   UNL     1      21.442  -0.540   5.583  1.00  0.00     0.012 C 
ATOM      2  C   UNL     1      22.438  -1.106   6.628  1.00  0.00     0.012 C 
ENDROOT
BRANCH   1   3
ATOM      3  C   UNL     1      20.228   0.017   6.320  1.00  0.00    -0.028 C 
ATOM      4  C   UNL     1      20.334   0.875   7.349  1.00  0.00    -0.027 C 
BRANCH   4   5
ATOM      5  C   UNL     1      19.132   1.352   8.144  1.00  0.00     0.014 C 
BRANCH   5   6
ATOM      6  C   UNL     1      17.859   0.707   7.523  1.00  0.00     0.004 C 
ATOM      7  C   UNL     1      17.147  -0.303   8.454  1.00  0.00     0.004 C 
ENDBRANCH   5   6
BRANCH   5   8
ATOM      8  C   UNL     1      19.118   2.924   8.139  1.00  0.00    -0.011 C 
ATOM      9  C   UNL     1      20.242   3.528   7.285  1.00  0.00     0.008 C 
ATOM     10  C   UNL     1      17.765   3.469   7.637  1.00  0.00     0.008 C 
ENDBRANCH   5   8
ENDBRANCH   4   5
ENDBRANCH   1   3
BRANCH   1  11
ATOM     11  C   UNL     1      22.009   0.542   4.586  1.00  0.00     0.002 C 
ATOM     12  C   UNL     1      20.844   1.435   4.095  1.00  0.00     0.005 C 
ATOM     13  C   UNL     1      22.656   0.079   3.226  1.00  0.00    -0.023 C 
ATOM     14  C   UNL     1      20.334   0.798   2.797  1.00  0.00     0.009 C 
ATOM     15  C   UNL     1      21.424  -0.178   2.328  1.00  0.00     0.021 C 
ATOM     16  C   UNL     1      23.568   1.257   2.688  1.00  0.00     0.008 C 
ATOM     17  C   UNL     1      23.539  -1.184   3.295  1.00  0.00     0.012 C 
ATOM     18  C   UNL     1      21.800  -0.070   0.862  1.00  0.00    -0.067 C 
ATOM     19  C   UNL     1      23.793   1.293   1.154  1.00  0.00     0.009 C 
ATOM     20  C   UNL     1      22.433   1.216   0.420  1.00  0.00     0.021 C 
ATOM     21  C   UNL     1      22.037  -1.187   0.159  1.00  0.00    -0.027 C 
ATOM     22  C   UNL     1      22.431   1.342  -1.149  1.00  0.00    -0.023 C 
ATOM     23  C   UNL     1      23.053  -1.211  -0.949  1.00  0.00     0.031 C 
ATOM     24  C   UNL     1      23.099   0.074  -1.826  1.00  0.00     0.002 C 
ATOM     25  C   UNL     1      20.946   1.436  -1.614  1.00  0.00     0.010 C 
ATOM     26  C   UNL     1      23.142   2.676  -1.552  1.00  0.00     0.012 C 
ATOM     27  C   UNL     1      22.533  -0.254  -3.241  1.00  0.00     0.036 C 
ATOM     28  C   UNL     1      20.767   1.509  -3.143  1.00  0.00     0.032 C 
ATOM     29  C   UNL     1      21.953   0.961  -3.957  1.00  0.00     0.114 C 
BRANCH  29  30
ATOM     30  O   UNL     1      21.498   0.606  -5.239  1.00  0.00    -0.393 OA
ATOM     31  H   UNL     1      22.289   0.605  -5.855  1.00  0.00     0.210 HD
ENDBRANCH  29  30
ENDBRANCH   1  11
TORSDOF 6
ENDMDL
MODEL 8
REMARK VINA RESULT:    -3.990      4.802      6.345
REMARK INTER + INTRA:          -6.600
REMARK INTER:                  -5.513
REMARK INTRA:                  -1.087
REMARK UNBOUND:                -1.327
REMARK SMILES CC[C@@H](C=C[C@H](C)[C@@H]1CC[C@H]2C3=CC[C@H]4C[C@@H](O)CC[C@@]4(C)[C@@H]3CC[C@]21C)C(C)C
REMARK SMILES IDX 6 1 7 2 5 3 4 4 3 5 2 6 1 7 28 8 29 9 30 10 8 11 9 12 26 13
REMARK SMILES IDX 10 14 11 15 25 16 27 17 12 18 24 19 23 20 13 21 21 22 14 23
REMARK SMILES IDX 15 24 20 25 22 26 16 27 19 28 17 29 18 30
REMARK H PARENT 18 31
REMARK Flexibility Score: inf
ROOT
ATOM      1  C   UNL     1       7.844   8.561  -7.179  1.00  0.00     0.012 C 
ATOM      2  C   UNL     1       6.315   8.800  -7.083  1.00  0.00     0.012 C 
ENDROOT
BRANCH   1   3
ATOM      3  C   UNL     1       8.093   7.066  -7.353  1.00  0.00    -0.028 C 
ATOM      4  C   UNL     1       7.103   6.189  -7.593  1.00  0.00    -0.027 C 
BRANCH   4   5
ATOM      5  C   UNL     1       7.338   4.691  -7.668  1.00  0.00     0.014 C 
BRANCH   5   6
ATOM      6  C   UNL     1       6.892   4.067  -6.314  1.00  0.00     0.004 C 
ATOM      7  C   UNL     1       5.557   3.287  -6.389  1.00  0.00     0.004 C 
ENDBRANCH   5   6
BRANCH   5   8
ATOM      8  C   UNL     1       8.848   4.437  -8.021  1.00  0.00    -0.011 C 
ATOM      9  C   UNL     1       9.587   3.636  -6.939  1.00  0.00     0.008 C 
ATOM     10  C   UNL     1       8.990   3.700  -9.369  1.00  0.00     0.008 C 
ENDBRANCH   5   8
ENDBRANCH   4   5
ENDBRANCH   1   3
BRANCH   1  11
ATOM     11  C   UNL     1       8.612   9.368  -8.296  1.00  0.00     0.002 C 
ATOM     12  C   UNL     1       9.701   8.458  -8.916  1.00  0.00     0.005 C 
ATOM     13  C   UNL     1       9.447  10.642  -7.894  1.00  0.00    -0.023 C 
ATOM     14  C   UNL     1      10.986   8.724  -8.122  1.00  0.00     0.009 C 
ATOM     15  C   UNL     1      10.763  10.037  -7.353  1.00  0.00     0.021 C 
ATOM     16  C   UNL     1       9.668  11.516  -9.197  1.00  0.00     0.008 C 
ATOM     17  C   UNL     1       8.807  11.561  -6.833  1.00  0.00     0.012 C 
ATOM     18  C   UNL     1      11.895  11.042  -7.453  1.00  0.00    -0.067 C 
ATOM     19  C   UNL     1      10.919  12.434  -9.192  1.00  0.00     0.009 C 
ATOM     20  C   UNL     1      12.173  11.613  -8.811  1.00  0.00     0.021 C 
ATOM     21  C   UNL     1      12.248  11.746  -6.366  1.00  0.00    -0.027 C 
ATOM     22  C   UNL     1      13.571  12.337  -8.849  1.00  0.00    -0.023 C 
ATOM     23  C   UNL     1      12.755  13.156  -6.481  1.00  0.00     0.031 C 
ATOM     24  C   UNL     1      13.684  13.423  -7.701  1.00  0.00     0.002 C 
ATOM     25  C   UNL     1      14.670  11.255  -8.626  1.00  0.00     0.010 C 
ATOM     26  C   UNL     1      13.787  12.950 -10.272  1.00  0.00     0.012 C 
ATOM     27  C   UNL     1      15.139  13.652  -7.193  1.00  0.00     0.036 C 
ATOM     28  C   UNL     1      16.106  11.814  -8.580  1.00  0.00     0.032 C 
ATOM     29  C   UNL     1      16.203  13.310  -8.230  1.00  0.00     0.114 C 
BRANCH  29  30
ATOM     30  O   UNL     1      17.488  13.575  -7.724  1.00  0.00    -0.393 OA
ATOM     31  H   UNL     1      17.961  14.165  -8.382  1.00  0.00     0.210 HD
ENDBRANCH  29  30
ENDBRANCH   1  11
TORSDOF 6
ENDMDL
MODEL 9
REMARK VINA RESULT:    -3.899      3.057      8.532
REMARK INTER + INTRA:          -6.480
REMARK INTER:                  -5.332
REMARK INTRA:                  -1.147
REMARK UNBOUND:                -1.327
REMARK SMILES CC[C@@H](C=C[C@H](C)[C@@H]1CC[C@H]2C3=CC[C@H]4C[C@@H](O)CC[C@@]4(C)[C@@H]3CC[C@]21C)C(C)C
REMARK SMILES IDX 6 1 7 2 5 3 4 4 3 5 2 6 1 7 28 8 29 9 30 10 8 11 9 12 26 13
REMARK SMILES IDX 10 14 11 15 25 16 27 17 12 18 24 19 23 20 13 21 21 22 14 23
REMARK SMILES IDX 15 24 20 25 22 26 16 27 19 28 17 29 18 30
REMARK H PARENT 18 31
REMARK Flexibility Score: inf
ROOT
ATOM      1  C   UNL     1       5.495  11.100  -4.252  1.00  0.00     0.012 C 
ATOM      2  C   UNL     1       4.086  11.602  -3.843  1.00  0.00     0.012 C 
ENDROOT
BRANCH   1   3
ATOM      3  C   UNL     1       6.538  11.878  -3.455  1.00  0.00    -0.028 C 
ATOM      4  C   UNL     1       6.354  12.232  -2.172  1.00  0.00    -0.027 C 
BRANCH   4   5
ATOM      5  C   UNL     1       7.349  13.090  -1.410  1.00  0.00     0.014 C 
BRANCH   5   6
ATOM      6  C   UNL     1       8.612  13.266  -2.301  1.00  0.00     0.004 C 
ATOM      7  C   UNL     1       9.871  12.547  -1.759  1.00  0.00     0.004 C 
ENDBRANCH   5   6
BRANCH   5   8
ATOM      8  C   UNL     1       7.637  12.410  -0.022  1.00  0.00    -0.011 C 
ATOM      9  C   UNL     1       7.266  13.306   1.169  1.00  0.00     0.008 C 
ATOM     10  C   UNL     1       6.884  11.071   0.111  1.00  0.00     0.008 C 
ENDBRANCH   5   8
ENDBRANCH   4   5
ENDBRANCH   1   3
BRANCH   1  11
ATOM     11  C   UNL     1       5.757   9.551  -4.114  1.00  0.00     0.002 C 
ATOM     12  C   UNL     1       7.276   9.311  -3.943  1.00  0.00     0.005 C 
ATOM     13  C   UNL     1       5.412   8.597  -5.320  1.00  0.00    -0.023 C 
ATOM     14  C   UNL     1       7.834   9.076  -5.353  1.00  0.00     0.009 C 
ATOM     15  C   UNL     1       6.629   8.772  -6.257  1.00  0.00     0.021 C 
ATOM     16  C   UNL     1       5.282   7.122  -4.758  1.00  0.00     0.008 C 
ATOM     17  C   UNL     1       4.106   8.912  -6.077  1.00  0.00     0.012 C 
ATOM     18  C   UNL     1       6.788   7.562  -7.159  1.00  0.00    -0.067 C 
ATOM     19  C   UNL     1       5.561   5.983  -5.775  1.00  0.00     0.009 C 
ATOM     20  C   UNL     1       6.913   6.229  -6.483  1.00  0.00     0.021 C 
ATOM     21  C   UNL     1       6.326   7.613  -8.417  1.00  0.00    -0.027 C 
ATOM     22  C   UNL     1       7.435   5.130  -7.484  1.00  0.00    -0.023 C 
ATOM     23  C   UNL     1       5.774   6.391  -9.096  1.00  0.00     0.031 C 
ATOM     24  C   UNL     1       6.533   5.067  -8.785  1.00  0.00     0.002 C 
ATOM     25  C   UNL     1       8.887   5.519  -7.897  1.00  0.00     0.010 C 
ATOM     26  C   UNL     1       7.502   3.757  -6.739  1.00  0.00     0.012 C 
ATOM     27  C   UNL     1       7.302   4.610 -10.061  1.00  0.00     0.036 C 
ATOM     28  C   UNL     1       9.526   4.565  -8.926  1.00  0.00     0.032 C 
ATOM     29  C   UNL     1       8.521   3.746  -9.756  1.00  0.00     0.114 C 
BRANCH  29  30
ATOM     30  O   UNL     1       9.145   3.335 -10.947  1.00  0.00    -0.393 OA
ATOM     31  H   UNL     1       8.986   2.351 -11.052  1.00  0.00     0.210 HD
ENDBRANCH  29  30
ENDBRANCH   1  11
TORSDOF 6
ENDMDL
