MODEL 1
REMARK VINA RESULT:    -2.630      0.000      0.000
REMARK INTER + INTRA:          -3.304
REMARK INTER:                  -3.246
REMARK INTRA:                  -0.058
REMARK UNBOUND:                -0.058
REMARK SMILES CCCCCC(=O)[O-]
REMARK SMILES IDX 4 1 5 2 6 3 7 4 8 5 3 6 2 7 1 8
REMARK H PARENT
REMARK Flexibility Score: inf
ROOT
ATOM      1  C   UNL     1     -28.193   8.200  -3.863  1.00  0.00     0.006 C 
ENDROOT
BRANCH   1   2
ATOM      2  C   UNL     1     -27.671   8.189  -2.420  1.00  0.00     0.053 C 
BRANCH   2   3
ATOM      3  C   UNL     1     -28.671   7.598  -1.474  1.00  0.00     0.041 C 
ATOM      4  O   UNL     1     -29.718   7.054  -1.915  1.00  0.00    -0.550 OA
ATOM      5  O   UNL     1     -28.462   7.677  -0.103  1.00  0.00    -0.550 OA
ENDBRANCH   2   3
ENDBRANCH   1   2
BRANCH   1   6
ATOM      6  C   UNL     1     -27.088   7.877  -4.882  1.00  0.00     0.000 C 
BRANCH   6   7
ATOM      7  C   UNL     1     -27.027   8.899  -6.029  1.00  0.00    -0.003 C 
ATOM      8  C   UNL     1     -26.006   8.520  -7.102  1.00  0.00     0.004 C 
ENDBRANCH   6   7
ENDBRANCH   1   6
TORSDOF 4
ENDMDL
MODEL 2
REMARK VINA RESULT:    -2.612      0.371      1.201
REMARK INTER + INTRA:          -3.281
REMARK INTER:                  -3.217
REMARK INTRA:                  -0.063
REMARK UNBOUND:                -0.058
REMARK SMILES CCCCCC(=O)[O-]
REMARK SMILES IDX 4 1 5 2 6 3 7 4 8 5 3 6 2 7 1 8
REMARK H PARENT
REMARK Flexibility Score: inf
ROOT
ATOM      1  C   UNL     1     -28.100   8.309  -4.144  1.00  0.00     0.006 C 
ENDROOT
BRANCH   1   2
ATOM      2  C   UNL     1     -27.484   8.227  -2.741  1.00  0.00     0.053 C 
BRANCH   2   3
ATOM      3  C   UNL     1     -28.474   7.735  -1.730  1.00  0.00     0.041 C 
ATOM      4  O   UNL     1     -28.226   7.834  -0.499  1.00  0.00    -0.550 OA
ATOM      5  O   UNL     1     -29.655   7.136  -2.149  1.00  0.00    -0.550 OA
ENDBRANCH   2   3
ENDBRANCH   1   2
BRANCH   1   6
ATOM      6  C   UNL     1     -27.111   7.875  -5.239  1.00  0.00     0.000 C 
BRANCH   6   7
ATOM      7  C   UNL     1     -26.772   9.014  -6.213  1.00  0.00    -0.003 C 
ATOM      8  C   UNL     1     -25.592   8.679  -7.125  1.00  0.00     0.004 C 
ENDBRANCH   6   7
ENDBRANCH   1   6
TORSDOF 4
ENDMDL
MODEL 3
REMARK VINA RESULT:    -1.994      1.146      2.012
REMARK INTER + INTRA:          -2.518
REMARK INTER:                  -2.469
REMARK INTRA:                  -0.050
REMARK UNBOUND:                -0.058
REMARK SMILES CCCCCC(=O)[O-]
REMARK SMILES IDX 4 1 5 2 6 3 7 4 8 5 3 6 2 7 1 8
REMARK H PARENT
REMARK Flexibility Score: inf
ROOT
ATOM      1  C   UNL     1     -28.234   7.890  -2.263  1.00  0.00     0.006 C 
ENDROOT
BRANCH   1   2
ATOM      2  C   UNL     1     -29.512   7.131  -1.882  1.00  0.00     0.053 C 
BRANCH   2   3
ATOM      3  C   UNL     1     -29.776   7.196  -0.409  1.00  0.00     0.041 C 
ATOM      4  O   UNL     1     -28.846   7.481   0.391  1.00  0.00    -0.550 OA
ATOM      5  O   UNL     1     -31.044   6.907   0.083  1.00  0.00    -0.550 OA
ENDBRANCH   2   3
ENDBRANCH   1   2
BRANCH   1   6
ATOM      6  C   UNL     1     -28.298   8.454  -3.692  1.00  0.00     0.000 C 
BRANCH   6   7
ATOM      7  C   UNL     1     -27.192   7.890  -4.598  1.00  0.00    -0.003 C 
ATOM      8  C   UNL     1     -27.010   8.702  -5.881  1.00  0.00     0.004 C 
ENDBRANCH   6   7
ENDBRANCH   1   6
TORSDOF 4
ENDMDL
MODEL 4
REMARK VINA RESULT:    -1.956      2.365      3.488
REMARK INTER + INTRA:          -2.471
REMARK INTER:                  -2.338
REMARK INTRA:                  -0.134
REMARK UNBOUND:                -0.058
REMARK SMILES CCCCCC(=O)[O-]
REMARK SMILES IDX 4 1 5 2 6 3 7 4 8 5 3 6 2 7 1 8
REMARK H PARENT
REMARK Flexibility Score: inf
ROOT
ATOM      1  C   UNL     1     -29.868   7.109  -1.833  1.00  0.00     0.006 C 
ENDROOT
BRANCH   1   2
ATOM      2  C   UNL     1     -30.631   6.271  -0.798  1.00  0.00     0.053 C 
BRANCH   2   3
ATOM      3  C   UNL     1     -31.216   7.127   0.284  1.00  0.00     0.041 C 
ATOM      4  O   UNL     1     -32.202   7.871   0.041  1.00  0.00    -0.550 OA
ATOM      5  O   UNL     1     -30.648   7.127   1.552  1.00  0.00    -0.550 OA
ENDBRANCH   2   3
ENDBRANCH   1   2
BRANCH   1   6
ATOM      6  C   UNL     1     -28.553   7.672  -1.269  1.00  0.00     0.000 C 
BRANCH   6   7
ATOM      7  C   UNL     1     -27.567   8.084  -2.373  1.00  0.00    -0.003 C 
ATOM      8  C   UNL     1     -28.227   8.179  -3.748  1.00  0.00     0.004 C 
ENDBRANCH   6   7
ENDBRANCH   1   6
TORSDOF 4
ENDMDL
MODEL 5
REMARK VINA RESULT:    -1.493      3.063      5.587
REMARK INTER + INTRA:          -1.900
REMARK INTER:                  -1.713
REMARK INTRA:                  -0.187
REMARK UNBOUND:                -0.058
REMARK SMILES CCCCCC(=O)[O-]
REMARK SMILES IDX 4 1 5 2 6 3 7 4 8 5 3 6 2 7 1 8
REMARK H PARENT
REMARK Flexibility Score: inf
ROOT
ATOM      1  C   UNL     1     -30.283   6.516  -0.869  1.00  0.00     0.006 C 
ENDROOT
BRANCH   1   2
ATOM      2  C   UNL     1     -29.697   7.128  -2.148  1.00  0.00     0.053 C 
BRANCH   2   3
ATOM      3  C   UNL     1     -28.347   7.730  -1.906  1.00  0.00     0.041 C 
ATOM      4  O   UNL     1     -27.954   7.956  -0.731  1.00  0.00    -0.550 OA
ATOM      5  O   UNL     1     -27.536   8.072  -2.981  1.00  0.00    -0.550 OA
ENDBRANCH   2   3
ENDBRANCH   1   2
BRANCH   1   6
ATOM      6  C   UNL     1     -31.591   7.203  -0.443  1.00  0.00     0.000 C 
BRANCH   6   7
ATOM      7  C   UNL     1     -31.627   7.522   1.060  1.00  0.00    -0.003 C 
ATOM      8  C   UNL     1     -30.337   7.124   1.778  1.00  0.00     0.004 C 
ENDBRANCH   6   7
ENDBRANCH   1   6
TORSDOF 4
ENDMDL
MODEL 6
REMARK VINA RESULT:    -1.352      2.636      5.192
REMARK INTER + INTRA:          -1.726
REMARK INTER:                  -1.615
REMARK INTRA:                  -0.111
REMARK UNBOUND:                -0.058
REMARK SMILES CCCCCC(=O)[O-]
REMARK SMILES IDX 4 1 5 2 6 3 7 4 8 5 3 6 2 7 1 8
REMARK H PARENT
REMARK Flexibility Score: inf
ROOT
ATOM      1  C   UNL     1     -28.008   7.832  -1.002  1.00  0.00     0.006 C 
ENDROOT
BRANCH   1   2
ATOM      2  C   UNL     1     -28.721   7.835  -2.361  1.00  0.00     0.053 C 
BRANCH   2   3
ATOM      3  C   UNL     1     -27.767   8.092  -3.486  1.00  0.00     0.041 C 
ATOM      4  O   UNL     1     -26.556   7.761  -3.380  1.00  0.00    -0.550 OA
ATOM      5  O   UNL     1     -28.208   8.728  -4.640  1.00  0.00    -0.550 OA
ENDBRANCH   2   3
ENDBRANCH   1   2
BRANCH   1   6
ATOM      6  C   UNL     1     -28.949   7.426   0.145  1.00  0.00     0.000 C 
BRANCH   6   7
ATOM      7  C   UNL     1     -30.294   6.882  -0.360  1.00  0.00    -0.003 C 
ATOM      8  C   UNL     1     -31.446   7.171   0.603  1.00  0.00     0.004 C 
ENDBRANCH   6   7
ENDBRANCH   1   6
TORSDOF 4
ENDMDL
MODEL 7
REMARK VINA RESULT:    -1.312      3.073      4.862
REMARK INTER + INTRA:          -1.677
REMARK INTER:                  -1.607
REMARK INTRA:                  -0.070
REMARK UNBOUND:                -0.058
REMARK SMILES CCCCCC(=O)[O-]
REMARK SMILES IDX 4 1 5 2 6 3 7 4 8 5 3 6 2 7 1 8
REMARK H PARENT
REMARK Flexibility Score: inf
ROOT
ATOM      1  C   UNL     1     -27.296   7.945  -3.359  1.00  0.00     0.006 C 
ENDROOT
BRANCH   1   2
ATOM      2  C   UNL     1     -27.982   8.463  -4.630  1.00  0.00     0.053 C 
BRANCH   2   3
ATOM      3  C   UNL     1     -27.011   8.618  -5.759  1.00  0.00     0.041 C 
ATOM      4  O   UNL     1     -27.416   8.960  -6.902  1.00  0.00    -0.550 OA
ATOM      5  O   UNL     1     -25.662   8.352  -5.558  1.00  0.00    -0.550 OA
ENDBRANCH   2   3
ENDBRANCH   1   2
BRANCH   1   6
ATOM      6  C   UNL     1     -28.230   7.984  -2.138  1.00  0.00     0.000 C 
BRANCH   6   7
ATOM      7  C   UNL     1     -29.515   7.169  -2.352  1.00  0.00    -0.003 C 
ATOM      8  C   UNL     1     -30.207   6.803  -1.039  1.00  0.00     0.004 C 
ENDBRANCH   6   7
ENDBRANCH   1   6
TORSDOF 4
ENDMDL
MODEL 8
REMARK VINA RESULT:    -0.816      3.337      4.429
REMARK INTER + INTRA:          -1.065
REMARK INTER:                  -0.909
REMARK INTRA:                  -0.156
REMARK UNBOUND:                -0.058
REMARK SMILES CCCCCC(=O)[O-]
REMARK SMILES IDX 4 1 5 2 6 3 7 4 8 5 3 6 2 7 1 8
REMARK H PARENT
REMARK Flexibility Score: inf
ROOT
ATOM      1  C   UNL     1     -30.239   6.522  -1.102  1.00  0.00     0.006 C 
ENDROOT
BRANCH   1   2
ATOM      2  C   UNL     1     -31.583   7.186  -0.775  1.00  0.00     0.053 C 
BRANCH   2   3
ATOM      3  C   UNL     1     -31.689   7.535   0.678  1.00  0.00     0.041 C 
ATOM      4  O   UNL     1     -32.606   8.299   1.082  1.00  0.00    -0.550 OA
ATOM      5  O   UNL     1     -30.754   7.044   1.581  1.00  0.00    -0.550 OA
ENDBRANCH   2   3
ENDBRANCH   1   2
BRANCH   1   6
ATOM      6  C   UNL     1     -29.537   7.190  -2.297  1.00  0.00     0.000 C 
BRANCH   6   7
ATOM      7  C   UNL     1     -28.226   7.885  -1.897  1.00  0.00    -0.003 C 
ATOM      8  C   UNL     1     -28.003   7.896  -0.385  1.00  0.00     0.004 C 
ENDBRANCH   6   7
ENDBRANCH   1   6
TORSDOF 4
ENDMDL
