MODEL 1
REMARK VINA RESULT:    -5.522      0.000      0.000
REMARK INTER + INTRA:          -5.522
REMARK INTER:                  -5.522
REMARK INTRA:                   0.000
REMARK UNBOUND:                 0.000
REMARK SMILES CC(C)=C1CC[C@@H](C)CC1=O
REMARK SMILES IDX 8 1 7 2 6 3 5 4 4 5 2 6 1 7 3 8 10 9 11 10 9 11
REMARK H PARENT
REMARK Flexibility Score: inf
ROOT
ATOM      1  C   UNL     1      19.545   3.240  18.589  1.00  0.00     0.008 C 
ATOM      2  C   UNL     1      19.173   2.354  19.782  1.00  0.00    -0.006 C 
ATOM      3  C   UNL     1      19.811   2.889  21.073  1.00  0.00     0.008 C 
ATOM      4  C   UNL     1      19.367   2.073  22.295  1.00  0.00     0.039 C 
ATOM      5  C   UNL     1      19.586   0.578  22.111  1.00  0.00    -0.006 C 
ATOM      6  C   UNL     1      19.881  -0.231  23.170  1.00  0.00    -0.070 C 
ATOM      7  C   UNL     1      19.983   0.320  24.574  1.00  0.00     0.039 C 
ATOM      8  C   UNL     1      20.157  -1.706  22.991  1.00  0.00     0.039 C 
ATOM      9  C   UNL     1      19.347   0.045  20.737  1.00  0.00     0.159 C 
ATOM     10  O   UNL     1      18.909  -1.123  20.554  1.00  0.00    -0.295 OA
ATOM     11  C   UNL     1      19.621   0.905  19.537  1.00  0.00     0.084 C 
ENDROOT
TORSDOF 0
ENDMDL
MODEL 2
REMARK VINA RESULT:    -5.407      1.761      2.841
REMARK INTER + INTRA:          -5.407
REMARK INTER:                  -5.407
REMARK INTRA:                   0.000
REMARK UNBOUND:                 0.000
REMARK SMILES CC(C)=C1CC[C@@H](C)CC1=O
REMARK SMILES IDX 8 1 7 2 6 3 5 4 4 5 2 6 1 7 3 8 10 9 11 10 9 11
REMARK H PARENT
REMARK Flexibility Score: inf
ROOT
ATOM      1  C   UNL     1      18.569   4.551  17.881  1.00  0.00     0.008 C 
ATOM      2  C   UNL     1      19.270   3.464  18.703  1.00  0.00    -0.006 C 
ATOM      3  C   UNL     1      18.714   2.076  18.350  1.00  0.00     0.008 C 
ATOM      4  C   UNL     1      19.475   0.967  19.090  1.00  0.00     0.039 C 
ATOM      5  C   UNL     1      19.541   1.205  20.592  1.00  0.00    -0.006 C 
ATOM      6  C   UNL     1      19.561   0.164  21.475  1.00  0.00    -0.070 C 
ATOM      7  C   UNL     1      19.537  -1.270  20.997  1.00  0.00     0.039 C 
ATOM      8  C   UNL     1      19.569   0.388  22.969  1.00  0.00     0.039 C 
ATOM      9  C   UNL     1      19.698   2.626  21.024  1.00  0.00     0.159 C 
ATOM     10  O   UNL     1      20.336   2.926  22.068  1.00  0.00    -0.295 OA
ATOM     11  C   UNL     1      19.097   3.732  20.205  1.00  0.00     0.084 C 
ENDROOT
TORSDOF 0
ENDMDL
MODEL 3
REMARK VINA RESULT:    -5.084      1.701      4.459
REMARK INTER + INTRA:          -5.084
REMARK INTER:                  -5.084
REMARK INTRA:                   0.000
REMARK UNBOUND:                 0.000
REMARK SMILES CC(C)=C1CC[C@@H](C)CC1=O
REMARK SMILES IDX 8 1 7 2 6 3 5 4 4 5 2 6 1 7 3 8 10 9 11 10 9 11
REMARK H PARENT
REMARK Flexibility Score: inf
ROOT
ATOM      1  C   UNL     1      20.134  -3.125  22.871  1.00  0.00     0.008 C 
ATOM      2  C   UNL     1      19.585  -1.714  22.632  1.00  0.00    -0.006 C 
ATOM      3  C   UNL     1      19.942  -1.227  21.219  1.00  0.00     0.008 C 
ATOM      4  C   UNL     1      19.313   0.142  20.926  1.00  0.00     0.039 C 
ATOM      5  C   UNL     1      19.634   1.174  21.998  1.00  0.00    -0.006 C 
ATOM      6  C   UNL     1      19.761   2.498  21.692  1.00  0.00    -0.070 C 
ATOM      7  C   UNL     1      19.570   2.999  20.278  1.00  0.00     0.039 C 
ATOM      8  C   UNL     1      20.135   3.524  22.737  1.00  0.00     0.039 C 
ATOM      9  C   UNL     1      19.684   0.667  23.401  1.00  0.00     0.159 C 
ATOM     10  O   UNL     1      19.343   1.394  24.373  1.00  0.00    -0.295 OA
ATOM     11  C   UNL     1      20.139  -0.737  23.679  1.00  0.00     0.084 C 
ENDROOT
TORSDOF 0
ENDMDL
MODEL 4
REMARK VINA RESULT:    -5.067      1.134      4.056
REMARK INTER + INTRA:          -5.067
REMARK INTER:                  -5.067
REMARK INTRA:                   0.000
REMARK UNBOUND:                 0.000
REMARK SMILES CC(C)=C1CC[C@@H](C)CC1=O
REMARK SMILES IDX 8 1 7 2 6 3 5 4 4 5 2 6 1 7 3 8 10 9 11 10 9 11
REMARK H PARENT
REMARK Flexibility Score: inf
ROOT
ATOM      1  C   UNL     1      18.884   0.575  25.125  1.00  0.00     0.008 C 
ATOM      2  C   UNL     1      19.469   0.960  23.762  1.00  0.00    -0.006 C 
ATOM      3  C   UNL     1      19.141   2.423  23.427  1.00  0.00     0.008 C 
ATOM      4  C   UNL     1      19.805   2.857  22.113  1.00  0.00     0.039 C 
ATOM      5  C   UNL     1      19.496   1.910  20.961  1.00  0.00    -0.006 C 
ATOM      6  C   UNL     1      19.404   2.362  19.677  1.00  0.00    -0.070 C 
ATOM      7  C   UNL     1      19.623   3.819  19.340  1.00  0.00     0.039 C 
ATOM      8  C   UNL     1      19.041   1.442  18.534  1.00  0.00     0.039 C 
ATOM      9  C   UNL     1      19.416   0.460  21.309  1.00  0.00     0.159 C 
ATOM     10  O   UNL     1      19.762  -0.430  20.486  1.00  0.00    -0.295 OA
ATOM     11  C   UNL     1      18.925   0.036  22.663  1.00  0.00     0.084 C 
ENDROOT
TORSDOF 0
ENDMDL
MODEL 5
REMARK VINA RESULT:    -4.928      1.928      3.517
REMARK INTER + INTRA:          -4.928
REMARK INTER:                  -4.928
REMARK INTRA:                   0.000
REMARK UNBOUND:                 0.000
REMARK SMILES CC(C)=C1CC[C@@H](C)CC1=O
REMARK SMILES IDX 8 1 7 2 6 3 5 4 4 5 2 6 1 7 3 8 10 9 11 10 9 11
REMARK H PARENT
REMARK Flexibility Score: inf
ROOT
ATOM      1  C   UNL     1      20.900   4.337  24.854  1.00  0.00     0.008 C 
ATOM      2  C   UNL     1      20.189   3.082  24.339  1.00  0.00    -0.006 C 
ATOM      3  C   UNL     1      20.919   1.814  24.810  1.00  0.00     0.008 C 
ATOM      4  C   UNL     1      20.163   0.546  24.389  1.00  0.00     0.039 C 
ATOM      5  C   UNL     1      19.848   0.521  22.900  1.00  0.00    -0.006 C 
ATOM      6  C   UNL     1      19.792  -0.654  22.207  1.00  0.00    -0.070 C 
ATOM      7  C   UNL     1      20.023  -1.981  22.893  1.00  0.00     0.039 C 
ATOM      8  C   UNL     1      19.537  -0.688  20.718  1.00  0.00     0.039 C 
ATOM      9  C   UNL     1      19.495   1.833  22.282  1.00  0.00     0.159 C 
ATOM     10  O   UNL     1      18.681   1.908  21.323  1.00  0.00    -0.295 OA
ATOM     11  C   UNL     1      20.106   3.101  22.806  1.00  0.00     0.084 C 
ENDROOT
TORSDOF 0
ENDMDL
MODEL 6
REMARK VINA RESULT:    -4.885      1.497      2.404
REMARK INTER + INTRA:          -4.885
REMARK INTER:                  -4.885
REMARK INTRA:                   0.000
REMARK UNBOUND:                 0.000
REMARK SMILES CC(C)=C1CC[C@@H](C)CC1=O
REMARK SMILES IDX 8 1 7 2 6 3 5 4 4 5 2 6 1 7 3 8 10 9 11 10 9 11
REMARK H PARENT
REMARK Flexibility Score: inf
ROOT
ATOM      1  C   UNL     1      18.715   3.042  18.218  1.00  0.00     0.008 C 
ATOM      2  C   UNL     1      19.402   2.261  19.343  1.00  0.00    -0.006 C 
ATOM      3  C   UNL     1      18.995   0.780  19.300  1.00  0.00     0.008 C 
ATOM      4  C   UNL     1      19.752  -0.038  20.355  1.00  0.00     0.039 C 
ATOM      5  C   UNL     1      19.636   0.560  21.751  1.00  0.00    -0.006 C 
ATOM      6  C   UNL     1      19.639  -0.231  22.864  1.00  0.00    -0.070 C 
ATOM      7  C   UNL     1      19.775  -1.733  22.758  1.00  0.00     0.039 C 
ATOM      8  C   UNL     1      19.467   0.346  24.250  1.00  0.00     0.039 C 
ATOM      9  C   UNL     1      19.637   2.051  21.827  1.00  0.00     0.159 C 
ATOM     10  O   UNL     1      20.133   2.656  22.815  1.00  0.00    -0.295 OA
ATOM     11  C   UNL     1      19.046   2.863  20.710  1.00  0.00     0.084 C 
ENDROOT
TORSDOF 0
ENDMDL
MODEL 7
REMARK VINA RESULT:    -4.807      1.228      1.599
REMARK INTER + INTRA:          -4.807
REMARK INTER:                  -4.807
REMARK INTRA:                   0.000
REMARK UNBOUND:                 0.000
REMARK SMILES CC(C)=C1CC[C@@H](C)CC1=O
REMARK SMILES IDX 8 1 7 2 6 3 5 4 4 5 2 6 1 7 3 8 10 9 11 10 9 11
REMARK H PARENT
REMARK Flexibility Score: inf
ROOT
ATOM      1  C   UNL     1      19.268   1.864  18.593  1.00  0.00     0.008 C 
ATOM      2  C   UNL     1      19.079   1.752  20.110  1.00  0.00    -0.006 C 
ATOM      3  C   UNL     1      19.844   2.870  20.834  1.00  0.00     0.008 C 
ATOM      4  C   UNL     1      19.583   2.836  22.346  1.00  0.00     0.039 C 
ATOM      5  C   UNL     1      19.841   1.463  22.953  1.00  0.00    -0.006 C 
ATOM      6  C   UNL     1      20.294   1.327  24.233  1.00  0.00    -0.070 C 
ATOM      7  C   UNL     1      20.541   2.533  25.110  1.00  0.00     0.039 C 
ATOM      8  C   UNL     1      20.608  -0.027  24.826  1.00  0.00     0.039 C 
ATOM      9  C   UNL     1      19.462   0.292  22.108  1.00  0.00     0.159 C 
ATOM     10  O   UNL     1      19.053  -0.783  22.624  1.00  0.00    -0.295 OA
ATOM     11  C   UNL     1      19.554   0.381  20.611  1.00  0.00     0.084 C 
ENDROOT
TORSDOF 0
ENDMDL
MODEL 8
REMARK VINA RESULT:    -4.797      1.232      4.404
REMARK INTER + INTRA:          -4.797
REMARK INTER:                  -4.797
REMARK INTRA:                   0.000
REMARK UNBOUND:                 0.000
REMARK SMILES CC(C)=C1CC[C@@H](C)CC1=O
REMARK SMILES IDX 8 1 7 2 6 3 5 4 4 5 2 6 1 7 3 8 10 9 11 10 9 11
REMARK H PARENT
REMARK Flexibility Score: inf
ROOT
ATOM      1  C   UNL     1      19.535  -0.164  23.164  1.00  0.00     0.008 C 
ATOM      2  C   UNL     1      19.827   0.764  21.981  1.00  0.00    -0.006 C 
ATOM      3  C   UNL     1      19.475   2.217  22.334  1.00  0.00     0.008 C 
ATOM      4  C   UNL     1      19.857   3.176  21.197  1.00  0.00     0.039 C 
ATOM      5  C   UNL     1      19.285   2.746  19.854  1.00  0.00    -0.006 C 
ATOM      6  C   UNL     1      18.934   3.663  18.905  1.00  0.00    -0.070 C 
ATOM      7  C   UNL     1      19.116   5.145  19.143  1.00  0.00     0.039 C 
ATOM      8  C   UNL     1      18.313   3.251  17.591  1.00  0.00     0.039 C 
ATOM      9  C   UNL     1      19.242   1.275  19.600  1.00  0.00     0.159 C 
ATOM     10  O   UNL     1      19.382   0.806  18.438  1.00  0.00    -0.295 OA
ATOM     11  C   UNL     1      19.039   0.320  20.741  1.00  0.00     0.084 C 
ENDROOT
TORSDOF 0
ENDMDL
MODEL 9
REMARK VINA RESULT:    -4.784      1.573      4.614
REMARK INTER + INTRA:          -4.784
REMARK INTER:                  -4.784
REMARK INTRA:                   0.000
REMARK UNBOUND:                 0.000
REMARK SMILES CC(C)=C1CC[C@@H](C)CC1=O
REMARK SMILES IDX 8 1 7 2 6 3 5 4 4 5 2 6 1 7 3 8 10 9 11 10 9 11
REMARK H PARENT
REMARK Flexibility Score: inf
ROOT
ATOM      1  C   UNL     1      20.276  -2.149  23.657  1.00  0.00     0.008 C 
ATOM      2  C   UNL     1      19.597  -1.101  22.769  1.00  0.00    -0.006 C 
ATOM      3  C   UNL     1      19.909  -1.362  21.288  1.00  0.00     0.008 C 
ATOM      4  C   UNL     1      19.156  -0.382  20.378  1.00  0.00     0.039 C 
ATOM      5  C   UNL     1      19.375   1.071  20.774  1.00  0.00    -0.006 C 
ATOM      6  C   UNL     1      19.378   2.068  19.841  1.00  0.00    -0.070 C 
ATOM      7  C   UNL     1      19.144   1.773  18.377  1.00  0.00     0.039 C 
ATOM      8  C   UNL     1      19.652   3.506  20.215  1.00  0.00     0.039 C 
ATOM      9  C   UNL     1      19.470   1.344  22.239  1.00  0.00     0.159 C 
ATOM     10  O   UNL     1      19.061   2.430  22.731  1.00  0.00    -0.295 OA
ATOM     11  C   UNL     1      20.055   0.312  23.161  1.00  0.00     0.084 C 
ENDROOT
TORSDOF 0
ENDMDL
