MODEL 1
REMARK VINA RESULT:     8.063      0.000      0.000
REMARK INTER + INTRA:           9.408
REMARK INTER:                   9.713
REMARK INTRA:                  -0.305
REMARK UNBOUND:                -0.305
REMARK SMILES O=c1c(O)c(-c2ccc(O)c(O)c2)oc2cc(O)cc(O)c12
REMARK SMILES IDX 5 1 3 2 2 3 1 4 22 5 20 6 19 7 17 8 16 9 15 10 14 11 6 12
REMARK SMILES IDX 7 13 8 14 9 15 13 16 11 17 10 18 12 20 4 22 21 24 18 26
REMARK H PARENT 10 19 12 21 4 23 21 25 18 27
REMARK Flexibility Score: inf
ROOT
ATOM      1  C   UNL     1      13.460  21.781  -2.056  1.00  0.00     0.180 A 
ATOM      2  C   UNL     1      14.541  21.171  -1.396  1.00  0.00     0.208 A 
ATOM      3  C   UNL     1      15.429  21.972  -0.659  1.00  0.00     0.238 A 
ATOM      4  O   UNL     1      16.426  21.427  -0.117  1.00  0.00    -0.285 OA
ATOM      5  C   UNL     1      15.215  23.369  -0.577  1.00  0.00     0.111 A 
ATOM      6  C   UNL     1      16.028  24.270   0.174  1.00  0.00     0.134 A 
ATOM      7  C   UNL     1      15.801  25.649   0.077  1.00  0.00     0.093 A 
ATOM      8  C   UNL     1      14.749  26.153  -0.692  1.00  0.00     0.123 A 
ATOM      9  C   UNL     1      13.915  25.277  -1.381  1.00  0.00     0.094 A 
ATOM     10  C   UNL     1      14.137  23.899  -1.334  1.00  0.00     0.146 A 
ATOM     11  O   UNL     1      13.324  23.101  -2.014  1.00  0.00    -0.452 OA
ENDROOT
BRANCH   1  12
ATOM     12  C   UNL     1      12.468  21.001  -2.831  1.00  0.00     0.025 A 
ATOM     13  C   UNL     1      12.525  21.010  -4.233  1.00  0.00     0.016 A 
ATOM     14  C   UNL     1      11.587  20.298  -4.984  1.00  0.00     0.051 A 
ATOM     15  C   UNL     1      10.570  19.580  -4.348  1.00  0.00     0.157 A 
ATOM     16  C   UNL     1      11.432  20.294  -2.193  1.00  0.00     0.062 A 
ATOM     17  C   UNL     1      10.489  19.579  -2.945  1.00  0.00     0.158 A 
BRANCH  15  18
ATOM     18  O   UNL     1       9.649  18.875  -5.124  1.00  0.00    -0.504 OA
ATOM     19  H   UNL     1       9.882  18.517  -6.043  1.00  0.00     0.293 HD
ENDBRANCH  15  18
BRANCH  17  20
ATOM     20  O   UNL     1       9.470  18.877  -2.305  1.00  0.00    -0.504 OA
ATOM     21  H   UNL     1       8.579  19.310  -2.092  1.00  0.00     0.293 HD
ENDBRANCH  17  20
ENDBRANCH   1  12
BRANCH   2  22
ATOM     22  O   UNL     1      14.746  19.793  -1.509  1.00  0.00    -0.502 OA
ATOM     23  H   UNL     1      15.188  19.247  -0.778  1.00  0.00     0.293 HD
ENDBRANCH   2  22
BRANCH   6  24
ATOM     24  O   UNL     1      17.045  23.865   1.043  1.00  0.00    -0.507 OA
ATOM     25  H   UNL     1      17.935  24.330   1.143  1.00  0.00     0.293 HD
ENDBRANCH   6  24
BRANCH   8  26
ATOM     26  O   UNL     1      14.521  27.525  -0.771  1.00  0.00    -0.508 OA
ATOM     27  H   UNL     1      13.784  27.907  -1.352  1.00  0.00     0.293 HD
ENDBRANCH   8  26
TORSDOF 6
ENDMDL
MODEL 2
REMARK VINA RESULT:     9.861      3.476      5.710
REMARK INTER + INTRA:          11.573
REMARK INTER:                  11.099
REMARK INTRA:                   0.475
REMARK UNBOUND:                -0.305
REMARK SMILES O=c1c(O)c(-c2ccc(O)c(O)c2)oc2cc(O)cc(O)c12
REMARK SMILES IDX 5 1 3 2 2 3 1 4 22 5 20 6 19 7 17 8 16 9 15 10 14 11 6 12
REMARK SMILES IDX 7 13 8 14 9 15 13 16 11 17 10 18 12 20 4 22 21 24 18 26
REMARK H PARENT 10 19 12 21 4 23 21 25 18 27
REMARK Flexibility Score: inf
ROOT
ATOM      1  C   UNL     1      13.017  21.668   0.024  1.00  0.00     0.180 A 
ATOM      2  C   UNL     1      12.986  20.512  -0.776  1.00  0.00     0.208 A 
ATOM      3  C   UNL     1      13.000  20.651  -2.173  1.00  0.00     0.238 A 
ATOM      4  O   UNL     1      12.916  19.615  -2.884  1.00  0.00    -0.285 OA
ATOM      5  C   UNL     1      13.062  21.940  -2.753  1.00  0.00     0.111 A 
ATOM      6  C   UNL     1      13.122  22.196  -4.156  1.00  0.00     0.134 A 
ATOM      7  C   UNL     1      13.049  23.515  -4.621  1.00  0.00     0.093 A 
ATOM      8  C   UNL     1      12.984  24.590  -3.731  1.00  0.00     0.123 A 
ATOM      9  C   UNL     1      12.984  24.353  -2.359  1.00  0.00     0.094 A 
ATOM     10  C   UNL     1      13.020  23.047  -1.865  1.00  0.00     0.146 A 
ATOM     11  O   UNL     1      13.009  22.866  -0.550  1.00  0.00    -0.452 OA
ENDROOT
BRANCH   1  12
ATOM     12  C   UNL     1      13.029  21.603   1.503  1.00  0.00     0.025 A 
ATOM     13  C   UNL     1      13.200  22.781   2.245  1.00  0.00     0.016 A 
ATOM     14  C   UNL     1      13.236  22.740   3.641  1.00  0.00     0.051 A 
ATOM     15  C   UNL     1      13.118  21.522   4.316  1.00  0.00     0.157 A 
ATOM     16  C   UNL     1      12.930  20.375   2.183  1.00  0.00     0.062 A 
ATOM     17  C   UNL     1      12.967  20.331   3.584  1.00  0.00     0.158 A 
BRANCH  15  18
ATOM     18  O   UNL     1      13.154  21.512   5.711  1.00  0.00    -0.504 OA
ATOM     19  H   UNL     1      13.973  21.211   6.225  1.00  0.00     0.293 HD
ENDBRANCH  15  18
BRANCH  17  20
ATOM     20  O   UNL     1      12.862  19.112   4.250  1.00  0.00    -0.504 OA
ATOM     21  H   UNL     1      12.619  19.063   5.232  1.00  0.00     0.293 HD
ENDBRANCH  17  20
ENDBRANCH   1  12
BRANCH   2  22
ATOM     22  O   UNL     1      12.902  19.250  -0.183  1.00  0.00    -0.502 OA
ATOM     23  H   UNL     1      13.334  18.428  -0.589  1.00  0.00     0.293 HD
ENDBRANCH   2  22
BRANCH   6  24
ATOM     24  O   UNL     1      13.280  21.201  -5.125  1.00  0.00    -0.507 OA
ATOM     25  H   UNL     1      13.810  20.352  -4.995  1.00  0.00     0.293 HD
ENDBRANCH   6  24
BRANCH   8  26
ATOM     26  O   UNL     1      12.926  25.900  -4.202  1.00  0.00    -0.508 OA
ATOM     27  H   UNL     1      13.767  26.422  -4.419  1.00  0.00     0.293 HD
ENDBRANCH   8  26
TORSDOF 6
ENDMDL
