MODEL 1
REMARK VINA RESULT:    -4.542      0.000      0.000
REMARK INTER + INTRA:          -7.564
REMARK INTER:                  -6.932
REMARK INTRA:                  -0.632
REMARK UNBOUND:                -0.632
REMARK SMILES CCCCCCCCCC=CC(=O)[O-]
REMARK SMILES IDX 7 1 8 2 9 3 10 4 11 5 12 6 13 7 14 8 6 9 5 10 4 11 3 12 2 13
REMARK SMILES IDX 1 14
REMARK H PARENT
REMARK Flexibility Score: inf
ROOT
ATOM      1  C   UNL     1     -44.981  26.367  -1.268  1.00  0.00     0.000 C 
ENDROOT
BRANCH   1   2
ATOM      2  C   UNL     1     -45.290  27.872  -1.280  1.00  0.00     0.004 C 
BRANCH   2   3
ATOM      3  C   UNL     1     -44.255  28.692  -0.491  1.00  0.00     0.027 C 
BRANCH   3   4
ATOM      4  C   UNL     1     -43.090  27.838  -0.070  1.00  0.00    -0.025 C 
ATOM      5  C   UNL     1     -42.840  27.406   1.177  1.00  0.00     0.020 C 
BRANCH   5   6
ATOM      6  C   UNL     1     -43.665  27.652   2.379  1.00  0.00     0.064 C 
ATOM      7  O   UNL     1     -43.326  28.478   3.266  1.00  0.00    -0.545 OA
ATOM      8  O   UNL     1     -44.861  26.962   2.524  1.00  0.00    -0.545 OA
ENDBRANCH   5   6
ENDBRANCH   3   4
ENDBRANCH   2   3
ENDBRANCH   1   2
BRANCH   1   9
ATOM      9  C   UNL     1     -45.590  25.630  -2.473  1.00  0.00     0.000 C 
BRANCH   9  10
ATOM     10  C   UNL     1     -46.647  26.472  -3.204  1.00  0.00     0.000 C 
BRANCH  10  11
ATOM     11  C   UNL     1     -46.361  26.599  -4.710  1.00  0.00    -0.000 C 
BRANCH  11  12
ATOM     12  C   UNL     1     -46.067  28.046  -5.142  1.00  0.00    -0.000 C 
BRANCH  12  13
ATOM     13  C   UNL     1     -45.616  28.171  -6.613  1.00  0.00    -0.003 C 
ATOM     14  C   UNL     1     -45.465  26.811  -7.295  1.00  0.00     0.004 C 
ENDBRANCH  12  13
ENDBRANCH  11  12
ENDBRANCH  10  11
ENDBRANCH   9  10
ENDBRANCH   1   9
TORSDOF 9
ENDMDL
MODEL 2
REMARK VINA RESULT:    -4.283      1.481      2.906
REMARK INTER + INTRA:          -7.168
REMARK INTER:                  -6.495
REMARK INTRA:                  -0.673
REMARK UNBOUND:                -0.632
REMARK SMILES CCCCCCCCCC=CC(=O)[O-]
REMARK SMILES IDX 7 1 8 2 9 3 10 4 11 5 12 6 13 7 14 8 6 9 5 10 4 11 3 12 2 13
REMARK SMILES IDX 1 14
REMARK H PARENT
REMARK Flexibility Score: inf
ROOT
ATOM      1  C   UNL     1     -42.743  27.844  -0.033  1.00  0.00     0.000 C 
ENDROOT
BRANCH   1   2
ATOM      2  C   UNL     1     -42.546  29.102   0.828  1.00  0.00     0.004 C 
BRANCH   2   3
ATOM      3  C   UNL     1     -43.708  29.332   1.808  1.00  0.00     0.027 C 
BRANCH   3   4
ATOM      4  C   UNL     1     -43.250  29.201   3.236  1.00  0.00    -0.025 C 
ATOM      5  C   UNL     1     -43.653  28.263   4.109  1.00  0.00     0.020 C 
BRANCH   5   6
ATOM      6  C   UNL     1     -44.598  27.157   3.844  1.00  0.00     0.064 C 
ATOM      7  O   UNL     1     -44.212  26.028   3.445  1.00  0.00    -0.545 OA
ATOM      8  O   UNL     1     -45.953  27.367   4.058  1.00  0.00    -0.545 OA
ENDBRANCH   5   6
ENDBRANCH   3   4
ENDBRANCH   2   3
ENDBRANCH   1   2
BRANCH   1   9
ATOM      9  C   UNL     1     -44.132  27.211   0.157  1.00  0.00     0.000 C 
BRANCH   9  10
ATOM     10  C   UNL     1     -45.014  27.343  -1.095  1.00  0.00     0.000 C 
BRANCH  10  11
ATOM     11  C   UNL     1     -45.283  25.990  -1.773  1.00  0.00    -0.000 C 
BRANCH  11  12
ATOM     12  C   UNL     1     -46.459  26.040  -2.763  1.00  0.00    -0.000 C 
BRANCH  12  13
ATOM     13  C   UNL     1     -46.313  27.135  -3.840  1.00  0.00    -0.003 C 
ATOM     14  C   UNL     1     -46.193  26.555  -5.249  1.00  0.00     0.004 C 
ENDBRANCH  12  13
ENDBRANCH  11  12
ENDBRANCH  10  11
ENDBRANCH   9  10
ENDBRANCH   1   9
TORSDOF 9
ENDMDL
MODEL 3
REMARK VINA RESULT:    -4.034      2.826      4.926
REMARK INTER + INTRA:          -6.789
REMARK INTER:                  -6.243
REMARK INTRA:                  -0.546
REMARK UNBOUND:                -0.632
REMARK SMILES CCCCCCCCCC=CC(=O)[O-]
REMARK SMILES IDX 7 1 8 2 9 3 10 4 11 5 12 6 13 7 14 8 6 9 5 10 4 11 3 12 2 13
REMARK SMILES IDX 1 14
REMARK H PARENT
REMARK Flexibility Score: inf
ROOT
ATOM      1  C   UNL     1     -43.719  27.548   2.240  1.00  0.00     0.000 C 
ENDROOT
BRANCH   1   2
ATOM      2  C   UNL     1     -43.415  28.567   3.349  1.00  0.00     0.004 C 
BRANCH   2   3
ATOM      3  C   UNL     1     -44.376  28.442   4.543  1.00  0.00     0.027 C 
BRANCH   3   4
ATOM      4  C   UNL     1     -44.294  27.075   5.167  1.00  0.00    -0.025 C 
ATOM      5  C   UNL     1     -43.795  26.792   6.382  1.00  0.00     0.020 C 
BRANCH   5   6
ATOM      6  C   UNL     1     -43.255  27.759   7.362  1.00  0.00     0.064 C 
ATOM      7  O   UNL     1     -43.918  28.139   8.361  1.00  0.00    -0.545 OA
ATOM      8  O   UNL     1     -41.969  28.248   7.182  1.00  0.00    -0.545 OA
ENDBRANCH   5   6
ENDBRANCH   3   4
ENDBRANCH   2   3
ENDBRANCH   1   2
BRANCH   1   9
ATOM      9  C   UNL     1     -42.646  27.538   1.138  1.00  0.00     0.000 C 
BRANCH   9  10
ATOM     10  C   UNL     1     -43.244  27.722  -0.266  1.00  0.00     0.000 C 
BRANCH  10  11
ATOM     11  C   UNL     1     -44.703  27.248  -0.352  1.00  0.00    -0.000 C 
BRANCH  11  12
ATOM     12  C   UNL     1     -45.443  27.807  -1.579  1.00  0.00    -0.000 C 
BRANCH  12  13
ATOM     13  C   UNL     1     -46.094  26.717  -2.457  1.00  0.00    -0.003 C 
ATOM     14  C   UNL     1     -45.745  25.305  -1.989  1.00  0.00     0.004 C 
ENDBRANCH  12  13
ENDBRANCH  11  12
ENDBRANCH  10  11
ENDBRANCH   9  10
ENDBRANCH   1   9
TORSDOF 9
ENDMDL
MODEL 4
REMARK VINA RESULT:    -3.811      3.680      7.875
REMARK INTER + INTRA:          -6.448
REMARK INTER:                  -5.256
REMARK INTRA:                  -1.192
REMARK UNBOUND:                -0.632
REMARK SMILES CCCCCCCCCC=CC(=O)[O-]
REMARK SMILES IDX 7 1 8 2 9 3 10 4 11 5 12 6 13 7 14 8 6 9 5 10 4 11 3 12 2 13
REMARK SMILES IDX 1 14
REMARK H PARENT
REMARK Flexibility Score: inf
ROOT
ATOM      1  C   UNL     1     -44.590  28.741   3.203  1.00  0.00     0.000 C 
ENDROOT
BRANCH   1   2
ATOM      2  C   UNL     1     -43.113  28.917   2.818  1.00  0.00     0.004 C 
BRANCH   2   3
ATOM      3  C   UNL     1     -42.930  29.268   1.331  1.00  0.00     0.027 C 
BRANCH   3   4
ATOM      4  C   UNL     1     -42.624  28.042   0.515  1.00  0.00    -0.025 C 
ATOM      5  C   UNL     1     -43.517  27.314  -0.178  1.00  0.00     0.020 C 
BRANCH   5   6
ATOM      6  C   UNL     1     -44.965  27.582  -0.306  1.00  0.00     0.064 C 
ATOM      7  O   UNL     1     -45.820  26.990   0.402  1.00  0.00    -0.545 OA
ATOM      8  O   UNL     1     -45.393  28.530  -1.225  1.00  0.00    -0.545 OA
ENDBRANCH   5   6
ENDBRANCH   3   4
ENDBRANCH   2   3
ENDBRANCH   1   2
BRANCH   1   9
ATOM      9  C   UNL     1     -44.883  27.351   3.795  1.00  0.00     0.000 C 
BRANCH   9  10
ATOM     10  C   UNL     1     -45.891  27.408   4.954  1.00  0.00     0.000 C 
BRANCH  10  11
ATOM     11  C   UNL     1     -45.207  27.442   6.330  1.00  0.00    -0.000 C 
BRANCH  11  12
ATOM     12  C   UNL     1     -43.768  26.899   6.296  1.00  0.00    -0.000 C 
BRANCH  12  13
ATOM     13  C   UNL     1     -42.718  27.901   6.822  1.00  0.00    -0.003 C 
ATOM     14  C   UNL     1     -43.194  29.350   6.725  1.00  0.00     0.004 C 
ENDBRANCH  12  13
ENDBRANCH  11  12
ENDBRANCH  10  11
ENDBRANCH   9  10
ENDBRANCH   1   9
TORSDOF 9
ENDMDL
MODEL 5
REMARK VINA RESULT:    -3.776      2.580      4.925
REMARK INTER + INTRA:          -6.395
REMARK INTER:                  -5.690
REMARK INTRA:                  -0.705
REMARK UNBOUND:                -0.632
REMARK SMILES CCCCCCCCCC=CC(=O)[O-]
REMARK SMILES IDX 7 1 8 2 9 3 10 4 11 5 12 6 13 7 14 8 6 9 5 10 4 11 3 12 2 13
REMARK SMILES IDX 1 14
REMARK H PARENT
REMARK Flexibility Score: inf
ROOT
ATOM      1  C   UNL     1     -42.921  29.251   2.223  1.00  0.00     0.000 C 
ENDROOT
BRANCH   1   2
ATOM      2  C   UNL     1     -42.634  30.084   3.483  1.00  0.00     0.004 C 
BRANCH   2   3
ATOM      3  C   UNL     1     -43.710  29.902   4.566  1.00  0.00     0.027 C 
BRANCH   3   4
ATOM      4  C   UNL     1     -43.369  28.763   5.488  1.00  0.00    -0.025 C 
ATOM      5  C   UNL     1     -43.888  27.524   5.434  1.00  0.00     0.020 C 
BRANCH   5   6
ATOM      6  C   UNL     1     -44.871  27.020   4.452  1.00  0.00     0.064 C 
ATOM      7  O   UNL     1     -46.102  27.256   4.555  1.00  0.00    -0.545 OA
ATOM      8  O   UNL     1     -44.417  26.276   3.371  1.00  0.00    -0.545 OA
ENDBRANCH   5   6
ENDBRANCH   3   4
ENDBRANCH   2   3
ENDBRANCH   1   2
BRANCH   1   9
ATOM      9  C   UNL     1     -43.428  30.109   1.051  1.00  0.00     0.000 C 
BRANCH   9  10
ATOM     10  C   UNL     1     -43.491  29.323  -0.268  1.00  0.00     0.000 C 
BRANCH  10  11
ATOM     11  C   UNL     1     -43.048  27.860  -0.104  1.00  0.00    -0.000 C 
BRANCH  11  12
ATOM     12  C   UNL     1     -44.215  26.865  -0.220  1.00  0.00    -0.000 C 
BRANCH  12  13
ATOM     13  C   UNL     1     -45.183  27.181  -1.380  1.00  0.00    -0.003 C 
ATOM     14  C   UNL     1     -45.692  25.918  -2.075  1.00  0.00     0.004 C 
ENDBRANCH  12  13
ENDBRANCH  11  12
ENDBRANCH  10  11
ENDBRANCH   9  10
ENDBRANCH   1   9
TORSDOF 9
ENDMDL
MODEL 6
REMARK VINA RESULT:    -3.758      2.994      5.406
REMARK INTER + INTRA:          -6.368
REMARK INTER:                  -5.692
REMARK INTRA:                  -0.676
REMARK UNBOUND:                -0.632
REMARK SMILES CCCCCCCCCC=CC(=O)[O-]
REMARK SMILES IDX 7 1 8 2 9 3 10 4 11 5 12 6 13 7 14 8 6 9 5 10 4 11 3 12 2 13
REMARK SMILES IDX 1 14
REMARK H PARENT
REMARK Flexibility Score: inf
ROOT
ATOM      1  C   UNL     1     -44.195  27.980   3.275  1.00  0.00     0.000 C 
ENDROOT
BRANCH   1   2
ATOM      2  C   UNL     1     -43.099  28.924   3.796  1.00  0.00     0.004 C 
BRANCH   2   3
ATOM      3  C   UNL     1     -43.271  29.261   5.287  1.00  0.00     0.027 C 
BRANCH   3   4
ATOM      4  C   UNL     1     -42.884  28.096   6.157  1.00  0.00    -0.025 C 
ATOM      5  C   UNL     1     -43.701  27.427   6.987  1.00  0.00     0.020 C 
BRANCH   5   6
ATOM      6  C   UNL     1     -45.144  27.674   7.195  1.00  0.00     0.064 C 
ATOM      7  O   UNL     1     -45.566  28.631   7.893  1.00  0.00    -0.545 OA
ATOM      8  O   UNL     1     -46.063  26.831   6.584  1.00  0.00    -0.545 OA
ENDBRANCH   5   6
ENDBRANCH   3   4
ENDBRANCH   2   3
ENDBRANCH   1   2
BRANCH   1   9
ATOM      9  C   UNL     1     -43.691  27.052   2.156  1.00  0.00     0.000 C 
BRANCH   9  10
ATOM     10  C   UNL     1     -42.708  27.756   1.208  1.00  0.00     0.000 C 
BRANCH  10  11
ATOM     11  C   UNL     1     -43.159  27.695  -0.261  1.00  0.00    -0.000 C 
BRANCH  11  12
ATOM     12  C   UNL     1     -44.659  27.392  -0.414  1.00  0.00    -0.000 C 
BRANCH  12  13
ATOM     13  C   UNL     1     -44.959  26.234  -1.390  1.00  0.00    -0.003 C 
ATOM     14  C   UNL     1     -46.081  26.574  -2.370  1.00  0.00     0.004 C 
ENDBRANCH  12  13
ENDBRANCH  11  12
ENDBRANCH  10  11
ENDBRANCH   9  10
ENDBRANCH   1   9
TORSDOF 9
ENDMDL
MODEL 7
REMARK VINA RESULT:    -3.726      3.368      7.618
REMARK INTER + INTRA:          -6.318
REMARK INTER:                  -5.543
REMARK INTRA:                  -0.776
REMARK UNBOUND:                -0.632
REMARK SMILES CCCCCCCCCC=CC(=O)[O-]
REMARK SMILES IDX 7 1 8 2 9 3 10 4 11 5 12 6 13 7 14 8 6 9 5 10 4 11 3 12 2 13
REMARK SMILES IDX 1 14
REMARK H PARENT
REMARK Flexibility Score: inf
ROOT
ATOM      1  C   UNL     1     -43.272  27.400   1.364  1.00  0.00     0.000 C 
ENDROOT
BRANCH   1   2
ATOM      2  C   UNL     1     -43.355  27.465  -0.170  1.00  0.00     0.004 C 
BRANCH   2   3
ATOM      3  C   UNL     1     -44.531  28.327  -0.660  1.00  0.00     0.027 C 
BRANCH   3   4
ATOM      4  C   UNL     1     -45.840  27.820  -0.119  1.00  0.00    -0.025 C 
ATOM      5  C   UNL     1     -46.567  26.813  -0.633  1.00  0.00     0.020 C 
BRANCH   5   6
ATOM      6  C   UNL     1     -46.221  25.983  -1.807  1.00  0.00     0.064 C 
ATOM      7  O   UNL     1     -45.711  24.838  -1.690  1.00  0.00    -0.545 OA
ATOM      8  O   UNL     1     -46.484  26.476  -3.077  1.00  0.00    -0.545 OA
ENDBRANCH   5   6
ENDBRANCH   3   4
ENDBRANCH   2   3
ENDBRANCH   1   2
BRANCH   1   9
ATOM      9  C   UNL     1     -43.061  28.784   2.002  1.00  0.00     0.000 C 
BRANCH   9  10
ATOM     10  C   UNL     1     -43.700  28.891   3.396  1.00  0.00     0.000 C 
BRANCH  10  11
ATOM     11  C   UNL     1     -44.306  27.560   3.871  1.00  0.00    -0.000 C 
BRANCH  11  12
ATOM     12  C   UNL     1     -44.774  27.605   5.335  1.00  0.00    -0.000 C 
BRANCH  12  13
ATOM     13  C   UNL     1     -43.784  26.949   6.320  1.00  0.00    -0.003 C 
ATOM     14  C   UNL     1     -42.773  27.947   6.884  1.00  0.00     0.004 C 
ENDBRANCH  12  13
ENDBRANCH  11  12
ENDBRANCH  10  11
ENDBRANCH   9  10
ENDBRANCH   1   9
TORSDOF 9
ENDMDL
MODEL 8
REMARK VINA RESULT:    -3.725      3.324      5.137
REMARK INTER + INTRA:          -6.317
REMARK INTER:                  -5.261
REMARK INTRA:                  -1.056
REMARK UNBOUND:                -0.632
REMARK SMILES CCCCCCCCCC=CC(=O)[O-]
REMARK SMILES IDX 7 1 8 2 9 3 10 4 11 5 12 6 13 7 14 8 6 9 5 10 4 11 3 12 2 13
REMARK SMILES IDX 1 14
REMARK H PARENT
REMARK Flexibility Score: inf
ROOT
ATOM      1  C   UNL     1     -43.508  26.969   1.957  1.00  0.00     0.000 C 
ENDROOT
BRANCH   1   2
ATOM      2  C   UNL     1     -44.057  27.609   3.243  1.00  0.00     0.004 C 
BRANCH   2   3
ATOM      3  C   UNL     1     -43.197  28.789   3.726  1.00  0.00     0.027 C 
BRANCH   3   4
ATOM      4  C   UNL     1     -43.890  29.554   4.822  1.00  0.00    -0.025 C 
ATOM      5  C   UNL     1     -43.877  29.243   6.129  1.00  0.00     0.020 C 
BRANCH   5   6
ATOM      6  C   UNL     1     -43.162  28.114   6.761  1.00  0.00     0.064 C 
ATOM      7  O   UNL     1     -41.942  28.177   7.061  1.00  0.00    -0.545 OA
ATOM      8  O   UNL     1     -43.866  26.952   7.048  1.00  0.00    -0.545 OA
ENDBRANCH   5   6
ENDBRANCH   3   4
ENDBRANCH   2   3
ENDBRANCH   1   2
BRANCH   1   9
ATOM      9  C   UNL     1     -42.615  27.931   1.155  1.00  0.00     0.000 C 
BRANCH   9  10
ATOM     10  C   UNL     1     -42.963  27.944  -0.342  1.00  0.00     0.000 C 
BRANCH  10  11
ATOM     11  C   UNL     1     -44.112  26.984  -0.689  1.00  0.00    -0.000 C 
BRANCH  11  12
ATOM     12  C   UNL     1     -45.371  27.714  -1.187  1.00  0.00    -0.000 C 
BRANCH  12  13
ATOM     13  C   UNL     1     -46.523  27.730  -0.159  1.00  0.00    -0.003 C 
ATOM     14  C   UNL     1     -46.506  28.984   0.716  1.00  0.00     0.004 C 
ENDBRANCH  12  13
ENDBRANCH  11  12
ENDBRANCH  10  11
ENDBRANCH   9  10
ENDBRANCH   1   9
TORSDOF 9
ENDMDL
MODEL 9
REMARK VINA RESULT:    -3.625      3.996      7.338
REMARK INTER + INTRA:          -6.164
REMARK INTER:                  -5.651
REMARK INTRA:                  -0.513
REMARK UNBOUND:                -0.632
REMARK SMILES CCCCCCCCCC=CC(=O)[O-]
REMARK SMILES IDX 7 1 8 2 9 3 10 4 11 5 12 6 13 7 14 8 6 9 5 10 4 11 3 12 2 13
REMARK SMILES IDX 1 14
REMARK H PARENT
REMARK Flexibility Score: inf
ROOT
ATOM      1  C   UNL     1     -45.503  26.159  -2.353  1.00  0.00     0.000 C 
ENDROOT
BRANCH   1   2
ATOM      2  C   UNL     1     -46.778  26.483  -3.147  1.00  0.00     0.004 C 
BRANCH   2   3
ATOM      3  C   UNL     1     -46.488  27.295  -4.420  1.00  0.00     0.027 C 
BRANCH   3   4
ATOM      4  C   UNL     1     -46.009  26.406  -5.536  1.00  0.00    -0.025 C 
ATOM      5  C   UNL     1     -45.740  26.797  -6.793  1.00  0.00     0.020 C 
BRANCH   5   6
ATOM      6  C   UNL     1     -45.829  28.172  -7.330  1.00  0.00     0.064 C 
ATOM      7  O   UNL     1     -44.986  29.059  -7.040  1.00  0.00    -0.545 OA
ATOM      8  O   UNL     1     -46.868  28.488  -8.194  1.00  0.00    -0.545 OA
ENDBRANCH   5   6
ENDBRANCH   3   4
ENDBRANCH   2   3
ENDBRANCH   1   2
BRANCH   1   9
ATOM      9  C   UNL     1     -45.666  26.416  -0.845  1.00  0.00     0.000 C 
BRANCH   9  10
ATOM     10  C   UNL     1     -44.965  27.706  -0.390  1.00  0.00     0.000 C 
BRANCH  10  11
ATOM     11  C   UNL     1     -43.436  27.629  -0.535  1.00  0.00    -0.000 C 
BRANCH  11  12
ATOM     12  C   UNL     1     -42.709  27.577   0.819  1.00  0.00    -0.000 C 
BRANCH  12  13
ATOM     13  C   UNL     1     -43.662  27.488   2.030  1.00  0.00    -0.003 C 
ATOM     14  C   UNL     1     -43.618  28.742   2.902  1.00  0.00     0.004 C 
ENDBRANCH  12  13
ENDBRANCH  11  12
ENDBRANCH  10  11
ENDBRANCH   9  10
ENDBRANCH   1   9
TORSDOF 9
ENDMDL
