MODEL 1
REMARK VINA RESULT:    -4.667      0.000      0.000
REMARK INTER + INTRA:          -7.132
REMARK INTER:                  -6.850
REMARK INTRA:                  -0.282
REMARK UNBOUND:                -0.282
REMARK SMILES O=C([O-])CCCCCCCC(=O)[O-]
REMARK SMILES IDX 7 1 6 2 5 3 4 4 2 5 1 6 3 7 8 8 9 9 10 10 11 11 12 12 13 13
REMARK H PARENT
REMARK Flexibility Score: inf
ROOT
ATOM      1  C   UNL     1     -18.570   0.817  27.768  1.00  0.00     0.000 C 
ENDROOT
BRANCH   1   2
ATOM      2  C   UNL     1     -19.857   1.600  28.085  1.00  0.00     0.000 C 
BRANCH   2   3
ATOM      3  C   UNL     1     -21.127   0.843  27.666  1.00  0.00     0.006 C 
BRANCH   3   4
ATOM      4  C   UNL     1     -21.203   0.616  26.150  1.00  0.00     0.053 C 
BRANCH   4   5
ATOM      5  C   UNL     1     -22.567   0.140  25.763  1.00  0.00     0.041 C 
ATOM      6  O   UNL     1     -23.172   0.670  24.794  1.00  0.00    -0.550 OA
ATOM      7  O   UNL     1     -23.191  -0.859  26.500  1.00  0.00    -0.550 OA
ENDBRANCH   4   5
ENDBRANCH   3   4
ENDBRANCH   2   3
ENDBRANCH   1   2
BRANCH   1   8
ATOM      8  C   UNL     1     -18.573  -0.602  28.365  1.00  0.00     0.000 C 
BRANCH   8   9
ATOM      9  C   UNL     1     -18.500  -0.659  29.905  1.00  0.00     0.006 C 
BRANCH   9  10
ATOM     10  C   UNL     1     -17.620  -1.792  30.460  1.00  0.00     0.053 C 
BRANCH  10  11
ATOM     11  C   UNL     1     -16.751  -1.326  31.587  1.00  0.00     0.041 C 
ATOM     12  O   UNL     1     -17.116  -1.493  32.780  1.00  0.00    -0.550 OA
ATOM     13  O   UNL     1     -15.552  -0.676  31.319  1.00  0.00    -0.550 OA
ENDBRANCH  10  11
ENDBRANCH   9  10
ENDBRANCH   8   9
ENDBRANCH   1   8
TORSDOF 8
ENDMDL
MODEL 2
REMARK VINA RESULT:    -4.648      1.246      6.720
REMARK INTER + INTRA:          -7.104
REMARK INTER:                  -6.660
REMARK INTRA:                  -0.444
REMARK UNBOUND:                -0.282
REMARK SMILES O=C([O-])CCCCCCCC(=O)[O-]
REMARK SMILES IDX 7 1 6 2 5 3 4 4 2 5 1 6 3 7 8 8 9 9 10 10 11 11 12 12 13 13
REMARK H PARENT
REMARK Flexibility Score: inf
ROOT
ATOM      1  C   UNL     1     -19.135  -1.046  29.221  1.00  0.00     0.000 C 
ENDROOT
BRANCH   1   2
ATOM      2  C   UNL     1     -18.265  -2.315  29.266  1.00  0.00     0.000 C 
BRANCH   2   3
ATOM      3  C   UNL     1     -18.143  -2.897  30.684  1.00  0.00     0.006 C 
BRANCH   3   4
ATOM      4  C   UNL     1     -16.730  -2.742  31.262  1.00  0.00     0.053 C 
BRANCH   4   5
ATOM      5  C   UNL     1     -16.528  -1.352  31.778  1.00  0.00     0.041 C 
ATOM      6  O   UNL     1     -17.308  -0.879  32.647  1.00  0.00    -0.550 OA
ATOM      7  O   UNL     1     -15.508  -0.561  31.266  1.00  0.00    -0.550 OA
ENDBRANCH   4   5
ENDBRANCH   3   4
ENDBRANCH   2   3
ENDBRANCH   1   2
BRANCH   1   8
ATOM      8  C   UNL     1     -18.458   0.114  28.468  1.00  0.00     0.000 C 
BRANCH   8   9
ATOM      9  C   UNL     1     -18.824   0.221  26.974  1.00  0.00     0.006 C 
BRANCH   9  10
ATOM     10  C   UNL     1     -19.953   1.217  26.663  1.00  0.00     0.053 C 
BRANCH  10  11
ATOM     11  C   UNL     1     -21.302   0.568  26.705  1.00  0.00     0.041 C 
ATOM     12  O   UNL     1     -21.678  -0.175  25.762  1.00  0.00    -0.550 OA
ATOM     13  O   UNL     1     -22.158   0.812  27.773  1.00  0.00    -0.550 OA
ENDBRANCH  10  11
ENDBRANCH   9  10
ENDBRANCH   8   9
ENDBRANCH   1   8
TORSDOF 8
ENDMDL
MODEL 3
REMARK VINA RESULT:    -4.641      1.310      6.686
REMARK INTER + INTRA:          -7.093
REMARK INTER:                  -6.686
REMARK INTRA:                  -0.407
REMARK UNBOUND:                -0.282
REMARK SMILES O=C([O-])CCCCCCCC(=O)[O-]
REMARK SMILES IDX 7 1 6 2 5 3 4 4 2 5 1 6 3 7 8 8 9 9 10 10 11 11 12 12 13 13
REMARK H PARENT
REMARK Flexibility Score: inf
ROOT
ATOM      1  C   UNL     1     -18.878  -0.600  29.330  1.00  0.00     0.000 C 
ENDROOT
BRANCH   1   2
ATOM      2  C   UNL     1     -18.131  -1.920  29.065  1.00  0.00     0.000 C 
BRANCH   2   3
ATOM      3  C   UNL     1     -18.221  -2.897  30.249  1.00  0.00     0.006 C 
BRANCH   3   4
ATOM      4  C   UNL     1     -16.987  -2.833  31.158  1.00  0.00     0.053 C 
BRANCH   4   5
ATOM      5  C   UNL     1     -17.304  -2.089  32.415  1.00  0.00     0.041 C 
ATOM      6  O   UNL     1     -17.049  -0.859  32.506  1.00  0.00    -0.550 OA
ATOM      7  O   UNL     1     -17.840  -2.762  33.506  1.00  0.00    -0.550 OA
ENDBRANCH   4   5
ENDBRANCH   3   4
ENDBRANCH   2   3
ENDBRANCH   1   2
BRANCH   1   8
ATOM      8  C   UNL     1     -18.513   0.504  28.322  1.00  0.00     0.000 C 
BRANCH   8   9
ATOM      9  C   UNL     1     -18.995   0.253  26.879  1.00  0.00     0.006 C 
BRANCH   9  10
ATOM     10  C   UNL     1     -20.163   1.147  26.431  1.00  0.00     0.053 C 
BRANCH  10  11
ATOM     11  C   UNL     1     -21.492   0.534  26.749  1.00  0.00     0.041 C 
ATOM     12  O   UNL     1     -22.021   0.716  27.876  1.00  0.00    -0.550 OA
ATOM     13  O   UNL     1     -22.132  -0.267  25.810  1.00  0.00    -0.550 OA
ENDBRANCH  10  11
ENDBRANCH   9  10
ENDBRANCH   8   9
ENDBRANCH   1   8
TORSDOF 8
ENDMDL
MODEL 4
REMARK VINA RESULT:    -4.630      1.149      1.667
REMARK INTER + INTRA:          -7.078
REMARK INTER:                  -6.574
REMARK INTRA:                  -0.503
REMARK UNBOUND:                -0.282
REMARK SMILES O=C([O-])CCCCCCCC(=O)[O-]
REMARK SMILES IDX 7 1 6 2 5 3 4 4 2 5 1 6 3 7 8 8 9 9 10 10 11 11 12 12 13 13
REMARK H PARENT
REMARK Flexibility Score: inf
ROOT
ATOM      1  C   UNL     1     -19.358  -0.242  29.743  1.00  0.00     0.000 C 
ENDROOT
BRANCH   1   2
ATOM      2  C   UNL     1     -18.500   0.157  28.529  1.00  0.00     0.000 C 
BRANCH   2   3
ATOM      3  C   UNL     1     -19.218   1.147  27.598  1.00  0.00     0.006 C 
BRANCH   3   4
ATOM      4  C   UNL     1     -19.869   0.454  26.394  1.00  0.00     0.053 C 
BRANCH   4   5
ATOM      5  C   UNL     1     -21.352   0.376  26.578  1.00  0.00     0.041 C 
ATOM      6  O   UNL     1     -22.075  -0.136  25.684  1.00  0.00    -0.550 OA
ATOM      7  O   UNL     1     -21.941   0.912  27.717  1.00  0.00    -0.550 OA
ENDBRANCH   4   5
ENDBRANCH   3   4
ENDBRANCH   2   3
ENDBRANCH   1   2
BRANCH   1   8
ATOM      8  C   UNL     1     -19.222  -1.732  30.105  1.00  0.00     0.000 C 
BRANCH   8   9
ATOM      9  C   UNL     1     -17.875  -2.375  29.719  1.00  0.00     0.006 C 
BRANCH   9  10
ATOM     10  C   UNL     1     -16.976  -2.739  30.912  1.00  0.00     0.053 C 
BRANCH  10  11
ATOM     11  C   UNL     1     -16.608  -1.536  31.725  1.00  0.00     0.041 C 
ATOM     12  O   UNL     1     -17.180  -1.314  32.824  1.00  0.00    -0.550 OA
ATOM     13  O   UNL     1     -15.655  -0.641  31.252  1.00  0.00    -0.550 OA
ENDBRANCH  10  11
ENDBRANCH   9  10
ENDBRANCH   8   9
ENDBRANCH   1   8
TORSDOF 8
ENDMDL
MODEL 5
REMARK VINA RESULT:    -4.537     13.831     15.276
REMARK INTER + INTRA:          -6.940
REMARK INTER:                  -6.197
REMARK INTRA:                  -0.743
REMARK UNBOUND:                -0.282
REMARK SMILES O=C([O-])CCCCCCCC(=O)[O-]
REMARK SMILES IDX 7 1 6 2 5 3 4 4 2 5 1 6 3 7 8 8 9 9 10 10 11 11 12 12 13 13
REMARK H PARENT
REMARK Flexibility Score: inf
ROOT
ATOM      1  C   UNL     1      -4.276   7.899  27.147  1.00  0.00     0.000 C 
ENDROOT
BRANCH   1   2
ATOM      2  C   UNL     1      -4.995   6.784  26.368  1.00  0.00     0.000 C 
BRANCH   2   3
ATOM      3  C   UNL     1      -5.947   7.333  25.293  1.00  0.00     0.006 C 
BRANCH   3   4
ATOM      4  C   UNL     1      -6.679   8.602  25.750  1.00  0.00     0.053 C 
BRANCH   4   5
ATOM      5  C   UNL     1      -8.073   8.621  25.210  1.00  0.00     0.041 C 
ATOM      6  O   UNL     1      -9.048   8.350  25.960  1.00  0.00    -0.550 OA
ATOM      7  O   UNL     1      -8.295   8.891  23.865  1.00  0.00    -0.550 OA
ENDBRANCH   4   5
ENDBRANCH   3   4
ENDBRANCH   2   3
ENDBRANCH   1   2
BRANCH   1   8
ATOM      8  C   UNL     1      -4.583   7.866  28.656  1.00  0.00     0.000 C 
BRANCH   8   9
ATOM      9  C   UNL     1      -5.500   6.711  29.108  1.00  0.00     0.006 C 
BRANCH   9  10
ATOM     10  C   UNL     1      -6.731   7.152  29.915  1.00  0.00     0.053 C 
BRANCH  10  11
ATOM     11  C   UNL     1      -8.007   6.919  29.166  1.00  0.00     0.041 C 
ATOM     12  O   UNL     1      -9.072   7.478  29.538  1.00  0.00    -0.550 OA
ATOM     13  O   UNL     1      -8.026   6.057  28.076  1.00  0.00    -0.550 OA
ENDBRANCH  10  11
ENDBRANCH   9  10
ENDBRANCH   8   9
ENDBRANCH   1   8
TORSDOF 8
ENDMDL
MODEL 6
REMARK VINA RESULT:    -4.474     15.285     17.121
REMARK INTER + INTRA:          -6.847
REMARK INTER:                  -6.474
REMARK INTRA:                  -0.373
REMARK UNBOUND:                -0.282
REMARK SMILES O=C([O-])CCCCCCCC(=O)[O-]
REMARK SMILES IDX 7 1 6 2 5 3 4 4 2 5 1 6 3 7 8 8 9 9 10 10 11 11 12 12 13 13
REMARK H PARENT
REMARK Flexibility Score: inf
ROOT
ATOM      1  C   UNL     1      -5.785   5.862  29.697  1.00  0.00     0.000 C 
ENDROOT
BRANCH   1   2
ATOM      2  C   UNL     1      -5.752   5.004  30.975  1.00  0.00     0.000 C 
BRANCH   2   3
ATOM      3  C   UNL     1      -4.493   5.254  31.820  1.00  0.00     0.006 C 
BRANCH   3   4
ATOM      4  C   UNL     1      -4.040   4.003  32.583  1.00  0.00     0.053 C 
BRANCH   4   5
ATOM      5  C   UNL     1      -4.468   4.082  34.014  1.00  0.00     0.041 C 
ATOM      6  O   UNL     1      -4.829   3.042  34.626  1.00  0.00    -0.550 OA
ATOM      7  O   UNL     1      -4.513   5.311  34.660  1.00  0.00    -0.550 OA
ENDBRANCH   4   5
ENDBRANCH   3   4
ENDBRANCH   2   3
ENDBRANCH   1   2
BRANCH   1   8
ATOM      8  C   UNL     1      -4.654   6.905  29.649  1.00  0.00     0.000 C 
BRANCH   8   9
ATOM      9  C   UNL     1      -4.229   7.338  28.231  1.00  0.00     0.006 C 
BRANCH   9  10
ATOM     10  C   UNL     1      -5.393   7.731  27.307  1.00  0.00     0.053 C 
BRANCH  10  11
ATOM     11  C   UNL     1      -5.472   6.851  26.098  1.00  0.00     0.041 C 
ATOM     12  O   UNL     1      -4.898   5.731  26.091  1.00  0.00    -0.550 OA
ATOM     13  O   UNL     1      -6.153   7.282  24.966  1.00  0.00    -0.550 OA
ENDBRANCH  10  11
ENDBRANCH   9  10
ENDBRANCH   8   9
ENDBRANCH   1   8
TORSDOF 8
ENDMDL
MODEL 7
REMARK VINA RESULT:    -4.457     14.961     15.733
REMARK INTER + INTRA:          -6.823
REMARK INTER:                  -6.383
REMARK INTRA:                  -0.439
REMARK UNBOUND:                -0.282
REMARK SMILES O=C([O-])CCCCCCCC(=O)[O-]
REMARK SMILES IDX 7 1 6 2 5 3 4 4 2 5 1 6 3 7 8 8 9 9 10 10 11 11 12 12 13 13
REMARK H PARENT
REMARK Flexibility Score: inf
ROOT
ATOM      1  C   UNL     1      -4.451   6.472  30.369  1.00  0.00     0.000 C 
ENDROOT
BRANCH   1   2
ATOM      2  C   UNL     1      -5.015   7.297  29.198  1.00  0.00     0.000 C 
BRANCH   2   3
ATOM      3  C   UNL     1      -6.433   6.861  28.798  1.00  0.00     0.006 C 
BRANCH   3   4
ATOM      4  C   UNL     1      -6.450   6.017  27.517  1.00  0.00     0.053 C 
BRANCH   4   5
ATOM      5  C   UNL     1      -6.087   6.858  26.335  1.00  0.00     0.041 C 
ATOM      6  O   UNL     1      -5.146   6.509  25.574  1.00  0.00    -0.550 OA
ATOM      7  O   UNL     1      -6.757   8.052  26.098  1.00  0.00    -0.550 OA
ENDBRANCH   4   5
ENDBRANCH   3   4
ENDBRANCH   2   3
ENDBRANCH   1   2
BRANCH   1   8
ATOM      8  C   UNL     1      -5.550   5.767  31.185  1.00  0.00     0.000 C 
BRANCH   8   9
ATOM      9  C   UNL     1      -5.241   4.304  31.564  1.00  0.00     0.006 C 
BRANCH   9  10
ATOM     10  C   UNL     1      -3.983   4.121  32.429  1.00  0.00     0.053 C 
BRANCH  10  11
ATOM     11  C   UNL     1      -4.290   4.207  33.892  1.00  0.00     0.041 C 
ATOM     12  O   UNL     1      -4.323   5.326  34.468  1.00  0.00    -0.550 OA
ATOM     13  O   UNL     1      -4.507   3.048  34.627  1.00  0.00    -0.550 OA
ENDBRANCH  10  11
ENDBRANCH   9  10
ENDBRANCH   8   9
ENDBRANCH   1   8
TORSDOF 8
ENDMDL
MODEL 8
REMARK VINA RESULT:    -4.416     13.842     15.828
REMARK INTER + INTRA:          -6.764
REMARK INTER:                  -5.933
REMARK INTRA:                  -0.831
REMARK UNBOUND:                -0.282
REMARK SMILES O=C([O-])CCCCCCCC(=O)[O-]
REMARK SMILES IDX 7 1 6 2 5 3 4 4 2 5 1 6 3 7 8 8 9 9 10 10 11 11 12 12 13 13
REMARK H PARENT
REMARK Flexibility Score: inf
ROOT
ATOM      1  C   UNL     1      -4.359   7.973  27.523  1.00  0.00     0.000 C 
ENDROOT
BRANCH   1   2
ATOM      2  C   UNL     1      -4.272   7.407  28.952  1.00  0.00     0.000 C 
BRANCH   2   3
ATOM      3  C   UNL     1      -5.446   6.475  29.290  1.00  0.00     0.006 C 
BRANCH   3   4
ATOM      4  C   UNL     1      -6.652   7.232  29.862  1.00  0.00     0.053 C 
BRANCH   4   5
ATOM      5  C   UNL     1      -7.900   6.851  29.131  1.00  0.00     0.041 C 
ATOM      6  O   UNL     1      -7.846   6.057  28.155  1.00  0.00    -0.550 OA
ATOM      7  O   UNL     1      -9.119   7.407  29.499  1.00  0.00    -0.550 OA
ENDBRANCH   4   5
ENDBRANCH   3   4
ENDBRANCH   2   3
ENDBRANCH   1   2
BRANCH   1   8
ATOM      8  C   UNL     1      -4.846   6.932  26.498  1.00  0.00     0.000 C 
BRANCH   8   9
ATOM      9  C   UNL     1      -5.808   7.477  25.424  1.00  0.00     0.006 C 
BRANCH   9  10
ATOM     10  C   UNL     1      -6.738   8.601  25.911  1.00  0.00     0.053 C 
BRANCH  10  11
ATOM     11  C   UNL     1      -8.100   8.510  25.295  1.00  0.00     0.041 C 
ATOM     12  O   UNL     1      -9.103   8.252  26.011  1.00  0.00    -0.550 OA
ATOM     13  O   UNL     1      -8.257   8.675  23.924  1.00  0.00    -0.550 OA
ENDBRANCH  10  11
ENDBRANCH   9  10
ENDBRANCH   8   9
ENDBRANCH   1   8
TORSDOF 8
ENDMDL
MODEL 9
REMARK VINA RESULT:    -4.283     15.410     16.025
REMARK INTER + INTRA:          -6.567
REMARK INTER:                  -6.184
REMARK INTRA:                  -0.384
REMARK UNBOUND:                -0.282
REMARK SMILES O=C([O-])CCCCCCCC(=O)[O-]
REMARK SMILES IDX 7 1 6 2 5 3 4 4 2 5 1 6 3 7 8 8 9 9 10 10 11 11 12 12 13 13
REMARK H PARENT
REMARK Flexibility Score: inf
ROOT
ATOM      1  C   UNL     1      -5.207   6.863  25.984  1.00  0.00     0.000 C 
ENDROOT
BRANCH   1   2
ATOM      2  C   UNL     1      -4.844   8.355  26.079  1.00  0.00     0.000 C 
BRANCH   2   3
ATOM      3  C   UNL     1      -5.104   9.111  24.766  1.00  0.00     0.006 C 
BRANCH   3   4
ATOM      4  C   UNL     1      -6.591   9.419  24.550  1.00  0.00     0.053 C 
BRANCH   4   5
ATOM      5  C   UNL     1      -7.115   8.656  23.375  1.00  0.00     0.041 C 
ATOM      6  O   UNL     1      -6.338   7.950  22.680  1.00  0.00    -0.550 OA
ATOM      7  O   UNL     1      -8.454   8.762  23.017  1.00  0.00    -0.550 OA
ENDBRANCH   4   5
ENDBRANCH   3   4
ENDBRANCH   2   3
ENDBRANCH   1   2
BRANCH   1   8
ATOM      8  C   UNL     1      -5.733   6.291  27.313  1.00  0.00     0.000 C 
BRANCH   8   9
ATOM      9  C   UNL     1      -5.467   7.171  28.551  1.00  0.00     0.006 C 
BRANCH   9  10
ATOM     10  C   UNL     1      -5.462   6.410  29.887  1.00  0.00     0.053 C 
BRANCH  10  11
ATOM     11  C   UNL     1      -5.762   7.309  31.046  1.00  0.00     0.041 C 
ATOM     12  O   UNL     1      -6.325   8.419  30.858  1.00  0.00    -0.550 OA
ATOM     13  O   UNL     1      -5.388   6.936  32.332  1.00  0.00    -0.550 OA
ENDBRANCH  10  11
ENDBRANCH   9  10
ENDBRANCH   8   9
ENDBRANCH   1   8
TORSDOF 8
ENDMDL
