MODEL 1
REMARK VINA RESULT:    -6.242      0.000      0.000
REMARK INTER + INTRA:          -6.424
REMARK INTER:                  -6.424
REMARK INTRA:                   0.000
REMARK UNBOUND:                 0.000
REMARK SMILES Oc1ccc2[nH]ccc2c1
REMARK SMILES IDX 3 1 4 2 5 3 9 4 8 5 7 6 6 7 10 8 2 9 1 11
REMARK H PARENT 6 10 1 12
REMARK Flexibility Score: inf
ROOT
ATOM      1  C   UNL     1       6.123 -13.311  18.809  1.00  0.00     0.048 A 
ATOM      2  C   UNL     1       6.742 -12.127  19.255  1.00  0.00     0.030 A 
ATOM      3  C   UNL     1       6.544 -10.968  18.507  1.00  0.00     0.046 A 
ATOM      4  C   UNL     1       5.776 -10.965  17.373  1.00  0.00     0.003 A 
ATOM      5  C   UNL     1       5.782  -9.681  16.875  1.00  0.00     0.028 A 
ATOM      6  C   UNL     1       6.575  -8.953  17.757  1.00  0.00     0.083 A 
ATOM      7  N   UNL     1       7.037  -9.743  18.752  1.00  0.00    -0.361 N 
ATOM      8  C   UNL     1       5.151 -12.118  16.904  1.00  0.00     0.056 A 
ATOM      9  C   UNL     1       5.330 -13.310  17.638  1.00  0.00     0.116 A 
ATOM     10  H   UNL     1       7.652  -9.456  19.546  1.00  0.00     0.166 HD
ENDROOT
BRANCH   9  11
ATOM     11  O   UNL     1       4.729 -14.494  17.220  1.00  0.00    -0.508 OA
ATOM     12  H   UNL     1       5.178 -15.106  16.546  1.00  0.00     0.293 HD
ENDBRANCH   9  11
TORSDOF 1
ENDMDL
MODEL 2
REMARK VINA RESULT:    -4.713      9.626     10.639
REMARK INTER + INTRA:          -4.851
REMARK INTER:                  -4.851
REMARK INTRA:                   0.000
REMARK UNBOUND:                 0.000
REMARK SMILES Oc1ccc2[nH]ccc2c1
REMARK SMILES IDX 3 1 4 2 5 3 9 4 8 5 7 6 6 7 10 8 2 9 1 11
REMARK H PARENT 6 10 1 12
REMARK Flexibility Score: inf
ROOT
ATOM      1  C   UNL     1       3.866 -14.091  26.803  1.00  0.00     0.048 A 
ATOM      2  C   UNL     1       5.217 -13.699  26.838  1.00  0.00     0.030 A 
ATOM      3  C   UNL     1       5.622 -12.850  27.867  1.00  0.00     0.046 A 
ATOM      4  C   UNL     1       4.745 -12.404  28.819  1.00  0.00     0.003 A 
ATOM      5  C   UNL     1       5.451 -11.594  29.681  1.00  0.00     0.028 A 
ATOM      6  C   UNL     1       6.754 -11.590  29.192  1.00  0.00     0.083 A 
ATOM      7  N   UNL     1       6.853 -12.360  28.085  1.00  0.00    -0.361 N 
ATOM      8  C   UNL     1       3.402 -12.772  28.814  1.00  0.00     0.056 A 
ATOM      9  C   UNL     1       2.958 -13.631  27.786  1.00  0.00     0.116 A 
ATOM     10  H   UNL     1       7.713 -12.534  27.518  1.00  0.00     0.166 HD
ENDROOT
BRANCH   9  11
ATOM     11  O   UNL     1       1.627 -14.035  27.728  1.00  0.00    -0.508 OA
ATOM     12  H   UNL     1       1.269 -14.567  26.942  1.00  0.00     0.293 HD
ENDBRANCH   9  11
TORSDOF 1
ENDMDL
MODEL 3
REMARK VINA RESULT:    -4.569     18.426     19.775
REMARK INTER + INTRA:          -4.702
REMARK INTER:                  -4.702
REMARK INTRA:                   0.000
REMARK UNBOUND:                 0.000
REMARK SMILES Oc1ccc2[nH]ccc2c1
REMARK SMILES IDX 3 1 4 2 5 3 9 4 8 5 7 6 6 7 10 8 2 9 1 11
REMARK H PARENT 6 10 1 12
REMARK Flexibility Score: inf
ROOT
ATOM      1  C   UNL     1      15.017 -12.772  37.067  1.00  0.00     0.048 A 
ATOM      2  C   UNL     1      14.828 -14.141  36.802  1.00  0.00     0.030 A 
ATOM      3  C   UNL     1      14.380 -14.503  35.533  1.00  0.00     0.046 A 
ATOM      4  C   UNL     1      14.127 -13.568  34.565  1.00  0.00     0.003 A 
ATOM      5  C   UNL     1      13.704 -14.243  33.441  1.00  0.00     0.028 A 
ATOM      6  C   UNL     1      13.723 -15.588  33.796  1.00  0.00     0.083 A 
ATOM      7  N   UNL     1      14.137 -15.742  35.074  1.00  0.00    -0.361 N 
ATOM      8  C   UNL     1      14.303 -12.205  34.793  1.00  0.00     0.056 A 
ATOM      9  C   UNL     1      14.756 -11.804  36.068  1.00  0.00     0.116 A 
ATOM     10  H   UNL     1      14.244 -16.641  35.595  1.00  0.00     0.166 HD
ENDROOT
BRANCH   9  11
ATOM     11  O   UNL     1      14.951 -10.456  36.356  1.00  0.00    -0.508 OA
ATOM     12  H   UNL     1      14.324  -9.951  36.973  1.00  0.00     0.293 HD
ENDBRANCH   9  11
TORSDOF 1
ENDMDL
MODEL 4
REMARK VINA RESULT:    -4.564     18.433     19.725
REMARK INTER + INTRA:          -4.698
REMARK INTER:                  -4.698
REMARK INTRA:                   0.000
REMARK UNBOUND:                 0.000
REMARK SMILES Oc1ccc2[nH]ccc2c1
REMARK SMILES IDX 3 1 4 2 5 3 9 4 8 5 7 6 6 7 10 8 2 9 1 11
REMARK H PARENT 6 10 1 12
REMARK Flexibility Score: inf
ROOT
ATOM      1  C   UNL     1      13.899 -14.742  34.106  1.00  0.00     0.048 A 
ATOM      2  C   UNL     1      13.948 -13.345  33.941  1.00  0.00     0.030 A 
ATOM      3  C   UNL     1      14.404 -12.579  35.013  1.00  0.00     0.046 A 
ATOM      4  C   UNL     1      14.795 -13.154  36.193  1.00  0.00     0.003 A 
ATOM      5  C   UNL     1      15.186 -12.137  37.036  1.00  0.00     0.028 A 
ATOM      6  C   UNL     1      15.007 -10.968  36.303  1.00  0.00     0.083 A 
ATOM      7  N   UNL     1      14.530 -11.243  35.068  1.00  0.00    -0.361 N 
ATOM      8  C   UNL     1      14.758 -14.532  36.389  1.00  0.00     0.056 A 
ATOM      9  C   UNL     1      14.301 -15.337  35.324  1.00  0.00     0.116 A 
ATOM     10  H   UNL     1      14.306 -10.556  34.314  1.00  0.00     0.166 HD
ENDROOT
BRANCH   9  11
ATOM     11  O   UNL     1      14.243 -16.722  35.460  1.00  0.00    -0.508 OA
ATOM     12  H   UNL     1      13.511 -17.266  35.017  1.00  0.00     0.293 HD
ENDBRANCH   9  11
TORSDOF 1
ENDMDL
MODEL 5
REMARK VINA RESULT:    -4.397     11.611     12.830
REMARK INTER + INTRA:          -4.525
REMARK INTER:                  -4.525
REMARK INTRA:                   0.000
REMARK UNBOUND:                 0.000
REMARK SMILES Oc1ccc2[nH]ccc2c1
REMARK SMILES IDX 3 1 4 2 5 3 9 4 8 5 7 6 6 7 10 8 2 9 1 11
REMARK H PARENT 6 10 1 12
REMARK Flexibility Score: inf
ROOT
ATOM      1  C   UNL     1      15.211  -9.122  23.685  1.00  0.00     0.048 A 
ATOM      2  C   UNL     1      14.801 -10.443  23.945  1.00  0.00     0.030 A 
ATOM      3  C   UNL     1      15.781 -11.373  24.287  1.00  0.00     0.046 A 
ATOM      4  C   UNL     1      17.104 -11.028  24.371  1.00  0.00     0.003 A 
ATOM      5  C   UNL     1      17.804 -12.160  24.726  1.00  0.00     0.028 A 
ATOM      6  C   UNL     1      16.843 -13.160  24.841  1.00  0.00     0.083 A 
ATOM      7  N   UNL     1      15.609 -12.674  24.573  1.00  0.00    -0.361 N 
ATOM      8  C   UNL     1      17.543  -9.730  24.119  1.00  0.00     0.056 A 
ATOM      9  C   UNL     1      16.576  -8.763  23.770  1.00  0.00     0.116 A 
ATOM     10  H   UNL     1      14.710 -13.205  24.586  1.00  0.00     0.166 HD
ENDROOT
BRANCH   9  11
ATOM     11  O   UNL     1      16.955  -7.449  23.508  1.00  0.00    -0.508 OA
ATOM     12  H   UNL     1      16.623  -6.679  24.079  1.00  0.00     0.293 HD
ENDBRANCH   9  11
TORSDOF 1
ENDMDL
MODEL 6
REMARK VINA RESULT:    -4.385     11.179     12.087
REMARK INTER + INTRA:          -4.513
REMARK INTER:                  -4.513
REMARK INTRA:                   0.000
REMARK UNBOUND:                 0.000
REMARK SMILES Oc1ccc2[nH]ccc2c1
REMARK SMILES IDX 3 1 4 2 5 3 9 4 8 5 7 6 6 7 10 8 2 9 1 11
REMARK H PARENT 6 10 1 12
REMARK Flexibility Score: inf
ROOT
ATOM      1  C   UNL     1      17.484 -12.141  24.733  1.00  0.00     0.048 A 
ATOM      2  C   UNL     1      17.800 -10.805  24.423  1.00  0.00     0.030 A 
ATOM      3  C   UNL     1      16.752  -9.949  24.090  1.00  0.00     0.046 A 
ATOM      4  C   UNL     1      15.452 -10.379  24.061  1.00  0.00     0.003 A 
ATOM      5  C   UNL     1      14.670  -9.303  23.701  1.00  0.00     0.028 A 
ATOM      6  C   UNL     1      15.561  -8.249  23.525  1.00  0.00     0.083 A 
ATOM      7  N   UNL     1      16.831  -8.648  23.764  1.00  0.00    -0.361 N 
ATOM      8  C   UNL     1      15.105 -11.694  24.363  1.00  0.00     0.056 A 
ATOM      9  C   UNL     1      16.142 -12.588  24.704  1.00  0.00     0.116 A 
ATOM     10  H   UNL     1      17.694  -8.062  23.706  1.00  0.00     0.166 HD
ENDROOT
BRANCH   9  11
ATOM     11  O   UNL     1      15.857 -13.915  25.015  1.00  0.00    -0.508 OA
ATOM     12  H   UNL     1      15.882 -14.641  24.307  1.00  0.00     0.293 HD
ENDBRANCH   9  11
TORSDOF 1
ENDMDL
MODEL 7
REMARK VINA RESULT:    -4.377     18.968     20.424
REMARK INTER + INTRA:          -4.505
REMARK INTER:                  -4.505
REMARK INTRA:                   0.000
REMARK UNBOUND:                 0.000
REMARK SMILES Oc1ccc2[nH]ccc2c1
REMARK SMILES IDX 3 1 4 2 5 3 9 4 8 5 7 6 6 7 10 8 2 9 1 11
REMARK H PARENT 6 10 1 12
REMARK Flexibility Score: inf
ROOT
ATOM      1  C   UNL     1      14.157 -12.157  34.727  1.00  0.00     0.048 A 
ATOM      2  C   UNL     1      13.994 -13.500  34.337  1.00  0.00     0.030 A 
ATOM      3  C   UNL     1      14.364 -14.491  35.245  1.00  0.00     0.046 A 
ATOM      4  C   UNL     1      14.871 -14.183  36.480  1.00  0.00     0.003 A 
ATOM      5  C   UNL     1      15.132 -15.372  37.125  1.00  0.00     0.028 A 
ATOM      6  C   UNL     1      14.761 -16.364  36.223  1.00  0.00     0.083 A 
ATOM      7  N   UNL     1      14.292 -15.821  35.077  1.00  0.00    -0.361 N 
ATOM      8  C   UNL     1      15.045 -12.866  36.897  1.00  0.00     0.056 A 
ATOM      9  C   UNL     1      14.680 -11.837  36.002  1.00  0.00     0.116 A 
ATOM     10  H   UNL     1      13.946 -16.335  34.236  1.00  0.00     0.166 HD
ENDROOT
BRANCH   9  11
ATOM     11  O   UNL     1      14.831 -10.501  36.362  1.00  0.00    -0.508 OA
ATOM     12  H   UNL     1      14.315  -9.765  35.892  1.00  0.00     0.293 HD
ENDBRANCH   9  11
TORSDOF 1
ENDMDL
MODEL 8
REMARK VINA RESULT:    -4.334     11.836     12.774
REMARK INTER + INTRA:          -4.461
REMARK INTER:                  -4.461
REMARK INTRA:                   0.000
REMARK UNBOUND:                 0.000
REMARK SMILES Oc1ccc2[nH]ccc2c1
REMARK SMILES IDX 3 1 4 2 5 3 9 4 8 5 7 6 6 7 10 8 2 9 1 11
REMARK H PARENT 6 10 1 12
REMARK Flexibility Score: inf
ROOT
ATOM      1  C   UNL     1      15.840 -12.372  24.752  1.00  0.00     0.048 A 
ATOM      2  C   UNL     1      15.298 -11.127  24.382  1.00  0.00     0.030 A 
ATOM      3  C   UNL     1      16.184 -10.112  24.025  1.00  0.00     0.046 A 
ATOM      4  C   UNL     1      17.540 -10.305  24.028  1.00  0.00     0.003 A 
ATOM      5  C   UNL     1      18.125  -9.124  23.630  1.00  0.00     0.028 A 
ATOM      6  C   UNL     1      17.065  -8.252  23.401  1.00  0.00     0.083 A 
ATOM      7  N   UNL     1      15.881  -8.861  23.642  1.00  0.00    -0.361 N 
ATOM      8  C   UNL     1      18.109 -11.524  24.389  1.00  0.00     0.056 A 
ATOM      9  C   UNL     1      17.241 -12.574  24.757  1.00  0.00     0.116 A 
ATOM     10  H   UNL     1      14.930  -8.441  23.549  1.00  0.00     0.166 HD
ENDROOT
BRANCH   9  11
ATOM     11  O   UNL     1      17.750 -13.816  25.127  1.00  0.00    -0.508 OA
ATOM     12  H   UNL     1      17.168 -14.646  25.134  1.00  0.00     0.293 HD
ENDBRANCH   9  11
TORSDOF 1
ENDMDL
