MODEL 1
REMARK VINA RESULT:    -5.563      0.000      0.000
REMARK INTER + INTRA:          -8.954
REMARK INTER:                  -8.490
REMARK INTRA:                  -0.464
REMARK UNBOUND:                -0.464
REMARK SMILES O=C([O-])CCCCCCCCC(=O)[O-]
REMARK SMILES IDX 7 1 6 2 5 3 4 4 2 5 1 6 3 7 8 8 9 9 10 10 11 11 12 12 13 13
REMARK SMILES IDX 14 14
REMARK H PARENT
REMARK Flexibility Score: inf
ROOT
ATOM      1  C   UNL     1      23.156 -12.591  18.203  1.00  0.00     0.000 C 
ENDROOT
BRANCH   1   2
ATOM      2  C   UNL     1      23.198 -13.468  19.460  1.00  0.00     0.000 C 
BRANCH   2   3
ATOM      3  C   UNL     1      22.666 -12.705  20.682  1.00  0.00     0.006 C 
BRANCH   3   4
ATOM      4  C   UNL     1      22.565 -11.195  20.425  1.00  0.00     0.053 C 
BRANCH   4   5
ATOM      5  C   UNL     1      23.525 -10.424  21.276  1.00  0.00     0.041 C 
ATOM      6  O   UNL     1      24.430  -9.728  20.742  1.00  0.00    -0.550 OA
ATOM      7  O   UNL     1      23.402 -10.446  22.660  1.00  0.00    -0.550 OA
ENDBRANCH   4   5
ENDBRANCH   3   4
ENDBRANCH   2   3
ENDBRANCH   1   2
BRANCH   1   8
ATOM      8  C   UNL     1      24.147 -13.098  17.144  1.00  0.00     0.000 C 
BRANCH   8   9
ATOM      9  C   UNL     1      24.030 -12.318  15.817  1.00  0.00     0.000 C 
BRANCH   9  10
ATOM     10  C   UNL     1      24.839 -11.010  15.797  1.00  0.00     0.006 C 
BRANCH  10  11
ATOM     11  C   UNL     1      26.099 -11.101  14.928  1.00  0.00     0.053 C 
BRANCH  11  12
ATOM     12  C   UNL     1      27.326 -10.954  15.772  1.00  0.00     0.041 C 
ATOM     13  O   UNL     1      27.438 -11.599  16.847  1.00  0.00    -0.550 OA
ATOM     14  O   UNL     1      28.369 -10.141  15.346  1.00  0.00    -0.550 OA
ENDBRANCH  11  12
ENDBRANCH  10  11
ENDBRANCH   9  10
ENDBRANCH   8   9
ENDBRANCH   1   8
TORSDOF 9
ENDMDL
MODEL 2
REMARK VINA RESULT:    -5.408      0.895      1.590
REMARK INTER + INTRA:          -8.718
REMARK INTER:                  -8.294
REMARK INTRA:                  -0.424
REMARK UNBOUND:                -0.464
REMARK SMILES O=C([O-])CCCCCCCCC(=O)[O-]
REMARK SMILES IDX 7 1 6 2 5 3 4 4 2 5 1 6 3 7 8 8 9 9 10 10 11 11 12 12 13 13
REMARK SMILES IDX 14 14
REMARK H PARENT
REMARK Flexibility Score: inf
ROOT
ATOM      1  C   UNL     1      24.072 -13.033  17.445  1.00  0.00     0.000 C 
ENDROOT
BRANCH   1   2
ATOM      2  C   UNL     1      22.929 -12.487  18.309  1.00  0.00     0.000 C 
BRANCH   2   3
ATOM      3  C   UNL     1      23.159 -12.806  19.793  1.00  0.00     0.006 C 
BRANCH   3   4
ATOM      4  C   UNL     1      22.354 -11.883  20.718  1.00  0.00     0.053 C 
BRANCH   4   5
ATOM      5  C   UNL     1      23.208 -10.797  21.296  1.00  0.00     0.041 C 
ATOM      6  O   UNL     1      23.191 -10.569  22.535  1.00  0.00    -0.550 OA
ATOM      7  O   UNL     1      24.046 -10.058  20.472  1.00  0.00    -0.550 OA
ENDBRANCH   4   5
ENDBRANCH   3   4
ENDBRANCH   2   3
ENDBRANCH   1   2
BRANCH   1   8
ATOM      8  C   UNL     1      24.037 -12.423  16.036  1.00  0.00     0.000 C 
BRANCH   8   9
ATOM      9  C   UNL     1      24.807 -11.087  15.959  1.00  0.00     0.000 C 
BRANCH   9  10
ATOM     10  C   UNL     1      26.029 -11.132  15.027  1.00  0.00     0.006 C 
BRANCH  10  11
ATOM     11  C   UNL     1      27.251 -10.413  15.611  1.00  0.00     0.053 C 
BRANCH  11  12
ATOM     12  C   UNL     1      27.492 -10.854  17.020  1.00  0.00     0.041 C 
ATOM     13  O   UNL     1      27.870 -12.031  17.261  1.00  0.00    -0.550 OA
ATOM     14  O   UNL     1      27.347  -9.951  18.065  1.00  0.00    -0.550 OA
ENDBRANCH  11  12
ENDBRANCH  10  11
ENDBRANCH   9  10
ENDBRANCH   8   9
ENDBRANCH   1   8
TORSDOF 9
ENDMDL
MODEL 3
REMARK VINA RESULT:    -5.301      0.910      5.730
REMARK INTER + INTRA:          -8.554
REMARK INTER:                  -7.993
REMARK INTRA:                  -0.562
REMARK UNBOUND:                -0.464
REMARK SMILES O=C([O-])CCCCCCCCC(=O)[O-]
REMARK SMILES IDX 7 1 6 2 5 3 4 4 2 5 1 6 3 7 8 8 9 9 10 10 11 11 12 12 13 13
REMARK SMILES IDX 14 14
REMARK H PARENT
REMARK Flexibility Score: inf
ROOT
ATOM      1  C   UNL     1      24.426 -12.100  16.168  1.00  0.00     0.000 C 
ENDROOT
BRANCH   1   2
ATOM      2  C   UNL     1      25.061 -10.829  15.593  1.00  0.00     0.000 C 
BRANCH   2   3
ATOM      3  C   UNL     1      26.367 -11.153  14.853  1.00  0.00     0.006 C 
BRANCH   3   4
ATOM      4  C   UNL     1      27.559 -10.356  15.401  1.00  0.00     0.053 C 
BRANCH   4   5
ATOM      5  C   UNL     1      27.827 -10.679  16.838  1.00  0.00     0.041 C 
ATOM      6  O   UNL     1      28.019 -11.872  17.195  1.00  0.00    -0.550 OA
ATOM      7  O   UNL     1      27.896  -9.660  17.780  1.00  0.00    -0.550 OA
ENDBRANCH   4   5
ENDBRANCH   3   4
ENDBRANCH   2   3
ENDBRANCH   1   2
BRANCH   1   8
ATOM      8  C   UNL     1      24.358 -12.036  17.702  1.00  0.00     0.000 C 
BRANCH   8   9
ATOM      9  C   UNL     1      23.040 -12.624  18.251  1.00  0.00     0.000 C 
BRANCH   9  10
ATOM     10  C   UNL     1      22.977 -12.668  19.787  1.00  0.00     0.006 C 
BRANCH  10  11
ATOM     11  C   UNL     1      22.325 -11.418  20.392  1.00  0.00     0.053 C 
BRANCH  11  12
ATOM     12  C   UNL     1      23.317 -10.658  21.214  1.00  0.00     0.041 C 
ATOM     13  O   UNL     1      23.302 -10.747  22.470  1.00  0.00    -0.550 OA
ATOM     14  O   UNL     1      24.291  -9.888  20.591  1.00  0.00    -0.550 OA
ENDBRANCH  11  12
ENDBRANCH  10  11
ENDBRANCH   9  10
ENDBRANCH   8   9
ENDBRANCH   1   8
TORSDOF 9
ENDMDL
MODEL 4
REMARK VINA RESULT:    -5.202      1.434      5.545
REMARK INTER + INTRA:          -8.404
REMARK INTER:                  -7.959
REMARK INTRA:                  -0.445
REMARK UNBOUND:                -0.464
REMARK SMILES O=C([O-])CCCCCCCCC(=O)[O-]
REMARK SMILES IDX 7 1 6 2 5 3 4 4 2 5 1 6 3 7 8 8 9 9 10 10 11 11 12 12 13 13
REMARK SMILES IDX 14 14
REMARK H PARENT
REMARK Flexibility Score: inf
ROOT
ATOM      1  C   UNL     1      24.795 -11.037  16.112  1.00  0.00     0.000 C 
ENDROOT
BRANCH   1   2
ATOM      2  C   UNL     1      25.861 -11.156  15.016  1.00  0.00     0.000 C 
BRANCH   2   3
ATOM      3  C   UNL     1      27.211 -10.604  15.499  1.00  0.00     0.006 C 
BRANCH   3   4
ATOM      4  C   UNL     1      27.587 -11.127  16.892  1.00  0.00     0.053 C 
BRANCH   4   5
ATOM      5  C   UNL     1      27.769 -10.009  17.872  1.00  0.00     0.041 C 
ATOM      6  O   UNL     1      26.855  -9.729  18.693  1.00  0.00    -0.550 OA
ATOM      7  O   UNL     1      28.961  -9.296  17.901  1.00  0.00    -0.550 OA
ENDBRANCH   4   5
ENDBRANCH   3   4
ENDBRANCH   2   3
ENDBRANCH   1   2
BRANCH   1   8
ATOM      8  C   UNL     1      24.073 -12.376  16.326  1.00  0.00     0.000 C 
BRANCH   8   9
ATOM      9  C   UNL     1      24.017 -12.775  17.816  1.00  0.00     0.000 C 
BRANCH   9  10
ATOM     10  C   UNL     1      22.658 -12.494  18.479  1.00  0.00     0.006 C 
BRANCH  10  11
ATOM     11  C   UNL     1      22.633 -12.866  19.967  1.00  0.00     0.053 C 
BRANCH  11  12
ATOM     12  C   UNL     1      22.880 -11.656  20.811  1.00  0.00     0.041 C 
ATOM     13  O   UNL     1      22.785 -11.726  22.065  1.00  0.00    -0.550 OA
ATOM     14  O   UNL     1      23.264 -10.461  20.217  1.00  0.00    -0.550 OA
ENDBRANCH  11  12
ENDBRANCH  10  11
ENDBRANCH   9  10
ENDBRANCH   8   9
ENDBRANCH   1   8
TORSDOF 9
ENDMDL
MODEL 5
REMARK VINA RESULT:    -5.154      1.596      2.545
REMARK INTER + INTRA:          -8.330
REMARK INTER:                  -7.802
REMARK INTRA:                  -0.527
REMARK UNBOUND:                -0.464
REMARK SMILES O=C([O-])CCCCCCCCC(=O)[O-]
REMARK SMILES IDX 7 1 6 2 5 3 4 4 2 5 1 6 3 7 8 8 9 9 10 10 11 11 12 12 13 13
REMARK SMILES IDX 14 14
REMARK H PARENT
REMARK Flexibility Score: inf
ROOT
ATOM      1  C   UNL     1      24.918 -11.704  16.815  1.00  0.00     0.000 C 
ENDROOT
BRANCH   1   2
ATOM      2  C   UNL     1      23.666 -12.560  17.034  1.00  0.00     0.000 C 
BRANCH   2   3
ATOM      3  C   UNL     1      23.534 -12.975  18.507  1.00  0.00     0.006 C 
BRANCH   3   4
ATOM      4  C   UNL     1      22.419 -12.207  19.229  1.00  0.00     0.053 C 
BRANCH   4   5
ATOM      5  C   UNL     1      22.942 -11.457  20.415  1.00  0.00     0.041 C 
ATOM      6  O   UNL     1      22.706 -11.870  21.582  1.00  0.00    -0.550 OA
ATOM      7  O   UNL     1      23.718 -10.319  20.233  1.00  0.00    -0.550 OA
ENDBRANCH   4   5
ENDBRANCH   3   4
ENDBRANCH   2   3
ENDBRANCH   1   2
BRANCH   1   8
ATOM      8  C   UNL     1      24.891 -11.030  15.434  1.00  0.00     0.000 C 
BRANCH   8   9
ATOM      9  C   UNL     1      26.290 -10.974  14.785  1.00  0.00     0.000 C 
BRANCH   9  10
ATOM     10  C   UNL     1      27.441 -10.930  15.804  1.00  0.00     0.006 C 
BRANCH  10  11
ATOM     11  C   UNL     1      27.895  -9.501  16.129  1.00  0.00     0.053 C 
BRANCH  11  12
ATOM     12  C   UNL     1      27.720  -9.217  17.587  1.00  0.00     0.041 C 
ATOM     13  O   UNL     1      27.624 -10.164  18.411  1.00  0.00    -0.550 OA
ATOM     14  O   UNL     1      27.711  -7.905  18.044  1.00  0.00    -0.550 OA
ENDBRANCH  11  12
ENDBRANCH  10  11
ENDBRANCH   9  10
ENDBRANCH   8   9
ENDBRANCH   1   8
TORSDOF 9
ENDMDL
MODEL 6
REMARK VINA RESULT:    -5.055      1.084      5.821
REMARK INTER + INTRA:          -8.179
REMARK INTER:                  -7.663
REMARK INTRA:                  -0.516
REMARK UNBOUND:                -0.464
REMARK SMILES O=C([O-])CCCCCCCCC(=O)[O-]
REMARK SMILES IDX 7 1 6 2 5 3 4 4 2 5 1 6 3 7 8 8 9 9 10 10 11 11 12 12 13 13
REMARK SMILES IDX 14 14
REMARK H PARENT
REMARK Flexibility Score: inf
ROOT
ATOM      1  C   UNL     1      24.870 -11.164  16.147  1.00  0.00     0.000 C 
ENDROOT
BRANCH   1   2
ATOM      2  C   UNL     1      25.802 -11.158  14.931  1.00  0.00     0.000 C 
BRANCH   2   3
ATOM      3  C   UNL     1      27.078 -10.353  15.219  1.00  0.00     0.006 C 
BRANCH   3   4
ATOM      4  C   UNL     1      27.477 -10.407  16.700  1.00  0.00     0.053 C 
BRANCH   4   5
ATOM      5  C   UNL     1      28.461 -11.504  16.969  1.00  0.00     0.041 C 
ATOM      6  O   UNL     1      29.646 -11.410  16.548  1.00  0.00    -0.550 OA
ATOM      7  O   UNL     1      28.081 -12.615  17.710  1.00  0.00    -0.550 OA
ENDBRANCH   4   5
ENDBRANCH   3   4
ENDBRANCH   2   3
ENDBRANCH   1   2
BRANCH   1   8
ATOM      8  C   UNL     1      23.907 -12.361  16.098  1.00  0.00     0.000 C 
BRANCH   8   9
ATOM      9  C   UNL     1      23.358 -12.725  17.494  1.00  0.00     0.000 C 
BRANCH   9  10
ATOM     10  C   UNL     1      23.794 -11.750  18.601  1.00  0.00     0.006 C 
BRANCH  10  11
ATOM     11  C   UNL     1      22.826 -11.729  19.791  1.00  0.00     0.053 C 
BRANCH  11  12
ATOM     12  C   UNL     1      23.339 -10.822  20.864  1.00  0.00     0.041 C 
ATOM     13  O   UNL     1      24.089  -9.853  20.571  1.00  0.00    -0.550 OA
ATOM     14  O   UNL     1      22.948 -11.014  22.183  1.00  0.00    -0.550 OA
ENDBRANCH  11  12
ENDBRANCH  10  11
ENDBRANCH   9  10
ENDBRANCH   8   9
ENDBRANCH   1   8
TORSDOF 9
ENDMDL
MODEL 7
REMARK VINA RESULT:    -4.969      1.612      6.227
REMARK INTER + INTRA:          -8.048
REMARK INTER:                  -7.647
REMARK INTRA:                  -0.401
REMARK UNBOUND:                -0.464
REMARK SMILES O=C([O-])CCCCCCCCC(=O)[O-]
REMARK SMILES IDX 7 1 6 2 5 3 4 4 2 5 1 6 3 7 8 8 9 9 10 10 11 11 12 12 13 13
REMARK SMILES IDX 14 14
REMARK H PARENT
REMARK Flexibility Score: inf
ROOT
ATOM      1  C   UNL     1      25.444 -10.815  16.698  1.00  0.00     0.000 C 
ENDROOT
BRANCH   1   2
ATOM      2  C   UNL     1      26.920 -11.150  16.458  1.00  0.00     0.000 C 
BRANCH   2   3
ATOM      3  C   UNL     1      27.361 -10.717  15.052  1.00  0.00     0.006 C 
BRANCH   3   4
ATOM      4  C   UNL     1      28.834 -11.048  14.777  1.00  0.00     0.053 C 
BRANCH   4   5
ATOM      5  C   UNL     1      29.688 -10.818  15.986  1.00  0.00     0.041 C 
ATOM      6  O   UNL     1      30.189 -11.795  16.604  1.00  0.00    -0.550 OA
ATOM      7  O   UNL     1      29.957  -9.524  16.413  1.00  0.00    -0.550 OA
ENDBRANCH   4   5
ENDBRANCH   3   4
ENDBRANCH   2   3
ENDBRANCH   1   2
BRANCH   1   8
ATOM      8  C   UNL     1      24.539 -11.570  15.712  1.00  0.00     0.000 C 
BRANCH   8   9
ATOM      9  C   UNL     1      23.753 -12.708  16.396  1.00  0.00     0.000 C 
BRANCH   9  10
ATOM     10  C   UNL     1      23.892 -12.720  17.928  1.00  0.00     0.006 C 
BRANCH  10  11
ATOM     11  C   UNL     1      22.573 -12.418  18.649  1.00  0.00     0.053 C 
BRANCH  11  12
ATOM     12  C   UNL     1      22.838 -11.918  20.033  1.00  0.00     0.041 C 
ATOM     13  O   UNL     1      22.623 -12.659  21.028  1.00  0.00    -0.550 OA
ATOM     14  O   UNL     1      23.369 -10.649  20.224  1.00  0.00    -0.550 OA
ENDBRANCH  11  12
ENDBRANCH  10  11
ENDBRANCH   9  10
ENDBRANCH   8   9
ENDBRANCH   1   8
TORSDOF 9
ENDMDL
MODEL 8
REMARK VINA RESULT:    -4.903      2.058      5.845
REMARK INTER + INTRA:          -7.946
REMARK INTER:                  -7.595
REMARK INTRA:                  -0.352
REMARK UNBOUND:                -0.464
REMARK SMILES O=C([O-])CCCCCCCCC(=O)[O-]
REMARK SMILES IDX 7 1 6 2 5 3 4 4 2 5 1 6 3 7 8 8 9 9 10 10 11 11 12 12 13 13
REMARK SMILES IDX 14 14
REMARK H PARENT
REMARK Flexibility Score: inf
ROOT
ATOM      1  C   UNL     1      25.690 -10.938  16.226  1.00  0.00     0.000 C 
ENDROOT
BRANCH   1   2
ATOM      2  C   UNL     1      26.845 -10.786  15.230  1.00  0.00     0.000 C 
BRANCH   2   3
ATOM      3  C   UNL     1      27.825  -9.694  15.685  1.00  0.00     0.006 C 
BRANCH   3   4
ATOM      4  C   UNL     1      28.369  -9.953  17.096  1.00  0.00     0.053 C 
BRANCH   4   5
ATOM      5  C   UNL     1      28.968  -8.717  17.694  1.00  0.00     0.041 C 
ATOM      6  O   UNL     1      28.234  -7.736  17.988  1.00  0.00    -0.550 OA
ATOM      7  O   UNL     1      30.331  -8.661  17.956  1.00  0.00    -0.550 OA
ENDBRANCH   4   5
ENDBRANCH   3   4
ENDBRANCH   2   3
ENDBRANCH   1   2
BRANCH   1   8
ATOM      8  C   UNL     1      24.455 -11.552  15.549  1.00  0.00     0.000 C 
BRANCH   8   9
ATOM      9  C   UNL     1      23.839 -12.694  16.386  1.00  0.00     0.000 C 
BRANCH   9  10
ATOM     10  C   UNL     1      23.966 -12.483  17.904  1.00  0.00     0.006 C 
BRANCH  10  11
ATOM     11  C   UNL     1      22.611 -12.489  18.622  1.00  0.00     0.053 C 
BRANCH  11  12
ATOM     12  C   UNL     1      22.768 -12.033  20.038  1.00  0.00     0.041 C 
ATOM     13  O   UNL     1      22.604 -12.844  20.988  1.00  0.00    -0.550 OA
ATOM     14  O   UNL     1      23.145 -10.724  20.309  1.00  0.00    -0.550 OA
ENDBRANCH  11  12
ENDBRANCH  10  11
ENDBRANCH   9  10
ENDBRANCH   8   9
ENDBRANCH   1   8
TORSDOF 9
ENDMDL
MODEL 9
REMARK VINA RESULT:    -4.411      3.020      5.166
REMARK INTER + INTRA:          -7.197
REMARK INTER:                  -6.730
REMARK INTRA:                  -0.466
REMARK UNBOUND:                -0.464
REMARK SMILES O=C([O-])CCCCCCCCC(=O)[O-]
REMARK SMILES IDX 7 1 6 2 5 3 4 4 2 5 1 6 3 7 8 8 9 9 10 10 11 11 12 12 13 13
REMARK SMILES IDX 14 14
REMARK H PARENT
REMARK Flexibility Score: inf
ROOT
ATOM      1  C   UNL     1      27.428 -10.243  15.374  1.00  0.00     0.000 C 
ENDROOT
BRANCH   1   2
ATOM      2  C   UNL     1      26.146 -10.991  14.990  1.00  0.00     0.000 C 
BRANCH   2   3
ATOM      3  C   UNL     1      25.202 -11.119  16.195  1.00  0.00     0.006 C 
BRANCH   3   4
ATOM      4  C   UNL     1      24.150 -12.219  15.995  1.00  0.00     0.053 C 
BRANCH   4   5
ATOM      5  C   UNL     1      23.721 -12.818  17.298  1.00  0.00     0.041 C 
ATOM      6  O   UNL     1      24.426 -13.702  17.854  1.00  0.00    -0.550 OA
ATOM      7  O   UNL     1      22.557 -12.378  17.917  1.00  0.00    -0.550 OA
ENDBRANCH   4   5
ENDBRANCH   3   4
ENDBRANCH   2   3
ENDBRANCH   1   2
BRANCH   1   8
ATOM      8  C   UNL     1      28.367 -11.143  16.192  1.00  0.00     0.000 C 
BRANCH   8   9
ATOM      9  C   UNL     1      29.816 -11.107  15.662  1.00  0.00     0.000 C 
BRANCH   9  10
ATOM     10  C   UNL     1      30.501  -9.740  15.832  1.00  0.00     0.006 C 
BRANCH  10  11
ATOM     11  C   UNL     1      30.623  -9.312  17.299  1.00  0.00     0.053 C 
BRANCH  11  12
ATOM     12  C   UNL     1      29.924  -8.010  17.523  1.00  0.00     0.041 C 
ATOM     13  O   UNL     1      30.482  -6.926  17.206  1.00  0.00    -0.550 OA
ATOM     14  O   UNL     1      28.633  -7.992  18.036  1.00  0.00    -0.550 OA
ENDBRANCH  11  12
ENDBRANCH  10  11
ENDBRANCH   9  10
ENDBRANCH   8   9
ENDBRANCH   1   8
TORSDOF 9
ENDMDL
