MODEL 1
REMARK VINA RESULT:    -4.722      0.000      0.000
REMARK INTER + INTRA:          -7.526
REMARK INTER:                  -6.517
REMARK INTRA:                  -1.009
REMARK UNBOUND:                -1.009
REMARK SMILES CCCCc1cccc(O)c1CCCC
REMARK SMILES IDX 5 1 11 2 9 3 8 4 7 5 6 6 4 7 3 8 2 9 1 10 12 11 13 12 14 13
REMARK SMILES IDX 15 14 10 15
REMARK H PARENT 10 16
REMARK Flexibility Score: inf
ROOT
ATOM      1  C   UNL     1     117.570  52.469  -2.210  1.00  0.00    -0.041 A 
ATOM      2  C   UNL     1     117.481  51.249  -2.943  1.00  0.00    -0.003 A 
ATOM      3  C   UNL     1     117.845  51.241  -4.311  1.00  0.00     0.119 A 
ATOM      4  C   UNL     1     118.252  52.422  -4.941  1.00  0.00     0.046 A 
ATOM      5  C   UNL     1     118.306  53.616  -4.231  1.00  0.00     0.004 A 
ATOM      6  C   UNL     1     117.972  53.640  -2.879  1.00  0.00     0.004 A 
ENDROOT
BRANCH   1   7
ATOM      7  C   UNL     1     117.275  52.577  -0.724  1.00  0.00     0.036 C 
BRANCH   7   8
ATOM      8  C   UNL     1     118.335  51.903   0.162  1.00  0.00     0.004 C 
BRANCH   8   9
ATOM      9  C   UNL     1     117.777  51.471   1.526  1.00  0.00    -0.003 C 
ATOM     10  C   UNL     1     117.715  49.951   1.636  1.00  0.00     0.004 C 
ENDBRANCH   8   9
ENDBRANCH   7   8
ENDBRANCH   1   7
BRANCH   2  11
ATOM     11  C   UNL     1     116.973  49.957  -2.325  1.00  0.00     0.040 C 
BRANCH  11  12
ATOM     12  C   UNL     1     115.437  49.875  -2.404  1.00  0.00     0.005 C 
BRANCH  12  13
ATOM     13  C   UNL     1     114.774  49.881  -1.017  1.00  0.00    -0.003 C 
ATOM     14  C   UNL     1     114.211  51.251  -0.639  1.00  0.00     0.004 C 
ENDBRANCH  12  13
ENDBRANCH  11  12
ENDBRANCH   2  11
BRANCH   3  15
ATOM     15  O   UNL     1     117.804  50.054  -5.042  1.00  0.00    -0.508 OA
ATOM     16  H   UNL     1     118.609  49.718  -5.558  1.00  0.00     0.293 HD
ENDBRANCH   3  15
TORSDOF 7
ENDMDL
MODEL 2
REMARK VINA RESULT:    -4.553      0.988      3.671
REMARK INTER + INTRA:          -7.292
REMARK INTER:                  -6.501
REMARK INTRA:                  -0.791
REMARK UNBOUND:                -1.009
REMARK SMILES CCCCc1cccc(O)c1CCCC
REMARK SMILES IDX 5 1 11 2 9 3 8 4 7 5 6 6 4 7 3 8 2 9 1 10 12 11 13 12 14 13
REMARK SMILES IDX 15 14 10 15
REMARK H PARENT 10 16
REMARK Flexibility Score: inf
ROOT
ATOM      1  C   UNL     1     116.962  51.680  -1.054  1.00  0.00    -0.041 A 
ATOM      2  C   UNL     1     117.330  51.373  -2.398  1.00  0.00    -0.003 A 
ATOM      3  C   UNL     1     116.526  50.479  -3.143  1.00  0.00     0.119 A 
ATOM      4  C   UNL     1     115.407  49.878  -2.557  1.00  0.00     0.046 A 
ATOM      5  C   UNL     1     115.070  50.153  -1.236  1.00  0.00     0.004 A 
ATOM      6  C   UNL     1     115.837  51.047  -0.493  1.00  0.00     0.004 A 
ENDROOT
BRANCH   1   7
ATOM      7  C   UNL     1     117.708  52.679  -0.187  1.00  0.00     0.036 C 
BRANCH   7   8
ATOM      8  C   UNL     1     117.857  52.231   1.275  1.00  0.00     0.004 C 
BRANCH   8   9
ATOM      9  C   UNL     1     119.039  51.273   1.482  1.00  0.00    -0.003 C 
ATOM     10  C   UNL     1     118.554  49.881   1.873  1.00  0.00     0.004 C 
ENDBRANCH   8   9
ENDBRANCH   7   8
ENDBRANCH   1   7
BRANCH   2  11
ATOM     11  C   UNL     1     118.577  51.941  -3.055  1.00  0.00     0.040 C 
BRANCH  11  12
ATOM     12  C   UNL     1     118.290  53.316  -3.687  1.00  0.00     0.005 C 
BRANCH  12  13
ATOM     13  C   UNL     1     118.345  53.282  -5.222  1.00  0.00    -0.003 C 
ATOM     14  C   UNL     1     119.101  52.065  -5.758  1.00  0.00     0.004 C 
ENDBRANCH  12  13
ENDBRANCH  11  12
ENDBRANCH   2  11
BRANCH   3  15
ATOM     15  O   UNL     1     116.840  50.192  -4.472  1.00  0.00    -0.508 OA
ATOM     16  H   UNL     1     117.414  50.814  -5.030  1.00  0.00     0.293 HD
ENDBRANCH   3  15
TORSDOF 7
ENDMDL
MODEL 3
REMARK VINA RESULT:    -4.428      1.749      2.990
REMARK INTER + INTRA:          -7.119
REMARK INTER:                  -5.991
REMARK INTRA:                  -1.128
REMARK UNBOUND:                -1.009
REMARK SMILES CCCCc1cccc(O)c1CCCC
REMARK SMILES IDX 5 1 11 2 9 3 8 4 7 5 6 6 4 7 3 8 2 9 1 10 12 11 13 12 14 13
REMARK SMILES IDX 15 14 10 15
REMARK H PARENT 10 16
REMARK Flexibility Score: inf
ROOT
ATOM      1  C   UNL     1     118.258  52.479  -3.129  1.00  0.00    -0.041 A 
ATOM      2  C   UNL     1     118.849  51.238  -3.510  1.00  0.00    -0.003 A 
ATOM      3  C   UNL     1     119.279  51.064  -4.846  1.00  0.00     0.119 A 
ATOM      4  C   UNL     1     119.093  52.082  -5.788  1.00  0.00     0.046 A 
ATOM      5  C   UNL     1     118.486  53.278  -5.421  1.00  0.00     0.004 A 
ATOM      6  C   UNL     1     118.075  53.477  -4.105  1.00  0.00     0.004 A 
ENDROOT
BRANCH   1   7
ATOM      7  C   UNL     1     117.827  52.802  -1.709  1.00  0.00     0.036 C 
BRANCH   7   8
ATOM      8  C   UNL     1     116.303  52.790  -1.513  1.00  0.00     0.004 C 
BRANCH   8   9
ATOM      9  C   UNL     1     115.841  51.700  -0.535  1.00  0.00    -0.003 C 
ATOM     10  C   UNL     1     115.302  50.485  -1.284  1.00  0.00     0.004 C 
ENDBRANCH   8   9
ENDBRANCH   7   8
ENDBRANCH   1   7
BRANCH   2  11
ATOM     11  C   UNL     1     119.005  50.075  -2.545  1.00  0.00     0.040 C 
BRANCH  11  12
ATOM     12  C   UNL     1     120.431  50.026  -1.966  1.00  0.00     0.005 C 
BRANCH  12  13
ATOM     13  C   UNL     1     120.441  49.876  -0.437  1.00  0.00    -0.003 C 
ATOM     14  C   UNL     1     119.042  49.967   0.174  1.00  0.00     0.004 C 
ENDBRANCH  12  13
ENDBRANCH  11  12
ENDBRANCH   2  11
BRANCH   3  15
ATOM     15  O   UNL     1     119.897  49.875  -5.237  1.00  0.00    -0.508 OA
ATOM     16  H   UNL     1     120.906  49.777  -5.250  1.00  0.00     0.293 HD
ENDBRANCH   3  15
TORSDOF 7
ENDMDL
MODEL 4
REMARK VINA RESULT:    -4.180      1.763      2.666
REMARK INTER + INTRA:          -6.777
REMARK INTER:                  -5.716
REMARK INTRA:                  -1.062
REMARK UNBOUND:                -1.009
REMARK SMILES CCCCc1cccc(O)c1CCCC
REMARK SMILES IDX 5 1 11 2 9 3 8 4 7 5 6 6 4 7 3 8 2 9 1 10 12 11 13 12 14 13
REMARK SMILES IDX 15 14 10 15
REMARK H PARENT 10 16
REMARK Flexibility Score: inf
ROOT
ATOM      1  C   UNL     1     118.665  50.838  -3.149  1.00  0.00    -0.041 A 
ATOM      2  C   UNL     1     118.368  52.230  -3.061  1.00  0.00    -0.003 A 
ATOM      3  C   UNL     1     118.466  53.028  -4.225  1.00  0.00     0.119 A 
ATOM      4  C   UNL     1     118.882  52.464  -5.436  1.00  0.00     0.046 A 
ATOM      5  C   UNL     1     119.202  51.113  -5.510  1.00  0.00     0.004 A 
ATOM      6  C   UNL     1     119.092  50.307  -4.380  1.00  0.00     0.004 A 
ENDROOT
BRANCH   1   7
ATOM      7  C   UNL     1     118.524  49.875  -1.982  1.00  0.00     0.036 C 
BRANCH   7   8
ATOM      8  C   UNL     1     119.512  50.150  -0.838  1.00  0.00     0.004 C 
BRANCH   8   9
ATOM      9  C   UNL     1     118.888  49.932   0.548  1.00  0.00    -0.003 C 
ATOM     10  C   UNL     1     118.931  51.213   1.376  1.00  0.00     0.004 C 
ENDBRANCH   8   9
ENDBRANCH   7   8
ENDBRANCH   1   7
BRANCH   2  11
ATOM     11  C   UNL     1     117.985  52.905  -1.754  1.00  0.00     0.040 C 
BRANCH  11  12
ATOM     12  C   UNL     1     116.456  53.032  -1.627  1.00  0.00     0.005 C 
BRANCH  12  13
ATOM     13  C   UNL     1     115.879  52.123  -0.530  1.00  0.00    -0.003 C 
ATOM     14  C   UNL     1     115.132  50.916  -1.099  1.00  0.00     0.004 C 
ENDBRANCH  12  13
ENDBRANCH  11  12
ENDBRANCH   2  11
BRANCH   3  15
ATOM     15  O   UNL     1     118.143  54.385  -4.177  1.00  0.00    -0.508 OA
ATOM     16  H   UNL     1     118.431  55.027  -4.906  1.00  0.00     0.293 HD
ENDBRANCH   3  15
TORSDOF 7
ENDMDL
MODEL 5
REMARK VINA RESULT:    -4.062      1.749      3.062
REMARK INTER + INTRA:          -6.615
REMARK INTER:                  -5.643
REMARK INTRA:                  -0.972
REMARK UNBOUND:                -1.009
REMARK SMILES CCCCc1cccc(O)c1CCCC
REMARK SMILES IDX 5 1 11 2 9 3 8 4 7 5 6 6 4 7 3 8 2 9 1 10 12 11 13 12 14 13
REMARK SMILES IDX 15 14 10 15
REMARK H PARENT 10 16
REMARK Flexibility Score: inf
ROOT
ATOM      1  C   UNL     1     118.745  50.239  -1.371  1.00  0.00    -0.041 A 
ATOM      2  C   UNL     1     117.977  50.623  -2.510  1.00  0.00    -0.003 A 
ATOM      3  C   UNL     1     118.580  50.589  -3.789  1.00  0.00     0.119 A 
ATOM      4  C   UNL     1     119.922  50.217  -3.929  1.00  0.00     0.046 A 
ATOM      5  C   UNL     1     120.677  49.875  -2.813  1.00  0.00     0.004 A 
ATOM      6  C   UNL     1     120.096  49.882  -1.547  1.00  0.00     0.004 A 
ENDROOT
BRANCH   1   7
ATOM      7  C   UNL     1     118.180  50.168   0.037  1.00  0.00     0.036 C 
BRANCH   7   8
ATOM      8  C   UNL     1     119.047  50.888   1.082  1.00  0.00     0.004 C 
BRANCH   8   9
ATOM      9  C   UNL     1     118.543  52.304   1.393  1.00  0.00    -0.003 C 
ATOM     10  C   UNL     1     117.022  52.333   1.504  1.00  0.00     0.004 C 
ENDBRANCH   8   9
ENDBRANCH   7   8
ENDBRANCH   1   7
BRANCH   2  11
ATOM     11  C   UNL     1     116.540  51.106  -2.403  1.00  0.00     0.040 C 
BRANCH  11  12
ATOM     12  C   UNL     1     116.487  52.611  -2.078  1.00  0.00     0.005 C 
BRANCH  12  13
ATOM     13  C   UNL     1     117.881  53.258  -2.058  1.00  0.00    -0.003 C 
ATOM     14  C   UNL     1     118.107  54.207  -3.235  1.00  0.00     0.004 C 
ENDBRANCH  12  13
ENDBRANCH  11  12
ENDBRANCH   2  11
BRANCH   3  15
ATOM     15  O   UNL     1     117.840  50.922  -4.925  1.00  0.00    -0.508 OA
ATOM     16  H   UNL     1     117.543  51.873  -5.107  1.00  0.00     0.293 HD
ENDBRANCH   3  15
TORSDOF 7
ENDMDL
MODEL 6
REMARK VINA RESULT:    -4.009      1.925      3.995
REMARK INTER + INTRA:          -6.541
REMARK INTER:                  -5.561
REMARK INTRA:                  -0.980
REMARK UNBOUND:                -1.009
REMARK SMILES CCCCc1cccc(O)c1CCCC
REMARK SMILES IDX 5 1 11 2 9 3 8 4 7 5 6 6 4 7 3 8 2 9 1 10 12 11 13 12 14 13
REMARK SMILES IDX 15 14 10 15
REMARK H PARENT 10 16
REMARK Flexibility Score: inf
ROOT
ATOM      1  C   UNL     1     118.159  50.572  -2.550  1.00  0.00    -0.041 A 
ATOM      2  C   UNL     1     118.931  50.506  -3.747  1.00  0.00    -0.003 A 
ATOM      3  C   UNL     1     120.294  50.137  -3.666  1.00  0.00     0.119 A 
ATOM      4  C   UNL     1     120.883  49.877  -2.424  1.00  0.00     0.046 A 
ATOM      5  C   UNL     1     120.136  49.975  -1.256  1.00  0.00     0.004 A 
ATOM      6  C   UNL     1     118.787  50.316  -1.317  1.00  0.00     0.004 A 
ENDROOT
BRANCH   1   7
ATOM      7  C   UNL     1     116.672  50.886  -2.527  1.00  0.00     0.036 C 
BRANCH   7   8
ATOM      8  C   UNL     1     116.301  52.025  -1.565  1.00  0.00     0.004 C 
BRANCH   8   9
ATOM      9  C   UNL     1     115.043  51.718  -0.742  1.00  0.00    -0.003 C 
ATOM     10  C   UNL     1     114.628  50.258  -0.899  1.00  0.00     0.004 C 
ENDBRANCH   8   9
ENDBRANCH   7   8
ENDBRANCH   1   7
BRANCH   2  11
ATOM     11  C   UNL     1     118.358  50.852  -5.111  1.00  0.00     0.040 C 
BRANCH  11  12
ATOM     12  C   UNL     1     118.817  52.250  -5.564  1.00  0.00     0.005 C 
BRANCH  12  13
ATOM     13  C   UNL     1     117.984  53.377  -4.933  1.00  0.00    -0.003 C 
ATOM     14  C   UNL     1     118.659  53.994  -3.707  1.00  0.00     0.004 C 
ENDBRANCH  12  13
ENDBRANCH  11  12
ENDBRANCH   2  11
BRANCH   3  15
ATOM     15  O   UNL     1     121.063  50.026  -4.825  1.00  0.00    -0.508 OA
ATOM     16  H   UNL     1     120.843  49.351  -5.548  1.00  0.00     0.293 HD
ENDBRANCH   3  15
TORSDOF 7
ENDMDL
MODEL 7
REMARK VINA RESULT:    -3.938      1.700      3.890
REMARK INTER + INTRA:          -6.443
REMARK INTER:                  -5.807
REMARK INTRA:                  -0.637
REMARK UNBOUND:                -1.009
REMARK SMILES CCCCc1cccc(O)c1CCCC
REMARK SMILES IDX 5 1 11 2 9 3 8 4 7 5 6 6 4 7 3 8 2 9 1 10 12 11 13 12 14 13
REMARK SMILES IDX 15 14 10 15
REMARK H PARENT 10 16
REMARK Flexibility Score: inf
ROOT
ATOM      1  C   UNL     1     117.811  51.300  -2.813  1.00  0.00    -0.041 A 
ATOM      2  C   UNL     1     117.815  51.561  -4.216  1.00  0.00    -0.003 A 
ATOM      3  C   UNL     1     118.194  52.844  -4.675  1.00  0.00     0.119 A 
ATOM      4  C   UNL     1     118.524  53.853  -3.763  1.00  0.00     0.046 A 
ATOM      5  C   UNL     1     118.487  53.605  -2.396  1.00  0.00     0.004 A 
ATOM      6  C   UNL     1     118.137  52.342  -1.925  1.00  0.00     0.004 A 
ENDROOT
BRANCH   1   7
ATOM      7  C   UNL     1     117.492  49.942  -2.214  1.00  0.00     0.036 C 
BRANCH   7   8
ATOM      8  C   UNL     1     116.567  50.014  -0.989  1.00  0.00     0.004 C 
BRANCH   8   9
ATOM      9  C   UNL     1     115.168  50.543  -1.336  1.00  0.00    -0.003 C 
ATOM     10  C   UNL     1     114.858  51.820  -0.562  1.00  0.00     0.004 C 
ENDBRANCH   8   9
ENDBRANCH   7   8
ENDBRANCH   1   7
BRANCH   2  11
ATOM     11  C   UNL     1     117.392  50.524  -5.243  1.00  0.00     0.040 C 
BRANCH  11  12
ATOM     12  C   UNL     1     118.614  49.953  -5.986  1.00  0.00     0.005 C 
BRANCH  12  13
ATOM     13  C   UNL     1     119.863  49.875  -5.094  1.00  0.00    -0.003 C 
ATOM     14  C   UNL     1     121.150  50.203  -5.851  1.00  0.00     0.004 C 
ENDBRANCH  12  13
ENDBRANCH  11  12
ENDBRANCH   2  11
BRANCH   3  15
ATOM     15  O   UNL     1     118.244  53.115  -6.043  1.00  0.00    -0.508 OA
ATOM     16  H   UNL     1     119.098  53.001  -6.578  1.00  0.00     0.293 HD
ENDBRANCH   3  15
TORSDOF 7
ENDMDL
