MODEL 1
REMARK VINA RESULT:    -5.079      0.000      0.000
REMARK INTER + INTRA:         -10.984
REMARK INTER:                  -9.533
REMARK INTRA:                  -1.451
REMARK UNBOUND:                -1.451
REMARK SMILES O=C([O-])CCCCCCCCCCCCCCC(=O)[O-]
REMARK SMILES IDX 10 1 9 2 8 3 7 4 6 5 5 6 4 7 2 8 1 9 3 10 11 11 12 12 13 13
REMARK SMILES IDX 14 14 15 15 16 16 17 17 18 18 19 19 20 20
REMARK H PARENT
REMARK Flexibility Score: inf
ROOT
ATOM      1  C   UNL     1     -11.167 -36.665  45.750  1.00  0.00     0.000 C 
ENDROOT
BRANCH   1   2
ATOM      2  C   UNL     1     -10.448 -35.500  46.442  1.00  0.00     0.000 C 
BRANCH   2   3
ATOM      3  C   UNL     1     -10.006 -34.442  45.420  1.00  0.00     0.000 C 
BRANCH   3   4
ATOM      4  C   UNL     1     -10.532 -34.730  44.005  1.00  0.00     0.000 C 
BRANCH   4   5
ATOM      5  C   UNL     1     -10.270 -33.570  43.027  1.00  0.00     0.000 C 
BRANCH   5   6
ATOM      6  C   UNL     1      -9.952 -34.057  41.606  1.00  0.00     0.006 C 
BRANCH   6   7
ATOM      7  C   UNL     1      -9.414 -32.936  40.706  1.00  0.00     0.053 C 
BRANCH   7   8
ATOM      8  C   UNL     1      -8.047 -32.520  41.149  1.00  0.00     0.041 C 
ATOM      9  O   UNL     1      -7.091 -33.338  41.109  1.00  0.00    -0.550 OA
ATOM     10  O   UNL     1      -7.818 -31.213  41.561  1.00  0.00    -0.550 OA
ENDBRANCH   7   8
ENDBRANCH   6   7
ENDBRANCH   5   6
ENDBRANCH   4   5
ENDBRANCH   3   4
ENDBRANCH   2   3
ENDBRANCH   1   2
BRANCH   1  11
ATOM     11  C   UNL     1     -11.928 -37.524  46.771  1.00  0.00     0.000 C 
BRANCH  11  12
ATOM     12  C   UNL     1     -11.766 -37.016  48.213  1.00  0.00     0.000 C 
BRANCH  12  13
ATOM     13  C   UNL     1     -11.644 -38.161  49.233  1.00  0.00     0.000 C 
BRANCH  13  14
ATOM     14  C   UNL     1     -11.397 -39.523  48.563  1.00  0.00     0.000 C 
BRANCH  14  15
ATOM     15  C   UNL     1     -10.376 -40.381  49.331  1.00  0.00     0.000 C 
BRANCH  15  16
ATOM     16  C   UNL     1      -8.937 -40.200  48.812  1.00  0.00     0.006 C 
BRANCH  16  17
ATOM     17  C   UNL     1      -8.833 -39.966  47.296  1.00  0.00     0.053 C 
BRANCH  17  18
ATOM     18  C   UNL     1      -8.364 -38.582  46.971  1.00  0.00     0.041 C 
ATOM     19  O   UNL     1      -8.128 -38.257  45.777  1.00  0.00    -0.550 OA
ATOM     20  O   UNL     1      -8.217 -37.641  47.982  1.00  0.00    -0.550 OA
ENDBRANCH  17  18
ENDBRANCH  16  17
ENDBRANCH  15  16
ENDBRANCH  14  15
ENDBRANCH  13  14
ENDBRANCH  12  13
ENDBRANCH  11  12
ENDBRANCH   1  11
TORSDOF 15
ENDMDL
MODEL 2
REMARK VINA RESULT:    -5.042      2.216      3.568
REMARK INTER + INTRA:         -10.915
REMARK INTER:                  -9.491
REMARK INTRA:                  -1.424
REMARK UNBOUND:                -1.451
REMARK SMILES O=C([O-])CCCCCCCCCCCCCCC(=O)[O-]
REMARK SMILES IDX 10 1 9 2 8 3 7 4 6 5 5 6 4 7 2 8 1 9 3 10 11 11 12 12 13 13
REMARK SMILES IDX 14 14 15 15 16 16 17 17 18 18 19 19 20 20
REMARK H PARENT
REMARK Flexibility Score: inf
ROOT
ATOM      1  C   UNL     1     -10.323 -34.556  44.411  1.00  0.00     0.000 C 
ENDROOT
BRANCH   1   2
ATOM      2  C   UNL     1      -9.997 -34.804  42.933  1.00  0.00     0.000 C 
BRANCH   2   3
ATOM      3  C   UNL     1     -10.295 -33.557  42.088  1.00  0.00     0.000 C 
BRANCH   3   4
ATOM      4  C   UNL     1      -9.329 -33.401  40.903  1.00  0.00     0.000 C 
BRANCH   4   5
ATOM      5  C   UNL     1      -7.864 -33.244  41.349  1.00  0.00     0.000 C 
BRANCH   5   6
ATOM      6  C   UNL     1      -7.640 -31.994  42.212  1.00  0.00     0.006 C 
BRANCH   6   7
ATOM      7  C   UNL     1      -7.269 -32.336  43.660  1.00  0.00     0.053 C 
BRANCH   7   8
ATOM      8  C   UNL     1      -6.490 -31.218  44.279  1.00  0.00     0.041 C 
ATOM      9  O   UNL     1      -5.628 -31.459  45.164  1.00  0.00    -0.550 OA
ATOM     10  O   UNL     1      -6.681 -29.913  43.841  1.00  0.00    -0.550 OA
ENDBRANCH   7   8
ENDBRANCH   6   7
ENDBRANCH   5   6
ENDBRANCH   4   5
ENDBRANCH   3   4
ENDBRANCH   2   3
ENDBRANCH   1   2
BRANCH   1  11
ATOM     11  C   UNL     1     -10.619 -35.878  45.137  1.00  0.00     0.000 C 
BRANCH  11  12
ATOM     12  C   UNL     1     -10.816 -37.056  44.169  1.00  0.00     0.000 C 
BRANCH  12  13
ATOM     13  C   UNL     1     -10.174 -38.356  44.683  1.00  0.00     0.000 C 
BRANCH  13  14
ATOM     14  C   UNL     1      -8.740 -38.143  45.198  1.00  0.00     0.000 C 
BRANCH  14  15
ATOM     15  C   UNL     1      -8.494 -38.823  46.555  1.00  0.00     0.000 C 
BRANCH  15  16
ATOM     16  C   UNL     1      -8.854 -37.918  47.749  1.00  0.00     0.006 C 
BRANCH  16  17
ATOM     17  C   UNL     1     -10.291 -38.092  48.266  1.00  0.00     0.053 C 
BRANCH  17  18
ATOM     18  C   UNL     1     -10.664 -39.534  48.417  1.00  0.00     0.041 C 
ATOM     19  O   UNL     1     -11.566 -40.034  47.695  1.00  0.00    -0.550 OA
ATOM     20  O   UNL     1      -9.993 -40.335  49.333  1.00  0.00    -0.550 OA
ENDBRANCH  17  18
ENDBRANCH  16  17
ENDBRANCH  15  16
ENDBRANCH  14  15
ENDBRANCH  13  14
ENDBRANCH  12  13
ENDBRANCH  11  12
ENDBRANCH   1  11
TORSDOF 15
ENDMDL
MODEL 3
REMARK VINA RESULT:    -4.963      2.340      3.201
REMARK INTER + INTRA:         -10.766
REMARK INTER:                  -8.727
REMARK INTRA:                  -2.038
REMARK UNBOUND:                -1.451
REMARK SMILES O=C([O-])CCCCCCCCCCCCCCC(=O)[O-]
REMARK SMILES IDX 10 1 9 2 8 3 7 4 6 5 5 6 4 7 2 8 1 9 3 10 11 11 12 12 13 13
REMARK SMILES IDX 14 14 15 15 16 16 17 17 18 18 19 19 20 20
REMARK H PARENT
REMARK Flexibility Score: inf
ROOT
ATOM      1  C   UNL     1      -9.449 -39.816  43.747  1.00  0.00     0.000 C 
ENDROOT
BRANCH   1   2
ATOM      2  C   UNL     1      -9.311 -38.512  44.543  1.00  0.00     0.000 C 
BRANCH   2   3
ATOM      3  C   UNL     1     -10.523 -37.597  44.314  1.00  0.00     0.000 C 
BRANCH   3   4
ATOM      4  C   UNL     1     -10.708 -36.567  45.439  1.00  0.00     0.000 C 
BRANCH   4   5
ATOM      5  C   UNL     1     -10.589 -35.116  44.939  1.00  0.00     0.000 C 
BRANCH   5   6
ATOM      6  C   UNL     1     -10.178 -35.032  43.461  1.00  0.00     0.006 C 
BRANCH   6   7
ATOM      7  C   UNL     1     -10.340 -33.620  42.884  1.00  0.00     0.053 C 
BRANCH   7   8
ATOM      8  C   UNL     1      -9.328 -33.375  41.809  1.00  0.00     0.041 C 
ATOM      9  O   UNL     1      -9.611 -33.610  40.606  1.00  0.00    -0.550 OA
ATOM     10  O   UNL     1      -8.087 -32.840  42.133  1.00  0.00    -0.550 OA
ENDBRANCH   7   8
ENDBRANCH   6   7
ENDBRANCH   5   6
ENDBRANCH   4   5
ENDBRANCH   3   4
ENDBRANCH   2   3
ENDBRANCH   1   2
BRANCH   1  11
ATOM     11  C   UNL     1     -10.928 -40.152  43.497  1.00  0.00     0.000 C 
BRANCH  11  12
ATOM     12  C   UNL     1     -11.322 -41.535  44.038  1.00  0.00     0.000 C 
BRANCH  12  13
ATOM     13  C   UNL     1     -12.003 -41.458  45.416  1.00  0.00     0.000 C 
BRANCH  13  14
ATOM     14  C   UNL     1     -12.815 -40.164  45.601  1.00  0.00     0.000 C 
BRANCH  14  15
ATOM     15  C   UNL     1     -12.497 -39.453  46.928  1.00  0.00     0.000 C 
BRANCH  15  16
ATOM     16  C   UNL     1     -11.224 -39.997  47.604  1.00  0.00     0.006 C 
BRANCH  16  17
ATOM     17  C   UNL     1     -10.410 -38.939  48.368  1.00  0.00     0.053 C 
BRANCH  17  18
ATOM     18  C   UNL     1      -8.937 -39.104  48.159  1.00  0.00     0.041 C 
ATOM     19  O   UNL     1      -8.420 -40.253  48.168  1.00  0.00    -0.550 OA
ATOM     20  O   UNL     1      -8.138 -37.992  47.922  1.00  0.00    -0.550 OA
ENDBRANCH  17  18
ENDBRANCH  16  17
ENDBRANCH  15  16
ENDBRANCH  14  15
ENDBRANCH  13  14
ENDBRANCH  12  13
ENDBRANCH  11  12
ENDBRANCH   1  11
TORSDOF 15
ENDMDL
MODEL 4
REMARK VINA RESULT:    -4.889      2.280      3.400
REMARK INTER + INTRA:         -10.627
REMARK INTER:                  -8.744
REMARK INTRA:                  -1.884
REMARK UNBOUND:                -1.451
REMARK SMILES O=C([O-])CCCCCCCCCCCCCCC(=O)[O-]
REMARK SMILES IDX 10 1 9 2 8 3 7 4 6 5 5 6 4 7 2 8 1 9 3 10 11 11 12 12 13 13
REMARK SMILES IDX 14 14 15 15 16 16 17 17 18 18 19 19 20 20
REMARK H PARENT
REMARK Flexibility Score: inf
ROOT
ATOM      1  C   UNL     1      -8.877 -39.131  44.885  1.00  0.00     0.000 C 
ENDROOT
BRANCH   1   2
ATOM      2  C   UNL     1      -9.008 -37.657  45.290  1.00  0.00     0.000 C 
BRANCH   2   3
ATOM      3  C   UNL     1     -10.208 -37.000  44.593  1.00  0.00     0.000 C 
BRANCH   3   4
ATOM      4  C   UNL     1     -10.807 -35.844  45.409  1.00  0.00     0.000 C 
BRANCH   4   5
ATOM      5  C   UNL     1     -10.355 -34.463  44.901  1.00  0.00     0.000 C 
BRANCH   5   6
ATOM      6  C   UNL     1      -9.666 -34.535  43.530  1.00  0.00     0.006 C 
BRANCH   6   7
ATOM      7  C   UNL     1     -10.316 -33.608  42.495  1.00  0.00     0.053 C 
BRANCH   7   8
ATOM      8  C   UNL     1      -9.361 -33.320  41.379  1.00  0.00     0.041 C 
ATOM      9  O   UNL     1      -9.782 -33.203  40.198  1.00  0.00    -0.550 OA
ATOM     10  O   UNL     1      -8.011 -33.133  41.650  1.00  0.00    -0.550 OA
ENDBRANCH   7   8
ENDBRANCH   6   7
ENDBRANCH   5   6
ENDBRANCH   4   5
ENDBRANCH   3   4
ENDBRANCH   2   3
ENDBRANCH   1   2
BRANCH   1  11
ATOM     11  C   UNL     1      -8.514 -40.002  46.098  1.00  0.00     0.000 C 
BRANCH  11  12
ATOM     12  C   UNL     1      -8.557 -39.224  47.423  1.00  0.00     0.000 C 
BRANCH  12  13
ATOM     13  C   UNL     1      -9.010 -40.098  48.606  1.00  0.00     0.000 C 
BRANCH  13  14
ATOM     14  C   UNL     1     -10.517 -39.975  48.888  1.00  0.00     0.000 C 
BRANCH  14  15
ATOM     15  C   UNL     1     -11.127 -38.699  48.282  1.00  0.00     0.000 C 
BRANCH  15  16
ATOM     16  C   UNL     1     -12.251 -38.999  47.272  1.00  0.00     0.006 C 
BRANCH  16  17
ATOM     17  C   UNL     1     -12.200 -40.411  46.666  1.00  0.00     0.053 C 
BRANCH  17  18
ATOM     18  C   UNL     1     -12.580 -40.415  45.218  1.00  0.00     0.041 C 
ATOM     19  O   UNL     1     -12.656 -39.332  44.579  1.00  0.00    -0.550 OA
ATOM     20  O   UNL     1     -12.819 -41.618  44.564  1.00  0.00    -0.550 OA
ENDBRANCH  17  18
ENDBRANCH  16  17
ENDBRANCH  15  16
ENDBRANCH  14  15
ENDBRANCH  13  14
ENDBRANCH  12  13
ENDBRANCH  11  12
ENDBRANCH   1  11
TORSDOF 15
ENDMDL
MODEL 5
REMARK VINA RESULT:    -4.859      2.240      7.634
REMARK INTER + INTRA:         -10.571
REMARK INTER:                  -9.044
REMARK INTRA:                  -1.527
REMARK UNBOUND:                -1.451
REMARK SMILES O=C([O-])CCCCCCCCCCCCCCC(=O)[O-]
REMARK SMILES IDX 10 1 9 2 8 3 7 4 6 5 5 6 4 7 2 8 1 9 3 10 11 11 12 12 13 13
REMARK SMILES IDX 14 14 15 15 16 16 17 17 18 18 19 19 20 20
REMARK H PARENT
REMARK Flexibility Score: inf
ROOT
ATOM      1  C   UNL     1      -9.139 -37.807  45.807  1.00  0.00     0.000 C 
ENDROOT
BRANCH   1   2
ATOM      2  C   UNL     1      -9.490 -37.215  47.178  1.00  0.00     0.000 C 
BRANCH   2   3
ATOM      3  C   UNL     1      -9.605 -38.319  48.240  1.00  0.00     0.000 C 
BRANCH   3   4
ATOM      4  C   UNL     1     -11.028 -38.887  48.350  1.00  0.00     0.000 C 
BRANCH   4   5
ATOM      5  C   UNL     1     -11.112 -40.364  47.924  1.00  0.00     0.000 C 
BRANCH   5   6
ATOM      6  C   UNL     1     -12.096 -40.590  46.766  1.00  0.00     0.006 C 
BRANCH   6   7
ATOM      7  C   UNL     1     -12.576 -39.276  46.136  1.00  0.00     0.053 C 
BRANCH   7   8
ATOM      8  C   UNL     1     -12.834 -39.461  44.674  1.00  0.00     0.041 C 
ATOM      9  O   UNL     1     -11.899 -39.801  43.902  1.00  0.00    -0.550 OA
ATOM     10  O   UNL     1     -14.120 -39.307  44.170  1.00  0.00    -0.550 OA
ENDBRANCH   7   8
ENDBRANCH   6   7
ENDBRANCH   5   6
ENDBRANCH   4   5
ENDBRANCH   3   4
ENDBRANCH   2   3
ENDBRANCH   1   2
BRANCH   1  11
ATOM     11  C   UNL     1      -9.863 -37.052  44.682  1.00  0.00     0.000 C 
BRANCH  11  12
ATOM     12  C   UNL     1     -10.680 -35.856  45.199  1.00  0.00     0.000 C 
BRANCH  12  13
ATOM     13  C   UNL     1     -10.317 -34.541  44.486  1.00  0.00     0.000 C 
BRANCH  13  14
ATOM     14  C   UNL     1     -10.000 -34.747  42.995  1.00  0.00     0.000 C 
BRANCH  14  15
ATOM     15  C   UNL     1     -10.410 -33.540  42.134  1.00  0.00     0.000 C 
BRANCH  15  16
ATOM     16  C   UNL     1      -9.579 -33.421  40.842  1.00  0.00     0.006 C 
BRANCH  16  17
ATOM     17  C   UNL     1      -8.071 -33.232  41.073  1.00  0.00     0.053 C 
BRANCH  17  18
ATOM     18  C   UNL     1      -7.776 -32.013  41.892  1.00  0.00     0.041 C 
ATOM     19  O   UNL     1      -7.940 -30.865  41.401  1.00  0.00    -0.550 OA
ATOM     20  O   UNL     1      -7.351 -32.144  43.208  1.00  0.00    -0.550 OA
ENDBRANCH  17  18
ENDBRANCH  16  17
ENDBRANCH  15  16
ENDBRANCH  14  15
ENDBRANCH  13  14
ENDBRANCH  12  13
ENDBRANCH  11  12
ENDBRANCH   1  11
TORSDOF 15
ENDMDL
MODEL 6
REMARK VINA RESULT:    -4.853      1.633      7.069
REMARK INTER + INTRA:         -10.560
REMARK INTER:                  -8.916
REMARK INTRA:                  -1.644
REMARK UNBOUND:                -1.451
REMARK SMILES O=C([O-])CCCCCCCCCCCCCCC(=O)[O-]
REMARK SMILES IDX 10 1 9 2 8 3 7 4 6 5 5 6 4 7 2 8 1 9 3 10 11 11 12 12 13 13
REMARK SMILES IDX 14 14 15 15 16 16 17 17 18 18 19 19 20 20
REMARK H PARENT
REMARK Flexibility Score: inf
ROOT
ATOM      1  C   UNL     1     -13.154 -39.306  45.332  1.00  0.00     0.000 C 
ENDROOT
BRANCH   1   2
ATOM      2  C   UNL     1     -12.683 -39.572  46.767  1.00  0.00     0.000 C 
BRANCH   2   3
ATOM      3  C   UNL     1     -12.346 -38.258  47.488  1.00  0.00     0.000 C 
BRANCH   3   4
ATOM      4  C   UNL     1     -11.543 -38.481  48.779  1.00  0.00     0.000 C 
BRANCH   4   5
ATOM      5  C   UNL     1     -10.929 -39.890  48.860  1.00  0.00     0.000 C 
BRANCH   5   6
ATOM      6  C   UNL     1      -9.406 -39.884  48.661  1.00  0.00     0.006 C 
BRANCH   6   7
ATOM      7  C   UNL     1      -9.005 -39.900  47.181  1.00  0.00     0.053 C 
BRANCH   7   8
ATOM      8  C   UNL     1      -8.390 -38.592  46.791  1.00  0.00     0.041 C 
ATOM      9  O   UNL     1      -7.975 -38.411  45.617  1.00  0.00    -0.550 OA
ATOM     10  O   UNL     1      -8.320 -37.556  47.714  1.00  0.00    -0.550 OA
ENDBRANCH   7   8
ENDBRANCH   6   7
ENDBRANCH   5   6
ENDBRANCH   4   5
ENDBRANCH   3   4
ENDBRANCH   2   3
ENDBRANCH   1   2
BRANCH   1  11
ATOM     11  C   UNL     1     -12.166 -39.895  44.313  1.00  0.00     0.000 C 
BRANCH  11  12
ATOM     12  C   UNL     1     -10.940 -38.997  44.086  1.00  0.00     0.000 C 
BRANCH  12  13
ATOM     13  C   UNL     1     -11.324 -37.565  43.673  1.00  0.00     0.000 C 
BRANCH  13  14
ATOM     14  C   UNL     1     -10.629 -36.497  44.533  1.00  0.00     0.000 C 
BRANCH  14  15
ATOM     15  C   UNL     1      -9.660 -35.622  43.717  1.00  0.00     0.000 C 
BRANCH  15  16
ATOM     16  C   UNL     1     -10.328 -34.347  43.169  1.00  0.00     0.006 C 
BRANCH  16  17
ATOM     17  C   UNL     1      -9.343 -33.234  42.775  1.00  0.00     0.053 C 
BRANCH  17  18
ATOM     18  C   UNL     1      -8.856 -33.387  41.367  1.00  0.00     0.041 C 
ATOM     19  O   UNL     1      -7.625 -33.515  41.133  1.00  0.00    -0.550 OA
ATOM     20  O   UNL     1      -9.764 -33.423  40.316  1.00  0.00    -0.550 OA
ENDBRANCH  17  18
ENDBRANCH  16  17
ENDBRANCH  15  16
ENDBRANCH  14  15
ENDBRANCH  13  14
ENDBRANCH  12  13
ENDBRANCH  11  12
ENDBRANCH   1  11
TORSDOF 15
ENDMDL
MODEL 7
REMARK VINA RESULT:    -4.844      1.983      7.689
REMARK INTER + INTRA:         -10.542
REMARK INTER:                  -9.169
REMARK INTRA:                  -1.373
REMARK UNBOUND:                -1.451
REMARK SMILES O=C([O-])CCCCCCCCCCCCCCC(=O)[O-]
REMARK SMILES IDX 10 1 9 2 8 3 7 4 6 5 5 6 4 7 2 8 1 9 3 10 11 11 12 12 13 13
REMARK SMILES IDX 14 14 15 15 16 16 17 17 18 18 19 19 20 20
REMARK H PARENT
REMARK Flexibility Score: inf
ROOT
ATOM      1  C   UNL     1      -9.155 -39.615  44.640  1.00  0.00     0.000 C 
ENDROOT
BRANCH   1   2
ATOM      2  C   UNL     1     -10.179 -40.104  43.608  1.00  0.00     0.000 C 
BRANCH   2   3
ATOM      3  C   UNL     1     -11.542 -40.365  44.266  1.00  0.00     0.000 C 
BRANCH   3   4
ATOM      4  C   UNL     1     -11.415 -41.037  45.642  1.00  0.00     0.000 C 
BRANCH   4   5
ATOM      5  C   UNL     1     -11.943 -40.152  46.785  1.00  0.00     0.000 C 
BRANCH   5   6
ATOM      6  C   UNL     1     -11.089 -40.257  48.057  1.00  0.00     0.006 C 
BRANCH   6   7
ATOM      7  C   UNL     1     -10.323 -38.964  48.361  1.00  0.00     0.053 C 
BRANCH   7   8
ATOM      8  C   UNL     1      -8.847 -39.200  48.283  1.00  0.00     0.041 C 
ATOM      9  O   UNL     1      -8.386 -40.367  48.375  1.00  0.00    -0.550 OA
ATOM     10  O   UNL     1      -7.984 -38.134  48.058  1.00  0.00    -0.550 OA
ENDBRANCH   7   8
ENDBRANCH   6   7
ENDBRANCH   5   6
ENDBRANCH   4   5
ENDBRANCH   3   4
ENDBRANCH   2   3
ENDBRANCH   1   2
BRANCH   1  11
ATOM     11  C   UNL     1      -8.818 -38.132  44.418  1.00  0.00     0.000 C 
BRANCH  11  12
ATOM     12  C   UNL     1      -9.720 -37.190  45.231  1.00  0.00     0.000 C 
BRANCH  12  13
ATOM     13  C   UNL     1     -10.585 -36.283  44.339  1.00  0.00     0.000 C 
BRANCH  13  14
ATOM     14  C   UNL     1     -10.065 -34.837  44.287  1.00  0.00     0.000 C 
BRANCH  14  15
ATOM     15  C   UNL     1      -9.216 -34.561  43.033  1.00  0.00     0.000 C 
BRANCH  15  16
ATOM     16  C   UNL     1     -10.049 -34.012  41.860  1.00  0.00     0.006 C 
BRANCH  16  17
ATOM     17  C   UNL     1      -9.255 -33.146  40.868  1.00  0.00     0.053 C 
BRANCH  17  18
ATOM     18  C   UNL     1      -7.876 -32.842  41.366  1.00  0.00     0.041 C 
ATOM     19  O   UNL     1      -6.902 -33.558  41.011  1.00  0.00    -0.550 OA
ATOM     20  O   UNL     1      -7.660 -31.748  42.194  1.00  0.00    -0.550 OA
ENDBRANCH  17  18
ENDBRANCH  16  17
ENDBRANCH  15  16
ENDBRANCH  14  15
ENDBRANCH  13  14
ENDBRANCH  12  13
ENDBRANCH  11  12
ENDBRANCH   1  11
TORSDOF 15
ENDMDL
MODEL 8
REMARK VINA RESULT:    -4.834      2.143      7.346
REMARK INTER + INTRA:         -10.524
REMARK INTER:                  -8.798
REMARK INTRA:                  -1.727
REMARK UNBOUND:                -1.451
REMARK SMILES O=C([O-])CCCCCCCCCCCCCCC(=O)[O-]
REMARK SMILES IDX 10 1 9 2 8 3 7 4 6 5 5 6 4 7 2 8 1 9 3 10 11 11 12 12 13 13
REMARK SMILES IDX 14 14 15 15 16 16 17 17 18 18 19 19 20 20
REMARK H PARENT
REMARK Flexibility Score: inf
ROOT
ATOM      1  C   UNL     1     -10.588 -39.430  44.149  1.00  0.00     0.000 C 
ENDROOT
BRANCH   1   2
ATOM      2  C   UNL     1      -9.086 -39.162  44.301  1.00  0.00     0.000 C 
BRANCH   2   3
ATOM      3  C   UNL     1      -8.602 -39.523  45.713  1.00  0.00     0.000 C 
BRANCH   3   4
ATOM      4  C   UNL     1      -8.458 -38.292  46.622  1.00  0.00     0.000 C 
BRANCH   4   5
ATOM      5  C   UNL     1      -9.206 -38.452  47.959  1.00  0.00     0.000 C 
BRANCH   5   6
ATOM      6  C   UNL     1     -10.721 -38.619  47.772  1.00  0.00     0.006 C 
BRANCH   6   7
ATOM      7  C   UNL     1     -11.518 -38.195  49.012  1.00  0.00     0.053 C 
BRANCH   7   8
ATOM      8  C   UNL     1     -12.230 -36.904  48.760  1.00  0.00     0.041 C 
ATOM      9  O   UNL     1     -11.576 -35.843  48.583  1.00  0.00    -0.550 OA
ATOM     10  O   UNL     1     -13.616 -36.881  48.671  1.00  0.00    -0.550 OA
ENDBRANCH   7   8
ENDBRANCH   6   7
ENDBRANCH   5   6
ENDBRANCH   4   5
ENDBRANCH   3   4
ENDBRANCH   2   3
ENDBRANCH   1   2
BRANCH   1  11
ATOM     11  C   UNL     1     -11.386 -38.117  44.182  1.00  0.00     0.000 C 
BRANCH  11  12
ATOM     12  C   UNL     1     -10.512 -36.884  43.900  1.00  0.00     0.000 C 
BRANCH  12  13
ATOM     13  C   UNL     1     -10.672 -35.790  44.970  1.00  0.00     0.000 C 
BRANCH  13  14
ATOM     14  C   UNL     1      -9.859 -34.525  44.647  1.00  0.00     0.000 C 
BRANCH  14  15
ATOM     15  C   UNL     1     -10.561 -33.619  43.621  1.00  0.00     0.000 C 
BRANCH  15  16
ATOM     16  C   UNL     1     -10.000 -33.787  42.196  1.00  0.00     0.006 C 
BRANCH  16  17
ATOM     17  C   UNL     1      -8.466 -33.861  42.123  1.00  0.00     0.053 C 
BRANCH  17  18
ATOM     18  C   UNL     1      -7.827 -32.525  42.349  1.00  0.00     0.041 C 
ATOM     19  O   UNL     1      -7.909 -31.626  41.471  1.00  0.00    -0.550 OA
ATOM     20  O   UNL     1      -7.169 -32.261  43.544  1.00  0.00    -0.550 OA
ENDBRANCH  17  18
ENDBRANCH  16  17
ENDBRANCH  15  16
ENDBRANCH  14  15
ENDBRANCH  13  14
ENDBRANCH  12  13
ENDBRANCH  11  12
ENDBRANCH   1  11
TORSDOF 15
ENDMDL
MODEL 9
REMARK VINA RESULT:    -4.797      3.262      7.030
REMARK INTER + INTRA:         -10.454
REMARK INTER:                  -8.610
REMARK INTRA:                  -1.844
REMARK UNBOUND:                -1.451
REMARK SMILES O=C([O-])CCCCCCCCCCCCCCC(=O)[O-]
REMARK SMILES IDX 10 1 9 2 8 3 7 4 6 5 5 6 4 7 2 8 1 9 3 10 11 11 12 12 13 13
REMARK SMILES IDX 14 14 15 15 16 16 17 17 18 18 19 19 20 20
REMARK H PARENT
REMARK Flexibility Score: inf
ROOT
ATOM      1  C   UNL     1     -10.460 -40.007  46.822  1.00  0.00     0.000 C 
ENDROOT
BRANCH   1   2
ATOM      2  C   UNL     1     -11.944 -40.362  46.666  1.00  0.00     0.000 C 
BRANCH   2   3
ATOM      3  C   UNL     1     -12.550 -39.665  45.439  1.00  0.00     0.000 C 
BRANCH   3   4
ATOM      4  C   UNL     1     -12.565 -40.565  44.193  1.00  0.00     0.000 C 
BRANCH   4   5
ATOM      5  C   UNL     1     -11.515 -40.147  43.148  1.00  0.00     0.000 C 
BRANCH   5   6
ATOM      6  C   UNL     1     -10.498 -41.260  42.854  1.00  0.00     0.006 C 
BRANCH   6   7
ATOM      7  C   UNL     1      -9.047 -40.771  42.944  1.00  0.00     0.053 C 
BRANCH   7   8
ATOM      8  C   UNL     1      -8.153 -41.631  42.107  1.00  0.00     0.041 C 
ATOM      9  O   UNL     1      -8.360 -42.870  42.025  1.00  0.00    -0.550 OA
ATOM     10  O   UNL     1      -7.120 -41.056  41.378  1.00  0.00    -0.550 OA
ENDBRANCH   7   8
ENDBRANCH   6   7
ENDBRANCH   5   6
ENDBRANCH   4   5
ENDBRANCH   3   4
ENDBRANCH   2   3
ENDBRANCH   1   2
BRANCH   1  11
ATOM     11  C   UNL     1     -10.201 -38.546  46.421  1.00  0.00     0.000 C 
BRANCH  11  12
ATOM     12  C   UNL     1      -8.871 -38.363  45.672  1.00  0.00     0.000 C 
BRANCH  12  13
ATOM     13  C   UNL     1      -8.976 -37.343  44.525  1.00  0.00     0.000 C 
BRANCH  13  14
ATOM     14  C   UNL     1     -10.402 -36.792  44.354  1.00  0.00     0.000 C 
BRANCH  14  15
ATOM     15  C   UNL     1     -10.441 -35.255  44.326  1.00  0.00     0.000 C 
BRANCH  15  16
ATOM     16  C   UNL     1     -10.325 -34.682  42.900  1.00  0.00     0.006 C 
BRANCH  16  17
ATOM     17  C   UNL     1      -9.295 -33.550  42.753  1.00  0.00     0.053 C 
BRANCH  17  18
ATOM     18  C   UNL     1      -8.798 -33.421  41.346  1.00  0.00     0.041 C 
ATOM     19  O   UNL     1      -9.615 -33.355  40.389  1.00  0.00    -0.550 OA
ATOM     20  O   UNL     1      -7.435 -33.340  41.093  1.00  0.00    -0.550 OA
ENDBRANCH  17  18
ENDBRANCH  16  17
ENDBRANCH  15  16
ENDBRANCH  14  15
ENDBRANCH  13  14
ENDBRANCH  12  13
ENDBRANCH  11  12
ENDBRANCH   1  11
TORSDOF 15
ENDMDL
