MODEL 1
REMARK VINA RESULT:    -3.587      0.000      0.000
REMARK INTER + INTRA:          -6.648
REMARK INTER:                  -5.475
REMARK INTRA:                  -1.173
REMARK UNBOUND:                -1.173
REMARK SMILES CCCCCCCCCCC(=O)[O-]
REMARK SMILES IDX 7 1 8 2 9 3 10 4 11 5 12 6 13 7 6 8 5 9 4 10 3 11 2 12 1 13
REMARK H PARENT
REMARK Flexibility Score: inf
ROOT
ATOM      1  C   UNL     1      -8.619  16.434  -3.369  1.00  0.00     0.000 C 
ENDROOT
BRANCH   1   2
ATOM      2  C   UNL     1      -9.092  14.995  -3.121  1.00  0.00     0.000 C 
BRANCH   2   3
ATOM      3  C   UNL     1      -8.140  13.983  -3.772  1.00  0.00     0.006 C 
BRANCH   3   4
ATOM      4  C   UNL     1      -6.801  14.617  -4.172  1.00  0.00     0.053 C 
BRANCH   4   5
ATOM      5  C   UNL     1      -6.528  14.461  -5.637  1.00  0.00     0.041 C 
ATOM      6  O   UNL     1      -5.786  13.531  -6.047  1.00  0.00    -0.550 OA
ATOM      7  O   UNL     1      -7.120  15.323  -6.551  1.00  0.00    -0.550 OA
ENDBRANCH   4   5
ENDBRANCH   3   4
ENDBRANCH   2   3
ENDBRANCH   1   2
BRANCH   1   8
ATOM      8  C   UNL     1      -8.889  17.320  -2.142  1.00  0.00     0.000 C 
BRANCH   8   9
ATOM      9  C   UNL     1      -9.936  16.715  -1.193  1.00  0.00    -0.000 C 
BRANCH   9  10
ATOM     10  C   UNL     1      -9.438  16.635   0.261  1.00  0.00    -0.000 C 
BRANCH  10  11
ATOM     11  C   UNL     1      -7.902  16.627   0.368  1.00  0.00    -0.000 C 
BRANCH  11  12
ATOM     12  C   UNL     1      -7.263  15.229   0.446  1.00  0.00    -0.003 C 
ATOM     13  C   UNL     1      -6.179  15.005  -0.608  1.00  0.00     0.004 C 
ENDBRANCH  11  12
ENDBRANCH  10  11
ENDBRANCH   9  10
ENDBRANCH   8   9
ENDBRANCH   1   8
TORSDOF 9
ENDMDL
MODEL 2
REMARK VINA RESULT:    -3.525      3.184      5.302
REMARK INTER + INTRA:          -6.553
REMARK INTER:                  -5.730
REMARK INTRA:                  -0.823
REMARK UNBOUND:                -1.173
REMARK SMILES CCCCCCCCCCC(=O)[O-]
REMARK SMILES IDX 7 1 8 2 9 3 10 4 11 5 12 6 13 7 6 8 5 9 4 10 3 11 2 12 1 13
REMARK H PARENT
REMARK Flexibility Score: inf
ROOT
ATOM      1  C   UNL     1      -6.403  17.249   1.620  1.00  0.00     0.000 C 
ENDROOT
BRANCH   1   2
ATOM      2  C   UNL     1      -6.255  15.782   1.197  1.00  0.00     0.000 C 
BRANCH   2   3
ATOM      3  C   UNL     1      -7.348  15.385   0.194  1.00  0.00     0.006 C 
BRANCH   3   4
ATOM      4  C   UNL     1      -8.215  16.580  -0.224  1.00  0.00     0.053 C 
BRANCH   4   5
ATOM      5  C   UNL     1      -8.444  16.610  -1.704  1.00  0.00     0.041 C 
ATOM      6  O   UNL     1      -8.885  17.652  -2.255  1.00  0.00    -0.550 OA
ATOM      7  O   UNL     1      -8.139  15.498  -2.479  1.00  0.00    -0.550 OA
ENDBRANCH   4   5
ENDBRANCH   3   4
ENDBRANCH   2   3
ENDBRANCH   1   2
BRANCH   1   8
ATOM      8  C   UNL     1      -6.686  17.361   3.126  1.00  0.00     0.000 C 
BRANCH   8   9
ATOM      9  C   UNL     1      -8.081  17.930   3.426  1.00  0.00    -0.000 C 
BRANCH   9  10
ATOM     10  C   UNL     1      -9.181  16.857   3.371  1.00  0.00    -0.000 C 
BRANCH  10  11
ATOM     11  C   UNL     1     -10.480  17.364   2.718  1.00  0.00    -0.000 C 
BRANCH  11  12
ATOM     12  C   UNL     1     -11.536  17.900   3.700  1.00  0.00    -0.003 C 
ATOM     13  C   UNL     1     -11.910  19.359   3.441  1.00  0.00     0.004 C 
ENDBRANCH  11  12
ENDBRANCH  10  11
ENDBRANCH   9  10
ENDBRANCH   8   9
ENDBRANCH   1   8
TORSDOF 9
ENDMDL
MODEL 3
REMARK VINA RESULT:    -3.503      4.671      6.330
REMARK INTER + INTRA:          -6.520
REMARK INTER:                  -5.739
REMARK INTRA:                  -0.780
REMARK UNBOUND:                -1.173
REMARK SMILES CCCCCCCCCCC(=O)[O-]
REMARK SMILES IDX 7 1 8 2 9 3 10 4 11 5 12 6 13 7 6 8 5 9 4 10 3 11 2 12 1 13
REMARK H PARENT
REMARK Flexibility Score: inf
ROOT
ATOM      1  C   UNL     1      -9.399  16.696   0.399  1.00  0.00     0.000 C 
ENDROOT
BRANCH   1   2
ATOM      2  C   UNL     1      -7.866  16.653   0.442  1.00  0.00     0.000 C 
BRANCH   2   3
ATOM      3  C   UNL     1      -7.357  16.583   1.889  1.00  0.00     0.006 C 
BRANCH   3   4
ATOM      4  C   UNL     1      -6.475  17.784   2.254  1.00  0.00     0.053 C 
BRANCH   4   5
ATOM      5  C   UNL     1      -6.838  18.356   3.590  1.00  0.00     0.041 C 
ATOM      6  O   UNL     1      -6.065  18.210   4.572  1.00  0.00    -0.550 OA
ATOM      7  O   UNL     1      -8.014  19.079   3.741  1.00  0.00    -0.550 OA
ENDBRANCH   4   5
ENDBRANCH   3   4
ENDBRANCH   2   3
ENDBRANCH   1   2
BRANCH   1   8
ATOM      8  C   UNL     1      -9.905  16.784  -1.049  1.00  0.00     0.000 C 
BRANCH   8   9
ATOM      9  C   UNL     1      -8.801  17.184  -2.040  1.00  0.00    -0.000 C 
BRANCH   9  10
ATOM     10  C   UNL     1      -8.724  16.239  -3.251  1.00  0.00    -0.000 C 
BRANCH  10  11
ATOM     11  C   UNL     1      -8.093  14.877  -2.908  1.00  0.00    -0.000 C 
BRANCH  11  12
ATOM     12  C   UNL     1      -6.607  14.929  -2.511  1.00  0.00    -0.003 C 
ATOM     13  C   UNL     1      -6.279  14.055  -1.301  1.00  0.00     0.004 C 
ENDBRANCH  11  12
ENDBRANCH  10  11
ENDBRANCH   9  10
ENDBRANCH   8   9
ENDBRANCH   1   8
TORSDOF 9
ENDMDL
MODEL 4
REMARK VINA RESULT:    -3.465      1.453      1.903
REMARK INTER + INTRA:          -6.461
REMARK INTER:                  -5.862
REMARK INTRA:                  -0.599
REMARK UNBOUND:                -1.173
REMARK SMILES CCCCCCCCCCC(=O)[O-]
REMARK SMILES IDX 7 1 8 2 9 3 10 4 11 5 12 6 13 7 6 8 5 9 4 10 3 11 2 12 1 13
REMARK H PARENT
REMARK Flexibility Score: inf
ROOT
ATOM      1  C   UNL     1      -8.753  17.058  -2.350  1.00  0.00     0.000 C 
ENDROOT
BRANCH   1   2
ATOM      2  C   UNL     1      -8.129  15.669  -2.536  1.00  0.00     0.000 C 
BRANCH   2   3
ATOM      3  C   UNL     1      -8.676  14.984  -3.796  1.00  0.00     0.006 C 
BRANCH   3   4
ATOM      4  C   UNL     1      -8.431  15.815  -5.063  1.00  0.00     0.053 C 
BRANCH   4   5
ATOM      5  C   UNL     1      -7.396  15.190  -5.947  1.00  0.00     0.041 C 
ATOM      6  O   UNL     1      -6.334  14.730  -5.451  1.00  0.00    -0.550 OA
ATOM      7  O   UNL     1      -7.620  15.084  -7.314  1.00  0.00    -0.550 OA
ENDBRANCH   4   5
ENDBRANCH   3   4
ENDBRANCH   2   3
ENDBRANCH   1   2
BRANCH   1   8
ATOM      8  C   UNL     1      -9.867  17.021  -1.291  1.00  0.00     0.000 C 
BRANCH   8   9
ATOM      9  C   UNL     1      -9.565  16.041  -0.147  1.00  0.00    -0.000 C 
BRANCH   9  10
ATOM     10  C   UNL     1      -8.958  16.738   1.083  1.00  0.00    -0.000 C 
BRANCH  10  11
ATOM     11  C   UNL     1      -7.572  16.183   1.462  1.00  0.00    -0.000 C 
BRANCH  11  12
ATOM     12  C   UNL     1      -6.465  17.242   1.603  1.00  0.00    -0.003 C 
ATOM     13  C   UNL     1      -6.481  17.949   2.958  1.00  0.00     0.004 C 
ENDBRANCH  11  12
ENDBRANCH  10  11
ENDBRANCH   9  10
ENDBRANCH   8   9
ENDBRANCH   1   8
TORSDOF 9
ENDMDL
MODEL 5
REMARK VINA RESULT:    -3.457      5.128      7.243
REMARK INTER + INTRA:          -6.449
REMARK INTER:                  -5.609
REMARK INTRA:                  -0.840
REMARK UNBOUND:                -1.173
REMARK SMILES CCCCCCCCCCC(=O)[O-]
REMARK SMILES IDX 7 1 8 2 9 3 10 4 11 5 12 6 13 7 6 8 5 9 4 10 3 11 2 12 1 13
REMARK H PARENT
REMARK Flexibility Score: inf
ROOT
ATOM      1  C   UNL     1      -5.746  15.833   0.746  1.00  0.00     0.000 C 
ENDROOT
BRANCH   1   2
ATOM      2  C   UNL     1      -6.354  16.169   2.115  1.00  0.00     0.000 C 
BRANCH   2   3
ATOM      3  C   UNL     1      -6.519  17.685   2.287  1.00  0.00     0.006 C 
BRANCH   3   4
ATOM      4  C   UNL     1      -7.558  18.038   3.359  1.00  0.00     0.053 C 
BRANCH   4   5
ATOM      5  C   UNL     1      -7.147  19.236   4.159  1.00  0.00     0.041 C 
ATOM      6  O   UNL     1      -7.571  20.380   3.849  1.00  0.00    -0.550 OA
ATOM      7  O   UNL     1      -6.323  19.084   5.267  1.00  0.00    -0.550 OA
ENDBRANCH   4   5
ENDBRANCH   3   4
ENDBRANCH   2   3
ENDBRANCH   1   2
BRANCH   1   8
ATOM      8  C   UNL     1      -6.362  14.547   0.173  1.00  0.00     0.000 C 
BRANCH   8   9
ATOM      9  C   UNL     1      -6.633  14.642  -1.337  1.00  0.00    -0.000 C 
BRANCH   9  10
ATOM     10  C   UNL     1      -8.121  14.864  -1.657  1.00  0.00    -0.000 C 
BRANCH  10  11
ATOM     11  C   UNL     1      -8.396  16.235  -2.303  1.00  0.00    -0.000 C 
BRANCH  11  12
ATOM     12  C   UNL     1      -9.280  17.180  -1.471  1.00  0.00    -0.003 C 
ATOM     13  C   UNL     1      -9.495  16.694  -0.039  1.00  0.00     0.004 C 
ENDBRANCH  11  12
ENDBRANCH  10  11
ENDBRANCH   9  10
ENDBRANCH   8   9
ENDBRANCH   1   8
TORSDOF 9
ENDMDL
MODEL 6
REMARK VINA RESULT:    -3.424      1.432      2.813
REMARK INTER + INTRA:          -6.398
REMARK INTER:                  -5.355
REMARK INTRA:                  -1.043
REMARK UNBOUND:                -1.173
REMARK SMILES CCCCCCCCCCC(=O)[O-]
REMARK SMILES IDX 7 1 8 2 9 3 10 4 11 5 12 6 13 7 6 8 5 9 4 10 3 11 2 12 1 13
REMARK H PARENT
REMARK Flexibility Score: inf
ROOT
ATOM      1  C   UNL     1      -9.964  16.217  -0.225  1.00  0.00     0.000 C 
ENDROOT
BRANCH   1   2
ATOM      2  C   UNL     1      -9.927  17.235  -1.372  1.00  0.00     0.000 C 
BRANCH   2   3
ATOM      3  C   UNL     1      -8.791  16.919  -2.354  1.00  0.00     0.006 C 
BRANCH   3   4
ATOM      4  C   UNL     1      -8.944  15.533  -2.994  1.00  0.00     0.053 C 
BRANCH   4   5
ATOM      5  C   UNL     1      -8.121  15.401  -4.239  1.00  0.00     0.041 C 
ATOM      6  O   UNL     1      -8.474  15.987  -5.296  1.00  0.00    -0.550 OA
ATOM      7  O   UNL     1      -6.947  14.659  -4.222  1.00  0.00    -0.550 OA
ENDBRANCH   4   5
ENDBRANCH   3   4
ENDBRANCH   2   3
ENDBRANCH   1   2
BRANCH   1   8
ATOM      8  C   UNL     1      -9.422  16.834   1.074  1.00  0.00     0.000 C 
BRANCH   8   9
ATOM      9  C   UNL     1      -8.197  16.083   1.620  1.00  0.00    -0.000 C 
BRANCH   9  10
ATOM     10  C   UNL     1      -6.874  16.795   1.293  1.00  0.00    -0.000 C 
BRANCH  10  11
ATOM     11  C   UNL     1      -5.791  15.835   0.767  1.00  0.00    -0.000 C 
BRANCH  11  12
ATOM     12  C   UNL     1      -6.124  15.149  -0.570  1.00  0.00    -0.003 C 
ATOM     13  C   UNL     1      -6.155  13.624  -0.469  1.00  0.00     0.004 C 
ENDBRANCH  11  12
ENDBRANCH  10  11
ENDBRANCH   9  10
ENDBRANCH   8   9
ENDBRANCH   1   8
TORSDOF 9
ENDMDL
MODEL 7
REMARK VINA RESULT:    -3.408      1.202      2.304
REMARK INTER + INTRA:          -6.373
REMARK INTER:                  -5.425
REMARK INTRA:                  -0.948
REMARK UNBOUND:                -1.173
REMARK SMILES CCCCCCCCCCC(=O)[O-]
REMARK SMILES IDX 7 1 8 2 9 3 10 4 11 5 12 6 13 7 6 8 5 9 4 10 3 11 2 12 1 13
REMARK H PARENT
REMARK Flexibility Score: inf
ROOT
ATOM      1  C   UNL     1      -8.245  13.962  -3.520  1.00  0.00     0.000 C 
ENDROOT
BRANCH   1   2
ATOM      2  C   UNL     1      -6.898  14.604  -3.876  1.00  0.00     0.000 C 
BRANCH   2   3
ATOM      3  C   UNL     1      -6.456  14.206  -5.292  1.00  0.00     0.006 C 
BRANCH   3   4
ATOM      4  C   UNL     1      -7.089  15.095  -6.370  1.00  0.00     0.053 C 
BRANCH   4   5
ATOM      5  C   UNL     1      -7.659  14.285  -7.494  1.00  0.00     0.041 C 
ATOM      6  O   UNL     1      -8.192  14.857  -8.480  1.00  0.00    -0.550 OA
ATOM      7  O   UNL     1      -7.570  12.899  -7.468  1.00  0.00    -0.550 OA
ENDBRANCH   4   5
ENDBRANCH   3   4
ENDBRANCH   2   3
ENDBRANCH   1   2
BRANCH   1   8
ATOM      8  C   UNL     1      -9.244  15.021  -3.027  1.00  0.00     0.000 C 
BRANCH   8   9
ATOM      9  C   UNL     1      -8.698  16.452  -3.145  1.00  0.00    -0.000 C 
BRANCH   9  10
ATOM     10  C   UNL     1      -8.958  17.290  -1.881  1.00  0.00    -0.000 C 
BRANCH  10  11
ATOM     11  C   UNL     1      -9.020  16.437  -0.601  1.00  0.00    -0.000 C 
BRANCH  11  12
ATOM     12  C   UNL     1      -7.757  16.487   0.277  1.00  0.00    -0.003 C 
ATOM     13  C   UNL     1      -6.752  15.386  -0.056  1.00  0.00     0.004 C 
ENDBRANCH  11  12
ENDBRANCH  10  11
ENDBRANCH   9  10
ENDBRANCH   8   9
ENDBRANCH   1   8
TORSDOF 9
ENDMDL
MODEL 8
REMARK VINA RESULT:    -3.391      1.910      3.129
REMARK INTER + INTRA:          -6.349
REMARK INTER:                  -6.018
REMARK INTRA:                  -0.331
REMARK UNBOUND:                -1.173
REMARK SMILES CCCCCCCCCCC(=O)[O-]
REMARK SMILES IDX 7 1 8 2 9 3 10 4 11 5 12 6 13 7 6 8 5 9 4 10 3 11 2 12 1 13
REMARK H PARENT
REMARK Flexibility Score: inf
ROOT
ATOM      1  C   UNL     1      -9.121  17.238  -1.811  1.00  0.00     0.000 C 
ENDROOT
BRANCH   1   2
ATOM      2  C   UNL     1      -8.406  16.039  -2.449  1.00  0.00     0.000 C 
BRANCH   2   3
ATOM      3  C   UNL     1      -8.548  16.062  -3.977  1.00  0.00     0.006 C 
BRANCH   3   4
ATOM      4  C   UNL     1      -8.225  14.703  -4.612  1.00  0.00     0.053 C 
BRANCH   4   5
ATOM      5  C   UNL     1      -7.090  14.800  -5.585  1.00  0.00     0.041 C 
ATOM      6  O   UNL     1      -6.058  14.097  -5.426  1.00  0.00    -0.550 OA
ATOM      7  O   UNL     1      -7.187  15.641  -6.686  1.00  0.00    -0.550 OA
ENDBRANCH   4   5
ENDBRANCH   3   4
ENDBRANCH   2   3
ENDBRANCH   1   2
BRANCH   1   8
ATOM      8  C   UNL     1      -9.654  16.880  -0.415  1.00  0.00     0.000 C 
BRANCH   8   9
ATOM      9  C   UNL     1      -8.530  16.646   0.607  1.00  0.00    -0.000 C 
BRANCH   9  10
ATOM     10  C   UNL     1      -9.054  16.556   2.051  1.00  0.00    -0.000 C 
BRANCH  10  11
ATOM     11  C   UNL     1     -10.412  17.256   2.239  1.00  0.00    -0.000 C 
BRANCH  11  12
ATOM     12  C   UNL     1     -10.365  18.556   3.062  1.00  0.00    -0.003 C 
ATOM     13  C   UNL     1     -11.751  19.133   3.350  1.00  0.00     0.004 C 
ENDBRANCH  11  12
ENDBRANCH  10  11
ENDBRANCH   9  10
ENDBRANCH   8   9
ENDBRANCH   1   8
TORSDOF 9
ENDMDL
MODEL 9
REMARK VINA RESULT:    -3.376      1.796      2.224
REMARK INTER + INTRA:          -6.326
REMARK INTER:                  -6.030
REMARK INTRA:                  -0.295
REMARK UNBOUND:                -1.173
REMARK SMILES CCCCCCCCCCC(=O)[O-]
REMARK SMILES IDX 7 1 8 2 9 3 10 4 11 5 12 6 13 7 6 8 5 9 4 10 3 11 2 12 1 13
REMARK H PARENT
REMARK Flexibility Score: inf
ROOT
ATOM      1  C   UNL     1      -9.104  15.355  -3.011  1.00  0.00     0.000 C 
ENDROOT
BRANCH   1   2
ATOM      2  C   UNL     1      -8.079  14.919  -4.066  1.00  0.00     0.000 C 
BRANCH   2   3
ATOM      3  C   UNL     1      -8.350  15.602  -5.413  1.00  0.00     0.006 C 
BRANCH   3   4
ATOM      4  C   UNL     1      -7.235  15.340  -6.433  1.00  0.00     0.053 C 
BRANCH   4   5
ATOM      5  C   UNL     1      -7.660  14.359  -7.482  1.00  0.00     0.041 C 
ATOM      6  O   UNL     1      -7.466  13.127  -7.313  1.00  0.00    -0.550 OA
ATOM      7  O   UNL     1      -8.303  14.803  -8.631  1.00  0.00    -0.550 OA
ENDBRANCH   4   5
ENDBRANCH   3   4
ENDBRANCH   2   3
ENDBRANCH   1   2
BRANCH   1   8
ATOM      8  C   UNL     1      -8.769  16.751  -2.464  1.00  0.00     0.000 C 
BRANCH   8   9
ATOM      9  C   UNL     1      -9.026  16.874  -0.953  1.00  0.00    -0.000 C 
BRANCH   9  10
ATOM     10  C   UNL     1      -7.887  16.274  -0.110  1.00  0.00    -0.000 C 
BRANCH  10  11
ATOM     11  C   UNL     1      -7.829  16.854   1.315  1.00  0.00    -0.000 C 
BRANCH  11  12
ATOM     12  C   UNL     1      -6.419  17.218   1.813  1.00  0.00    -0.003 C 
ATOM     13  C   UNL     1      -6.428  17.951   3.154  1.00  0.00     0.004 C 
ENDBRANCH  11  12
ENDBRANCH  10  11
ENDBRANCH   9  10
ENDBRANCH   8   9
ENDBRANCH   1   8
TORSDOF 9
ENDMDL
