MODEL 1
REMARK VINA RESULT:    -4.046      0.000      0.000
REMARK INTER + INTRA:          -4.538
REMARK INTER:                  -4.637
REMARK INTRA:                   0.099
REMARK UNBOUND:                 0.099
REMARK SMILES CC(C)[C@@H]([NH3+])C(=O)[O-]
REMARK SMILES IDX 4 1 5 2 6 6 7 7 8 8 2 9 1 10 3 11
REMARK H PARENT 5 3 5 4 5 5
REMARK Flexibility Score: inf
ROOT
ATOM      1  C   UNL     1     159.577 150.959 166.652  1.00  0.00     0.230 C 
ENDROOT
BRANCH   1   2
ATOM      2  N   UNL     1     158.504 150.086 166.155  1.00  0.00    -0.350 N 
ATOM      3  H   UNL     1     158.898 149.296 165.592  1.00  0.00     0.345 HD
ATOM      4  H   UNL     1     157.957 149.694 166.956  1.00  0.00     0.345 HD
ATOM      5  H   UNL     1     157.836 150.634 165.567  1.00  0.00     0.345 HD
ENDBRANCH   1   2
BRANCH   1   6
ATOM      6  C   UNL     1     158.972 152.202 167.260  1.00  0.00     0.099 C 
ATOM      7  O   UNL     1     159.633 153.272 167.314  1.00  0.00    -0.544 OA
ATOM      8  O   UNL     1     157.676 152.170 167.758  1.00  0.00    -0.544 OA
ENDBRANCH   1   6
BRANCH   1   9
ATOM      9  C   UNL     1     160.494 150.227 167.681  1.00  0.00     0.047 C 
ATOM     10  C   UNL     1     161.940 150.745 167.629  1.00  0.00     0.014 C 
ATOM     11  C   UNL     1     159.955 150.379 169.114  1.00  0.00     0.014 C 
ENDBRANCH   1   9
TORSDOF 3
ENDMDL
MODEL 2
REMARK VINA RESULT:    -4.044     22.238     23.091
REMARK INTER + INTRA:          -4.536
REMARK INTER:                  -4.631
REMARK INTRA:                   0.095
REMARK UNBOUND:                 0.099
REMARK SMILES CC(C)[C@@H]([NH3+])C(=O)[O-]
REMARK SMILES IDX 4 1 5 2 6 6 7 7 8 8 2 9 1 10 3 11
REMARK H PARENT 5 3 5 4 5 5
REMARK Flexibility Score: inf
ROOT
ATOM      1  C   UNL     1     159.579 167.066 151.350  1.00  0.00     0.230 C 
ENDROOT
BRANCH   1   2
ATOM      2  N   UNL     1     158.551 167.976 151.877  1.00  0.00    -0.350 N 
ATOM      3  H   UNL     1     158.254 168.664 151.145  1.00  0.00     0.345 HD
ATOM      4  H   UNL     1     157.715 167.432 152.192  1.00  0.00     0.345 HD
ATOM      5  H   UNL     1     158.916 168.489 152.711  1.00  0.00     0.345 HD
ENDBRANCH   1   2
BRANCH   1   6
ATOM      6  C   UNL     1     158.914 165.852 150.750  1.00  0.00     0.099 C 
ATOM      7  O   UNL     1     159.543 164.766 150.645  1.00  0.00    -0.544 OA
ATOM      8  O   UNL     1     157.596 165.925 150.315  1.00  0.00    -0.544 OA
ENDBRANCH   1   6
BRANCH   1   9
ATOM      9  C   UNL     1     160.499 167.770 150.305  1.00  0.00     0.047 C 
ATOM     10  C   UNL     1     161.944 167.248 150.370  1.00  0.00     0.014 C 
ATOM     11  C   UNL     1     159.961 167.584 148.875  1.00  0.00     0.014 C 
ENDBRANCH   1   9
TORSDOF 3
ENDMDL
MODEL 3
REMARK VINA RESULT:    -4.040     14.800     15.919
REMARK INTER + INTRA:          -4.531
REMARK INTER:                  -4.631
REMARK INTRA:                   0.099
REMARK UNBOUND:                 0.099
REMARK SMILES CC(C)[C@@H]([NH3+])C(=O)[O-]
REMARK SMILES IDX 4 1 5 2 6 6 7 7 8 8 2 9 1 10 3 11
REMARK H PARENT 5 3 5 4 5 5
REMARK Flexibility Score: inf
ROOT
ATOM      1  C   UNL     1     158.390 167.106 166.645  1.00  0.00     0.230 C 
ENDROOT
BRANCH   1   2
ATOM      2  N   UNL     1     159.450 167.999 166.154  1.00  0.00    -0.350 N 
ATOM      3  H   UNL     1     159.979 168.422 166.952  1.00  0.00     0.345 HD
ATOM      4  H   UNL     1     160.116 167.469 165.547  1.00  0.00     0.345 HD
ATOM      5  H   UNL     1     159.037 168.759 165.566  1.00  0.00     0.345 HD
ENDBRANCH   1   2
BRANCH   1   6
ATOM      6  C   UNL     1     159.014 165.857 167.220  1.00  0.00     0.099 C 
ATOM      7  O   UNL     1     158.367 164.777 167.253  1.00  0.00    -0.544 OA
ATOM      8  O   UNL     1     160.313 165.894 167.712  1.00  0.00    -0.544 OA
ENDBRANCH   1   6
BRANCH   1   9
ATOM      9  C   UNL     1     157.478 167.807 167.697  1.00  0.00     0.047 C 
ATOM     10  C   UNL     1     156.029 167.300 167.629  1.00  0.00     0.014 C 
ATOM     11  C   UNL     1     158.016 167.604 169.125  1.00  0.00     0.014 C 
ENDBRANCH   1   9
TORSDOF 3
ENDMDL
MODEL 4
REMARK VINA RESULT:    -4.038     16.343     17.191
REMARK INTER + INTRA:          -4.530
REMARK INTER:                  -4.628
REMARK INTRA:                   0.098
REMARK UNBOUND:                 0.099
REMARK SMILES CC(C)[C@@H]([NH3+])C(=O)[O-]
REMARK SMILES IDX 4 1 5 2 6 6 7 7 8 8 2 9 1 10 3 11
REMARK H PARENT 5 3 5 4 5 5
REMARK Flexibility Score: inf
ROOT
ATOM      1  C   UNL     1     158.371 151.034 151.341  1.00  0.00     0.230 C 
ENDROOT
BRANCH   1   2
ATOM      2  N   UNL     1     159.413 150.115 151.822  1.00  0.00    -0.350 N 
ATOM      3  H   UNL     1     160.071 149.861 151.047  1.00  0.00     0.345 HD
ATOM      4  H   UNL     1     159.957 150.561 152.597  1.00  0.00     0.345 HD
ATOM      5  H   UNL     1     158.979 149.248 152.211  1.00  0.00     0.345 HD
ENDBRANCH   1   2
BRANCH   1   6
ATOM      6  C   UNL     1     159.020 152.261 150.745  1.00  0.00     0.099 C 
ATOM      7  O   UNL     1     158.402 153.358 150.714  1.00  0.00    -0.544 OA
ATOM      8  O   UNL     1     160.309 152.185 150.233  1.00  0.00    -0.544 OA
ENDBRANCH   1   6
BRANCH   1   9
ATOM      9  C   UNL     1     157.423 150.350 150.308  1.00  0.00     0.047 C 
ATOM     10  C   UNL     1     156.001 150.930 150.364  1.00  0.00     0.014 C 
ATOM     11  C   UNL     1     157.967 150.489 148.875  1.00  0.00     0.014 C 
ENDBRANCH   1   9
TORSDOF 3
ENDMDL
MODEL 5
REMARK VINA RESULT:    -4.002      1.341      1.749
REMARK INTER + INTRA:          -4.488
REMARK INTER:                  -4.480
REMARK INTRA:                  -0.007
REMARK UNBOUND:                 0.099
REMARK SMILES CC(C)[C@@H]([NH3+])C(=O)[O-]
REMARK SMILES IDX 4 1 5 2 6 6 7 7 8 8 2 9 1 10 3 11
REMARK H PARENT 5 3 5 4 5 5
REMARK Flexibility Score: inf
ROOT
ATOM      1  C   UNL     1     160.007 150.668 167.323  1.00  0.00     0.230 C 
ENDROOT
BRANCH   1   2
ATOM      2  N   UNL     1     159.716 149.250 167.581  1.00  0.00    -0.350 N 
ATOM      3  H   UNL     1     158.830 148.961 167.104  1.00  0.00     0.345 HD
ATOM      4  H   UNL     1     160.501 148.652 167.233  1.00  0.00     0.345 HD
ATOM      5  H   UNL     1     159.632 149.080 168.609  1.00  0.00     0.345 HD
ENDBRANCH   1   2
BRANCH   1   6
ATOM      6  C   UNL     1     158.906 151.521 167.905  1.00  0.00     0.099 C 
ATOM      7  O   UNL     1     159.142 152.303 168.863  1.00  0.00    -0.544 OA
ATOM      8  O   UNL     1     157.622 151.451 167.378  1.00  0.00    -0.544 OA
ENDBRANCH   1   6
BRANCH   1   9
ATOM      9  C   UNL     1     161.397 151.091 167.893  1.00  0.00     0.047 C 
ATOM     10  C   UNL     1     162.386 149.915 167.923  1.00  0.00     0.014 C 
ATOM     11  C   UNL     1     162.007 152.242 167.074  1.00  0.00     0.014 C 
ENDBRANCH   1   9
TORSDOF 3
ENDMDL
MODEL 6
REMARK VINA RESULT:    -3.854     14.200     15.266
REMARK INTER + INTRA:          -4.318
REMARK INTER:                  -4.269
REMARK INTRA:                  -0.049
REMARK UNBOUND:                 0.099
REMARK SMILES CC(C)[C@@H]([NH3+])C(=O)[O-]
REMARK SMILES IDX 4 1 5 2 6 6 7 7 8 8 2 9 1 10 3 11
REMARK H PARENT 5 3 5 4 5 5
REMARK Flexibility Score: inf
ROOT
ATOM      1  C   UNL     1     158.171 166.461 166.766  1.00  0.00     0.230 C 
ENDROOT
BRANCH   1   2
ATOM      2  N   UNL     1     159.635 166.535 166.879  1.00  0.00    -0.350 N 
ATOM      3  H   UNL     1     159.916 166.925 167.809  1.00  0.00     0.345 HD
ATOM      4  H   UNL     1     160.054 165.583 166.768  1.00  0.00     0.345 HD
ATOM      5  H   UNL     1     160.026 167.133 166.116  1.00  0.00     0.345 HD
ENDBRANCH   1   2
BRANCH   1   6
ATOM      6  C   UNL     1     157.774 165.089 166.278  1.00  0.00     0.099 C 
ATOM      7  O   UNL     1     158.478 164.083 166.559  1.00  0.00    -0.544 OA
ATOM      8  O   UNL     1     156.620 164.928 165.521  1.00  0.00    -0.544 OA
ENDBRANCH   1   6
BRANCH   1   9
ATOM      9  C   UNL     1     157.465 166.797 168.116  1.00  0.00     0.047 C 
ATOM     10  C   UNL     1     158.429 167.448 169.120  1.00  0.00     0.014 C 
ATOM     11  C   UNL     1     156.259 167.728 167.897  1.00  0.00     0.014 C 
ENDBRANCH   1   9
TORSDOF 3
ENDMDL
MODEL 7
REMARK VINA RESULT:    -3.849      1.342      2.220
REMARK INTER + INTRA:          -4.313
REMARK INTER:                  -4.265
REMARK INTRA:                  -0.049
REMARK UNBOUND:                 0.099
REMARK SMILES CC(C)[C@@H]([NH3+])C(=O)[O-]
REMARK SMILES IDX 4 1 5 2 6 6 7 7 8 8 2 9 1 10 3 11
REMARK H PARENT 5 3 5 4 5 5
REMARK Flexibility Score: inf
ROOT
ATOM      1  C   UNL     1     159.776 151.533 166.798  1.00  0.00     0.230 C 
ENDROOT
BRANCH   1   2
ATOM      2  N   UNL     1     158.311 151.464 166.902  1.00  0.00    -0.350 N 
ATOM      3  H   UNL     1     157.937 152.283 167.437  1.00  0.00     0.345 HD
ATOM      4  H   UNL     1     157.882 151.457 165.948  1.00  0.00     0.345 HD
ATOM      5  H   UNL     1     158.023 150.577 167.375  1.00  0.00     0.345 HD
ENDBRANCH   1   2
BRANCH   1   6
ATOM      6  C   UNL     1     160.182 152.913 166.343  1.00  0.00     0.099 C 
ATOM      7  O   UNL     1     159.443 153.906 166.576  1.00  0.00    -0.544 OA
ATOM      8  O   UNL     1     161.383 153.096 165.669  1.00  0.00    -0.544 OA
ENDBRANCH   1   6
BRANCH   1   9
ATOM      9  C   UNL     1     160.473 151.163 168.144  1.00  0.00     0.047 C 
ATOM     10  C   UNL     1     159.503 150.485 169.125  1.00  0.00     0.014 C 
ATOM     11  C   UNL     1     161.681 150.239 167.909  1.00  0.00     0.014 C 
ENDBRANCH   1   9
TORSDOF 3
ENDMDL
MODEL 8
REMARK VINA RESULT:    -3.843     16.091     16.879
REMARK INTER + INTRA:          -4.306
REMARK INTER:                  -4.259
REMARK INTRA:                  -0.048
REMARK UNBOUND:                 0.099
REMARK SMILES CC(C)[C@@H]([NH3+])C(=O)[O-]
REMARK SMILES IDX 4 1 5 2 6 6 7 7 8 8 2 9 1 10 3 11
REMARK H PARENT 5 3 5 4 5 5
REMARK Flexibility Score: inf
ROOT
ATOM      1  C   UNL     1     158.186 151.495 151.239  1.00  0.00     0.230 C 
ENDROOT
BRANCH   1   2
ATOM      2  N   UNL     1     159.647 151.362 151.135  1.00  0.00    -0.350 N 
ATOM      3  H   UNL     1     159.951 150.397 151.404  1.00  0.00     0.345 HD
ATOM      4  H   UNL     1     159.958 151.555 150.155  1.00  0.00     0.345 HD
ATOM      5  H   UNL     1     160.118 152.062 151.751  1.00  0.00     0.345 HD
ENDBRANCH   1   2
BRANCH   1   6
ATOM      6  C   UNL     1     157.842 152.883 151.722  1.00  0.00     0.099 C 
ATOM      7  O   UNL     1     156.834 153.073 152.453  1.00  0.00    -0.544 OA
ATOM      8  O   UNL     1     158.644 153.960 151.367  1.00  0.00    -0.544 OA
ENDBRANCH   1   6
BRANCH   1   9
ATOM      9  C   UNL     1     157.475 151.186 149.885  1.00  0.00     0.047 C 
ATOM     10  C   UNL     1     158.427 150.523 148.876  1.00  0.00     0.014 C 
ATOM     11  C   UNL     1     156.250 150.278 150.094  1.00  0.00     0.014 C 
ENDBRANCH   1   9
TORSDOF 3
ENDMDL
MODEL 9
REMARK VINA RESULT:    -3.833     21.636     22.550
REMARK INTER + INTRA:          -4.295
REMARK INTER:                  -4.247
REMARK INTRA:                  -0.048
REMARK UNBOUND:                 0.099
REMARK SMILES CC(C)[C@@H]([NH3+])C(=O)[O-]
REMARK SMILES IDX 4 1 5 2 6 6 7 7 8 8 2 9 1 10 3 11
REMARK H PARENT 5 3 5 4 5 5
REMARK Flexibility Score: inf
ROOT
ATOM      1  C   UNL     1     159.748 166.494 151.198  1.00  0.00     0.230 C 
ENDROOT
BRANCH   1   2
ATOM      2  N   UNL     1     158.285 166.631 151.146  1.00  0.00    -0.350 N 
ATOM      3  H   UNL     1     157.955 167.350 151.831  1.00  0.00     0.345 HD
ATOM      4  H   UNL     1     157.984 166.912 150.184  1.00  0.00     0.345 HD
ATOM      5  H   UNL     1     157.829 165.714 151.355  1.00  0.00     0.345 HD
ENDBRANCH   1   2
BRANCH   1   6
ATOM      6  C   UNL     1     160.106 165.098 151.648  1.00  0.00     0.099 C 
ATOM      7  O   UNL     1     161.115 164.900 152.374  1.00  0.00    -0.544 OA
ATOM      8  O   UNL     1     159.314 164.022 151.266  1.00  0.00    -0.544 OA
ENDBRANCH   1   6
BRANCH   1   9
ATOM      9  C   UNL     1     160.414 166.824 149.827  1.00  0.00     0.047 C 
ATOM     10  C   UNL     1     159.443 167.545 148.878  1.00  0.00     0.014 C 
ATOM     11  C   UNL     1     161.673 167.689 150.013  1.00  0.00     0.014 C 
ENDBRANCH   1   9
TORSDOF 3
ENDMDL
