MODEL 1
REMARK VINA RESULT:    -4.644      0.000      0.000
REMARK INTER + INTRA:          -5.307
REMARK INTER:                  -5.052
REMARK INTRA:                  -0.255
REMARK UNBOUND:                -0.255
REMARK SMILES O=C([O-])c1ccccc1O
REMARK SMILES IDX 4 1 9 2 5 3 8 4 6 5 7 6 2 7 1 8 3 9 10 10
REMARK H PARENT 10 11
REMARK Flexibility Score: inf
ROOT
ATOM      1  C   UNL     1      35.066 -29.846  10.973  1.00  0.00     0.039 A 
ATOM      2  C   UNL     1      34.367 -30.981  11.445  1.00  0.00     0.124 A 
ATOM      3  C   UNL     1      35.976 -30.004   9.908  1.00  0.00     0.014 A 
ATOM      4  C   UNL     1      34.585 -32.235  10.852  1.00  0.00     0.047 A 
ATOM      5  C   UNL     1      36.183 -31.257   9.327  1.00  0.00     0.001 A 
ATOM      6  C   UNL     1      35.490 -32.371   9.798  1.00  0.00     0.004 A 
ENDROOT
BRANCH   1   7
ATOM      7  C   UNL     1      34.866 -28.500  11.571  1.00  0.00     0.075 C 
ATOM      8  O   UNL     1      35.857 -27.773  11.848  1.00  0.00    -0.545 OA
ATOM      9  O   UNL     1      33.591 -28.016  11.837  1.00  0.00    -0.545 OA
ENDBRANCH   1   7
BRANCH   2  10
ATOM     10  O   UNL     1      33.456 -30.874  12.497  1.00  0.00    -0.507 OA
ATOM     11  H   UNL     1      33.609 -30.238  13.270  1.00  0.00     0.293 HD
ENDBRANCH   2  10
TORSDOF 2
ENDMDL
MODEL 2
REMARK VINA RESULT:    -4.633      0.942      1.117
REMARK INTER + INTRA:          -5.294
REMARK INTER:                  -5.052
REMARK INTRA:                  -0.243
REMARK UNBOUND:                -0.255
REMARK SMILES O=C([O-])c1ccccc1O
REMARK SMILES IDX 4 1 9 2 5 3 8 4 6 5 7 6 2 7 1 8 3 9 10 10
REMARK H PARENT 10 11
REMARK Flexibility Score: inf
ROOT
ATOM      1  C   UNL     1      34.699 -29.970  11.362  1.00  0.00     0.039 A 
ATOM      2  C   UNL     1      34.362 -31.338  11.496  1.00  0.00     0.124 A 
ATOM      3  C   UNL     1      35.646 -29.598  10.388  1.00  0.00     0.014 A 
ATOM      4  C   UNL     1      34.969 -32.293  10.666  1.00  0.00     0.047 A 
ATOM      5  C   UNL     1      36.242 -30.558   9.568  1.00  0.00     0.001 A 
ATOM      6  C   UNL     1      35.905 -31.904   9.707  1.00  0.00     0.004 A 
ENDROOT
BRANCH   1   7
ATOM      7  C   UNL     1      34.081 -28.925  12.221  1.00  0.00     0.075 C 
ATOM      8  O   UNL     1      33.893 -29.140  13.447  1.00  0.00    -0.545 OA
ATOM      9  O   UNL     1      33.700 -27.698  11.694  1.00  0.00    -0.545 OA
ENDBRANCH   1   7
BRANCH   2  10
ATOM     10  O   UNL     1      33.429 -31.755  12.447  1.00  0.00    -0.507 OA
ATOM     11  H   UNL     1      32.686 -32.403  12.216  1.00  0.00     0.293 HD
ENDBRANCH   2  10
TORSDOF 2
ENDMDL
MODEL 3
REMARK VINA RESULT:    -4.586      1.986      3.504
REMARK INTER + INTRA:          -5.243
REMARK INTER:                  -4.992
REMARK INTRA:                  -0.251
REMARK UNBOUND:                -0.255
REMARK SMILES O=C([O-])c1ccccc1O
REMARK SMILES IDX 4 1 9 2 5 3 8 4 6 5 7 6 2 7 1 8 3 9 10 10
REMARK H PARENT 10 11
REMARK Flexibility Score: inf
ROOT
ATOM      1  C   UNL     1      34.831 -30.761  11.070  1.00  0.00     0.039 A 
ATOM      2  C   UNL     1      33.913 -30.348  12.064  1.00  0.00     0.124 A 
ATOM      3  C   UNL     1      35.735 -29.815  10.546  1.00  0.00     0.014 A 
ATOM      4  C   UNL     1      33.916 -29.018  12.511  1.00  0.00     0.047 A 
ATOM      5  C   UNL     1      35.727 -28.493  11.000  1.00  0.00     0.001 A 
ATOM      6  C   UNL     1      34.819 -28.095  11.980  1.00  0.00     0.004 A 
ENDROOT
BRANCH   1   7
ATOM      7  C   UNL     1      34.863 -32.160  10.567  1.00  0.00     0.075 C 
ATOM      8  O   UNL     1      34.879 -33.125  11.376  1.00  0.00    -0.545 OA
ATOM      9  O   UNL     1      34.877 -32.433   9.205  1.00  0.00    -0.545 OA
ENDBRANCH   1   7
BRANCH   2  10
ATOM     10  O   UNL     1      32.999 -31.250  12.612  1.00  0.00    -0.507 OA
ATOM     11  H   UNL     1      32.253 -30.945  13.225  1.00  0.00     0.293 HD
ENDBRANCH   2  10
TORSDOF 2
ENDMDL
MODEL 4
REMARK VINA RESULT:    -4.420      2.394      3.481
REMARK INTER + INTRA:          -5.062
REMARK INTER:                  -4.860
REMARK INTRA:                  -0.202
REMARK UNBOUND:                -0.255
REMARK SMILES O=C([O-])c1ccccc1O
REMARK SMILES IDX 4 1 9 2 5 3 8 4 6 5 7 6 2 7 1 8 3 9 10 10
REMARK H PARENT 10 11
REMARK Flexibility Score: inf
ROOT
ATOM      1  C   UNL     1      35.939 -30.355  10.584  1.00  0.00     0.039 A 
ATOM      2  C   UNL     1      34.812 -31.099  11.003  1.00  0.00     0.124 A 
ATOM      3  C   UNL     1      36.008 -28.985  10.910  1.00  0.00     0.014 A 
ATOM      4  C   UNL     1      33.789 -30.470  11.731  1.00  0.00     0.047 A 
ATOM      5  C   UNL     1      34.984 -28.372  11.635  1.00  0.00     0.001 A 
ATOM      6  C   UNL     1      33.876 -29.113  12.044  1.00  0.00     0.004 A 
ENDROOT
BRANCH   1   7
ATOM      7  C   UNL     1      37.045 -30.980   9.811  1.00  0.00     0.075 C 
ATOM      8  O   UNL     1      36.859 -31.352   8.623  1.00  0.00    -0.545 OA
ATOM      9  O   UNL     1      38.300 -31.167  10.378  1.00  0.00    -0.545 OA
ENDBRANCH   1   7
BRANCH   2  10
ATOM     10  O   UNL     1      34.699 -32.457  10.704  1.00  0.00    -0.507 OA
ATOM     11  H   UNL     1      34.181 -32.783   9.897  1.00  0.00     0.293 HD
ENDBRANCH   2  10
TORSDOF 2
ENDMDL
MODEL 5
REMARK VINA RESULT:    -4.135      2.197      4.049
REMARK INTER + INTRA:          -4.752
REMARK INTER:                  -4.507
REMARK INTRA:                  -0.245
REMARK UNBOUND:                -0.255
REMARK SMILES O=C([O-])c1ccccc1O
REMARK SMILES IDX 4 1 9 2 5 3 8 4 6 5 7 6 2 7 1 8 3 9 10 10
REMARK H PARENT 10 11
REMARK Flexibility Score: inf
ROOT
ATOM      1  C   UNL     1      34.813 -30.796  10.933  1.00  0.00     0.039 A 
ATOM      2  C   UNL     1      35.925 -29.980  10.616  1.00  0.00     0.124 A 
ATOM      3  C   UNL     1      33.746 -30.235  11.663  1.00  0.00     0.014 A 
ATOM      4  C   UNL     1      35.949 -28.638  11.028  1.00  0.00     0.047 A 
ATOM      5  C   UNL     1      33.782 -28.898  12.066  1.00  0.00     0.001 A 
ATOM      6  C   UNL     1      34.881 -28.101  11.750  1.00  0.00     0.004 A 
ENDROOT
BRANCH   1   7
ATOM      7  C   UNL     1      34.747 -32.222  10.518  1.00  0.00     0.075 C 
ATOM      8  O   UNL     1      34.555 -33.125  11.374  1.00  0.00    -0.545 OA
ATOM      9  O   UNL     1      34.893 -32.588   9.186  1.00  0.00    -0.545 OA
ENDBRANCH   1   7
BRANCH   2  10
ATOM     10  O   UNL     1      37.005 -30.491   9.896  1.00  0.00    -0.507 OA
ATOM     11  H   UNL     1      36.987 -30.559   8.886  1.00  0.00     0.293 HD
ENDBRANCH   2  10
TORSDOF 2
ENDMDL
MODEL 6
REMARK VINA RESULT:    -4.048      1.066      2.248
REMARK INTER + INTRA:          -4.658
REMARK INTER:                  -4.494
REMARK INTRA:                  -0.164
REMARK UNBOUND:                -0.255
REMARK SMILES O=C([O-])c1ccccc1O
REMARK SMILES IDX 4 1 9 2 5 3 8 4 6 5 7 6 2 7 1 8 3 9 10 10
REMARK H PARENT 10 11
REMARK Flexibility Score: inf
ROOT
ATOM      1  C   UNL     1      34.770 -29.841  11.121  1.00  0.00     0.039 A 
ATOM      2  C   UNL     1      36.129 -29.667  10.769  1.00  0.00     0.124 A 
ATOM      3  C   UNL     1      34.046 -30.896  10.530  1.00  0.00     0.014 A 
ATOM      4  C   UNL     1      36.731 -30.537   9.847  1.00  0.00     0.047 A 
ATOM      5  C   UNL     1      34.657 -31.756   9.614  1.00  0.00     0.001 A 
ATOM      6  C   UNL     1      35.997 -31.576   9.272  1.00  0.00     0.004 A 
ENDROOT
BRANCH   1   7
ATOM      7  C   UNL     1      34.092 -28.943  12.093  1.00  0.00     0.075 C 
ATOM      8  O   UNL     1      33.752 -27.779  11.753  1.00  0.00    -0.545 OA
ATOM      9  O   UNL     1      33.820 -29.363  13.389  1.00  0.00    -0.545 OA
ENDBRANCH   1   7
BRANCH   2  10
ATOM     10  O   UNL     1      36.885 -28.636  11.328  1.00  0.00    -0.507 OA
ATOM     11  H   UNL     1      37.745 -28.819  11.831  1.00  0.00     0.293 HD
ENDBRANCH   2  10
TORSDOF 2
ENDMDL
MODEL 7
REMARK VINA RESULT:    -3.880     18.447     20.099
REMARK INTER + INTRA:          -4.475
REMARK INTER:                  -4.221
REMARK INTRA:                  -0.254
REMARK UNBOUND:                -0.255
REMARK SMILES O=C([O-])c1ccccc1O
REMARK SMILES IDX 4 1 9 2 5 3 8 4 6 5 7 6 2 7 1 8 3 9 10 10
REMARK H PARENT 10 11
REMARK Flexibility Score: inf
ROOT
ATOM      1  C   UNL     1      22.780 -15.456   7.128  1.00  0.00     0.039 A 
ATOM      2  C   UNL     1      22.939 -14.058   7.280  1.00  0.00     0.124 A 
ATOM      3  C   UNL     1      21.782 -15.934   6.256  1.00  0.00     0.014 A 
ATOM      4  C   UNL     1      22.109 -13.177   6.568  1.00  0.00     0.047 A 
ATOM      5  C   UNL     1      20.963 -15.047   5.553  1.00  0.00     0.001 A 
ATOM      6  C   UNL     1      21.126 -13.671   5.710  1.00  0.00     0.004 A 
ENDROOT
BRANCH   1   7
ATOM      7  C   UNL     1      23.637 -16.424   7.862  1.00  0.00     0.075 C 
ATOM      8  O   UNL     1      24.112 -17.429   7.269  1.00  0.00    -0.545 OA
ATOM      9  O   UNL     1      23.931 -16.245   9.207  1.00  0.00    -0.545 OA
ENDBRANCH   1   7
BRANCH   2  10
ATOM     10  O   UNL     1      23.914 -13.538   8.132  1.00  0.00    -0.507 OA
ATOM     11  H   UNL     1      24.832 -13.959   8.212  1.00  0.00     0.293 HD
ENDBRANCH   2  10
TORSDOF 2
ENDMDL
MODEL 8
REMARK VINA RESULT:    -3.743      2.307      3.765
REMARK INTER + INTRA:          -4.326
REMARK INTER:                  -4.076
REMARK INTRA:                  -0.251
REMARK UNBOUND:                -0.255
REMARK SMILES O=C([O-])c1ccccc1O
REMARK SMILES IDX 4 1 9 2 5 3 8 4 6 5 7 6 2 7 1 8 3 9 10 10
REMARK H PARENT 10 11
REMARK Flexibility Score: inf
ROOT
ATOM      1  C   UNL     1      35.781 -30.200  10.444  1.00  0.00     0.039 A 
ATOM      2  C   UNL     1      35.965 -29.016  11.196  1.00  0.00     0.124 A 
ATOM      3  C   UNL     1      34.483 -30.734  10.325  1.00  0.00     0.014 A 
ATOM      4  C   UNL     1      34.864 -28.397  11.808  1.00  0.00     0.047 A 
ATOM      5  C   UNL     1      33.395 -30.107  10.938  1.00  0.00     0.001 A 
ATOM      6  C   UNL     1      33.585 -28.941  11.679  1.00  0.00     0.004 A 
ENDROOT
BRANCH   1   7
ATOM      7  C   UNL     1      36.920 -30.888   9.780  1.00  0.00     0.075 C 
ATOM      8  O   UNL     1      37.983 -31.115  10.415  1.00  0.00    -0.545 OA
ATOM      9  O   UNL     1      36.837 -31.295   8.454  1.00  0.00    -0.545 OA
ENDBRANCH   1   7
BRANCH   2  10
ATOM     10  O   UNL     1      37.233 -28.451  11.342  1.00  0.00    -0.507 OA
ATOM     11  H   UNL     1      37.403 -27.470  11.156  1.00  0.00     0.293 HD
ENDBRANCH   2  10
TORSDOF 2
ENDMDL
MODEL 9
REMARK VINA RESULT:    -3.692     18.423     20.077
REMARK INTER + INTRA:          -4.271
REMARK INTER:                  -4.029
REMARK INTRA:                  -0.242
REMARK UNBOUND:                -0.255
REMARK SMILES O=C([O-])c1ccccc1O
REMARK SMILES IDX 4 1 9 2 5 3 8 4 6 5 7 6 2 7 1 8 3 9 10 10
REMARK H PARENT 10 11
REMARK Flexibility Score: inf
ROOT
ATOM      1  C   UNL     1      22.927 -15.294   7.275  1.00  0.00     0.039 A 
ATOM      2  C   UNL     1      21.911 -15.371   6.294  1.00  0.00     0.124 A 
ATOM      3  C   UNL     1      23.271 -14.031   7.798  1.00  0.00     0.014 A 
ATOM      4  C   UNL     1      21.267 -14.203   5.859  1.00  0.00     0.047 A 
ATOM      5  C   UNL     1      22.621 -12.876   7.357  1.00  0.00     0.001 A 
ATOM      6  C   UNL     1      21.621 -12.961   6.389  1.00  0.00     0.004 A 
ENDROOT
BRANCH   1   7
ATOM      7  C   UNL     1      23.636 -16.506   7.764  1.00  0.00     0.075 C 
ATOM      8  O   UNL     1      23.959 -17.421   6.961  1.00  0.00    -0.545 OA
ATOM      9  O   UNL     1      23.957 -16.657   9.107  1.00  0.00    -0.545 OA
ENDBRANCH   1   7
BRANCH   2  10
ATOM     10  O   UNL     1      21.538 -16.600   5.747  1.00  0.00    -0.507 OA
ATOM     11  H   UNL     1      22.001 -17.462   6.007  1.00  0.00     0.293 HD
ENDBRANCH   2  10
TORSDOF 2
ENDMDL
