MODEL 1
REMARK VINA RESULT:    -5.936      0.000      0.000
REMARK INTER + INTRA:          -9.805
REMARK INTER:                  -8.539
REMARK INTRA:                  -1.265
REMARK UNBOUND:                -1.265
REMARK SMILES O=c1c(O[C@@H]2O[C@H](CO)[C@@H](O)[C@@H](O)[C@@H]2O)c(-c2ccc(O)cc2)oc2cc(O)cc(O)c12
REMARK SMILES IDX 4 1 3 2 16 3 24 4 2 5 25 6 1 7 32 8 26 9 30 10 27 11 29 12
REMARK SMILES IDX 17 13 18 14 19 15 20 16 23 17 22 18 21 19 31 21 28 23 5 25
REMARK SMILES IDX 14 26 6 27 12 28 7 29 10 30 15 31 13 33 8 35 9 36 11 38
REMARK H PARENT 21 20 31 22 28 24 15 32 13 34 9 37 11 39
REMARK Flexibility Score: inf
ROOT
ATOM      1  O   UNL     1      17.686  -3.244 -12.006  1.00  0.00    -0.454 OA
ENDROOT
BRANCH   1   2
ATOM      2  C   UNL     1      17.298  -4.042 -13.098  1.00  0.00     0.214 A 
ATOM      3  C   UNL     1      16.897  -3.403 -14.289  1.00  0.00     0.180 A 
ATOM      4  O   UNL     1      16.568  -4.123 -15.356  1.00  0.00    -0.452 OA
ATOM      5  C   UNL     1      17.310  -5.453 -13.066  1.00  0.00     0.239 A 
ATOM      6  C   UNL     1      16.572  -5.450 -15.370  1.00  0.00     0.146 A 
ATOM      7  O   UNL     1      17.632  -6.060 -12.012  1.00  0.00    -0.285 OA
ATOM      8  C   UNL     1      16.944  -6.180 -14.220  1.00  0.00     0.111 A 
ATOM      9  C   UNL     1      16.205  -6.117 -16.543  1.00  0.00     0.094 A 
ATOM     10  C   UNL     1      16.933  -7.596 -14.271  1.00  0.00     0.134 A 
ATOM     11  C   UNL     1      16.197  -7.515 -16.587  1.00  0.00     0.123 A 
ATOM     12  C   UNL     1      16.559  -8.247 -15.455  1.00  0.00     0.093 A 
BRANCH   3  13
ATOM     13  C   UNL     1      16.873  -1.928 -14.415  1.00  0.00     0.021 A 
ATOM     14  C   UNL     1      15.738  -1.180 -14.058  1.00  0.00     0.016 A 
ATOM     15  C   UNL     1      15.739   0.212 -14.188  1.00  0.00     0.047 A 
ATOM     16  C   UNL     1      16.865   0.870 -14.690  1.00  0.00     0.115 A 
ATOM     17  C   UNL     1      17.993  -1.262 -14.941  1.00  0.00     0.016 A 
ATOM     18  C   UNL     1      17.991   0.129 -15.071  1.00  0.00     0.047 A 
BRANCH  16  19
ATOM     19  O   UNL     1      16.853   2.258 -14.813  1.00  0.00    -0.508 OA
ATOM     20  H   UNL     1      16.513   2.854 -14.067  1.00  0.00     0.293 HD
ENDBRANCH  16  19
ENDBRANCH   3  13
BRANCH  10  21
ATOM     21  O   UNL     1      17.290  -8.359 -13.158  1.00  0.00    -0.507 OA
ATOM     22  H   UNL     1      17.282  -9.372 -13.181  1.00  0.00     0.293 HD
ENDBRANCH  10  21
BRANCH  11  23
ATOM     23  O   UNL     1      15.831  -8.186 -17.752  1.00  0.00    -0.508 OA
ATOM     24  H   UNL     1      14.860  -8.388 -17.963  1.00  0.00     0.293 HD
ENDBRANCH  11  23
ENDBRANCH   1   2
BRANCH   1  25
ATOM     25  C   UNL     1      16.813  -2.560 -11.103  1.00  0.00     0.339 C 
ATOM     26  C   UNL     1      16.791  -3.277  -9.740  1.00  0.00     0.214 C 
ATOM     27  O   UNL     1      17.140  -1.181 -10.983  1.00  0.00    -0.332 OA
ATOM     28  C   UNL     1      18.135  -3.102  -9.033  1.00  0.00     0.180 C 
ATOM     29  C   UNL     1      18.372  -0.921 -10.319  1.00  0.00     0.179 C 
ATOM     30  C   UNL     1      18.477  -1.604  -8.935  1.00  0.00     0.177 C 
BRANCH  26  31
ATOM     31  O   UNL     1      16.534  -4.647  -9.918  1.00  0.00    -0.384 OA
ATOM     32  H   UNL     1      16.343  -5.022  -9.018  1.00  0.00     0.211 HD
ENDBRANCH  26  31
BRANCH  28  33
ATOM     33  O   UNL     1      18.068  -3.675  -7.752  1.00  0.00    -0.387 OA
ATOM     34  H   UNL     1      17.346  -4.355  -7.781  1.00  0.00     0.211 HD
ENDBRANCH  28  33
BRANCH  29  35
ATOM     35  C   UNL     1      19.593  -1.170 -11.225  1.00  0.00     0.191 C 
BRANCH  35  36
ATOM     36  O   UNL     1      19.775  -0.083 -12.090  1.00  0.00    -0.394 OA
ATOM     37  H   UNL     1      20.071   0.675 -11.522  1.00  0.00     0.210 HD
ENDBRANCH  35  36
ENDBRANCH  29  35
BRANCH  30  38
ATOM     38  O   UNL     1      17.591  -0.965  -8.047  1.00  0.00    -0.387 OA
ATOM     39  H   UNL     1      16.751  -0.793  -8.548  1.00  0.00     0.211 HD
ENDBRANCH  30  38
ENDBRANCH   1  25
TORSDOF 11
ENDMDL
MODEL 2
REMARK VINA RESULT:    -5.922      3.849      6.033
REMARK INTER + INTRA:          -9.783
REMARK INTER:                  -8.353
REMARK INTRA:                  -1.430
REMARK UNBOUND:                -1.265
REMARK SMILES O=c1c(O[C@@H]2O[C@H](CO)[C@@H](O)[C@@H](O)[C@@H]2O)c(-c2ccc(O)cc2)oc2cc(O)cc(O)c12
REMARK SMILES IDX 4 1 3 2 16 3 24 4 2 5 25 6 1 7 32 8 26 9 30 10 27 11 29 12
REMARK SMILES IDX 17 13 18 14 19 15 20 16 23 17 22 18 21 19 31 21 28 23 5 25
REMARK SMILES IDX 14 26 6 27 12 28 7 29 10 30 15 31 13 33 8 35 9 36 11 38
REMARK H PARENT 21 20 31 22 28 24 15 32 13 34 9 37 11 39
REMARK Flexibility Score: inf
ROOT
ATOM      1  O   UNL     1      18.941   0.740 -13.581  1.00  0.00    -0.454 OA
ENDROOT
BRANCH   1   2
ATOM      2  C   UNL     1      19.004   0.344 -14.930  1.00  0.00     0.214 A 
ATOM      3  C   UNL     1      17.951  -0.435 -15.452  1.00  0.00     0.180 A 
ATOM      4  O   UNL     1      17.953  -0.789 -16.733  1.00  0.00    -0.452 OA
ATOM      5  C   UNL     1      20.061   0.705 -15.792  1.00  0.00     0.239 A 
ATOM      6  C   UNL     1      18.923  -0.464 -17.578  1.00  0.00     0.146 A 
ATOM      7  O   UNL     1      21.035   1.373 -15.355  1.00  0.00    -0.285 OA
ATOM      8  C   UNL     1      20.029   0.300 -17.144  1.00  0.00     0.111 A 
ATOM      9  C   UNL     1      18.835  -0.889 -18.907  1.00  0.00     0.094 A 
ATOM     10  C   UNL     1      21.047   0.624 -18.074  1.00  0.00     0.134 A 
ATOM     11  C   UNL     1      19.844  -0.565 -19.820  1.00  0.00     0.123 A 
ATOM     12  C   UNL     1      20.942   0.187 -19.402  1.00  0.00     0.093 A 
BRANCH   3  13
ATOM     13  C   UNL     1      16.795  -0.842 -14.623  1.00  0.00     0.021 A 
ATOM     14  C   UNL     1      15.744   0.049 -14.342  1.00  0.00     0.016 A 
ATOM     15  C   UNL     1      14.662  -0.358 -13.556  1.00  0.00     0.047 A 
ATOM     16  C   UNL     1      14.625  -1.651 -13.027  1.00  0.00     0.115 A 
ATOM     17  C   UNL     1      16.761  -2.133 -14.070  1.00  0.00     0.016 A 
ATOM     18  C   UNL     1      15.680  -2.538 -13.283  1.00  0.00     0.047 A 
BRANCH  16  19
ATOM     19  O   UNL     1      13.540  -2.045 -12.246  1.00  0.00    -0.508 OA
ATOM     20  H   UNL     1      13.668  -2.567 -11.387  1.00  0.00     0.293 HD
ENDBRANCH  16  19
ENDBRANCH   3  13
BRANCH  10  21
ATOM     21  O   UNL     1      22.159   1.376 -17.691  1.00  0.00    -0.507 OA
ATOM     22  H   UNL     1      23.058   1.268 -18.145  1.00  0.00     0.293 HD
ENDBRANCH  10  21
BRANCH  11  23
ATOM     23  O   UNL     1      19.763  -0.986 -21.146  1.00  0.00    -0.508 OA
ATOM     24  H   UNL     1      19.489  -1.932 -21.385  1.00  0.00     0.293 HD
ENDBRANCH  11  23
ENDBRANCH   1   2
BRANCH   1  25
ATOM     25  C   UNL     1      19.264  -0.067 -12.444  1.00  0.00     0.339 C 
ATOM     26  C   UNL     1      20.547   0.453 -11.771  1.00  0.00     0.214 C 
ATOM     27  O   UNL     1      18.176  -0.165 -11.533  1.00  0.00    -0.332 OA
ATOM     28  C   UNL     1      20.282   1.802 -11.104  1.00  0.00     0.180 C 
ATOM     29  C   UNL     1      17.867   1.045 -10.848  1.00  0.00     0.179 C 
ATOM     30  C   UNL     1      19.089   1.676 -10.139  1.00  0.00     0.177 C 
BRANCH  26  31
ATOM     31  O   UNL     1      21.568   0.598 -12.725  1.00  0.00    -0.384 OA
ATOM     32  H   UNL     1      22.343   0.069 -12.399  1.00  0.00     0.211 HD
ENDBRANCH  26  31
BRANCH  28  33
ATOM     33  O   UNL     1      21.432   2.216 -10.411  1.00  0.00    -0.387 OA
ATOM     34  H   UNL     1      21.189   3.046  -9.925  1.00  0.00     0.211 HD
ENDBRANCH  28  33
BRANCH  29  35
ATOM     35  C   UNL     1      17.086   2.036 -11.732  1.00  0.00     0.191 C 
BRANCH  35  36
ATOM     36  O   UNL     1      15.770   2.158 -11.264  1.00  0.00    -0.394 OA
ATOM     37  H   UNL     1      15.741   3.000 -10.739  1.00  0.00     0.210 HD
ENDBRANCH  35  36
ENDBRANCH  29  35
BRANCH  30  38
ATOM     38  O   UNL     1      19.440   0.867  -9.041  1.00  0.00    -0.387 OA
ATOM     39  H   UNL     1      20.427   0.919  -8.945  1.00  0.00     0.211 HD
ENDBRANCH  30  38
ENDBRANCH   1  25
TORSDOF 11
ENDMDL
MODEL 3
REMARK VINA RESULT:    -5.700      3.451      5.638
REMARK INTER + INTRA:          -9.465
REMARK INTER:                  -8.010
REMARK INTRA:                  -1.455
REMARK UNBOUND:                -1.265
REMARK SMILES O=c1c(O[C@@H]2O[C@H](CO)[C@@H](O)[C@@H](O)[C@@H]2O)c(-c2ccc(O)cc2)oc2cc(O)cc(O)c12
REMARK SMILES IDX 4 1 3 2 16 3 24 4 2 5 25 6 1 7 32 8 26 9 30 10 27 11 29 12
REMARK SMILES IDX 17 13 18 14 19 15 20 16 23 17 22 18 21 19 31 21 28 23 5 25
REMARK SMILES IDX 14 26 6 27 12 28 7 29 10 30 15 31 13 33 8 35 9 36 11 38
REMARK H PARENT 21 20 31 22 28 24 15 32 13 34 9 37 11 39
REMARK Flexibility Score: inf
ROOT
ATOM      1  O   UNL     1      17.897   0.044 -12.267  1.00  0.00    -0.454 OA
ENDROOT
BRANCH   1   2
ATOM      2  C   UNL     1      18.125  -0.138 -13.643  1.00  0.00     0.214 A 
ATOM      3  C   UNL     1      17.185  -0.878 -14.389  1.00  0.00     0.180 A 
ATOM      4  O   UNL     1      17.343  -1.031 -15.700  1.00  0.00    -0.452 OA
ATOM      5  C   UNL     1      19.242   0.401 -14.319  1.00  0.00     0.239 A 
ATOM      6  C   UNL     1      18.372  -0.535 -16.373  1.00  0.00     0.146 A 
ATOM      7  O   UNL     1      20.119   1.041 -13.682  1.00  0.00    -0.285 OA
ATOM      8  C   UNL     1      19.376   0.206 -15.710  1.00  0.00     0.111 A 
ATOM      9  C   UNL     1      18.451  -0.756 -17.752  1.00  0.00     0.094 A 
ATOM     10  C   UNL     1      20.463   0.717 -16.462  1.00  0.00     0.134 A 
ATOM     11  C   UNL     1      19.526  -0.248 -18.488  1.00  0.00     0.123 A 
ATOM     12  C   UNL     1      20.525   0.483 -17.843  1.00  0.00     0.093 A 
BRANCH   3  13
ATOM     13  C   UNL     1      15.977  -1.461 -13.765  1.00  0.00     0.021 A 
ATOM     14  C   UNL     1      15.944  -2.803 -13.345  1.00  0.00     0.016 A 
ATOM     15  C   UNL     1      14.790  -3.333 -12.759  1.00  0.00     0.047 A 
ATOM     16  C   UNL     1      13.653  -2.536 -12.600  1.00  0.00     0.115 A 
ATOM     17  C   UNL     1      14.823  -0.673 -13.622  1.00  0.00     0.016 A 
ATOM     18  C   UNL     1      13.671  -1.205 -13.037  1.00  0.00     0.047 A 
BRANCH  16  19
ATOM     19  O   UNL     1      12.511  -3.076 -12.013  1.00  0.00    -0.508 OA
ATOM     20  H   UNL     1      12.570  -3.799 -11.306  1.00  0.00     0.293 HD
ENDBRANCH  16  19
ENDBRANCH   3  13
BRANCH  10  21
ATOM     21  O   UNL     1      21.478   1.454 -15.850  1.00  0.00    -0.507 OA
ATOM     22  H   UNL     1      22.272   1.804 -16.372  1.00  0.00     0.293 HD
ENDBRANCH  10  21
BRANCH  11  23
ATOM     23  O   UNL     1      19.611  -0.465 -19.861  1.00  0.00    -0.508 OA
ATOM     24  H   UNL     1      19.211   0.186 -20.527  1.00  0.00     0.293 HD
ENDBRANCH  11  23
ENDBRANCH   1   2
BRANCH   1  25
ATOM     25  C   UNL     1      18.271  -0.855 -11.219  1.00  0.00     0.339 C 
ATOM     26  C   UNL     1      19.338  -0.206 -10.318  1.00  0.00     0.214 C 
ATOM     27  O   UNL     1      17.146  -1.313 -10.480  1.00  0.00    -0.332 OA
ATOM     28  C   UNL     1      18.721   0.938  -9.513  1.00  0.00     0.180 C 
ATOM     29  C   UNL     1      16.515  -0.316  -9.683  1.00  0.00     0.179 C 
ATOM     30  C   UNL     1      17.494   0.422  -8.740  1.00  0.00     0.177 C 
BRANCH  26  31
ATOM     31  O   UNL     1      20.394   0.292 -11.100  1.00  0.00    -0.384 OA
ATOM     32  H   UNL     1      20.235  -0.022 -12.030  1.00  0.00     0.211 HD
ENDBRANCH  26  31
BRANCH  28  33
ATOM     33  O   UNL     1      19.679   1.455  -8.625  1.00  0.00    -0.387 OA
ATOM     34  H   UNL     1      20.176   2.157  -9.118  1.00  0.00     0.211 HD
ENDBRANCH  28  33
BRANCH  29  35
ATOM     35  C   UNL     1      15.630   0.630 -10.518  1.00  0.00     0.191 C 
BRANCH  35  36
ATOM     36  O   UNL     1      14.306   0.574 -10.059  1.00  0.00    -0.394 OA
ATOM     37  H   UNL     1      14.339   0.809  -9.095  1.00  0.00     0.210 HD
ENDBRANCH  35  36
ENDBRANCH  29  35
BRANCH  30  38
ATOM     38  O   UNL     1      17.900  -0.466  -7.726  1.00  0.00    -0.387 OA
ATOM     39  H   UNL     1      17.973   0.061  -6.888  1.00  0.00     0.211 HD
ENDBRANCH  30  38
ENDBRANCH   1  25
TORSDOF 11
ENDMDL
MODEL 4
REMARK VINA RESULT:    -5.694      3.722      6.350
REMARK INTER + INTRA:          -9.456
REMARK INTER:                  -8.469
REMARK INTRA:                  -0.987
REMARK UNBOUND:                -1.265
REMARK SMILES O=c1c(O[C@@H]2O[C@H](CO)[C@@H](O)[C@@H](O)[C@@H]2O)c(-c2ccc(O)cc2)oc2cc(O)cc(O)c12
REMARK SMILES IDX 4 1 3 2 16 3 24 4 2 5 25 6 1 7 32 8 26 9 30 10 27 11 29 12
REMARK SMILES IDX 17 13 18 14 19 15 20 16 23 17 22 18 21 19 31 21 28 23 5 25
REMARK SMILES IDX 14 26 6 27 12 28 7 29 10 30 15 31 13 33 8 35 9 36 11 38
REMARK H PARENT 21 20 31 22 28 24 15 32 13 34 9 37 11 39
REMARK Flexibility Score: inf
ROOT
ATOM      1  O   UNL     1      15.839  -6.065 -12.859  1.00  0.00    -0.454 OA
ENDROOT
BRANCH   1   2
ATOM      2  C   UNL     1      14.710  -6.086 -12.019  1.00  0.00     0.214 A 
ATOM      3  C   UNL     1      14.531  -5.028 -11.105  1.00  0.00     0.180 A 
ATOM      4  O   UNL     1      13.453  -4.990 -10.329  1.00  0.00    -0.452 OA
ATOM      5  C   UNL     1      13.735  -7.106 -12.061  1.00  0.00     0.239 A 
ATOM      6  C   UNL     1      12.511  -5.924 -10.342  1.00  0.00     0.146 A 
ATOM      7  O   UNL     1      13.875  -8.083 -12.843  1.00  0.00    -0.285 OA
ATOM      8  C   UNL     1      12.610  -7.032 -11.213  1.00  0.00     0.111 A 
ATOM      9  C   UNL     1      11.416  -5.795  -9.482  1.00  0.00     0.094 A 
ATOM     10  C   UNL     1      11.586  -8.012 -11.197  1.00  0.00     0.134 A 
ATOM     11  C   UNL     1      10.409  -6.766  -9.473  1.00  0.00     0.123 A 
ATOM     12  C   UNL     1      10.497  -7.867 -10.326  1.00  0.00     0.093 A 
BRANCH   3  13
ATOM     13  C   UNL     1      15.494  -3.908 -11.007  1.00  0.00     0.021 A 
ATOM     14  C   UNL     1      15.468  -2.838 -11.918  1.00  0.00     0.016 A 
ATOM     15  C   UNL     1      16.389  -1.791 -11.807  1.00  0.00     0.047 A 
ATOM     16  C   UNL     1      17.355  -1.810 -10.798  1.00  0.00     0.115 A 
ATOM     17  C   UNL     1      16.482  -3.931 -10.009  1.00  0.00     0.016 A 
ATOM     18  C   UNL     1      17.402  -2.885  -9.901  1.00  0.00     0.047 A 
BRANCH  16  19
ATOM     19  O   UNL     1      18.266  -0.760 -10.697  1.00  0.00    -0.508 OA
ATOM     20  H   UNL     1      19.150  -0.776 -11.193  1.00  0.00     0.293 HD
ENDBRANCH  16  19
ENDBRANCH   3  13
BRANCH  10  21
ATOM     21  O   UNL     1      11.642  -9.125 -12.038  1.00  0.00    -0.507 OA
ATOM     22  H   UNL     1      12.103  -9.090 -12.939  1.00  0.00     0.293 HD
ENDBRANCH  10  21
BRANCH  11  23
ATOM     23  O   UNL     1       9.316  -6.645  -8.617  1.00  0.00    -0.508 OA
ATOM     24  H   UNL     1       8.866  -7.459  -8.215  1.00  0.00     0.293 HD
ENDBRANCH  11  23
ENDBRANCH   1   2
BRANCH   1  25
ATOM     25  C   UNL     1      16.490  -7.202 -13.433  1.00  0.00     0.339 C 
ATOM     26  C   UNL     1      16.339  -7.182 -14.965  1.00  0.00     0.214 C 
ATOM     27  O   UNL     1      17.849  -7.302 -13.025  1.00  0.00    -0.332 OA
ATOM     28  C   UNL     1      17.165  -6.042 -15.561  1.00  0.00     0.180 C 
ATOM     29  C   UNL     1      18.701  -6.288 -13.548  1.00  0.00     0.179 C 
ATOM     30  C   UNL     1      18.626  -6.161 -15.088  1.00  0.00     0.177 C 
BRANCH  26  31
ATOM     31  O   UNL     1      14.989  -7.011 -15.316  1.00  0.00    -0.384 OA
ATOM     32  H   UNL     1      14.945  -7.039 -16.308  1.00  0.00     0.211 HD
ENDBRANCH  26  31
BRANCH  28  33
ATOM     33  O   UNL     1      17.097  -6.098 -16.963  1.00  0.00    -0.387 OA
ATOM     34  H   UNL     1      17.429  -5.226 -17.300  1.00  0.00     0.211 HD
ENDBRANCH  28  33
BRANCH  29  35
ATOM     35  C   UNL     1      18.539  -4.946 -12.808  1.00  0.00     0.191 C 
BRANCH  35  36
ATOM     36  O   UNL     1      19.770  -4.546 -12.272  1.00  0.00    -0.394 OA
ATOM     37  H   UNL     1      19.560  -3.895 -11.553  1.00  0.00     0.210 HD
ENDBRANCH  35  36
ENDBRANCH  29  35
BRANCH  30  38
ATOM     38  O   UNL     1      19.229  -7.295 -15.664  1.00  0.00    -0.387 OA
ATOM     39  H   UNL     1      19.685  -6.993 -16.493  1.00  0.00     0.211 HD
ENDBRANCH  30  38
ENDBRANCH   1  25
TORSDOF 11
ENDMDL
MODEL 5
REMARK VINA RESULT:    -5.692      4.210      6.144
REMARK INTER + INTRA:          -9.454
REMARK INTER:                  -8.167
REMARK INTRA:                  -1.287
REMARK UNBOUND:                -1.265
REMARK SMILES O=c1c(O[C@@H]2O[C@H](CO)[C@@H](O)[C@@H](O)[C@@H]2O)c(-c2ccc(O)cc2)oc2cc(O)cc(O)c12
REMARK SMILES IDX 4 1 3 2 16 3 24 4 2 5 25 6 1 7 32 8 26 9 30 10 27 11 29 12
REMARK SMILES IDX 17 13 18 14 19 15 20 16 23 17 22 18 21 19 31 21 28 23 5 25
REMARK SMILES IDX 14 26 6 27 12 28 7 29 10 30 15 31 13 33 8 35 9 36 11 38
REMARK H PARENT 21 20 31 22 28 24 15 32 13 34 9 37 11 39
REMARK Flexibility Score: inf
ROOT
ATOM      1  O   UNL     1      19.044   0.854 -13.559  1.00  0.00    -0.454 OA
ENDROOT
BRANCH   1   2
ATOM      2  C   UNL     1      19.089   0.456 -14.908  1.00  0.00     0.214 A 
ATOM      3  C   UNL     1      18.002  -0.274 -15.430  1.00  0.00     0.180 A 
ATOM      4  O   UNL     1      17.987  -0.628 -16.711  1.00  0.00    -0.452 OA
ATOM      5  C   UNL     1      20.162   0.767 -15.770  1.00  0.00     0.239 A 
ATOM      6  C   UNL     1      18.971  -0.349 -17.556  1.00  0.00     0.146 A 
ATOM      7  O   UNL     1      21.165   1.390 -15.333  1.00  0.00    -0.285 OA
ATOM      8  C   UNL     1      20.111   0.364 -17.122  1.00  0.00     0.111 A 
ATOM      9  C   UNL     1      18.864  -0.769 -18.885  1.00  0.00     0.094 A 
ATOM     10  C   UNL     1      21.144   0.641 -18.052  1.00  0.00     0.134 A 
ATOM     11  C   UNL     1      19.887  -0.492 -19.798  1.00  0.00     0.123 A 
ATOM     12  C   UNL     1      21.019   0.209 -19.380  1.00  0.00     0.093 A 
BRANCH   3  13
ATOM     13  C   UNL     1      16.827  -0.627 -14.601  1.00  0.00     0.021 A 
ATOM     14  C   UNL     1      16.834  -1.755 -13.762  1.00  0.00     0.016 A 
ATOM     15  C   UNL     1      15.712  -2.070 -12.990  1.00  0.00     0.047 A 
ATOM     16  C   UNL     1      14.566  -1.273 -13.059  1.00  0.00     0.115 A 
ATOM     17  C   UNL     1      15.664   0.156 -14.683  1.00  0.00     0.016 A 
ATOM     18  C   UNL     1      14.543  -0.161 -13.910  1.00  0.00     0.047 A 
BRANCH  16  19
ATOM     19  O   UNL     1      13.455  -1.597 -12.283  1.00  0.00    -0.508 OA
ATOM     20  H   UNL     1      13.473  -2.369 -11.627  1.00  0.00     0.293 HD
ENDBRANCH  16  19
ENDBRANCH   3  13
BRANCH  10  21
ATOM     21  O   UNL     1      22.290   1.340 -17.668  1.00  0.00    -0.507 OA
ATOM     22  H   UNL     1      22.670   1.268 -16.732  1.00  0.00     0.293 HD
ENDBRANCH  10  21
BRANCH  11  23
ATOM     23  O   UNL     1      19.787  -0.909 -21.123  1.00  0.00    -0.508 OA
ATOM     24  H   UNL     1      20.463  -0.622 -21.822  1.00  0.00     0.293 HD
ENDBRANCH  11  23
ENDBRANCH   1   2
BRANCH   1  25
ATOM     25  C   UNL     1      19.074   2.199 -13.071  1.00  0.00     0.339 C 
ATOM     26  C   UNL     1      18.138   2.343 -11.857  1.00  0.00     0.214 C 
ATOM     27  O   UNL     1      20.398   2.635 -12.787  1.00  0.00    -0.332 OA
ATOM     28  C   UNL     1      18.709   1.586 -10.658  1.00  0.00     0.180 C 
ATOM     29  C   UNL     1      21.006   1.995 -11.671  1.00  0.00     0.179 C 
ATOM     30  C   UNL     1      20.148   2.061 -10.385  1.00  0.00     0.177 C 
BRANCH  26  31
ATOM     31  O   UNL     1      16.865   1.835 -12.165  1.00  0.00    -0.384 OA
ATOM     32  H   UNL     1      17.007   0.976 -12.645  1.00  0.00     0.211 HD
ENDBRANCH  26  31
BRANCH  28  33
ATOM     33  O   UNL     1      17.897   1.808  -9.534  1.00  0.00    -0.387 OA
ATOM     34  H   UNL     1      17.832   2.791  -9.419  1.00  0.00     0.211 HD
ENDBRANCH  28  33
BRANCH  29  35
ATOM     35  C   UNL     1      21.506   0.577 -12.008  1.00  0.00     0.191 C 
BRANCH  35  36
ATOM     36  O   UNL     1      22.530   0.646 -12.963  1.00  0.00    -0.394 OA
ATOM     37  H   UNL     1      22.182   0.192 -13.774  1.00  0.00     0.210 HD
ENDBRANCH  35  36
ENDBRANCH  29  35
BRANCH  30  38
ATOM     38  O   UNL     1      20.137   3.388  -9.918  1.00  0.00    -0.387 OA
ATOM     39  H   UNL     1      21.008   3.545  -9.467  1.00  0.00     0.211 HD
ENDBRANCH  30  38
ENDBRANCH   1  25
TORSDOF 11
ENDMDL
MODEL 6
REMARK VINA RESULT:    -5.684      2.968      7.498
REMARK INTER + INTRA:          -9.441
REMARK INTER:                  -8.022
REMARK INTRA:                  -1.419
REMARK UNBOUND:                -1.265
REMARK SMILES O=c1c(O[C@@H]2O[C@H](CO)[C@@H](O)[C@@H](O)[C@@H]2O)c(-c2ccc(O)cc2)oc2cc(O)cc(O)c12
REMARK SMILES IDX 4 1 3 2 16 3 24 4 2 5 25 6 1 7 32 8 26 9 30 10 27 11 29 12
REMARK SMILES IDX 17 13 18 14 19 15 20 16 23 17 22 18 21 19 31 21 28 23 5 25
REMARK SMILES IDX 14 26 6 27 12 28 7 29 10 30 15 31 13 33 8 35 9 36 11 38
REMARK H PARENT 21 20 31 22 28 24 15 32 13 34 9 37 11 39
REMARK Flexibility Score: inf
ROOT
ATOM      1  O   UNL     1      16.503  -2.228 -11.878  1.00  0.00    -0.454 OA
ENDROOT
BRANCH   1   2
ATOM      2  C   UNL     1      15.732  -1.145 -11.417  1.00  0.00     0.214 A 
ATOM      3  C   UNL     1      15.993  -0.632 -10.130  1.00  0.00     0.180 A 
ATOM      4  O   UNL     1      15.317   0.419  -9.679  1.00  0.00    -0.452 OA
ATOM      5  C   UNL     1      14.719  -0.535 -12.188  1.00  0.00     0.239 A 
ATOM      6  C   UNL     1      14.364   1.026 -10.374  1.00  0.00     0.146 A 
ATOM      7  O   UNL     1      14.435  -0.984 -13.329  1.00  0.00    -0.285 OA
ATOM      8  C   UNL     1      14.017   0.574 -11.667  1.00  0.00     0.111 A 
ATOM      9  C   UNL     1      13.705   2.123  -9.809  1.00  0.00     0.094 A 
ATOM     10  C   UNL     1      12.992   1.245 -12.378  1.00  0.00     0.134 A 
ATOM     11  C   UNL     1      12.695   2.781 -10.518  1.00  0.00     0.123 A 
ATOM     12  C   UNL     1      12.342   2.341 -11.794  1.00  0.00     0.093 A 
BRANCH   3  13
ATOM     13  C   UNL     1      17.049  -1.199  -9.262  1.00  0.00     0.021 A 
ATOM     14  C   UNL     1      17.017  -2.543  -8.851  1.00  0.00     0.016 A 
ATOM     15  C   UNL     1      18.025  -3.057  -8.030  1.00  0.00     0.047 A 
ATOM     16  C   UNL     1      19.066  -2.232  -7.596  1.00  0.00     0.115 A 
ATOM     17  C   UNL     1      18.086  -0.370  -8.804  1.00  0.00     0.016 A 
ATOM     18  C   UNL     1      19.093  -0.885  -7.982  1.00  0.00     0.047 A 
BRANCH  16  19
ATOM     19  O   UNL     1      20.065  -2.756  -6.778  1.00  0.00    -0.508 OA
ATOM     20  H   UNL     1      20.236  -2.389  -5.849  1.00  0.00     0.293 HD
ENDBRANCH  16  19
ENDBRANCH   3  13
BRANCH  10  21
ATOM     21  O   UNL     1      12.615   0.832 -13.658  1.00  0.00    -0.507 OA
ATOM     22  H   UNL     1      12.619  -0.144 -13.926  1.00  0.00     0.293 HD
ENDBRANCH  10  21
BRANCH  11  23
ATOM     23  O   UNL     1      12.034   3.874  -9.960  1.00  0.00    -0.508 OA
ATOM     24  H   UNL     1      11.107   4.145 -10.266  1.00  0.00     0.293 HD
ENDBRANCH  11  23
ENDBRANCH   1   2
BRANCH   1  25
ATOM     25  C   UNL     1      17.303  -2.255 -13.063  1.00  0.00     0.339 C 
ATOM     26  C   UNL     1      18.684  -2.863 -12.758  1.00  0.00     0.214 C 
ATOM     27  O   UNL     1      16.646  -2.918 -14.137  1.00  0.00    -0.332 OA
ATOM     28  C   UNL     1      18.548  -4.357 -12.465  1.00  0.00     0.180 C 
ATOM     29  C   UNL     1      16.489  -4.322 -13.959  1.00  0.00     0.179 C 
ATOM     30  C   UNL     1      17.816  -5.048 -13.630  1.00  0.00     0.177 C 
BRANCH  26  31
ATOM     31  O   UNL     1      19.260  -2.222 -11.649  1.00  0.00    -0.384 OA
ATOM     32  H   UNL     1      20.062  -2.752 -11.396  1.00  0.00     0.211 HD
ENDBRANCH  26  31
BRANCH  28  33
ATOM     33  O   UNL     1      19.824  -4.918 -12.287  1.00  0.00    -0.387 OA
ATOM     34  H   UNL     1      19.819  -5.363 -11.400  1.00  0.00     0.211 HD
ENDBRANCH  28  33
BRANCH  29  35
ATOM     35  C   UNL     1      15.340  -4.667 -12.992  1.00  0.00     0.191 C 
BRANCH  35  36
ATOM     36  O   UNL     1      14.224  -3.866 -13.272  1.00  0.00    -0.394 OA
ATOM     37  H   UNL     1      13.482  -4.224 -12.720  1.00  0.00     0.210 HD
ENDBRANCH  35  36
ENDBRANCH  29  35
BRANCH  30  38
ATOM     38  O   UNL     1      18.628  -5.046 -14.780  1.00  0.00    -0.387 OA
ATOM     39  H   UNL     1      18.079  -4.682 -15.523  1.00  0.00     0.211 HD
ENDBRANCH  30  38
ENDBRANCH   1  25
TORSDOF 11
ENDMDL
MODEL 7
REMARK VINA RESULT:    -5.657      3.584      6.327
REMARK INTER + INTRA:          -9.402
REMARK INTER:                  -7.946
REMARK INTRA:                  -1.456
REMARK UNBOUND:                -1.265
REMARK SMILES O=c1c(O[C@@H]2O[C@H](CO)[C@@H](O)[C@@H](O)[C@@H]2O)c(-c2ccc(O)cc2)oc2cc(O)cc(O)c12
REMARK SMILES IDX 4 1 3 2 16 3 24 4 2 5 25 6 1 7 32 8 26 9 30 10 27 11 29 12
REMARK SMILES IDX 17 13 18 14 19 15 20 16 23 17 22 18 21 19 31 21 28 23 5 25
REMARK SMILES IDX 14 26 6 27 12 28 7 29 10 30 15 31 13 33 8 35 9 36 11 38
REMARK H PARENT 21 20 31 22 28 24 15 32 13 34 9 37 11 39
REMARK Flexibility Score: inf
ROOT
ATOM      1  O   UNL     1      18.371  -0.016  -9.847  1.00  0.00    -0.454 OA
ENDROOT
BRANCH   1   2
ATOM      2  C   UNL     1      17.553  -1.117 -10.161  1.00  0.00     0.214 A 
ATOM      3  C   UNL     1      17.762  -2.329  -9.473  1.00  0.00     0.180 A 
ATOM      4  O   UNL     1      16.980  -3.377  -9.710  1.00  0.00    -0.452 OA
ATOM      5  C   UNL     1      16.518  -1.062 -11.121  1.00  0.00     0.239 A 
ATOM      6  C   UNL     1      15.993  -3.364 -10.596  1.00  0.00     0.146 A 
ATOM      7  O   UNL     1      16.320  -0.007 -11.778  1.00  0.00    -0.285 OA
ATOM      8  C   UNL     1      15.716  -2.201 -11.348  1.00  0.00     0.111 A 
ATOM      9  C   UNL     1      15.228  -4.521 -10.776  1.00  0.00     0.094 A 
ATOM     10  C   UNL     1      14.657  -2.226 -12.289  1.00  0.00     0.134 A 
ATOM     11  C   UNL     1      14.183  -4.538 -11.706  1.00  0.00     0.123 A 
ATOM     12  C   UNL     1      13.902  -3.396 -12.457  1.00  0.00     0.093 A 
BRANCH   3  13
ATOM     13  C   UNL     1      18.812  -2.469  -8.439  1.00  0.00     0.021 A 
ATOM     14  C   UNL     1      20.177  -2.380  -8.763  1.00  0.00     0.016 A 
ATOM     15  C   UNL     1      21.151  -2.518  -7.769  1.00  0.00     0.047 A 
ATOM     16  C   UNL     1      20.774  -2.761  -6.445  1.00  0.00     0.115 A 
ATOM     17  C   UNL     1      18.441  -2.737  -7.111  1.00  0.00     0.016 A 
ATOM     18  C   UNL     1      19.416  -2.875  -6.118  1.00  0.00     0.047 A 
BRANCH  16  19
ATOM     19  O   UNL     1      21.754  -2.895  -5.464  1.00  0.00    -0.508 OA
ATOM     20  H   UNL     1      21.513  -3.006  -4.486  1.00  0.00     0.293 HD
ENDBRANCH  16  19
ENDBRANCH   3  13
BRANCH  10  21
ATOM     21  O   UNL     1      14.348  -1.101 -13.055  1.00  0.00    -0.507 OA
ATOM     22  H   UNL     1      14.634  -1.020 -14.023  1.00  0.00     0.293 HD
ENDBRANCH  10  21
BRANCH  11  23
ATOM     23  O   UNL     1      13.418  -5.688 -11.891  1.00  0.00    -0.508 OA
ATOM     24  H   UNL     1      12.883  -5.837 -12.739  1.00  0.00     0.293 HD
ENDBRANCH  11  23
ENDBRANCH   1   2
BRANCH   1  25
ATOM     25  C   UNL     1      17.931   1.256  -9.363  1.00  0.00     0.339 C 
ATOM     26  C   UNL     1      18.739   1.657  -8.115  1.00  0.00     0.214 C 
ATOM     27  O   UNL     1      17.967   2.255 -10.375  1.00  0.00    -0.332 OA
ATOM     28  C   UNL     1      20.182   1.978  -8.504  1.00  0.00     0.180 C 
ATOM     29  C   UNL     1      19.276   2.631 -10.789  1.00  0.00     0.179 C 
ATOM     30  C   UNL     1      20.194   3.044  -9.613  1.00  0.00     0.177 C 
BRANCH  26  31
ATOM     31  O   UNL     1      18.730   0.612  -7.177  1.00  0.00    -0.384 OA
ATOM     32  H   UNL     1      19.230  -0.144  -7.585  1.00  0.00     0.211 HD
ENDBRANCH  26  31
BRANCH  28  33
ATOM     33  O   UNL     1      20.880   2.436  -7.374  1.00  0.00    -0.387 OA
ATOM     34  H   UNL     1      20.663   1.815  -6.632  1.00  0.00     0.211 HD
ENDBRANCH  28  33
BRANCH  29  35
ATOM     35  C   UNL     1      19.913   1.596 -11.736  1.00  0.00     0.191 C 
BRANCH  35  36
ATOM     36  O   UNL     1      18.948   1.110 -12.629  1.00  0.00    -0.394 OA
ATOM     37  H   UNL     1      18.156   1.699 -12.527  1.00  0.00     0.210 HD
ENDBRANCH  35  36
ENDBRANCH  29  35
BRANCH  30  38
ATOM     38  O   UNL     1      19.746   4.277  -9.103  1.00  0.00    -0.387 OA
ATOM     39  H   UNL     1      19.175   4.076  -8.316  1.00  0.00     0.211 HD
ENDBRANCH  30  38
ENDBRANCH   1  25
TORSDOF 11
ENDMDL
MODEL 8
REMARK VINA RESULT:    -5.541      3.314      7.339
REMARK INTER + INTRA:          -9.236
REMARK INTER:                  -7.870
REMARK INTRA:                  -1.367
REMARK UNBOUND:                -1.265
REMARK SMILES O=c1c(O[C@@H]2O[C@H](CO)[C@@H](O)[C@@H](O)[C@@H]2O)c(-c2ccc(O)cc2)oc2cc(O)cc(O)c12
REMARK SMILES IDX 4 1 3 2 16 3 24 4 2 5 25 6 1 7 32 8 26 9 30 10 27 11 29 12
REMARK SMILES IDX 17 13 18 14 19 15 20 16 23 17 22 18 21 19 31 21 28 23 5 25
REMARK SMILES IDX 14 26 6 27 12 28 7 29 10 30 15 31 13 33 8 35 9 36 11 38
REMARK H PARENT 21 20 31 22 28 24 15 32 13 34 9 37 11 39
REMARK Flexibility Score: inf
ROOT
ATOM      1  O   UNL     1      17.293  -0.333  -8.954  1.00  0.00    -0.454 OA
ENDROOT
BRANCH   1   2
ATOM      2  C   UNL     1      16.142   0.103  -9.637  1.00  0.00     0.214 A 
ATOM      3  C   UNL     1      15.644  -0.692 -10.690  1.00  0.00     0.180 A 
ATOM      4  O   UNL     1      14.533  -0.337 -11.327  1.00  0.00    -0.452 OA
ATOM      5  C   UNL     1      15.451   1.289  -9.308  1.00  0.00     0.239 A 
ATOM      6  C   UNL     1      13.850   0.764 -11.045  1.00  0.00     0.146 A 
ATOM      7  O   UNL     1      15.883   2.041  -8.396  1.00  0.00    -0.285 OA
ATOM      8  C   UNL     1      14.280   1.634 -10.018  1.00  0.00     0.111 A 
ATOM      9  C   UNL     1      12.695   1.053 -11.777  1.00  0.00     0.094 A 
ATOM     10  C   UNL     1      13.527   2.803  -9.746  1.00  0.00     0.134 A 
ATOM     11  C   UNL     1      11.956   2.209 -11.503  1.00  0.00     0.123 A 
ATOM     12  C   UNL     1      12.373   3.077 -10.494  1.00  0.00     0.093 A 
BRANCH   3  13
ATOM     13  C   UNL     1      16.295  -1.960 -11.088  1.00  0.00     0.021 A 
ATOM     14  C   UNL     1      17.148  -2.027 -12.204  1.00  0.00     0.016 A 
ATOM     15  C   UNL     1      17.751  -3.236 -12.562  1.00  0.00     0.047 A 
ATOM     16  C   UNL     1      17.497  -4.394 -11.822  1.00  0.00     0.115 A 
ATOM     17  C   UNL     1      16.026  -3.132 -10.363  1.00  0.00     0.016 A 
ATOM     18  C   UNL     1      16.629  -4.341 -10.723  1.00  0.00     0.047 A 
BRANCH  16  19
ATOM     19  O   UNL     1      18.105  -5.593 -12.189  1.00  0.00    -0.508 OA
ATOM     20  H   UNL     1      17.579  -6.457 -12.251  1.00  0.00     0.293 HD
ENDBRANCH  16  19
ENDBRANCH   3  13
BRANCH  10  21
ATOM     21  O   UNL     1      13.915   3.692  -8.743  1.00  0.00    -0.507 OA
ATOM     22  H   UNL     1      13.243   4.114  -8.114  1.00  0.00     0.293 HD
ENDBRANCH  10  21
BRANCH  11  23
ATOM     23  O   UNL     1      10.804   2.503 -12.231  1.00  0.00    -0.508 OA
ATOM     24  H   UNL     1      10.393   1.830 -12.867  1.00  0.00     0.293 HD
ENDBRANCH  11  23
ENDBRANCH   1   2
BRANCH   1  25
ATOM     25  C   UNL     1      18.633  -0.314  -9.453  1.00  0.00     0.339 C 
ATOM     26  C   UNL     1      19.455   0.765  -8.725  1.00  0.00     0.214 C 
ATOM     27  O   UNL     1      19.246  -1.596  -9.388  1.00  0.00    -0.332 OA
ATOM     28  C   UNL     1      19.692   0.354  -7.271  1.00  0.00     0.180 C 
ATOM     29  C   UNL     1      19.521  -2.055  -8.069  1.00  0.00     0.179 C 
ATOM     30  C   UNL     1      20.336  -1.043  -7.228  1.00  0.00     0.177 C 
BRANCH  26  31
ATOM     31  O   UNL     1      18.776   1.994  -8.757  1.00  0.00    -0.384 OA
ATOM     32  H   UNL     1      17.953   1.853  -9.294  1.00  0.00     0.211 HD
ENDBRANCH  26  31
BRANCH  28  33
ATOM     33  O   UNL     1      20.526   1.298  -6.648  1.00  0.00    -0.387 OA
ATOM     34  H   UNL     1      20.893   0.863  -5.836  1.00  0.00     0.211 HD
ENDBRANCH  28  33
BRANCH  29  35
ATOM     35  C   UNL     1      18.260  -2.579  -7.354  1.00  0.00     0.191 C 
BRANCH  35  36
ATOM     36  O   UNL     1      18.093  -3.945  -7.624  1.00  0.00    -0.394 OA
ATOM     37  H   UNL     1      17.197  -4.187  -7.273  1.00  0.00     0.210 HD
ENDBRANCH  35  36
ENDBRANCH  29  35
BRANCH  30  38
ATOM     38  O   UNL     1      21.647  -0.987  -7.735  1.00  0.00    -0.387 OA
ATOM     39  H   UNL     1      22.214  -0.572  -7.034  1.00  0.00     0.211 HD
ENDBRANCH  30  38
ENDBRANCH   1  25
TORSDOF 11
ENDMDL
MODEL 9
REMARK VINA RESULT:    -5.446      3.360      8.362
REMARK INTER + INTRA:          -9.099
REMARK INTER:                  -7.632
REMARK INTRA:                  -1.466
REMARK UNBOUND:                -1.265
REMARK SMILES O=c1c(O[C@@H]2O[C@H](CO)[C@@H](O)[C@@H](O)[C@@H]2O)c(-c2ccc(O)cc2)oc2cc(O)cc(O)c12
REMARK SMILES IDX 4 1 3 2 16 3 24 4 2 5 25 6 1 7 32 8 26 9 30 10 27 11 29 12
REMARK SMILES IDX 17 13 18 14 19 15 20 16 23 17 22 18 21 19 31 21 28 23 5 25
REMARK SMILES IDX 14 26 6 27 12 28 7 29 10 30 15 31 13 33 8 35 9 36 11 38
REMARK H PARENT 21 20 31 22 28 24 15 32 13 34 9 37 11 39
REMARK Flexibility Score: inf
ROOT
ATOM      1  O   UNL     1      17.229  -1.251 -10.709  1.00  0.00    -0.454 OA
ENDROOT
BRANCH   1   2
ATOM      2  C   UNL     1      16.727  -0.143 -10.002  1.00  0.00     0.214 A 
ATOM      3  C   UNL     1      17.308   0.182  -8.759  1.00  0.00     0.180 A 
ATOM      4  O   UNL     1      16.891   1.249  -8.085  1.00  0.00    -0.452 OA
ATOM      5  C   UNL     1      15.681   0.672 -10.486  1.00  0.00     0.239 A 
ATOM      6  C   UNL     1      15.918   2.044  -8.508  1.00  0.00     0.146 A 
ATOM      7  O   UNL     1      15.116   0.396 -11.576  1.00  0.00    -0.285 OA
ATOM      8  C   UNL     1      15.262   1.791  -9.733  1.00  0.00     0.111 A 
ATOM      9  C   UNL     1      15.548   3.141  -7.722  1.00  0.00     0.094 A 
ATOM     10  C   UNL     1      14.224   2.660 -10.150  1.00  0.00     0.134 A 
ATOM     11  C   UNL     1      14.523   3.995  -8.141  1.00  0.00     0.123 A 
ATOM     12  C   UNL     1      13.866   3.753  -9.348  1.00  0.00     0.093 A 
BRANCH   3  13
ATOM     13  C   UNL     1      18.421  -0.607  -8.187  1.00  0.00     0.021 A 
ATOM     14  C   UNL     1      18.259  -1.960  -7.840  1.00  0.00     0.016 A 
ATOM     15  C   UNL     1      19.325  -2.684  -7.299  1.00  0.00     0.047 A 
ATOM     16  C   UNL     1      20.558  -2.064  -7.083  1.00  0.00     0.115 A 
ATOM     17  C   UNL     1      19.657   0.016  -7.946  1.00  0.00     0.016 A 
ATOM     18  C   UNL     1      20.721  -0.710  -7.404  1.00  0.00     0.047 A 
BRANCH  16  19
ATOM     19  O   UNL     1      21.613  -2.798  -6.544  1.00  0.00    -0.508 OA
ATOM     20  H   UNL     1      21.467  -3.712  -6.132  1.00  0.00     0.293 HD
ENDBRANCH  16  19
ENDBRANCH   3  13
BRANCH  10  21
ATOM     21  O   UNL     1      13.547   2.448 -11.353  1.00  0.00    -0.507 OA
ATOM     22  H   UNL     1      12.722   1.863 -11.404  1.00  0.00     0.293 HD
ENDBRANCH  10  21
BRANCH  11  23
ATOM     23  O   UNL     1      14.149   5.089  -7.362  1.00  0.00    -0.508 OA
ATOM     24  H   UNL     1      14.628   5.979  -7.435  1.00  0.00     0.293 HD
ENDBRANCH  11  23
ENDBRANCH   1   2
BRANCH   1  25
ATOM     25  C   UNL     1      17.798  -1.233 -12.021  1.00  0.00     0.339 C 
ATOM     26  C   UNL     1      19.109  -2.040 -12.043  1.00  0.00     0.214 C 
ATOM     27  O   UNL     1      16.875  -1.674 -13.010  1.00  0.00    -0.332 OA
ATOM     28  C   UNL     1      18.812  -3.530 -11.875  1.00  0.00     0.180 C 
ATOM     29  C   UNL     1      16.552  -3.060 -12.942  1.00  0.00     0.179 C 
ATOM     30  C   UNL     1      17.797  -3.978 -12.942  1.00  0.00     0.177 C 
BRANCH  26  31
ATOM     31  O   UNL     1      19.955  -1.614 -11.006  1.00  0.00    -0.384 OA
ATOM     32  H   UNL     1      20.867  -1.941 -11.228  1.00  0.00     0.211 HD
ENDBRANCH  26  31
BRANCH  28  33
ATOM     33  O   UNL     1      20.005  -4.262 -11.996  1.00  0.00    -0.387 OA
ATOM     34  H   UNL     1      20.466  -4.203 -11.119  1.00  0.00     0.211 HD
ENDBRANCH  28  33
BRANCH  29  35
ATOM     35  C   UNL     1      15.551  -3.374 -11.813  1.00  0.00     0.191 C 
BRANCH  35  36
ATOM     36  O   UNL     1      14.536  -2.408 -11.792  1.00  0.00    -0.394 OA
ATOM     37  H   UNL     1      14.983  -1.542 -11.601  1.00  0.00     0.210 HD
ENDBRANCH  35  36
ENDBRANCH  29  35
BRANCH  30  38
ATOM     38  O   UNL     1      18.388  -3.937 -14.218  1.00  0.00    -0.387 OA
ATOM     39  H   UNL     1      18.234  -4.824 -14.639  1.00  0.00     0.211 HD
ENDBRANCH  30  38
ENDBRANCH   1  25
TORSDOF 11
ENDMDL
