MODEL 1
REMARK VINA RESULT:    -4.739      0.000      0.000
REMARK INTER + INTRA:          -5.860
REMARK INTER:                  -5.708
REMARK INTRA:                  -0.151
REMARK UNBOUND:                -0.151
REMARK SMILES NC(=O)C[C@@H]([NH3+])C(=O)[O-]
REMARK SMILES IDX 4 1 5 2 6 3 7 7 8 8 9 9 2 10 3 11 1 12
REMARK H PARENT 6 4 6 5 6 6 1 13 1 14
REMARK Flexibility Score: inf
ROOT
ATOM      1  C   UNL     1      -0.434   3.561  -5.455  1.00  0.00     0.171 C 
ENDROOT
BRANCH   1   2
ATOM      2  C   UNL     1      -0.502   5.009  -4.929  1.00  0.00     0.237 C 
BRANCH   2   3
ATOM      3  N   UNL     1      -0.318   5.063  -3.472  1.00  0.00    -0.350 N 
ATOM      4  H   UNL     1      -1.125   5.555  -3.026  1.00  0.00     0.345 HD
ATOM      5  H   UNL     1      -0.241   4.099  -3.072  1.00  0.00     0.345 HD
ATOM      6  H   UNL     1       0.550   5.599  -3.242  1.00  0.00     0.345 HD
ENDBRANCH   2   3
BRANCH   2   7
ATOM      7  C   UNL     1       0.540   5.851  -5.616  1.00  0.00     0.100 C 
ATOM      8  O   UNL     1       1.151   6.754  -4.985  1.00  0.00    -0.544 OA
ATOM      9  O   UNL     1       0.848   5.622  -6.950  1.00  0.00    -0.544 OA
ENDBRANCH   2   7
ENDBRANCH   1   2
BRANCH   1  10
ATOM     10  C   UNL     1       0.944   2.984  -5.312  1.00  0.00     0.223 C 
ATOM     11  O   UNL     1       1.309   2.502  -4.206  1.00  0.00    -0.275 OA
ATOM     12  N   UNL     1       1.858   3.005  -6.409  1.00  0.00    -0.369 N 
ATOM     13  H   UNL     1       2.819   2.612  -6.302  1.00  0.00     0.159 HD
ATOM     14  H   UNL     1       1.582   3.421  -7.326  1.00  0.00     0.159 HD
ENDBRANCH   1  10
TORSDOF 4
ENDMDL
MODEL 2
REMARK VINA RESULT:    -4.696      1.446      2.979
REMARK INTER + INTRA:          -5.808
REMARK INTER:                  -5.888
REMARK INTRA:                   0.081
REMARK UNBOUND:                -0.151
REMARK SMILES NC(=O)C[C@@H]([NH3+])C(=O)[O-]
REMARK SMILES IDX 4 1 5 2 6 3 7 7 8 8 9 9 2 10 3 11 1 12
REMARK H PARENT 6 4 6 5 6 6 1 13 1 14
REMARK Flexibility Score: inf
ROOT
ATOM      1  C   UNL     1      -0.123   3.317  -5.108  1.00  0.00     0.171 C 
ENDROOT
BRANCH   1   2
ATOM      2  C   UNL     1       1.297   3.783  -5.488  1.00  0.00     0.237 C 
BRANCH   2   3
ATOM      3  N   UNL     1       1.913   2.885  -6.475  1.00  0.00    -0.350 N 
ATOM      4  H   UNL     1       1.963   3.357  -7.407  1.00  0.00     0.345 HD
ATOM      5  H   UNL     1       2.878   2.612  -6.176  1.00  0.00     0.345 HD
ATOM      6  H   UNL     1       1.331   2.023  -6.583  1.00  0.00     0.345 HD
ENDBRANCH   2   3
BRANCH   2   7
ATOM      7  C   UNL     1       1.247   5.189  -6.024  1.00  0.00     0.100 C 
ATOM      8  O   UNL     1       0.893   5.408  -7.213  1.00  0.00    -0.544 OA
ATOM      9  O   UNL     1       1.572   6.258  -5.199  1.00  0.00    -0.544 OA
ENDBRANCH   2   7
ENDBRANCH   1   2
BRANCH   1  10
ATOM     10  C   UNL     1      -0.950   4.446  -4.565  1.00  0.00     0.223 C 
ATOM     11  O   UNL     1      -1.842   4.971  -5.284  1.00  0.00    -0.275 OA
ATOM     12  N   UNL     1      -0.712   4.954  -3.252  1.00  0.00    -0.369 N 
ATOM     13  H   UNL     1      -1.283   5.747  -2.882  1.00  0.00     0.159 HD
ATOM     14  H   UNL     1       0.039   4.548  -2.650  1.00  0.00     0.159 HD
ENDBRANCH   1  10
TORSDOF 4
ENDMDL
MODEL 3
REMARK VINA RESULT:    -4.408      1.439      3.043
REMARK INTER + INTRA:          -5.462
REMARK INTER:                  -5.676
REMARK INTRA:                   0.215
REMARK UNBOUND:                -0.151
REMARK SMILES NC(=O)C[C@@H]([NH3+])C(=O)[O-]
REMARK SMILES IDX 4 1 5 2 6 3 7 7 8 8 9 9 2 10 3 11 1 12
REMARK H PARENT 6 4 6 5 6 6 1 13 1 14
REMARK Flexibility Score: inf
ROOT
ATOM      1  C   UNL     1      -0.446   5.836  -4.931  1.00  0.00     0.171 C 
ENDROOT
BRANCH   1   2
ATOM      2  C   UNL     1      -0.628   4.519  -4.148  1.00  0.00     0.237 C 
BRANCH   2   3
ATOM      3  N   UNL     1      -2.048   4.228  -3.906  1.00  0.00    -0.350 N 
ATOM      4  H   UNL     1      -2.244   4.233  -2.879  1.00  0.00     0.345 HD
ATOM      5  H   UNL     1      -2.657   4.936  -4.376  1.00  0.00     0.345 HD
ATOM      6  H   UNL     1      -2.283   3.276  -4.272  1.00  0.00     0.345 HD
ENDBRANCH   2   3
BRANCH   2   7
ATOM      7  C   UNL     1       0.015   3.386  -4.902  1.00  0.00     0.100 C 
ATOM      8  O   UNL     1      -0.454   3.005  -6.008  1.00  0.00    -0.544 OA
ATOM      9  O   UNL     1       1.146   2.764  -4.389  1.00  0.00    -0.544 OA
ENDBRANCH   2   7
ENDBRANCH   1   2
BRANCH   1  10
ATOM     10  C   UNL     1       0.964   6.002  -5.417  1.00  0.00     0.223 C 
ATOM     11  O   UNL     1       1.713   6.863  -4.882  1.00  0.00    -0.275 OA
ATOM     12  N   UNL     1       1.455   5.217  -6.504  1.00  0.00    -0.369 N 
ATOM     13  H   UNL     1       2.433   5.343  -6.846  1.00  0.00     0.159 HD
ATOM     14  H   UNL     1       0.841   4.515  -6.975  1.00  0.00     0.159 HD
ENDBRANCH   1  10
TORSDOF 4
ENDMDL
MODEL 4
REMARK VINA RESULT:    -3.903      9.042      9.877
REMARK INTER + INTRA:          -4.852
REMARK INTER:                  -4.641
REMARK INTRA:                  -0.212
REMARK UNBOUND:                -0.151
REMARK SMILES NC(=O)C[C@@H]([NH3+])C(=O)[O-]
REMARK SMILES IDX 4 1 5 2 6 3 7 7 8 8 9 9 2 10 3 11 1 12
REMARK H PARENT 6 4 6 5 6 6 1 13 1 14
REMARK Flexibility Score: inf
ROOT
ATOM      1  C   UNL     1       7.197  -2.620  -7.202  1.00  0.00     0.171 C 
ENDROOT
BRANCH   1   2
ATOM      2  C   UNL     1       6.205  -3.494  -7.996  1.00  0.00     0.237 C 
BRANCH   2   3
ATOM      3  N   UNL     1       6.499  -4.925  -7.836  1.00  0.00    -0.350 N 
ATOM      4  H   UNL     1       6.633  -5.153  -6.825  1.00  0.00     0.345 HD
ATOM      5  H   UNL     1       5.721  -5.508  -8.221  1.00  0.00     0.345 HD
ATOM      6  H   UNL     1       7.386  -5.163  -8.338  1.00  0.00     0.345 HD
ENDBRANCH   2   3
BRANCH   2   7
ATOM      7  C   UNL     1       4.797  -3.199  -7.551  1.00  0.00     0.100 C 
ATOM      8  O   UNL     1       4.263  -3.873  -6.630  1.00  0.00    -0.544 OA
ATOM      9  O   UNL     1       4.085  -2.164  -8.142  1.00  0.00    -0.544 OA
ENDBRANCH   2   7
ENDBRANCH   1   2
BRANCH   1  10
ATOM     10  C   UNL     1       7.495  -1.332  -7.913  1.00  0.00     0.223 C 
ATOM     11  O   UNL     1       8.107  -0.410  -7.309  1.00  0.00    -0.275 OA
ATOM     12  N   UNL     1       7.061  -1.128  -9.258  1.00  0.00    -0.369 N 
ATOM     13  H   UNL     1       7.261  -0.227  -9.746  1.00  0.00     0.159 HD
ATOM     14  H   UNL     1       6.532  -1.872  -9.767  1.00  0.00     0.159 HD
ENDBRANCH   1  10
TORSDOF 4
ENDMDL
MODEL 5
REMARK VINA RESULT:    -3.871      9.122      9.939
REMARK INTER + INTRA:          -4.814
REMARK INTER:                  -4.566
REMARK INTRA:                  -0.248
REMARK UNBOUND:                -0.151
REMARK SMILES NC(=O)C[C@@H]([NH3+])C(=O)[O-]
REMARK SMILES IDX 4 1 5 2 6 3 7 7 8 8 9 9 2 10 3 11 1 12
REMARK H PARENT 6 4 6 5 6 6 1 13 1 14
REMARK Flexibility Score: inf
ROOT
ATOM      1  C   UNL     1       5.873  -2.504  -8.021  1.00  0.00     0.171 C 
ENDROOT
BRANCH   1   2
ATOM      2  C   UNL     1       6.932  -2.908  -6.976  1.00  0.00     0.237 C 
BRANCH   2   3
ATOM      3  N   UNL     1       7.603  -4.162  -7.345  1.00  0.00    -0.350 N 
ATOM      4  H   UNL     1       6.994  -4.719  -7.987  1.00  0.00     0.345 HD
ATOM      5  H   UNL     1       8.515  -3.969  -7.820  1.00  0.00     0.345 HD
ATOM      6  H   UNL     1       7.777  -4.738  -6.489  1.00  0.00     0.345 HD
ENDBRANCH   2   3
BRANCH   2   7
ATOM      7  C   UNL     1       7.942  -1.803  -6.820  1.00  0.00     0.100 C 
ATOM      8  O   UNL     1       8.892  -1.916  -6.000  1.00  0.00    -0.544 OA
ATOM      9  O   UNL     1       7.843  -0.657  -7.598  1.00  0.00    -0.544 OA
ENDBRANCH   2   7
ENDBRANCH   1   2
BRANCH   1  10
ATOM     10  C   UNL     1       4.689  -3.427  -7.997  1.00  0.00     0.223 C 
ATOM     11  O   UNL     1       4.858  -4.665  -8.159  1.00  0.00    -0.275 OA
ATOM     12  N   UNL     1       3.369  -2.911  -7.824  1.00  0.00    -0.369 N 
ATOM     13  H   UNL     1       2.547  -3.556  -7.818  1.00  0.00     0.159 HD
ATOM     14  H   UNL     1       3.207  -1.886  -7.712  1.00  0.00     0.159 HD
ENDBRANCH   1  10
TORSDOF 4
ENDMDL
MODEL 6
REMARK VINA RESULT:    -3.835      9.218     10.446
REMARK INTER + INTRA:          -4.771
REMARK INTER:                  -4.271
REMARK INTRA:                  -0.499
REMARK UNBOUND:                -0.151
REMARK SMILES NC(=O)C[C@@H]([NH3+])C(=O)[O-]
REMARK SMILES IDX 4 1 5 2 6 3 7 7 8 8 9 9 2 10 3 11 1 12
REMARK H PARENT 6 4 6 5 6 6 1 13 1 14
REMARK Flexibility Score: inf
ROOT
ATOM      1  C   UNL     1       7.018  -2.893  -6.858  1.00  0.00     0.171 C 
ENDROOT
BRANCH   1   2
ATOM      2  C   UNL     1       6.127  -2.303  -7.971  1.00  0.00     0.237 C 
BRANCH   2   3
ATOM      3  N   UNL     1       6.804  -2.332  -9.275  1.00  0.00    -0.350 N 
ATOM      4  H   UNL     1       7.361  -1.457  -9.409  1.00  0.00     0.345 HD
ATOM      5  H   UNL     1       7.441  -3.159  -9.344  1.00  0.00     0.345 HD
ATOM      6  H   UNL     1       6.095  -2.381 -10.042  1.00  0.00     0.345 HD
ENDBRANCH   2   3
BRANCH   2   7
ATOM      7  C   UNL     1       4.830  -3.063  -8.041  1.00  0.00     0.100 C 
ATOM      8  O   UNL     1       3.729  -2.450  -8.044  1.00  0.00    -0.544 OA
ATOM      9  O   UNL     1       4.840  -4.449  -8.124  1.00  0.00    -0.544 OA
ENDBRANCH   2   7
ENDBRANCH   1   2
BRANCH   1  10
ATOM     10  C   UNL     1       8.100  -3.768  -7.420  1.00  0.00     0.223 C 
ATOM     11  O   UNL     1       9.193  -3.256  -7.784  1.00  0.00    -0.275 OA
ATOM     12  N   UNL     1       7.891  -5.172  -7.578  1.00  0.00    -0.369 N 
ATOM     13  H   UNL     1       8.643  -5.775  -7.979  1.00  0.00     0.159 HD
ATOM     14  H   UNL     1       6.984  -5.610  -7.304  1.00  0.00     0.159 HD
ENDBRANCH   1  10
TORSDOF 4
ENDMDL
MODEL 7
REMARK VINA RESULT:    -3.784      9.816     10.340
REMARK INTER + INTRA:          -4.710
REMARK INTER:                  -4.350
REMARK INTRA:                  -0.359
REMARK UNBOUND:                -0.151
REMARK SMILES NC(=O)C[C@@H]([NH3+])C(=O)[O-]
REMARK SMILES IDX 4 1 5 2 6 3 7 7 8 8 9 9 2 10 3 11 1 12
REMARK H PARENT 6 4 6 5 6 6 1 13 1 14
REMARK Flexibility Score: inf
ROOT
ATOM      1  C   UNL     1       5.242  -3.428  -7.825  1.00  0.00     0.171 C 
ENDROOT
BRANCH   1   2
ATOM      2  C   UNL     1       6.566  -2.853  -7.281  1.00  0.00     0.237 C 
BRANCH   2   3
ATOM      3  N   UNL     1       7.612  -3.883  -7.212  1.00  0.00    -0.350 N 
ATOM      4  H   UNL     1       8.501  -3.520  -7.626  1.00  0.00     0.345 HD
ATOM      5  H   UNL     1       7.786  -4.169  -6.220  1.00  0.00     0.345 HD
ATOM      6  H   UNL     1       7.321  -4.723  -7.764  1.00  0.00     0.345 HD
ENDBRANCH   2   3
BRANCH   2   7
ATOM      7  C   UNL     1       7.019  -1.709  -8.148  1.00  0.00     0.100 C 
ATOM      8  O   UNL     1       6.685  -1.654  -9.361  1.00  0.00    -0.544 OA
ATOM      9  O   UNL     1       7.795  -0.692  -7.606  1.00  0.00    -0.544 OA
ENDBRANCH   2   7
ENDBRANCH   1   2
BRANCH   1  10
ATOM     10  C   UNL     1       5.418  -4.822  -8.353  1.00  0.00     0.223 C 
ATOM     11  O   UNL     1       6.090  -5.013  -9.402  1.00  0.00    -0.275 OA
ATOM     12  N   UNL     1       4.803  -5.931  -7.697  1.00  0.00    -0.369 N 
ATOM     13  H   UNL     1       4.919  -6.897  -8.073  1.00  0.00     0.159 HD
ATOM     14  H   UNL     1       4.223  -5.789  -6.840  1.00  0.00     0.159 HD
ENDBRANCH   1  10
TORSDOF 4
ENDMDL
MODEL 8
REMARK VINA RESULT:    -3.755      9.363     10.060
REMARK INTER + INTRA:          -4.674
REMARK INTER:                  -4.393
REMARK INTRA:                  -0.281
REMARK UNBOUND:                -0.151
REMARK SMILES NC(=O)C[C@@H]([NH3+])C(=O)[O-]
REMARK SMILES IDX 4 1 5 2 6 3 7 7 8 8 9 9 2 10 3 11 1 12
REMARK H PARENT 6 4 6 5 6 6 1 13 1 14
REMARK Flexibility Score: inf
ROOT
ATOM      1  C   UNL     1       6.884  -1.766  -8.555  1.00  0.00     0.171 C 
ENDROOT
BRANCH   1   2
ATOM      2  C   UNL     1       6.573  -3.101  -7.849  1.00  0.00     0.237 C 
BRANCH   2   3
ATOM      3  N   UNL     1       6.889  -3.039  -6.415  1.00  0.00    -0.350 N 
ATOM      4  H   UNL     1       7.881  -2.737  -6.279  1.00  0.00     0.345 HD
ATOM      5  H   UNL     1       6.255  -2.366  -5.924  1.00  0.00     0.345 HD
ATOM      6  H   UNL     1       6.782  -3.987  -5.985  1.00  0.00     0.345 HD
ENDBRANCH   2   3
BRANCH   2   7
ATOM      7  C   UNL     1       5.123  -3.457  -8.046  1.00  0.00     0.100 C 
ATOM      8  O   UNL     1       4.778  -4.655  -8.229  1.00  0.00    -0.544 OA
ATOM      9  O   UNL     1       4.153  -2.464  -8.009  1.00  0.00    -0.544 OA
ENDBRANCH   2   7
ENDBRANCH   1   2
BRANCH   1  10
ATOM     10  C   UNL     1       8.173  -1.170  -8.071  1.00  0.00     0.223 C 
ATOM     11  O   UNL     1       8.154  -0.264  -7.194  1.00  0.00    -0.275 OA
ATOM     12  N   UNL     1       9.422  -1.595  -8.618  1.00  0.00    -0.369 N 
ATOM     13  H   UNL     1      10.316  -1.171  -8.286  1.00  0.00     0.159 HD
ATOM     14  H   UNL     1       9.456  -2.327  -9.362  1.00  0.00     0.159 HD
ENDBRANCH   1  10
TORSDOF 4
ENDMDL
MODEL 9
REMARK VINA RESULT:    -3.750      9.209      9.755
REMARK INTER + INTRA:          -4.669
REMARK INTER:                  -4.432
REMARK INTRA:                  -0.237
REMARK UNBOUND:                -0.151
REMARK SMILES NC(=O)C[C@@H]([NH3+])C(=O)[O-]
REMARK SMILES IDX 4 1 5 2 6 3 7 7 8 8 9 9 2 10 3 11 1 12
REMARK H PARENT 6 4 6 5 6 6 1 13 1 14
REMARK Flexibility Score: inf
ROOT
ATOM      1  C   UNL     1       6.178  -2.846  -6.829  1.00  0.00     0.171 C 
ENDROOT
BRANCH   1   2
ATOM      2  C   UNL     1       7.250  -2.302  -7.795  1.00  0.00     0.237 C 
BRANCH   2   3
ATOM      3  N   UNL     1       6.645  -1.539  -8.896  1.00  0.00    -0.350 N 
ATOM      4  H   UNL     1       5.607  -1.663  -8.892  1.00  0.00     0.345 HD
ATOM      5  H   UNL     1       6.870  -0.520  -8.809  1.00  0.00     0.345 HD
ATOM      6  H   UNL     1       7.006  -1.891  -9.813  1.00  0.00     0.345 HD
ENDBRANCH   2   3
BRANCH   2   7
ATOM      7  C   UNL     1       8.227  -1.441  -7.040  1.00  0.00     0.100 C 
ATOM      8  O   UNL     1       8.247  -0.193  -7.214  1.00  0.00    -0.544 OA
ATOM      9  O   UNL     1       9.101  -2.019  -6.129  1.00  0.00    -0.544 OA
ENDBRANCH   2   7
ENDBRANCH   1   2
BRANCH   1  10
ATOM     10  C   UNL     1       4.985  -3.378  -7.568  1.00  0.00     0.223 C 
ATOM     11  O   UNL     1       4.158  -2.577  -8.081  1.00  0.00    -0.275 OA
ATOM     12  N   UNL     1       4.759  -4.785  -7.667  1.00  0.00    -0.369 N 
ATOM     13  H   UNL     1       3.922  -5.150  -8.173  1.00  0.00     0.159 HD
ATOM     14  H   UNL     1       5.420  -5.463  -7.228  1.00  0.00     0.159 HD
ENDBRANCH   1  10
TORSDOF 4
ENDMDL
