MODEL 1
REMARK VINA RESULT:    -6.768      0.000      0.000
REMARK INTER + INTRA:          -8.208
REMARK INTER:                  -7.955
REMARK INTRA:                  -0.253
REMARK UNBOUND:                -0.253
REMARK SMILES C=CC(C)=CCC=C(C)C
REMARK SMILES IDX 5 1 3 2 4 3 6 4 7 5 9 6 8 7 10 8 2 9 1 10
REMARK H PARENT
REMARK Flexibility Score: inf
ROOT
ATOM      1  C   UNL     1       4.383   8.488  12.035  1.00  0.00    -0.020 C 
ATOM      2  C   UNL     1       3.763   9.681  12.142  1.00  0.00    -0.055 C 
ATOM      3  C   UNL     1       3.193  10.169  13.456  1.00  0.00     0.044 C 
ENDROOT
BRANCH   1   4
ATOM      4  C   UNL     1       4.594   7.529  13.176  1.00  0.00     0.055 C 
BRANCH   4   5
ATOM      5  C   UNL     1       5.420   6.341  12.744  1.00  0.00    -0.024 C 
ATOM      6  C   UNL     1       7.431   7.183  13.962  1.00  0.00     0.039 C 
ATOM      7  C   UNL     1       6.712   6.174  13.097  1.00  0.00    -0.080 C 
ATOM      8  C   UNL     1       7.444   4.953  12.607  1.00  0.00     0.039 C 
ENDBRANCH   4   5
ENDBRANCH   1   4
BRANCH   2   9
ATOM      9  C   UNL     1       3.587  10.485  10.905  1.00  0.00    -0.005 C 
ATOM     10  C   UNL     1       3.643  11.816  10.876  1.00  0.00     0.009 C 
ENDBRANCH   2   9
TORSDOF 3
ENDMDL
MODEL 2
REMARK VINA RESULT:    -6.552      0.924      5.017
REMARK INTER + INTRA:          -7.954
REMARK INTER:                  -7.773
REMARK INTRA:                  -0.181
REMARK UNBOUND:                -0.253
REMARK SMILES C=CC(C)=CCC=C(C)C
REMARK SMILES IDX 5 1 3 2 4 3 6 4 7 5 9 6 8 7 10 8 2 9 1 10
REMARK H PARENT
REMARK Flexibility Score: inf
ROOT
ATOM      1  C   UNL     1       5.131   7.933  13.775  1.00  0.00    -0.020 C 
ATOM      2  C   UNL     1       5.562   6.793  13.199  1.00  0.00    -0.055 C 
ATOM      3  C   UNL     1       4.614   5.850  12.491  1.00  0.00     0.044 C 
ENDROOT
BRANCH   1   4
ATOM      4  C   UNL     1       3.702   8.407  13.773  1.00  0.00     0.055 C 
BRANCH   4   5
ATOM      5  C   UNL     1       3.596   9.820  13.255  1.00  0.00    -0.024 C 
ATOM      6  C   UNL     1       4.069   9.093  10.913  1.00  0.00     0.039 C 
ATOM      7  C   UNL     1       3.761  10.144  11.955  1.00  0.00    -0.080 C 
ATOM      8  C   UNL     1       3.636  11.588  11.546  1.00  0.00     0.039 C 
ENDBRANCH   4   5
ENDBRANCH   1   4
BRANCH   2   9
ATOM      9  C   UNL     1       6.999   6.443  13.341  1.00  0.00    -0.005 C 
ATOM     10  C   UNL     1       7.769   6.057  12.324  1.00  0.00     0.009 C 
ENDBRANCH   2   9
TORSDOF 3
ENDMDL
MODEL 3
REMARK VINA RESULT:    -6.322      0.937      5.253
REMARK INTER + INTRA:          -7.684
REMARK INTER:                  -7.400
REMARK INTRA:                  -0.283
REMARK UNBOUND:                -0.253
REMARK SMILES C=CC(C)=CCC=C(C)C
REMARK SMILES IDX 5 1 3 2 4 3 6 4 7 5 9 6 8 7 10 8 2 9 1 10
REMARK H PARENT
REMARK Flexibility Score: inf
ROOT
ATOM      1  C   UNL     1       5.492   6.998  13.264  1.00  0.00    -0.020 C 
ATOM      2  C   UNL     1       5.356   5.740  12.798  1.00  0.00    -0.055 C 
ATOM      3  C   UNL     1       4.010   5.185  12.383  1.00  0.00     0.044 C 
ENDROOT
BRANCH   1   4
ATOM      4  C   UNL     1       4.364   7.984  13.410  1.00  0.00     0.055 C 
BRANCH   4   5
ATOM      5  C   UNL     1       4.296   8.915  12.224  1.00  0.00    -0.024 C 
ATOM      6  C   UNL     1       2.761  10.476  13.425  1.00  0.00     0.039 C 
ATOM      7  C   UNL     1       3.568  10.053  12.221  1.00  0.00    -0.080 C 
ATOM      8  C   UNL     1       3.569  10.908  10.981  1.00  0.00     0.039 C 
ENDBRANCH   4   5
ENDBRANCH   1   4
BRANCH   2   9
ATOM      9  C   UNL     1       6.563   4.875  12.770  1.00  0.00    -0.005 C 
ATOM     10  C   UNL     1       7.759   5.289  12.352  1.00  0.00     0.009 C 
ENDBRANCH   2   9
TORSDOF 3
ENDMDL
MODEL 4
REMARK VINA RESULT:    -6.244      0.739      5.089
REMARK INTER + INTRA:          -7.593
REMARK INTER:                  -7.171
REMARK INTRA:                  -0.421
REMARK UNBOUND:                -0.253
REMARK SMILES C=CC(C)=CCC=C(C)C
REMARK SMILES IDX 5 1 3 2 4 3 6 4 7 5 9 6 8 7 10 8 2 9 1 10
REMARK H PARENT
REMARK Flexibility Score: inf
ROOT
ATOM      1  C   UNL     1       5.400   6.938  12.615  1.00  0.00    -0.020 C 
ATOM      2  C   UNL     1       6.507   7.014  13.381  1.00  0.00    -0.055 C 
ATOM      3  C   UNL     1       6.596   7.956  14.563  1.00  0.00     0.044 C 
ENDROOT
BRANCH   1   4
ATOM      4  C   UNL     1       4.147   7.742  12.840  1.00  0.00     0.055 C 
BRANCH   4   5
ATOM      5  C   UNL     1       4.066   8.906  11.884  1.00  0.00    -0.024 C 
ATOM      6  C   UNL     1       3.309  10.454  13.691  1.00  0.00     0.039 C 
ATOM      7  C   UNL     1       3.685  10.145  12.261  1.00  0.00    -0.080 C 
ATOM      8  C   UNL     1       3.636  11.235  11.222  1.00  0.00     0.039 C 
ENDBRANCH   4   5
ENDBRANCH   1   4
BRANCH   2   9
ATOM      9  C   UNL     1       7.681   6.192  12.989  1.00  0.00    -0.005 C 
ATOM     10  C   UNL     1       7.593   5.075  12.267  1.00  0.00     0.009 C 
ENDBRANCH   2   9
TORSDOF 3
ENDMDL
MODEL 5
REMARK VINA RESULT:    -6.166      1.045      1.900
REMARK INTER + INTRA:          -7.501
REMARK INTER:                  -7.234
REMARK INTRA:                  -0.267
REMARK UNBOUND:                -0.253
REMARK SMILES C=CC(C)=CCC=C(C)C
REMARK SMILES IDX 5 1 3 2 4 3 6 4 7 5 9 6 8 7 10 8 2 9 1 10
REMARK H PARENT
REMARK Flexibility Score: inf
ROOT
ATOM      1  C   UNL     1       3.624   9.537  13.134  1.00  0.00    -0.020 C 
ATOM      2  C   UNL     1       3.788   9.750  11.813  1.00  0.00    -0.055 C 
ATOM      3  C   UNL     1       4.378   8.695  10.902  1.00  0.00     0.044 C 
ENDROOT
BRANCH   1   4
ATOM      4  C   UNL     1       3.978   8.258  13.845  1.00  0.00     0.055 C 
BRANCH   4   5
ATOM      5  C   UNL     1       5.467   8.150  14.067  1.00  0.00    -0.024 C 
ATOM      6  C   UNL     1       5.589   5.995  12.812  1.00  0.00     0.039 C 
ATOM      7  C   UNL     1       6.210   7.124  13.601  1.00  0.00    -0.080 C 
ATOM      8  C   UNL     1       7.689   7.115  13.883  1.00  0.00     0.039 C 
ENDBRANCH   4   5
ENDBRANCH   1   4
BRANCH   2   9
ATOM      9  C   UNL     1       3.439  11.091  11.277  1.00  0.00    -0.005 C 
ATOM     10  C   UNL     1       2.215  11.430  10.875  1.00  0.00     0.009 C 
ENDBRANCH   2   9
TORSDOF 3
ENDMDL
MODEL 6
REMARK VINA RESULT:    -5.483      1.657      5.537
REMARK INTER + INTRA:          -6.697
REMARK INTER:                  -6.275
REMARK INTRA:                  -0.422
REMARK UNBOUND:                -0.253
REMARK SMILES C=CC(C)=CCC=C(C)C
REMARK SMILES IDX 5 1 3 2 4 3 6 4 7 5 9 6 8 7 10 8 2 9 1 10
REMARK H PARENT
REMARK Flexibility Score: inf
ROOT
ATOM      1  C   UNL     1       4.100   8.811  11.756  1.00  0.00    -0.020 C 
ATOM      2  C   UNL     1       4.357   7.954  12.765  1.00  0.00    -0.055 C 
ATOM      3  C   UNL     1       4.387   8.407  14.209  1.00  0.00     0.044 C 
ENDROOT
BRANCH   1   4
ATOM      4  C   UNL     1       3.804  10.276  11.933  1.00  0.00     0.055 C 
BRANCH   4   5
ATOM      5  C   UNL     1       2.563  10.678  11.173  1.00  0.00    -0.024 C 
ATOM      6  C   UNL     1       1.120  10.365  13.186  1.00  0.00     0.039 C 
ATOM      7  C   UNL     1       1.336  10.721  11.733  1.00  0.00    -0.080 C 
ATOM      8  C   UNL     1       0.165  11.133  10.881  1.00  0.00     0.039 C 
ENDBRANCH   4   5
ENDBRANCH   1   4
BRANCH   2   9
ATOM      9  C   UNL     1       4.686   6.548  12.416  1.00  0.00    -0.005 C 
ATOM     10  C   UNL     1       5.783   5.920  12.838  1.00  0.00     0.009 C 
ENDBRANCH   2   9
TORSDOF 3
ENDMDL
MODEL 7
REMARK VINA RESULT:    -4.982      1.560      2.523
REMARK INTER + INTRA:          -6.109
REMARK INTER:                  -5.812
REMARK INTRA:                  -0.297
REMARK UNBOUND:                -0.253
REMARK SMILES C=CC(C)=CCC=C(C)C
REMARK SMILES IDX 5 1 3 2 4 3 6 4 7 5 9 6 8 7 10 8 2 9 1 10
REMARK H PARENT
REMARK Flexibility Score: inf
ROOT
ATOM      1  C   UNL     1       3.059   9.504  13.621  1.00  0.00    -0.020 C 
ATOM      2  C   UNL     1       2.543  10.298  12.660  1.00  0.00    -0.055 C 
ATOM      3  C   UNL     1       3.424  11.024  11.667  1.00  0.00     0.044 C 
ENDROOT
BRANCH   1   4
ATOM      4  C   UNL     1       4.528   9.235  13.811  1.00  0.00     0.055 C 
BRANCH   4   5
ATOM      5  C   UNL     1       4.821   7.755  13.774  1.00  0.00    -0.024 C 
ATOM      6  C   UNL     1       4.767   7.715  11.278  1.00  0.00     0.039 C 
ATOM      7  C   UNL     1       4.932   7.054  12.626  1.00  0.00    -0.080 C 
ATOM      8  C   UNL     1       5.224   5.578  12.705  1.00  0.00     0.039 C 
ENDBRANCH   4   5
ENDBRANCH   1   4
BRANCH   2   9
ATOM      9  C   UNL     1       1.072  10.503  12.645  1.00  0.00    -0.005 C 
ATOM     10  C   UNL     1       0.383  10.831  11.552  1.00  0.00     0.009 C 
ENDBRANCH   2   9
TORSDOF 3
ENDMDL
MODEL 8
REMARK VINA RESULT:    -4.601      1.012      5.029
REMARK INTER + INTRA:          -5.661
REMARK INTER:                  -5.457
REMARK INTRA:                  -0.204
REMARK UNBOUND:                -0.253
REMARK SMILES C=CC(C)=CCC=C(C)C
REMARK SMILES IDX 5 1 3 2 4 3 6 4 7 5 9 6 8 7 10 8 2 9 1 10
REMARK H PARENT
REMARK Flexibility Score: inf
ROOT
ATOM      1  C   UNL     1       5.986   7.792  13.957  1.00  0.00    -0.020 C 
ATOM      2  C   UNL     1       7.167   7.287  13.547  1.00  0.00    -0.055 C 
ATOM      3  C   UNL     1       7.258   6.290  12.412  1.00  0.00     0.044 C 
ENDROOT
BRANCH   1   4
ATOM      4  C   UNL     1       4.652   7.452  13.347  1.00  0.00     0.055 C 
BRANCH   4   5
ATOM      5  C   UNL     1       4.380   8.295  12.126  1.00  0.00    -0.024 C 
ATOM      6  C   UNL     1       3.382  10.125  13.500  1.00  0.00     0.039 C 
ATOM      7  C   UNL     1       3.802   9.513  12.184  1.00  0.00    -0.080 C 
ATOM      8  C   UNL     1       3.573  10.269  10.901  1.00  0.00     0.039 C 
ENDBRANCH   4   5
ENDBRANCH   1   4
BRANCH   2   9
ATOM      9  C   UNL     1       8.389   7.683  14.294  1.00  0.00    -0.005 C 
ATOM     10  C   UNL     1       9.452   8.249  13.724  1.00  0.00     0.009 C 
ENDBRANCH   2   9
TORSDOF 3
ENDMDL
MODEL 9
REMARK VINA RESULT:    -4.283      1.256      2.094
REMARK INTER + INTRA:          -5.287
REMARK INTER:                  -4.807
REMARK INTRA:                  -0.481
REMARK UNBOUND:                -0.253
REMARK SMILES C=CC(C)=CCC=C(C)C
REMARK SMILES IDX 5 1 3 2 4 3 6 4 7 5 9 6 8 7 10 8 2 9 1 10
REMARK H PARENT
REMARK Flexibility Score: inf
ROOT
ATOM      1  C   UNL     1       5.288   8.849  14.229  1.00  0.00    -0.020 C 
ATOM      2  C   UNL     1       3.992   8.798  13.860  1.00  0.00    -0.055 C 
ATOM      3  C   UNL     1       3.219   7.497  13.839  1.00  0.00     0.044 C 
ENDROOT
BRANCH   1   4
ATOM      4  C   UNL     1       6.100   7.660  14.670  1.00  0.00     0.055 C 
BRANCH   4   5
ATOM      5  C   UNL     1       7.022   7.191  13.572  1.00  0.00    -0.024 C 
ATOM      6  C   UNL     1       5.849   4.993  13.403  1.00  0.00     0.039 C 
ATOM      7  C   UNL     1       6.917   5.979  12.988  1.00  0.00    -0.080 C 
ATOM      8  C   UNL     1       7.894   5.611  11.903  1.00  0.00     0.039 C 
ENDBRANCH   4   5
ENDBRANCH   1   4
BRANCH   2   9
ATOM      9  C   UNL     1       3.352  10.056  13.396  1.00  0.00    -0.005 C 
ATOM     10  C   UNL     1       3.590  10.613  12.209  1.00  0.00     0.009 C 
ENDBRANCH   2   9
TORSDOF 3
ENDMDL
