MODEL 1
REMARK VINA RESULT:    -4.475      0.000      0.000
REMARK INTER + INTRA:          -6.533
REMARK INTER:                  -6.306
REMARK INTRA:                  -0.227
REMARK UNBOUND:                -0.227
REMARK SMILES CCCCCCCCC(=O)[O-]
REMARK SMILES IDX 6 1 7 2 8 3 9 4 10 5 11 6 5 7 4 8 3 9 2 10 1 11
REMARK H PARENT
REMARK Flexibility Score: inf
ROOT
ATOM      1  C   UNL     1      -2.925 -35.480  22.377  1.00  0.00     0.000 C 
ENDROOT
BRANCH   1   2
ATOM      2  C   UNL     1      -1.993 -34.358  22.850  1.00  0.00     0.006 C 
BRANCH   2   3
ATOM      3  C   UNL     1      -2.793 -33.136  23.310  1.00  0.00     0.053 C 
BRANCH   3   4
ATOM      4  C   UNL     1      -2.125 -32.481  24.478  1.00  0.00     0.041 C 
ATOM      5  O   UNL     1      -2.048 -33.082  25.581  1.00  0.00    -0.550 OA
ATOM      6  O   UNL     1      -1.633 -31.187  24.363  1.00  0.00    -0.550 OA
ENDBRANCH   3   4
ENDBRANCH   2   3
ENDBRANCH   1   2
BRANCH   1   7
ATOM      7  C   UNL     1      -2.388 -36.137  21.097  1.00  0.00     0.000 C 
BRANCH   7   8
ATOM      8  C   UNL     1      -2.684 -37.645  21.034  1.00  0.00    -0.000 C 
BRANCH   8   9
ATOM      9  C   UNL     1      -4.041 -37.954  20.378  1.00  0.00    -0.000 C 
BRANCH   9  10
ATOM     10  C   UNL     1      -3.933 -38.124  18.854  1.00  0.00    -0.003 C 
ATOM     11  C   UNL     1      -4.630 -37.004  18.082  1.00  0.00     0.004 C 
ENDBRANCH   9  10
ENDBRANCH   8   9
ENDBRANCH   7   8
ENDBRANCH   1   7
TORSDOF 7
ENDMDL
MODEL 2
REMARK VINA RESULT:    -4.388     18.629     19.520
REMARK INTER + INTRA:          -6.410
REMARK INTER:                  -5.832
REMARK INTRA:                  -0.578
REMARK UNBOUND:                -0.227
REMARK SMILES CCCCCCCCC(=O)[O-]
REMARK SMILES IDX 6 1 7 2 8 3 9 4 10 5 11 6 5 7 4 8 3 9 2 10 1 11
REMARK H PARENT
REMARK Flexibility Score: inf
ROOT
ATOM      1  C   UNL     1      -9.545 -20.423  32.637  1.00  0.00     0.000 C 
ENDROOT
BRANCH   1   2
ATOM      2  C   UNL     1      -8.816 -19.117  32.976  1.00  0.00     0.006 C 
BRANCH   2   3
ATOM      3  C   UNL     1      -7.536 -18.971  32.148  1.00  0.00     0.053 C 
BRANCH   3   4
ATOM      4  C   UNL     1      -6.329 -19.167  33.010  1.00  0.00     0.041 C 
ATOM      5  O   UNL     1      -6.291 -20.112  33.840  1.00  0.00    -0.550 OA
ATOM      6  O   UNL     1      -5.267 -18.274  32.933  1.00  0.00    -0.550 OA
ENDBRANCH   3   4
ENDBRANCH   2   3
ENDBRANCH   1   2
BRANCH   1   7
ATOM      7  C   UNL     1      -9.990 -20.439  31.167  1.00  0.00     0.000 C 
BRANCH   7   8
ATOM      8  C   UNL     1     -11.063 -19.383  30.858  1.00  0.00    -0.000 C 
BRANCH   8   9
ATOM      9  C   UNL     1     -10.619 -18.388  29.772  1.00  0.00    -0.000 C 
BRANCH   9  10
ATOM     10  C   UNL     1      -9.410 -18.894  28.970  1.00  0.00    -0.003 C 
ATOM     11  C   UNL     1      -9.724 -19.091  27.486  1.00  0.00     0.004 C 
ENDBRANCH   9  10
ENDBRANCH   8   9
ENDBRANCH   7   8
ENDBRANCH   1   7
TORSDOF 7
ENDMDL
MODEL 3
REMARK VINA RESULT:    -4.305     18.695     19.808
REMARK INTER + INTRA:          -6.294
REMARK INTER:                  -6.055
REMARK INTRA:                  -0.239
REMARK UNBOUND:                -0.227
REMARK SMILES CCCCCCCCC(=O)[O-]
REMARK SMILES IDX 6 1 7 2 8 3 9 4 10 5 11 6 5 7 4 8 3 9 2 10 1 11
REMARK H PARENT
REMARK Flexibility Score: inf
ROOT
ATOM      1  C   UNL     1      -7.312 -18.035  31.999  1.00  0.00     0.000 C 
ENDROOT
BRANCH   1   2
ATOM      2  C   UNL     1      -6.466 -19.082  32.734  1.00  0.00     0.006 C 
BRANCH   2   3
ATOM      3  C   UNL     1      -5.016 -18.613  32.881  1.00  0.00     0.053 C 
BRANCH   3   4
ATOM      4  C   UNL     1      -4.522 -18.864  34.271  1.00  0.00     0.041 C 
ATOM      5  O   UNL     1      -3.366 -19.326  34.458  1.00  0.00    -0.550 OA
ATOM      6  O   UNL     1      -5.357 -18.635  35.358  1.00  0.00    -0.550 OA
ENDBRANCH   3   4
ENDBRANCH   2   3
ENDBRANCH   1   2
BRANCH   1   7
ATOM      7  C   UNL     1      -8.230 -18.700  30.962  1.00  0.00     0.000 C 
BRANCH   7   8
ATOM      8  C   UNL     1      -9.702 -18.284  31.118  1.00  0.00    -0.000 C 
BRANCH   8   9
ATOM      9  C   UNL     1     -10.493 -18.407  29.804  1.00  0.00    -0.000 C 
BRANCH   9  10
ATOM     10  C   UNL     1      -9.967 -19.536  28.903  1.00  0.00    -0.003 C 
ATOM     11  C   UNL     1      -9.671 -19.067  27.479  1.00  0.00     0.004 C 
ENDBRANCH   9  10
ENDBRANCH   8   9
ENDBRANCH   7   8
ENDBRANCH   1   7
TORSDOF 7
ENDMDL
MODEL 4
REMARK VINA RESULT:    -4.251     18.546     19.766
REMARK INTER + INTRA:          -6.217
REMARK INTER:                  -5.695
REMARK INTRA:                  -0.522
REMARK UNBOUND:                -0.227
REMARK SMILES CCCCCCCCC(=O)[O-]
REMARK SMILES IDX 6 1 7 2 8 3 9 4 10 5 11 6 5 7 4 8 3 9 2 10 1 11
REMARK H PARENT
REMARK Flexibility Score: inf
ROOT
ATOM      1  C   UNL     1      -8.175 -18.652  30.554  1.00  0.00     0.000 C 
ENDROOT
BRANCH   1   2
ATOM      2  C   UNL     1      -9.697 -18.735  30.711  1.00  0.00     0.006 C 
BRANCH   2   3
ATOM      3  C   UNL     1     -10.403 -18.442  29.384  1.00  0.00     0.053 C 
BRANCH   3   4
ATOM      4  C   UNL     1     -10.008 -19.446  28.347  1.00  0.00     0.041 C 
ATOM      5  O   UNL     1      -9.582 -19.064  27.226  1.00  0.00    -0.550 OA
ATOM      6  O   UNL     1     -10.158 -20.804  28.601  1.00  0.00    -0.550 OA
ENDBRANCH   3   4
ENDBRANCH   2   3
ENDBRANCH   1   2
BRANCH   1   7
ATOM      7  C   UNL     1      -7.525 -18.044  31.807  1.00  0.00     0.000 C 
BRANCH   7   8
ATOM      8  C   UNL     1      -6.600 -19.032  32.536  1.00  0.00    -0.000 C 
BRANCH   8   9
ATOM      9  C   UNL     1      -7.152 -19.455  33.909  1.00  0.00    -0.000 C 
BRANCH   9  10
ATOM     10  C   UNL     1      -7.561 -20.936  33.948  1.00  0.00    -0.003 C 
ATOM     11  C   UNL     1      -9.012 -21.161  33.523  1.00  0.00     0.004 C 
ENDBRANCH   9  10
ENDBRANCH   8   9
ENDBRANCH   7   8
ENDBRANCH   1   7
TORSDOF 7
ENDMDL
MODEL 5
REMARK VINA RESULT:    -4.210     18.383     20.017
REMARK INTER + INTRA:          -6.160
REMARK INTER:                  -5.519
REMARK INTRA:                  -0.641
REMARK UNBOUND:                -0.227
REMARK SMILES CCCCCCCCC(=O)[O-]
REMARK SMILES IDX 6 1 7 2 8 3 9 4 10 5 11 6 5 7 4 8 3 9 2 10 1 11
REMARK H PARENT
REMARK Flexibility Score: inf
ROOT
ATOM      1  C   UNL     1      -8.073 -18.900  31.526  1.00  0.00     0.000 C 
ENDROOT
BRANCH   1   2
ATOM      2  C   UNL     1      -8.250 -18.612  30.031  1.00  0.00     0.006 C 
BRANCH   2   3
ATOM      3  C   UNL     1      -9.722 -18.721  29.621  1.00  0.00     0.053 C 
BRANCH   3   4
ATOM      4  C   UNL     1      -9.878 -19.668  28.474  1.00  0.00     0.041 C 
ATOM      5  O   UNL     1     -10.180 -20.872  28.683  1.00  0.00    -0.550 OA
ATOM      6  O   UNL     1      -9.640 -19.234  27.175  1.00  0.00    -0.550 OA
ENDBRANCH   3   4
ENDBRANCH   2   3
ENDBRANCH   1   2
BRANCH   1   7
ATOM      7  C   UNL     1      -8.896 -17.920  32.377  1.00  0.00     0.000 C 
BRANCH   7   8
ATOM      8  C   UNL     1      -9.567 -18.598  33.582  1.00  0.00    -0.000 C 
BRANCH   8   9
ATOM      9  C   UNL     1     -10.023 -20.035  33.275  1.00  0.00    -0.000 C 
BRANCH   9  10
ATOM     10  C   UNL     1     -11.554 -20.177  33.269  1.00  0.00    -0.003 C 
ATOM     11  C   UNL     1     -12.139 -20.214  31.857  1.00  0.00     0.004 C 
ENDBRANCH   9  10
ENDBRANCH   8   9
ENDBRANCH   7   8
ENDBRANCH   1   7
TORSDOF 7
ENDMDL
MODEL 6
REMARK VINA RESULT:    -4.193      4.128      5.123
REMARK INTER + INTRA:          -6.135
REMARK INTER:                  -5.770
REMARK INTRA:                  -0.365
REMARK UNBOUND:                -0.227
REMARK SMILES CCCCCCCCC(=O)[O-]
REMARK SMILES IDX 6 1 7 2 8 3 9 4 10 5 11 6 5 7 4 8 3 9 2 10 1 11
REMARK H PARENT
REMARK Flexibility Score: inf
ROOT
ATOM      1  C   UNL     1       0.470 -37.236  21.228  1.00  0.00     0.000 C 
ENDROOT
BRANCH   1   2
ATOM      2  C   UNL     1      -1.018 -36.963  21.476  1.00  0.00     0.006 C 
BRANCH   2   3
ATOM      3  C   UNL     1      -1.307 -35.459  21.479  1.00  0.00     0.053 C 
BRANCH   3   4
ATOM      4  C   UNL     1      -2.482 -35.153  22.354  1.00  0.00     0.041 C 
ATOM      5  O   UNL     1      -3.519 -35.864  22.293  1.00  0.00    -0.550 OA
ATOM      6  O   UNL     1      -2.451 -34.052  23.201  1.00  0.00    -0.550 OA
ENDBRANCH   3   4
ENDBRANCH   2   3
ENDBRANCH   1   2
BRANCH   1   7
ATOM      7  C   UNL     1       1.270 -35.926  21.178  1.00  0.00     0.000 C 
BRANCH   7   8
ATOM      8  C   UNL     1       2.775 -36.138  21.408  1.00  0.00    -0.000 C 
BRANCH   8   9
ATOM      9  C   UNL     1       3.549 -36.356  20.097  1.00  0.00    -0.000 C 
BRANCH   9  10
ATOM     10  C   UNL     1       2.745 -35.922  18.860  1.00  0.00    -0.003 C 
ATOM     11  C   UNL     1       2.719 -36.989  17.766  1.00  0.00     0.004 C 
ENDBRANCH   9  10
ENDBRANCH   8   9
ENDBRANCH   7   8
ENDBRANCH   1   7
TORSDOF 7
ENDMDL
MODEL 7
REMARK VINA RESULT:    -4.180     19.170     20.445
REMARK INTER + INTRA:          -6.117
REMARK INTER:                  -5.852
REMARK INTRA:                  -0.264
REMARK UNBOUND:                -0.227
REMARK SMILES CCCCCCCCC(=O)[O-]
REMARK SMILES IDX 6 1 7 2 8 3 9 4 10 5 11 6 5 7 4 8 3 9 2 10 1 11
REMARK H PARENT
REMARK Flexibility Score: inf
ROOT
ATOM      1  C   UNL     1     -11.473 -20.048  31.345  1.00  0.00     0.000 C 
ENDROOT
BRANCH   1   2
ATOM      2  C   UNL     1     -10.810 -18.672  31.212  1.00  0.00     0.006 C 
BRANCH   2   3
ATOM      3  C   UNL     1     -10.748 -18.231  29.747  1.00  0.00     0.053 C 
BRANCH   3   4
ATOM      4  C   UNL     1      -9.574 -18.855  29.061  1.00  0.00     0.041 C 
ATOM      5  O   UNL     1      -8.430 -18.795  29.583  1.00  0.00    -0.550 OA
ATOM      6  O   UNL     1      -9.734 -19.460  27.820  1.00  0.00    -0.550 OA
ENDBRANCH   3   4
ENDBRANCH   2   3
ENDBRANCH   1   2
BRANCH   1   7
ATOM      7  C   UNL     1     -12.372 -20.107  32.590  1.00  0.00     0.000 C 
BRANCH   7   8
ATOM      8  C   UNL     1     -11.598 -20.484  33.864  1.00  0.00    -0.000 C 
BRANCH   8   9
ATOM      9  C   UNL     1     -12.505 -21.092  34.948  1.00  0.00    -0.000 C 
BRANCH   9  10
ATOM     10  C   UNL     1     -11.731 -21.990  35.927  1.00  0.00    -0.003 C 
ATOM     11  C   UNL     1     -10.447 -22.556  35.322  1.00  0.00     0.004 C 
ENDBRANCH   9  10
ENDBRANCH   8   9
ENDBRANCH   7   8
ENDBRANCH   1   7
TORSDOF 7
ENDMDL
MODEL 8
REMARK VINA RESULT:    -4.176     18.801     20.428
REMARK INTER + INTRA:          -6.112
REMARK INTER:                  -5.932
REMARK INTRA:                  -0.180
REMARK UNBOUND:                -0.227
REMARK SMILES CCCCCCCCC(=O)[O-]
REMARK SMILES IDX 6 1 7 2 8 3 9 4 10 5 11 6 5 7 4 8 3 9 2 10 1 11
REMARK H PARENT
REMARK Flexibility Score: inf
ROOT
ATOM      1  C   UNL     1     -11.107 -19.910  33.232  1.00  0.00     0.000 C 
ENDROOT
BRANCH   1   2
ATOM      2  C   UNL     1     -12.254 -20.634  33.946  1.00  0.00     0.006 C 
BRANCH   2   3
ATOM      3  C   UNL     1     -11.891 -20.937  35.402  1.00  0.00     0.053 C 
BRANCH   3   4
ATOM      4  C   UNL     1     -11.641 -22.401  35.586  1.00  0.00     0.041 C 
ATOM      5  O   UNL     1     -12.603 -23.185  35.801  1.00  0.00    -0.550 OA
ATOM      6  O   UNL     1     -10.342 -22.893  35.571  1.00  0.00    -0.550 OA
ENDBRANCH   3   4
ENDBRANCH   2   3
ENDBRANCH   1   2
BRANCH   1   7
ATOM      7  C   UNL     1     -11.494 -19.557  31.788  1.00  0.00     0.000 C 
BRANCH   7   8
ATOM      8  C   UNL     1     -10.724 -18.341  31.246  1.00  0.00    -0.000 C 
BRANCH   8   9
ATOM      9  C   UNL     1     -10.751 -18.260  29.710  1.00  0.00    -0.000 C 
BRANCH   9  10
ATOM     10  C   UNL     1      -9.671 -19.137  29.056  1.00  0.00    -0.003 C 
ATOM     11  C   UNL     1      -9.662 -19.027  27.532  1.00  0.00     0.004 C 
ENDBRANCH   9  10
ENDBRANCH   8   9
ENDBRANCH   7   8
ENDBRANCH   1   7
TORSDOF 7
ENDMDL
MODEL 9
REMARK VINA RESULT:    -4.175     19.273     19.966
REMARK INTER + INTRA:          -6.110
REMARK INTER:                  -5.669
REMARK INTRA:                  -0.441
REMARK UNBOUND:                -0.227
REMARK SMILES CCCCCCCCC(=O)[O-]
REMARK SMILES IDX 6 1 7 2 8 3 9 4 10 5 11 6 5 7 4 8 3 9 2 10 1 11
REMARK H PARENT
REMARK Flexibility Score: inf
ROOT
ATOM      1  C   UNL     1      -8.371 -18.131  31.976  1.00  0.00     0.000 C 
ENDROOT
BRANCH   1   2
ATOM      2  C   UNL     1      -7.586 -18.868  33.068  1.00  0.00     0.006 C 
BRANCH   2   3
ATOM      3  C   UNL     1      -6.382 -18.043  33.531  1.00  0.00     0.053 C 
BRANCH   3   4
ATOM      4  C   UNL     1      -5.104 -18.741  33.186  1.00  0.00     0.041 C 
ATOM      5  O   UNL     1      -3.998 -18.237  33.515  1.00  0.00    -0.550 OA
ATOM      6  O   UNL     1      -5.132 -19.924  32.457  1.00  0.00    -0.550 OA
ENDBRANCH   3   4
ENDBRANCH   2   3
ENDBRANCH   1   2
BRANCH   1   7
ATOM      7  C   UNL     1      -8.097 -18.743  30.594  1.00  0.00     0.000 C 
BRANCH   7   8
ATOM      8  C   UNL     1      -9.354 -18.804  29.711  1.00  0.00    -0.000 C 
BRANCH   8   9
ATOM      9  C   UNL     1     -10.655 -18.732  30.528  1.00  0.00    -0.000 C 
BRANCH   9  10
ATOM     10  C   UNL     1     -11.202 -20.124  30.886  1.00  0.00    -0.003 C 
ATOM     11  C   UNL     1     -12.132 -20.101  32.099  1.00  0.00     0.004 C 
ENDBRANCH   9  10
ENDBRANCH   8   9
ENDBRANCH   7   8
ENDBRANCH   1   7
TORSDOF 7
ENDMDL
