MODEL 1
REMARK VINA RESULT:    -8.311      0.000      0.000
REMARK INTER + INTRA:          -9.375
REMARK INTER:                  -9.039
REMARK INTRA:                  -0.336
REMARK UNBOUND:                -0.336
REMARK SMILES C[C@H]1[C@H](C)CC[C@]2(C(=O)[O-])CC[C@@]3(C)C(=CC[C@H]4[C@]5(C)CC[C@H](O)C(C)(C)[C@@H]5CC[C@]43C)[C@H]12
REMARK SMILES IDX 7 1 6 2 11 3 33 4 5 5 12 6 15 7 2 8 3 9 13 10 16 11 1 12
REMARK SMILES IDX 4 13 14 14 31 15 17 16 18 17 30 18 32 19 19 20 29 21 28 22
REMARK SMILES IDX 21 23 20 24 25 25 22 26 23 27 26 28 27 29 8 30 9 31 10 32
REMARK SMILES IDX 24 33
REMARK H PARENT 24 34
REMARK Flexibility Score: inf
ROOT
ATOM      1  C   UNL     1      14.396   8.563  22.322  1.00  0.00     0.017 C 
ATOM      2  C   UNL     1      14.652   9.870  21.538  1.00  0.00     0.014 C 
ATOM      3  C   UNL     1      13.453   8.940  23.490  1.00  0.00     0.014 C 
ATOM      4  C   UNL     1      15.741   7.921  22.879  1.00  0.00     0.030 C 
ATOM      5  C   UNL     1      15.605   9.640  20.377  1.00  0.00     0.004 C 
ATOM      6  C   UNL     1      13.208   7.742  24.407  1.00  0.00     0.013 C 
ATOM      7  C   UNL     1      15.755   7.818  24.448  1.00  0.00    -0.063 C 
ATOM      8  C   UNL     1      17.077   8.508  22.242  1.00  0.00    -0.003 C 
ATOM      9  C   UNL     1      17.021   9.297  20.875  1.00  0.00    -0.011 C 
ATOM     10  C   UNL     1      14.505   7.285  25.179  1.00  0.00    -0.006 C 
ATOM     11  C   UNL     1      16.905   7.905  25.149  1.00  0.00    -0.027 C 
ATOM     12  C   UNL     1      18.125   7.380  22.086  1.00  0.00     0.008 C 
ATOM     13  C   UNL     1      17.872  10.588  20.952  1.00  0.00     0.008 C 
ATOM     14  C   UNL     1      14.609   5.730  25.065  1.00  0.00     0.017 C 
ATOM     15  C   UNL     1      14.440   7.732  26.733  1.00  0.00    -0.020 C 
ATOM     16  C   UNL     1      17.011   7.931  26.636  1.00  0.00     0.032 C 
ATOM     17  C   UNL     1      15.801   7.424  27.482  1.00  0.00     0.006 C 
ATOM     18  C   UNL     1      14.208   9.265  26.857  1.00  0.00     0.008 C 
ATOM     19  C   UNL     1      13.253   6.947  27.398  1.00  0.00     0.012 C 
ATOM     20  C   UNL     1      15.942   7.958  29.004  1.00  0.00    -0.025 C 
ATOM     21  C   UNL     1      14.240   9.796  28.298  1.00  0.00     0.005 C 
ATOM     22  C   UNL     1      15.537   9.487  29.106  1.00  0.00     0.003 C 
ATOM     23  C   UNL     1      15.092   7.118  30.011  1.00  0.00     0.010 C 
ATOM     24  C   UNL     1      17.439   7.743  29.426  1.00  0.00     0.012 C 
ATOM     25  C   UNL     1      15.457  10.059  30.598  1.00  0.00    -0.006 C 
ATOM     26  C   UNL     1      15.113   7.642  31.459  1.00  0.00     0.033 C 
ATOM     27  C   UNL     1      14.659   9.105  31.551  1.00  0.00     0.120 C 
ATOM     28  C   UNL     1      14.780  11.463  30.622  1.00  0.00     0.014 C 
ATOM     29  C   UNL     1      16.886  10.301  31.182  1.00  0.00     0.014 C 
ENDROOT
BRANCH   1  30
ATOM     30  C   UNL     1      13.653   7.590  21.390  1.00  0.00     0.048 C 
ATOM     31  O   UNL     1      14.122   6.451  21.124  1.00  0.00    -0.550 OA
ATOM     32  O   UNL     1      12.495   7.993  20.731  1.00  0.00    -0.550 OA
ENDBRANCH   1  30
BRANCH  27  33
ATOM     33  O   UNL     1      13.282   9.168  31.285  1.00  0.00    -0.393 OA
ATOM     34  H   UNL     1      13.160   9.766  30.500  1.00  0.00     0.210 HD
ENDBRANCH  27  33
TORSDOF 2
ENDMDL
MODEL 2
REMARK VINA RESULT:    -8.138      3.842      9.833
REMARK INTER + INTRA:          -9.188
REMARK INTER:                  -8.852
REMARK INTRA:                  -0.336
REMARK UNBOUND:                -0.336
REMARK SMILES C[C@H]1[C@H](C)CC[C@]2(C(=O)[O-])CC[C@@]3(C)C(=CC[C@H]4[C@]5(C)CC[C@H](O)C(C)(C)[C@@H]5CC[C@]43C)[C@H]12
REMARK SMILES IDX 7 1 6 2 11 3 33 4 5 5 12 6 15 7 2 8 3 9 13 10 16 11 1 12
REMARK SMILES IDX 4 13 14 14 31 15 17 16 18 17 30 18 32 19 19 20 29 21 28 22
REMARK SMILES IDX 21 23 20 24 25 25 22 26 23 27 26 28 27 29 8 30 9 31 10 32
REMARK SMILES IDX 24 33
REMARK H PARENT 24 34
REMARK Flexibility Score: inf
ROOT
ATOM      1  C   UNL     1      14.197   8.074  23.648  1.00  0.00     0.017 C 
ATOM      2  C   UNL     1      13.230   7.272  24.550  1.00  0.00     0.014 C 
ATOM      3  C   UNL     1      13.342   8.617  22.478  1.00  0.00     0.014 C 
ATOM      4  C   UNL     1      15.389   7.177  23.096  1.00  0.00     0.030 C 
ATOM      5  C   UNL     1      13.962   6.648  25.726  1.00  0.00     0.004 C 
ATOM      6  C   UNL     1      14.212   9.345  21.454  1.00  0.00     0.013 C 
ATOM      7  C   UNL     1      15.403   7.093  21.527  1.00  0.00    -0.063 C 
ATOM      8  C   UNL     1      15.573   5.778  23.836  1.00  0.00    -0.003 C 
ATOM      9  C   UNL     1      14.933   5.547  25.261  1.00  0.00    -0.011 C 
ATOM     10  C   UNL     1      15.209   8.383  20.702  1.00  0.00    -0.006 C 
ATOM     11  C   UNL     1      15.858   5.997  20.883  1.00  0.00    -0.027 C 
ATOM     12  C   UNL     1      17.078   5.433  23.940  1.00  0.00     0.008 C 
ATOM     13  C   UNL     1      14.228   4.170  25.329  1.00  0.00     0.008 C 
ATOM     14  C   UNL     1      16.616   9.063  20.689  1.00  0.00     0.017 C 
ATOM     15  C   UNL     1      14.707   8.100  19.190  1.00  0.00    -0.020 C 
ATOM     16  C   UNL     1      15.809   5.777  19.410  1.00  0.00     0.032 C 
ATOM     17  C   UNL     1      15.607   7.010  18.474  1.00  0.00     0.006 C 
ATOM     18  C   UNL     1      13.255   7.540  19.186  1.00  0.00     0.008 C 
ATOM     19  C   UNL     1      14.767   9.463  18.412  1.00  0.00     0.012 C 
ATOM     20  C   UNL     1      15.133   6.508  17.010  1.00  0.00    -0.025 C 
ATOM     21  C   UNL     1      12.734   7.141  17.797  1.00  0.00     0.005 C 
ATOM     22  C   UNL     1      13.601   6.103  17.020  1.00  0.00     0.003 C 
ATOM     23  C   UNL     1      15.390   7.580  15.901  1.00  0.00     0.010 C 
ATOM     24  C   UNL     1      16.038   5.281  16.634  1.00  0.00     0.012 C 
ATOM     25  C   UNL     1      12.986   5.776  15.580  1.00  0.00    -0.006 C 
ATOM     26  C   UNL     1      14.869   7.192  14.505  1.00  0.00     0.033 C 
ATOM     27  C   UNL     1      13.370   6.863  14.517  1.00  0.00     0.120 C 
ATOM     28  C   UNL     1      11.433   5.675  15.645  1.00  0.00     0.014 C 
ATOM     29  C   UNL     1      13.451   4.372  15.078  1.00  0.00     0.014 C 
ENDROOT
BRANCH   1  30
ATOM     30  C   UNL     1      14.722   9.268  24.464  1.00  0.00     0.048 C 
ATOM     31  O   UNL     1      15.957   9.439  24.653  1.00  0.00    -0.550 OA
ATOM     32  O   UNL     1      13.835  10.127  25.105  1.00  0.00    -0.550 OA
ENDBRANCH   1  30
BRANCH  27  33
ATOM     33  O   UNL     1      12.648   8.049  14.731  1.00  0.00    -0.393 OA
ATOM     34  H   UNL     1      12.869   8.369  15.645  1.00  0.00     0.210 HD
ENDBRANCH  27  33
TORSDOF 2
ENDMDL
MODEL 3
REMARK VINA RESULT:    -7.708      4.051      6.882
REMARK INTER + INTRA:          -8.720
REMARK INTER:                  -8.433
REMARK INTRA:                  -0.288
REMARK UNBOUND:                -0.336
REMARK SMILES C[C@H]1[C@H](C)CC[C@]2(C(=O)[O-])CC[C@@]3(C)C(=CC[C@H]4[C@]5(C)CC[C@H](O)C(C)(C)[C@@H]5CC[C@]43C)[C@H]12
REMARK SMILES IDX 7 1 6 2 11 3 33 4 5 5 12 6 15 7 2 8 3 9 13 10 16 11 1 12
REMARK SMILES IDX 4 13 14 14 31 15 17 16 18 17 30 18 32 19 19 20 29 21 28 22
REMARK SMILES IDX 21 23 20 24 25 25 22 26 23 27 26 28 27 29 8 30 9 31 10 32
REMARK SMILES IDX 24 33
REMARK H PARENT 24 34
REMARK Flexibility Score: inf
ROOT
ATOM      1  C   UNL     1      14.684   7.700  15.967  1.00  0.00     0.017 C 
ATOM      2  C   UNL     1      16.012   7.452  15.215  1.00  0.00     0.014 C 
ATOM      3  C   UNL     1      14.961   8.856  16.958  1.00  0.00     0.014 C 
ATOM      4  C   UNL     1      14.183   6.407  16.746  1.00  0.00     0.030 C 
ATOM      5  C   UNL     1      15.882   6.303  14.229  1.00  0.00     0.004 C 
ATOM      6  C   UNL     1      13.742   9.125  17.841  1.00  0.00     0.013 C 
ATOM      7  C   UNL     1      14.079   6.641  18.297  1.00  0.00    -0.063 C 
ATOM      8  C   UNL     1      14.905   5.051  16.327  1.00  0.00    -0.003 C 
ATOM      9  C   UNL     1      15.686   4.961  14.958  1.00  0.00    -0.011 C 
ATOM     10  C   UNL     1      13.420   7.933  18.822  1.00  0.00    -0.006 C 
ATOM     11  C   UNL     1      14.284   5.637  19.177  1.00  0.00    -0.027 C 
ATOM     12  C   UNL     1      13.891   3.882  16.363  1.00  0.00     0.008 C 
ATOM     13  C   UNL     1      17.058   4.270  15.153  1.00  0.00     0.008 C 
ATOM     14  C   UNL     1      11.884   7.655  18.751  1.00  0.00     0.017 C 
ATOM     15  C   UNL     1      13.856   8.299  20.337  1.00  0.00    -0.020 C 
ATOM     16  C   UNL     1      14.319   5.780  20.660  1.00  0.00     0.032 C 
ATOM     17  C   UNL     1      13.689   7.055  21.304  1.00  0.00     0.006 C 
ATOM     18  C   UNL     1      15.357   8.702  20.397  1.00  0.00     0.008 C 
ATOM     19  C   UNL     1      12.952   9.493  20.810  1.00  0.00     0.012 C 
ATOM     20  C   UNL     1      14.232   7.222  22.820  1.00  0.00    -0.025 C 
ATOM     21  C   UNL     1      15.887   8.963  21.816  1.00  0.00     0.005 C 
ATOM     22  C   UNL     1      15.711   7.792  22.830  1.00  0.00     0.003 C 
ATOM     23  C   UNL     1      13.307   8.136  23.687  1.00  0.00     0.010 C 
ATOM     24  C   UNL     1      14.171   5.801  23.485  1.00  0.00     0.012 C 
ATOM     25  C   UNL     1      16.270   8.173  24.280  1.00  0.00    -0.006 C 
ATOM     26  C   UNL     1      13.829   8.408  25.110  1.00  0.00     0.033 C 
ATOM     27  C   UNL     1      15.238   9.016  25.104  1.00  0.00     0.120 C 
ATOM     28  C   UNL     1      17.597   8.984  24.171  1.00  0.00     0.014 C 
ATOM     29  C   UNL     1      16.657   6.893  25.087  1.00  0.00     0.014 C 
ENDROOT
BRANCH   1  30
ATOM     30  C   UNL     1      13.642   8.177  14.941  1.00  0.00     0.048 C 
ATOM     31  O   UNL     1      12.490   7.666  14.891  1.00  0.00    -0.550 OA
ATOM     32  O   UNL     1      13.987   9.111  13.969  1.00  0.00    -0.550 OA
ENDBRANCH   1  30
BRANCH  27  33
ATOM     33  O   UNL     1      15.160  10.331  24.614  1.00  0.00    -0.393 OA
ATOM     34  H   UNL     1      15.340  10.941  25.377  1.00  0.00     0.210 HD
ENDBRANCH  27  33
TORSDOF 2
ENDMDL
MODEL 4
REMARK VINA RESULT:    -7.604      1.724      7.964
REMARK INTER + INTRA:          -8.606
REMARK INTER:                  -8.270
REMARK INTRA:                  -0.337
REMARK UNBOUND:                -0.336
REMARK SMILES C[C@H]1[C@H](C)CC[C@]2(C(=O)[O-])CC[C@@]3(C)C(=CC[C@H]4[C@]5(C)CC[C@H](O)C(C)(C)[C@@H]5CC[C@]43C)[C@H]12
REMARK SMILES IDX 7 1 6 2 11 3 33 4 5 5 12 6 15 7 2 8 3 9 13 10 16 11 1 12
REMARK SMILES IDX 4 13 14 14 31 15 17 16 18 17 30 18 32 19 19 20 29 21 28 22
REMARK SMILES IDX 21 23 20 24 25 25 22 26 23 27 26 28 27 29 8 30 9 31 10 32
REMARK SMILES IDX 24 33
REMARK H PARENT 24 34
REMARK Flexibility Score: inf
ROOT
ATOM      1  C   UNL     1      16.064   6.468  29.865  1.00  0.00     0.017 C 
ATOM      2  C   UNL     1      17.323   7.143  30.457  1.00  0.00     0.014 C 
ATOM      3  C   UNL     1      16.523   5.765  28.565  1.00  0.00     0.014 C 
ATOM      4  C   UNL     1      14.910   7.517  29.553  1.00  0.00     0.030 C 
ATOM      5  C   UNL     1      16.995   7.906  31.728  1.00  0.00     0.004 C 
ATOM      6  C   UNL     1      15.336   5.146  27.828  1.00  0.00     0.013 C 
ATOM      7  C   UNL     1      14.524   7.553  28.029  1.00  0.00    -0.063 C 
ATOM      8  C   UNL     1      15.108   8.950  30.220  1.00  0.00    -0.003 C 
ATOM      9  C   UNL     1      16.102   9.126  31.433  1.00  0.00    -0.011 C 
ATOM     10  C   UNL     1      14.329   6.224  27.270  1.00  0.00    -0.006 C 
ATOM     11  C   UNL     1      14.083   8.684  27.440  1.00  0.00    -0.027 C 
ATOM     12  C   UNL     1      13.737   9.522  30.654  1.00  0.00     0.008 C 
ATOM     13  C   UNL     1      16.987  10.383  31.240  1.00  0.00     0.008 C 
ATOM     14  C   UNL     1      12.882   5.764  27.636  1.00  0.00     0.017 C 
ATOM     15  C   UNL     1      14.481   6.380  25.667  1.00  0.00    -0.020 C 
ATOM     16  C   UNL     1      13.800   8.849  25.986  1.00  0.00     0.032 C 
ATOM     17  C   UNL     1      13.594   7.571  25.113  1.00  0.00     0.006 C 
ATOM     18  C   UNL     1      15.951   6.713  25.281  1.00  0.00     0.008 C 
ATOM     19  C   UNL     1      14.044   5.017  25.019  1.00  0.00     0.012 C 
ATOM     20  C   UNL     1      13.761   7.949  23.549  1.00  0.00    -0.025 C 
ATOM     21  C   UNL     1      16.167   6.986  23.785  1.00  0.00     0.005 C 
ATOM     22  C   UNL     1      15.290   8.118  23.168  1.00  0.00     0.003 C 
ATOM     23  C   UNL     1      13.095   6.894  22.607  1.00  0.00     0.010 C 
ATOM     24  C   UNL     1      12.972   9.287  23.316  1.00  0.00     0.012 C 
ATOM     25  C   UNL     1      15.573   8.303  21.605  1.00  0.00    -0.006 C 
ATOM     26  C   UNL     1      13.307   7.155  21.104  1.00  0.00     0.033 C 
ATOM     27  C   UNL     1      14.794   7.254  20.738  1.00  0.00     0.120 C 
ATOM     28  C   UNL     1      17.094   8.170  21.293  1.00  0.00     0.014 C 
ATOM     29  C   UNL     1      15.200   9.745  21.134  1.00  0.00     0.014 C 
ENDROOT
BRANCH   1  30
ATOM     30  C   UNL     1      15.592   5.393  30.860  1.00  0.00     0.048 C 
ATOM     31  O   UNL     1      14.444   5.439  31.379  1.00  0.00    -0.550 OA
ATOM     32  O   UNL     1      16.469   4.403  31.294  1.00  0.00    -0.550 OA
ENDBRANCH   1  30
BRANCH  27  33
ATOM     33  O   UNL     1      15.374   5.980  20.853  1.00  0.00    -0.393 OA
ATOM     34  H   UNL     1      15.586   5.668  19.935  1.00  0.00     0.210 HD
ENDBRANCH  27  33
TORSDOF 2
ENDMDL
MODEL 5
REMARK VINA RESULT:    -7.481      2.354      8.405
REMARK INTER + INTRA:          -8.473
REMARK INTER:                  -8.149
REMARK INTRA:                  -0.324
REMARK UNBOUND:                -0.336
REMARK SMILES C[C@H]1[C@H](C)CC[C@]2(C(=O)[O-])CC[C@@]3(C)C(=CC[C@H]4[C@]5(C)CC[C@H](O)C(C)(C)[C@@H]5CC[C@]43C)[C@H]12
REMARK SMILES IDX 7 1 6 2 11 3 33 4 5 5 12 6 15 7 2 8 3 9 13 10 16 11 1 12
REMARK SMILES IDX 4 13 14 14 31 15 17 16 18 17 30 18 32 19 19 20 29 21 28 22
REMARK SMILES IDX 21 23 20 24 25 25 22 26 23 27 26 28 27 29 8 30 9 31 10 32
REMARK SMILES IDX 24 33
REMARK H PARENT 24 34
REMARK Flexibility Score: inf
ROOT
ATOM      1  C   UNL     1      14.690   8.014  26.663  1.00  0.00     0.017 C 
ATOM      2  C   UNL     1      13.632   7.180  27.423  1.00  0.00     0.014 C 
ATOM      3  C   UNL     1      13.903   8.906  25.673  1.00  0.00     0.014 C 
ATOM      4  C   UNL     1      15.729   7.098  25.881  1.00  0.00     0.030 C 
ATOM      5  C   UNL     1      14.286   6.226  28.409  1.00  0.00     0.004 C 
ATOM      6  C   UNL     1      14.852   9.707  24.782  1.00  0.00     0.013 C 
ATOM      7  C   UNL     1      15.704   7.348  24.329  1.00  0.00    -0.063 C 
ATOM      8  C   UNL     1      15.721   5.563  26.305  1.00  0.00    -0.003 C 
ATOM      9  C   UNL     1      15.078   5.126  27.679  1.00  0.00    -0.011 C 
ATOM     10  C   UNL     1      15.686   8.797  23.800  1.00  0.00    -0.006 C 
ATOM     11  C   UNL     1      15.984   6.361  23.451  1.00  0.00    -0.027 C 
ATOM     12  C   UNL     1      17.161   4.998  26.263  1.00  0.00     0.008 C 
ATOM     13  C   UNL     1      14.183   3.876  27.493  1.00  0.00     0.008 C 
ATOM     14  C   UNL     1      17.175   9.263  23.861  1.00  0.00     0.017 C 
ATOM     15  C   UNL     1      15.122   8.914  22.287  1.00  0.00    -0.020 C 
ATOM     16  C   UNL     1      15.879   6.467  21.968  1.00  0.00     0.032 C 
ATOM     17  C   UNL     1      15.842   7.887  21.319  1.00  0.00     0.006 C 
ATOM     18  C   UNL     1      13.604   8.574  22.236  1.00  0.00     0.008 C 
ATOM     19  C   UNL     1      15.365  10.390  21.808  1.00  0.00     0.012 C 
ATOM     20  C   UNL     1      15.274   7.778  19.807  1.00  0.00    -0.025 C 
ATOM     21  C   UNL     1      13.007   8.555  20.821  1.00  0.00     0.005 C 
ATOM     22  C   UNL     1      13.700   7.595  19.806  1.00  0.00     0.003 C 
ATOM     23  C   UNL     1      15.665   9.013  18.934  1.00  0.00     0.010 C 
ATOM     24  C   UNL     1      15.985   6.545  19.142  1.00  0.00     0.012 C 
ATOM     25  C   UNL     1      13.020   7.670  18.360  1.00  0.00    -0.006 C 
ATOM     26  C   UNL     1      15.070   9.007  17.514  1.00  0.00     0.033 C 
ATOM     27  C   UNL     1      13.539   8.893  17.528  1.00  0.00     0.120 C 
ATOM     28  C   UNL     1      11.470   7.773  18.476  1.00  0.00     0.014 C 
ATOM     29  C   UNL     1      13.268   6.353  17.556  1.00  0.00     0.014 C 
ENDROOT
BRANCH   1  30
ATOM     30  C   UNL     1      15.397   8.923  27.682  1.00  0.00     0.048 C 
ATOM     31  O   UNL     1      16.621   8.780  27.949  1.00  0.00    -0.550 OA
ATOM     32  O   UNL     1      14.671   9.856  28.415  1.00  0.00    -0.550 OA
ENDBRANCH   1  30
BRANCH  27  33
ATOM     33  O   UNL     1      13.001  10.095  18.017  1.00  0.00    -0.393 OA
ATOM     34  H   UNL     1      12.123  10.228  17.572  1.00  0.00     0.210 HD
ENDBRANCH  27  33
TORSDOF 2
ENDMDL
MODEL 6
REMARK VINA RESULT:    -7.321      3.966      7.176
REMARK INTER + INTRA:          -8.299
REMARK INTER:                  -7.966
REMARK INTRA:                  -0.332
REMARK UNBOUND:                -0.336
REMARK SMILES C[C@H]1[C@H](C)CC[C@]2(C(=O)[O-])CC[C@@]3(C)C(=CC[C@H]4[C@]5(C)CC[C@H](O)C(C)(C)[C@@H]5CC[C@]43C)[C@H]12
REMARK SMILES IDX 7 1 6 2 11 3 33 4 5 5 12 6 15 7 2 8 3 9 13 10 16 11 1 12
REMARK SMILES IDX 4 13 14 14 31 15 17 16 18 17 30 18 32 19 19 20 29 21 28 22
REMARK SMILES IDX 21 23 20 24 25 25 22 26 23 27 26 28 27 29 8 30 9 31 10 32
REMARK SMILES IDX 24 33
REMARK H PARENT 24 34
REMARK Flexibility Score: inf
ROOT
ATOM      1  C   UNL     1      15.500   6.379  16.349  1.00  0.00     0.017 C 
ATOM      2  C   UNL     1      14.662   5.183  15.842  1.00  0.00     0.014 C 
ATOM      3  C   UNL     1      16.344   5.843  17.530  1.00  0.00     0.014 C 
ATOM      4  C   UNL     1      14.589   7.594  16.823  1.00  0.00     0.030 C 
ATOM      5  C   UNL     1      13.752   5.592  14.696  1.00  0.00     0.004 C 
ATOM      6  C   UNL     1      17.143   6.967  18.189  1.00  0.00     0.013 C 
ATOM      7  C   UNL     1      14.795   7.945  18.342  1.00  0.00    -0.063 C 
ATOM      8  C   UNL     1      13.066   7.509  16.363  1.00  0.00    -0.003 C 
ATOM      9  C   UNL     1      12.652   6.558  15.173  1.00  0.00    -0.011 C 
ATOM     10  C   UNL     1      16.228   8.032  18.907  1.00  0.00    -0.006 C 
ATOM     11  C   UNL     1      13.791   8.448  19.091  1.00  0.00    -0.027 C 
ATOM     12  C   UNL     1      12.537   8.925  16.033  1.00  0.00     0.008 C 
ATOM     13  C   UNL     1      11.376   5.757  15.531  1.00  0.00     0.008 C 
ATOM     14  C   UNL     1      16.732   9.453  18.499  1.00  0.00     0.017 C 
ATOM     15  C   UNL     1      16.288   7.853  20.515  1.00  0.00    -0.020 C 
ATOM     16  C   UNL     1      13.853   8.707  20.558  1.00  0.00     0.032 C 
ATOM     17  C   UNL     1      15.252   8.805  21.243  1.00  0.00     0.006 C 
ATOM     18  C   UNL     1      15.909   6.400  20.923  1.00  0.00     0.008 C 
ATOM     19  C   UNL     1      17.755   8.181  20.969  1.00  0.00     0.012 C 
ATOM     20  C   UNL     1      15.087   8.627  22.843  1.00  0.00    -0.025 C 
ATOM     21  C   UNL     1      15.835   6.167  22.440  1.00  0.00     0.005 C 
ATOM     22  C   UNL     1      14.866   7.105  23.222  1.00  0.00     0.003 C 
ATOM     23  C   UNL     1      16.307   9.198  23.635  1.00  0.00     0.010 C 
ATOM     24  C   UNL     1      13.854   9.500  23.274  1.00  0.00     0.012 C 
ATOM     25  C   UNL     1      14.882   6.798  24.792  1.00  0.00    -0.006 C 
ATOM     26  C   UNL     1      16.246   8.968  25.157  1.00  0.00     0.033 C 
ATOM     27  C   UNL     1      16.094   7.483  25.512  1.00  0.00     0.120 C 
ATOM     28  C   UNL     1      14.950   5.264  25.061  1.00  0.00     0.014 C 
ATOM     29  C   UNL     1      13.550   7.257  25.468  1.00  0.00     0.014 C 
ENDROOT
BRANCH   1  30
ATOM     30  C   UNL     1      16.455   6.800  15.219  1.00  0.00     0.048 C 
ATOM     31  O   UNL     1      16.380   7.941  14.689  1.00  0.00    -0.550 OA
ATOM     32  O   UNL     1      17.354   5.885  14.680  1.00  0.00    -0.550 OA
ENDBRANCH   1  30
BRANCH  27  33
ATOM     33  O   UNL     1      17.296   6.821  25.210  1.00  0.00    -0.393 OA
ATOM     34  H   UNL     1      17.444   6.910  24.231  1.00  0.00     0.210 HD
ENDBRANCH  27  33
TORSDOF 2
ENDMDL
MODEL 7
REMARK VINA RESULT:    -6.757      2.204      3.983
REMARK INTER + INTRA:          -7.685
REMARK INTER:                  -7.360
REMARK INTRA:                  -0.325
REMARK UNBOUND:                -0.336
REMARK SMILES C[C@H]1[C@H](C)CC[C@]2(C(=O)[O-])CC[C@@]3(C)C(=CC[C@H]4[C@]5(C)CC[C@H](O)C(C)(C)[C@@H]5CC[C@]43C)[C@H]12
REMARK SMILES IDX 7 1 6 2 11 3 33 4 5 5 12 6 15 7 2 8 3 9 13 10 16 11 1 12
REMARK SMILES IDX 4 13 14 14 31 15 17 16 18 17 30 18 32 19 19 20 29 21 28 22
REMARK SMILES IDX 21 23 20 24 25 25 22 26 23 27 26 28 27 29 8 30 9 31 10 32
REMARK SMILES IDX 24 33
REMARK H PARENT 24 34
REMARK Flexibility Score: inf
ROOT
ATOM      1  C   UNL     1      16.889   8.447  20.255  1.00  0.00     0.017 C 
ATOM      2  C   UNL     1      18.123   7.632  19.803  1.00  0.00     0.014 C 
ATOM      3  C   UNL     1      17.335   9.241  21.508  1.00  0.00     0.014 C 
ATOM      4  C   UNL     1      15.647   7.516  20.600  1.00  0.00     0.030 C 
ATOM      5  C   UNL     1      17.802   6.772  18.592  1.00  0.00     0.004 C 
ATOM      6  C   UNL     1      16.162  10.011  22.115  1.00  0.00     0.013 C 
ATOM      7  C   UNL     1      15.185   7.657  22.096  1.00  0.00    -0.063 C 
ATOM      8  C   UNL     1      15.770   6.015  20.084  1.00  0.00    -0.003 C 
ATOM      9  C   UNL     1      16.808   5.652  18.951  1.00  0.00    -0.011 C 
ATOM     10  C   UNL     1      15.051   9.065  22.714  1.00  0.00    -0.006 C 
ATOM     11  C   UNL     1      14.632   6.622  22.764  1.00  0.00    -0.027 C 
ATOM     12  C   UNL     1      14.385   5.499  19.629  1.00  0.00     0.008 C 
ATOM     13  C   UNL     1      17.586   4.362  19.311  1.00  0.00     0.008 C 
ATOM     14  C   UNL     1      13.662   9.585  22.225  1.00  0.00     0.017 C 
ATOM     15  C   UNL     1      15.112   9.057  24.331  1.00  0.00    -0.020 C 
ATOM     16  C   UNL     1      14.266   6.621  24.209  1.00  0.00     0.032 C 
ATOM     17  C   UNL     1      14.113   7.991  24.944  1.00  0.00     0.006 C 
ATOM     18  C   UNL     1      16.532   8.662  24.829  1.00  0.00     0.008 C 
ATOM     19  C   UNL     1      14.746  10.504  24.822  1.00  0.00     0.012 C 
ATOM     20  C   UNL     1      14.174   7.758  26.544  1.00  0.00    -0.025 C 
ATOM     21  C   UNL     1      16.654   8.524  26.354  1.00  0.00     0.005 C 
ATOM     22  C   UNL     1      15.666   7.522  27.024  1.00  0.00     0.003 C 
ATOM     23  C   UNL     1      13.542   8.943  27.343  1.00  0.00     0.010 C 
ATOM     24  C   UNL     1      13.277   6.507  26.857  1.00  0.00     0.012 C 
ATOM     25  C   UNL     1      15.857   7.472  28.612  1.00  0.00    -0.006 C 
ATOM     26  C   UNL     1      13.660   8.818  28.874  1.00  0.00     0.033 C 
ATOM     27  C   UNL     1      15.116   8.652  29.330  1.00  0.00     0.120 C 
ATOM     28  C   UNL     1      17.366   7.529  28.995  1.00  0.00     0.014 C 
ATOM     29  C   UNL     1      15.354   6.112  29.195  1.00  0.00     0.014 C 
ENDROOT
BRANCH   1  30
ATOM     30  C   UNL     1      16.549   9.449  19.138  1.00  0.00     0.048 C 
ATOM     31  O   UNL     1      15.396   9.496  18.630  1.00  0.00    -0.550 OA
ATOM     32  O   UNL     1      17.542  10.253  18.588  1.00  0.00    -0.550 OA
ENDBRANCH   1  30
BRANCH  27  33
ATOM     33  O   UNL     1      15.794   9.865  29.128  1.00  0.00    -0.393 OA
ATOM     34  H   UNL     1      15.855  10.010  28.147  1.00  0.00     0.210 HD
ENDBRANCH  27  33
TORSDOF 2
ENDMDL
MODEL 8
REMARK VINA RESULT:    -6.742      2.761      5.343
REMARK INTER + INTRA:          -7.669
REMARK INTER:                  -7.538
REMARK INTRA:                  -0.131
REMARK UNBOUND:                -0.336
REMARK SMILES C[C@H]1[C@H](C)CC[C@]2(C(=O)[O-])CC[C@@]3(C)C(=CC[C@H]4[C@]5(C)CC[C@H](O)C(C)(C)[C@@H]5CC[C@]43C)[C@H]12
REMARK SMILES IDX 7 1 6 2 11 3 33 4 5 5 12 6 15 7 2 8 3 9 13 10 16 11 1 12
REMARK SMILES IDX 4 13 14 14 31 15 17 16 18 17 30 18 32 19 19 20 29 21 28 22
REMARK SMILES IDX 21 23 20 24 25 25 22 26 23 27 26 28 27 29 8 30 9 31 10 32
REMARK SMILES IDX 24 33
REMARK H PARENT 24 34
REMARK Flexibility Score: inf
ROOT
ATOM      1  C   UNL     1      16.390   7.922  18.608  1.00  0.00     0.017 C 
ATOM      2  C   UNL     1      15.751   6.848  17.697  1.00  0.00     0.014 C 
ATOM      3  C   UNL     1      17.134   7.150  19.725  1.00  0.00     0.014 C 
ATOM      4  C   UNL     1      15.306   8.901  19.236  1.00  0.00     0.030 C 
ATOM      5  C   UNL     1      14.951   7.484  16.572  1.00  0.00     0.004 C 
ATOM      6  C   UNL     1      17.723   8.111  20.757  1.00  0.00     0.013 C 
ATOM      7  C   UNL     1      15.285   8.849  20.808  1.00  0.00    -0.063 C 
ATOM      8  C   UNL     1      13.868   8.837  18.552  1.00  0.00    -0.003 C 
ATOM      9  C   UNL     1      13.706   8.210  17.112  1.00  0.00    -0.011 C 
ATOM     10  C   UNL     1      16.620   8.881  21.580  1.00  0.00    -0.006 C 
ATOM     11  C   UNL     1      14.149   9.064  21.505  1.00  0.00    -0.027 C 
ATOM     12  C   UNL     1      13.239  10.250  18.519  1.00  0.00     0.008 C 
ATOM     13  C   UNL     1      12.486   7.257  17.064  1.00  0.00     0.008 C 
ATOM     14  C   UNL     1      17.019  10.390  21.625  1.00  0.00     0.017 C 
ATOM     15  C   UNL     1      16.500   8.285  23.080  1.00  0.00    -0.020 C 
ATOM     16  C   UNL     1      14.002   8.927  22.982  1.00  0.00     0.032 C 
ATOM     17  C   UNL     1      15.288   8.936  23.867  1.00  0.00     0.006 C 
ATOM     18  C   UNL     1      16.228   6.754  23.046  1.00  0.00     0.008 C 
ATOM     19  C   UNL     1      17.858   8.581  23.812  1.00  0.00     0.012 C 
ATOM     20  C   UNL     1      14.946   8.328  25.327  1.00  0.00    -0.025 C 
ATOM     21  C   UNL     1      15.992   6.121  24.427  1.00  0.00     0.005 C 
ATOM     22  C   UNL     1      14.841   6.748  25.271  1.00  0.00     0.003 C 
ATOM     23  C   UNL     1      15.993   8.750  26.408  1.00  0.00     0.010 C 
ATOM     24  C   UNL     1      13.585   8.967  25.780  1.00  0.00     0.012 C 
ATOM     25  C   UNL     1      14.696   6.036  26.696  1.00  0.00    -0.006 C 
ATOM     26  C   UNL     1      15.770   8.120  27.796  1.00  0.00     0.033 C 
ATOM     27  C   UNL     1      15.731   6.587  27.736  1.00  0.00     0.120 C 
ATOM     28  C   UNL     1      14.890   4.495  26.574  1.00  0.00     0.014 C 
ATOM     29  C   UNL     1      13.250   6.207  27.264  1.00  0.00     0.014 C 
ENDROOT
BRANCH   1  30
ATOM     30  C   UNL     1      17.427   8.693  17.774  1.00  0.00     0.048 C 
ATOM     31  O   UNL     1      18.125   8.114  16.898  1.00  0.00    -0.550 OA
ATOM     32  O   UNL     1      17.696  10.031  18.046  1.00  0.00    -0.550 OA
ENDBRANCH   1  30
BRANCH  27  33
ATOM     33  O   UNL     1      17.024   6.114  27.454  1.00  0.00    -0.393 OA
ATOM     34  H   UNL     1      17.017   5.131  27.600  1.00  0.00     0.210 HD
ENDBRANCH  27  33
TORSDOF 2
ENDMDL
