MODEL 1
REMARK VINA RESULT:    -3.763      0.000      0.000
REMARK INTER + INTRA:          -9.540
REMARK INTER:                  -6.842
REMARK INTRA:                  -2.698
REMARK UNBOUND:                -2.698
REMARK SMILES CCCCCCCCCCCCCC[C@H](C)C(=O)[O-]
REMARK SMILES IDX 9 1 10 2 11 3 12 4 13 5 14 6 15 7 16 8 17 9 18 10 19 11 8 12
REMARK SMILES IDX 7 13 6 14 5 15 4 16 3 17 2 18 1 19
REMARK H PARENT
REMARK Flexibility Score: inf
ROOT
ATOM      1  C   UNL     1      -4.427  19.677  -7.637  1.00  0.00     0.000 C 
ENDROOT
BRANCH   1   2
ATOM      2  C   UNL     1      -5.837  20.118  -7.196  1.00  0.00     0.000 C 
BRANCH   2   3
ATOM      3  C   UNL     1      -6.838  20.348  -8.346  1.00  0.00     0.000 C 
BRANCH   3   4
ATOM      4  C   UNL     1      -6.233  20.255  -9.759  1.00  0.00     0.000 C 
BRANCH   4   5
ATOM      5  C   UNL     1      -7.304  20.178 -10.861  1.00  0.00     0.001 C 
BRANCH   5   6
ATOM      6  C   UNL     1      -8.457  19.220 -10.507  1.00  0.00     0.009 C 
BRANCH   6   7
ATOM      7  C   UNL     1      -8.865  18.270 -11.655  1.00  0.00     0.032 C 
ATOM      8  C   UNL     1      -9.087  19.059 -12.950  1.00  0.00     0.014 C 
BRANCH   7   9
ATOM      9  C   UNL     1     -10.111  17.497 -11.313  1.00  0.00     0.044 C 
ATOM     10  O   UNL     1     -10.039  16.478 -10.575  1.00  0.00    -0.550 OA
ATOM     11  O   UNL     1     -11.346  17.900 -11.805  1.00  0.00    -0.550 OA
ENDBRANCH   7   9
ENDBRANCH   6   7
ENDBRANCH   5   6
ENDBRANCH   4   5
ENDBRANCH   3   4
ENDBRANCH   2   3
ENDBRANCH   1   2
BRANCH   1  12
ATOM     12  C   UNL     1      -3.875  18.434  -6.912  1.00  0.00     0.000 C 
BRANCH  12  13
ATOM     13  C   UNL     1      -4.939  17.544  -6.245  1.00  0.00    -0.000 C 
BRANCH  13  14
ATOM     14  C   UNL     1      -5.333  16.337  -7.109  1.00  0.00    -0.000 C 
BRANCH  14  15
ATOM     15  C   UNL     1      -6.645  16.602  -7.858  1.00  0.00    -0.000 C 
BRANCH  15  16
ATOM     16  C   UNL     1      -6.431  16.560  -9.377  1.00  0.00    -0.000 C 
BRANCH  16  17
ATOM     17  C   UNL     1      -4.991  16.182  -9.769  1.00  0.00    -0.000 C 
BRANCH  17  18
ATOM     18  C   UNL     1      -4.191  17.305 -10.452  1.00  0.00    -0.003 C 
ATOM     19  C   UNL     1      -4.694  17.627 -11.859  1.00  0.00     0.004 C 
ENDBRANCH  17  18
ENDBRANCH  16  17
ENDBRANCH  15  16
ENDBRANCH  14  15
ENDBRANCH  13  14
ENDBRANCH  12  13
ENDBRANCH   1  12
TORSDOF 14
ENDMDL
MODEL 2
REMARK VINA RESULT:    -3.733      1.373      2.514
REMARK INTER + INTRA:          -9.487
REMARK INTER:                  -7.341
REMARK INTRA:                  -2.146
REMARK UNBOUND:                -2.698
REMARK SMILES CCCCCCCCCCCCCC[C@H](C)C(=O)[O-]
REMARK SMILES IDX 9 1 10 2 11 3 12 4 13 5 14 6 15 7 16 8 17 9 18 10 19 11 8 12
REMARK SMILES IDX 7 13 6 14 5 15 4 16 3 17 2 18 1 19
REMARK H PARENT
REMARK Flexibility Score: inf
ROOT
ATOM      1  C   UNL     1      -6.466  20.104  -7.982  1.00  0.00     0.000 C 
ENDROOT
BRANCH   1   2
ATOM      2  C   UNL     1      -6.029  20.228  -9.456  1.00  0.00     0.000 C 
BRANCH   2   3
ATOM      3  C   UNL     1      -7.182  20.232 -10.480  1.00  0.00     0.000 C 
BRANCH   3   4
ATOM      4  C   UNL     1      -7.072  19.163 -11.581  1.00  0.00     0.000 C 
BRANCH   4   5
ATOM      5  C   UNL     1      -8.445  18.655 -12.056  1.00  0.00     0.001 C 
BRANCH   5   6
ATOM      6  C   UNL     1      -9.589  19.049 -11.104  1.00  0.00     0.009 C 
BRANCH   6   7
ATOM      7  C   UNL     1     -10.764  18.047 -11.077  1.00  0.00     0.032 C 
ATOM      8  C   UNL     1     -10.239  16.607 -11.047  1.00  0.00     0.014 C 
BRANCH   7   9
ATOM      9  C   UNL     1     -11.672  18.230 -12.263  1.00  0.00     0.044 C 
ATOM     10  O   UNL     1     -12.303  17.247 -12.734  1.00  0.00    -0.550 OA
ATOM     11  O   UNL     1     -11.823  19.483 -12.846  1.00  0.00    -0.550 OA
ENDBRANCH   7   9
ENDBRANCH   6   7
ENDBRANCH   5   6
ENDBRANCH   4   5
ENDBRANCH   3   4
ENDBRANCH   2   3
ENDBRANCH   1   2
BRANCH   1  12
ATOM     12  C   UNL     1      -5.584  20.865  -6.974  1.00  0.00     0.000 C 
BRANCH  12  13
ATOM     13  C   UNL     1      -4.778  19.975  -6.011  1.00  0.00    -0.000 C 
BRANCH  13  14
ATOM     14  C   UNL     1      -4.298  18.671  -6.665  1.00  0.00    -0.000 C 
BRANCH  14  15
ATOM     15  C   UNL     1      -4.861  17.448  -5.931  1.00  0.00    -0.000 C 
BRANCH  15  16
ATOM     16  C   UNL     1      -5.114  16.289  -6.906  1.00  0.00    -0.000 C 
BRANCH  16  17
ATOM     17  C   UNL     1      -4.715  16.626  -8.354  1.00  0.00    -0.000 C 
BRANCH  17  18
ATOM     18  C   UNL     1      -5.841  16.461  -9.390  1.00  0.00    -0.003 C 
ATOM     19  C   UNL     1      -7.236  16.625  -8.788  1.00  0.00     0.004 C 
ENDBRANCH  17  18
ENDBRANCH  16  17
ENDBRANCH  15  16
ENDBRANCH  14  15
ENDBRANCH  13  14
ENDBRANCH  12  13
ENDBRANCH   1  12
TORSDOF 14
ENDMDL
MODEL 3
REMARK VINA RESULT:    -3.719      1.118      1.703
REMARK INTER + INTRA:          -9.461
REMARK INTER:                  -7.051
REMARK INTRA:                  -2.409
REMARK UNBOUND:                -2.698
REMARK SMILES CCCCCCCCCCCCCC[C@H](C)C(=O)[O-]
REMARK SMILES IDX 9 1 10 2 11 3 12 4 13 5 14 6 15 7 16 8 17 9 18 10 19 11 8 12
REMARK SMILES IDX 7 13 6 14 5 15 4 16 3 17 2 18 1 19
REMARK H PARENT
REMARK Flexibility Score: inf
ROOT
ATOM      1  C   UNL     1      -5.358  20.617  -8.488  1.00  0.00     0.000 C 
ENDROOT
BRANCH   1   2
ATOM      2  C   UNL     1      -6.797  20.265  -8.062  1.00  0.00     0.000 C 
BRANCH   2   3
ATOM      3  C   UNL     1      -7.865  20.447  -9.159  1.00  0.00     0.000 C 
BRANCH   3   4
ATOM      4  C   UNL     1      -7.306  20.710 -10.568  1.00  0.00     0.000 C 
BRANCH   4   5
ATOM      5  C   UNL     1      -8.146  20.049 -11.675  1.00  0.00     0.001 C 
BRANCH   5   6
ATOM      6  C   UNL     1      -9.008  18.883 -11.154  1.00  0.00     0.009 C 
BRANCH   6   7
ATOM      7  C   UNL     1     -10.410  18.795 -11.797  1.00  0.00     0.032 C 
ATOM      8  C   UNL     1     -11.339  19.858 -11.203  1.00  0.00     0.014 C 
BRANCH   7   9
ATOM      9  C   UNL     1     -11.017  17.430 -11.610  1.00  0.00     0.044 C 
ATOM     10  O   UNL     1     -12.053  17.107 -12.250  1.00  0.00    -0.550 OA
ATOM     11  O   UNL     1     -10.439  16.517 -10.736  1.00  0.00    -0.550 OA
ENDBRANCH   7   9
ENDBRANCH   6   7
ENDBRANCH   5   6
ENDBRANCH   4   5
ENDBRANCH   3   4
ENDBRANCH   2   3
ENDBRANCH   1   2
BRANCH   1  12
ATOM     12  C   UNL     1      -4.248  19.964  -7.640  1.00  0.00     0.000 C 
BRANCH  12  13
ATOM     13  C   UNL     1      -4.746  19.024  -6.529  1.00  0.00    -0.000 C 
BRANCH  13  14
ATOM     14  C   UNL     1      -4.140  17.615  -6.624  1.00  0.00    -0.000 C 
BRANCH  14  15
ATOM     15  C   UNL     1      -5.218  16.540  -6.440  1.00  0.00    -0.000 C 
BRANCH  15  16
ATOM     16  C   UNL     1      -6.234  16.577  -7.590  1.00  0.00    -0.000 C 
BRANCH  16  17
ATOM     17  C   UNL     1      -5.598  16.294  -8.963  1.00  0.00    -0.000 C 
BRANCH  17  18
ATOM     18  C   UNL     1      -6.061  17.226 -10.095  1.00  0.00    -0.003 C 
ATOM     19  C   UNL     1      -4.904  17.780 -10.926  1.00  0.00     0.004 C 
ENDBRANCH  17  18
ENDBRANCH  16  17
ENDBRANCH  15  16
ENDBRANCH  14  15
ENDBRANCH  13  14
ENDBRANCH  12  13
ENDBRANCH   1  12
TORSDOF 14
ENDMDL
MODEL 4
REMARK VINA RESULT:    -3.502      2.804      6.599
REMARK INTER + INTRA:          -9.067
REMARK INTER:                  -7.530
REMARK INTRA:                  -1.537
REMARK UNBOUND:                -2.698
REMARK SMILES CCCCCCCCCCCCCC[C@H](C)C(=O)[O-]
REMARK SMILES IDX 9 1 10 2 11 3 12 4 13 5 14 6 15 7 16 8 17 9 18 10 19 11 8 12
REMARK SMILES IDX 7 13 6 14 5 15 4 16 3 17 2 18 1 19
REMARK H PARENT
REMARK Flexibility Score: inf
ROOT
ATOM      1  C   UNL     1      -6.960  18.814 -10.511  1.00  0.00     0.000 C 
ENDROOT
BRANCH   1   2
ATOM      2  C   UNL     1      -7.643  17.488 -10.123  1.00  0.00     0.000 C 
BRANCH   2   3
ATOM      3  C   UNL     1      -6.838  16.599  -9.153  1.00  0.00     0.000 C 
BRANCH   3   4
ATOM      4  C   UNL     1      -5.390  16.312  -9.589  1.00  0.00     0.000 C 
BRANCH   4   5
ATOM      5  C   UNL     1      -4.401  16.323  -8.411  1.00  0.00     0.001 C 
BRANCH   5   6
ATOM      6  C   UNL     1      -5.074  16.669  -7.069  1.00  0.00     0.009 C 
BRANCH   6   7
ATOM      7  C   UNL     1      -4.284  17.679  -6.207  1.00  0.00     0.032 C 
ATOM      8  C   UNL     1      -4.280  17.240  -4.739  1.00  0.00     0.014 C 
BRANCH   7   9
ATOM      9  C   UNL     1      -4.857  19.066  -6.319  1.00  0.00     0.044 C 
ATOM     10  O   UNL     1      -5.708  19.327  -7.211  1.00  0.00    -0.550 OA
ATOM     11  O   UNL     1      -4.457  20.066  -5.441  1.00  0.00    -0.550 OA
ENDBRANCH   7   9
ENDBRANCH   6   7
ENDBRANCH   5   6
ENDBRANCH   4   5
ENDBRANCH   3   4
ENDBRANCH   2   3
ENDBRANCH   1   2
BRANCH   1  12
ATOM     12  C   UNL     1      -7.079  19.199 -11.999  1.00  0.00     0.000 C 
BRANCH  12  13
ATOM     13  C   UNL     1      -7.718  20.572 -12.267  1.00  0.00    -0.000 C 
BRANCH  13  14
ATOM     14  C   UNL     1      -9.235  20.491 -12.493  1.00  0.00    -0.000 C 
BRANCH  14  15
ATOM     15  C   UNL     1      -9.990  20.478 -11.158  1.00  0.00    -0.000 C 
BRANCH  15  16
ATOM     16  C   UNL     1     -11.474  20.146 -11.367  1.00  0.00    -0.000 C 
BRANCH  16  17
ATOM     17  C   UNL     1     -11.691  18.812 -12.105  1.00  0.00    -0.000 C 
BRANCH  17  18
ATOM     18  C   UNL     1     -11.214  17.565 -11.340  1.00  0.00    -0.003 C 
ATOM     19  C   UNL     1     -10.455  16.575 -12.224  1.00  0.00     0.004 C 
ENDBRANCH  17  18
ENDBRANCH  16  17
ENDBRANCH  15  16
ENDBRANCH  14  15
ENDBRANCH  13  14
ENDBRANCH  12  13
ENDBRANCH   1  12
TORSDOF 14
ENDMDL
MODEL 5
REMARK VINA RESULT:    -3.487      2.892      6.256
REMARK INTER + INTRA:          -9.038
REMARK INTER:                  -7.162
REMARK INTRA:                  -1.876
REMARK UNBOUND:                -2.698
REMARK SMILES CCCCCCCCCCCCCC[C@H](C)C(=O)[O-]
REMARK SMILES IDX 9 1 10 2 11 3 12 4 13 5 14 6 15 7 16 8 17 9 18 10 19 11 8 12
REMARK SMILES IDX 7 13 6 14 5 15 4 16 3 17 2 18 1 19
REMARK H PARENT
REMARK Flexibility Score: inf
ROOT
ATOM      1  C   UNL     1      -7.569  19.172 -10.578  1.00  0.00     0.000 C 
ENDROOT
BRANCH   1   2
ATOM      2  C   UNL     1      -6.335  19.745  -9.853  1.00  0.00     0.000 C 
BRANCH   2   3
ATOM      3  C   UNL     1      -5.061  18.882  -9.952  1.00  0.00     0.000 C 
BRANCH   3   4
ATOM      4  C   UNL     1      -5.243  17.543 -10.689  1.00  0.00     0.000 C 
BRANCH   4   5
ATOM      5  C   UNL     1      -5.326  16.343  -9.729  1.00  0.00     0.001 C 
BRANCH   5   6
ATOM      6  C   UNL     1      -4.492  16.544  -8.450  1.00  0.00     0.009 C 
BRANCH   6   7
ATOM      7  C   UNL     1      -5.315  16.485  -7.142  1.00  0.00     0.032 C 
ATOM      8  C   UNL     1      -6.788  16.800  -7.423  1.00  0.00     0.014 C 
BRANCH   7   9
ATOM      9  C   UNL     1      -4.779  17.443  -6.112  1.00  0.00     0.044 C 
ATOM     10  O   UNL     1      -4.386  17.014  -4.995  1.00  0.00    -0.550 OA
ATOM     11  O   UNL     1      -4.712  18.804  -6.385  1.00  0.00    -0.550 OA
ENDBRANCH   7   9
ENDBRANCH   6   7
ENDBRANCH   5   6
ENDBRANCH   4   5
ENDBRANCH   3   4
ENDBRANCH   2   3
ENDBRANCH   1   2
BRANCH   1  12
ATOM     12  C   UNL     1      -7.886  19.822 -11.940  1.00  0.00     0.000 C 
BRANCH  12  13
ATOM     13  C   UNL     1      -9.047  20.832 -11.924  1.00  0.00    -0.000 C 
BRANCH  13  14
ATOM     14  C   UNL     1      -9.913  20.728 -10.659  1.00  0.00    -0.000 C 
BRANCH  14  15
ATOM     15  C   UNL     1     -11.307  20.182 -10.991  1.00  0.00    -0.000 C 
BRANCH  15  16
ATOM     16  C   UNL     1     -11.403  19.778 -12.469  1.00  0.00    -0.000 C 
BRANCH  16  17
ATOM     17  C   UNL     1     -11.453  18.252 -12.671  1.00  0.00    -0.000 C 
BRANCH  17  18
ATOM     18  C   UNL     1     -11.409  17.426 -11.374  1.00  0.00    -0.003 C 
ATOM     19  C   UNL     1     -10.094  16.669 -11.192  1.00  0.00     0.004 C 
ENDBRANCH  17  18
ENDBRANCH  16  17
ENDBRANCH  15  16
ENDBRANCH  14  15
ENDBRANCH  13  14
ENDBRANCH  12  13
ENDBRANCH   1  12
TORSDOF 14
ENDMDL
MODEL 6
REMARK VINA RESULT:    -3.442      1.869      4.267
REMARK INTER + INTRA:          -8.957
REMARK INTER:                  -7.343
REMARK INTRA:                  -1.614
REMARK UNBOUND:                -2.698
REMARK SMILES CCCCCCCCCCCCCC[C@H](C)C(=O)[O-]
REMARK SMILES IDX 9 1 10 2 11 3 12 4 13 5 14 6 15 7 16 8 17 9 18 10 19 11 8 12
REMARK SMILES IDX 7 13 6 14 5 15 4 16 3 17 2 18 1 19
REMARK H PARENT
REMARK Flexibility Score: inf
ROOT
ATOM      1  C   UNL     1      -6.791  16.641  -8.095  1.00  0.00     0.000 C 
ENDROOT
BRANCH   1   2
ATOM      2  C   UNL     1      -6.079  16.546  -9.459  1.00  0.00     0.000 C 
BRANCH   2   3
ATOM      3  C   UNL     1      -6.278  17.762 -10.385  1.00  0.00     0.000 C 
BRANCH   3   4
ATOM      4  C   UNL     1      -7.011  18.953  -9.741  1.00  0.00     0.000 C 
BRANCH   4   5
ATOM      5  C   UNL     1      -8.184  19.462 -10.597  1.00  0.00     0.001 C 
BRANCH   5   6
ATOM      6  C   UNL     1      -8.709  18.401 -11.581  1.00  0.00     0.009 C 
BRANCH   6   7
ATOM      7  C   UNL     1     -10.167  17.960 -11.319  1.00  0.00     0.032 C 
ATOM      8  C   UNL     1     -10.201  16.539 -10.747  1.00  0.00     0.014 C 
BRANCH   7   9
ATOM      9  C   UNL     1     -10.995  18.021 -12.575  1.00  0.00     0.044 C 
ATOM     10  O   UNL     1     -12.154  17.528 -12.591  1.00  0.00    -0.550 OA
ATOM     11  O   UNL     1     -10.491  18.623 -13.721  1.00  0.00    -0.550 OA
ENDBRANCH   7   9
ENDBRANCH   6   7
ENDBRANCH   5   6
ENDBRANCH   4   5
ENDBRANCH   3   4
ENDBRANCH   2   3
ENDBRANCH   1   2
BRANCH   1  12
ATOM     12  C   UNL     1      -5.856  16.643  -6.870  1.00  0.00     0.000 C 
BRANCH  12  13
ATOM     13  C   UNL     1      -4.481  17.293  -7.101  1.00  0.00    -0.000 C 
BRANCH  13  14
ATOM     14  C   UNL     1      -4.266  18.554  -6.250  1.00  0.00    -0.000 C 
BRANCH  14  15
ATOM     15  C   UNL     1      -4.994  19.759  -6.858  1.00  0.00    -0.000 C 
BRANCH  15  16
ATOM     16  C   UNL     1      -5.200  20.863  -5.811  1.00  0.00    -0.000 C 
BRANCH  16  17
ATOM     17  C   UNL     1      -4.175  20.801  -4.664  1.00  0.00    -0.000 C 
BRANCH  17  18
ATOM     18  C   UNL     1      -4.786  20.734  -3.254  1.00  0.00    -0.003 C 
ATOM     19  C   UNL     1      -4.377  19.478  -2.484  1.00  0.00     0.004 C 
ENDBRANCH  17  18
ENDBRANCH  16  17
ENDBRANCH  15  16
ENDBRANCH  14  15
ENDBRANCH  13  14
ENDBRANCH  12  13
ENDBRANCH   1  12
TORSDOF 14
ENDMDL
MODEL 7
REMARK VINA RESULT:    -3.281      1.394      3.221
REMARK INTER + INTRA:          -8.664
REMARK INTER:                  -6.795
REMARK INTRA:                  -1.869
REMARK UNBOUND:                -2.698
REMARK SMILES CCCCCCCCCCCCCC[C@H](C)C(=O)[O-]
REMARK SMILES IDX 9 1 10 2 11 3 12 4 13 5 14 6 15 7 16 8 17 9 18 10 19 11 8 12
REMARK SMILES IDX 7 13 6 14 5 15 4 16 3 17 2 18 1 19
REMARK H PARENT
REMARK Flexibility Score: inf
ROOT
ATOM      1  C   UNL     1      -6.971  16.631  -7.819  1.00  0.00     0.000 C 
ENDROOT
BRANCH   1   2
ATOM      2  C   UNL     1      -6.694  16.652  -9.335  1.00  0.00     0.000 C 
BRANCH   2   3
ATOM      3  C   UNL     1      -7.630  17.561 -10.157  1.00  0.00     0.000 C 
BRANCH   3   4
ATOM      4  C   UNL     1      -6.920  18.459 -11.186  1.00  0.00     0.000 C 
BRANCH   4   5
ATOM      5  C   UNL     1      -7.904  19.199 -12.109  1.00  0.00     0.001 C 
BRANCH   5   6
ATOM      6  C   UNL     1      -9.368  19.065 -11.650  1.00  0.00     0.009 C 
BRANCH   6   7
ATOM      7  C   UNL     1     -10.301  18.409 -12.692  1.00  0.00     0.032 C 
ATOM      8  C   UNL     1     -11.104  19.478 -13.440  1.00  0.00     0.014 C 
BRANCH   7   9
ATOM      9  C   UNL     1     -11.243  17.427 -12.048  1.00  0.00     0.044 C 
ATOM     10  O   UNL     1     -10.898  16.815 -11.002  1.00  0.00    -0.550 OA
ATOM     11  O   UNL     1     -12.497  17.190 -12.597  1.00  0.00    -0.550 OA
ENDBRANCH   7   9
ENDBRANCH   6   7
ENDBRANCH   5   6
ENDBRANCH   4   5
ENDBRANCH   3   4
ENDBRANCH   2   3
ENDBRANCH   1   2
BRANCH   1  12
ATOM     12  C   UNL     1      -5.715  16.633  -6.926  1.00  0.00     0.000 C 
BRANCH  12  13
ATOM     13  C   UNL     1      -4.407  17.015  -7.642  1.00  0.00    -0.000 C 
BRANCH  13  14
ATOM     14  C   UNL     1      -3.875  18.392  -7.217  1.00  0.00    -0.000 C 
BRANCH  14  15
ATOM     15  C   UNL     1      -4.797  19.041  -6.178  1.00  0.00    -0.000 C 
BRANCH  15  16
ATOM     16  C   UNL     1      -5.125  20.491  -6.562  1.00  0.00    -0.000 C 
BRANCH  16  17
ATOM     17  C   UNL     1      -4.957  20.765  -8.067  1.00  0.00    -0.000 C 
BRANCH  17  18
ATOM     18  C   UNL     1      -6.271  20.824  -8.865  1.00  0.00    -0.003 C 
ATOM     19  C   UNL     1      -7.513  20.745  -7.978  1.00  0.00     0.004 C 
ENDBRANCH  17  18
ENDBRANCH  16  17
ENDBRANCH  15  16
ENDBRANCH  14  15
ENDBRANCH  13  14
ENDBRANCH  12  13
ENDBRANCH   1  12
TORSDOF 14
ENDMDL
MODEL 8
REMARK VINA RESULT:    -3.085      3.607      7.667
REMARK INTER + INTRA:          -8.308
REMARK INTER:                  -7.223
REMARK INTRA:                  -1.085
REMARK UNBOUND:                -2.698
REMARK SMILES CCCCCCCCCCCCCC[C@H](C)C(=O)[O-]
REMARK SMILES IDX 9 1 10 2 11 3 12 4 13 5 14 6 15 7 16 8 17 9 18 10 19 11 8 12
REMARK SMILES IDX 7 13 6 14 5 15 4 16 3 17 2 18 1 19
REMARK H PARENT
REMARK Flexibility Score: inf
ROOT
ATOM      1  C   UNL     1      -9.324  17.114 -11.068  1.00  0.00     0.000 C 
ENDROOT
BRANCH   1   2
ATOM      2  C   UNL     1      -8.225  18.143 -10.738  1.00  0.00     0.000 C 
BRANCH   2   3
ATOM      3  C   UNL     1      -7.233  17.709  -9.641  1.00  0.00     0.000 C 
BRANCH   3   4
ATOM      4  C   UNL     1      -5.968  16.998 -10.157  1.00  0.00     0.000 C 
BRANCH   4   5
ATOM      5  C   UNL     1      -5.232  16.218  -9.054  1.00  0.00     0.001 C 
BRANCH   5   6
ATOM      6  C   UNL     1      -3.939  16.916  -8.592  1.00  0.00     0.009 C 
BRANCH   6   7
ATOM      7  C   UNL     1      -4.008  17.495  -7.161  1.00  0.00     0.032 C 
ATOM      8  C   UNL     1      -5.050  16.740  -6.329  1.00  0.00     0.014 C 
BRANCH   7   9
ATOM      9  C   UNL     1      -4.340  18.963  -7.177  1.00  0.00     0.044 C 
ATOM     10  O   UNL     1      -4.733  19.533  -6.124  1.00  0.00    -0.550 OA
ATOM     11  O   UNL     1      -4.213  19.700  -8.348  1.00  0.00    -0.550 OA
ENDBRANCH   7   9
ENDBRANCH   6   7
ENDBRANCH   5   6
ENDBRANCH   4   5
ENDBRANCH   3   4
ENDBRANCH   2   3
ENDBRANCH   1   2
BRANCH   1  12
ATOM     12  C   UNL     1     -10.761  17.673 -11.078  1.00  0.00     0.000 C 
BRANCH  12  13
ATOM     13  C   UNL     1     -10.862  19.208 -11.041  1.00  0.00    -0.000 C 
BRANCH  13  14
ATOM     14  C   UNL     1     -10.990  19.833 -12.438  1.00  0.00    -0.000 C 
BRANCH  14  15
ATOM     15  C   UNL     1     -11.379  18.775 -13.479  1.00  0.00    -0.000 C 
BRANCH  15  16
ATOM     16  C   UNL     1     -12.785  19.041 -14.035  1.00  0.00    -0.000 C 
BRANCH  16  17
ATOM     17  C   UNL     1     -13.315  20.442 -13.680  1.00  0.00    -0.000 C 
BRANCH  17  18
ATOM     18  C   UNL     1     -14.834  20.621 -13.852  1.00  0.00    -0.003 C 
ATOM     19  C   UNL     1     -15.524  21.125 -12.586  1.00  0.00     0.004 C 
ENDBRANCH  17  18
ENDBRANCH  16  17
ENDBRANCH  15  16
ENDBRANCH  14  15
ENDBRANCH  13  14
ENDBRANCH  12  13
ENDBRANCH   1  12
TORSDOF 14
ENDMDL
MODEL 9
REMARK VINA RESULT:    -3.056      2.689      6.616
REMARK INTER + INTRA:          -8.256
REMARK INTER:                  -6.205
REMARK INTRA:                  -2.051
REMARK UNBOUND:                -2.698
REMARK SMILES CCCCCCCCCCCCCC[C@H](C)C(=O)[O-]
REMARK SMILES IDX 9 1 10 2 11 3 12 4 13 5 14 6 15 7 16 8 17 9 18 10 19 11 8 12
REMARK SMILES IDX 7 13 6 14 5 15 4 16 3 17 2 18 1 19
REMARK H PARENT
REMARK Flexibility Score: inf
ROOT
ATOM      1  C   UNL     1      -7.969  19.220 -13.374  1.00  0.00     0.000 C 
ENDROOT
BRANCH   1   2
ATOM      2  C   UNL     1      -7.595  20.210 -12.253  1.00  0.00     0.000 C 
BRANCH   2   3
ATOM      3  C   UNL     1      -6.274  19.897 -11.521  1.00  0.00     0.000 C 
BRANCH   3   4
ATOM      4  C   UNL     1      -5.841  18.421 -11.571  1.00  0.00     0.000 C 
BRANCH   4   5
ATOM      5  C   UNL     1      -5.381  17.890 -10.202  1.00  0.00     0.001 C 
BRANCH   5   6
ATOM      6  C   UNL     1      -6.549  17.375  -9.339  1.00  0.00     0.009 C 
BRANCH   6   7
ATOM      7  C   UNL     1      -6.578  17.949  -7.905  1.00  0.00     0.032 C 
ATOM      8  C   UNL     1      -6.542  19.481  -7.942  1.00  0.00     0.014 C 
BRANCH   7   9
ATOM      9  C   UNL     1      -5.427  17.435  -7.082  1.00  0.00     0.044 C 
ATOM     10  O   UNL     1      -5.123  16.213  -7.117  1.00  0.00    -0.550 OA
ATOM     11  O   UNL     1      -4.691  18.301  -6.284  1.00  0.00    -0.550 OA
ENDBRANCH   7   9
ENDBRANCH   6   7
ENDBRANCH   5   6
ENDBRANCH   4   5
ENDBRANCH   3   4
ENDBRANCH   2   3
ENDBRANCH   1   2
BRANCH   1  12
ATOM     12  C   UNL     1      -8.952  19.768 -14.428  1.00  0.00     0.000 C 
BRANCH  12  13
ATOM     13  C   UNL     1     -10.212  18.914 -14.649  1.00  0.00    -0.000 C 
BRANCH  13  14
ATOM     14  C   UNL     1     -11.507  19.656 -14.287  1.00  0.00    -0.000 C 
BRANCH  14  15
ATOM     15  C   UNL     1     -11.274  20.638 -13.132  1.00  0.00    -0.000 C 
BRANCH  15  16
ATOM     16  C   UNL     1     -11.873  20.102 -11.824  1.00  0.00    -0.000 C 
BRANCH  16  17
ATOM     17  C   UNL     1     -10.892  19.217 -11.034  1.00  0.00    -0.000 C 
BRANCH  17  18
ATOM     18  C   UNL     1     -11.099  17.703 -11.214  1.00  0.00    -0.003 C 
ATOM     19  C   UNL     1      -9.800  16.905 -11.107  1.00  0.00     0.004 C 
ENDBRANCH  17  18
ENDBRANCH  16  17
ENDBRANCH  15  16
ENDBRANCH  14  15
ENDBRANCH  13  14
ENDBRANCH  12  13
ENDBRANCH   1  12
TORSDOF 14
ENDMDL
