MODEL 1
REMARK VINA RESULT:    -5.746      0.000      0.000
REMARK INTER + INTRA:          -6.610
REMARK INTER:                  -6.418
REMARK INTRA:                  -0.192
REMARK UNBOUND:                -0.192
REMARK SMILES CC(C)c1ccc(C=O)cc1
REMARK SMILES IDX 4 1 5 2 6 3 7 4 10 5 11 6 2 7 1 8 3 9 8 10 9 11
REMARK H PARENT
REMARK Flexibility Score: inf
ROOT
ATOM      1  C   UNL     1     -13.154  44.730  22.544  1.00  0.00    -0.045 A 
ATOM      2  C   UNL     1     -14.338  44.023  22.819  1.00  0.00     0.005 A 
ATOM      3  C   UNL     1     -15.049  44.258  24.000  1.00  0.00     0.012 A 
ATOM      4  C   UNL     1     -14.588  45.206  24.928  1.00  0.00     0.014 A 
ATOM      5  C   UNL     1     -13.408  45.913  24.657  1.00  0.00     0.012 A 
ATOM      6  C   UNL     1     -12.698  45.678  23.477  1.00  0.00     0.005 A 
ENDROOT
BRANCH   1   7
ATOM      7  C   UNL     1     -12.373  44.485  21.267  1.00  0.00     0.013 C 
ATOM      8  C   UNL     1     -12.364  42.996  20.901  1.00  0.00     0.012 C 
ATOM      9  C   UNL     1     -10.946  45.034  21.378  1.00  0.00     0.012 C 
ENDBRANCH   1   7
BRANCH   4  10
ATOM     10  C   UNL     1     -15.324  45.468  26.179  1.00  0.00     0.260 C 
ATOM     11  O   UNL     1     -15.721  44.522  26.911  1.00  0.00    -0.298 OA
ENDBRANCH   4  10
TORSDOF 2
ENDMDL
MODEL 2
REMARK VINA RESULT:    -5.737      0.075      1.462
REMARK INTER + INTRA:          -6.600
REMARK INTER:                  -6.408
REMARK INTRA:                  -0.192
REMARK UNBOUND:                -0.192
REMARK SMILES CC(C)c1ccc(C=O)cc1
REMARK SMILES IDX 4 1 5 2 6 3 7 4 10 5 11 6 2 7 1 8 3 9 8 10 9 11
REMARK H PARENT
REMARK Flexibility Score: inf
ROOT
ATOM      1  C   UNL     1     -13.132  44.758  22.552  1.00  0.00    -0.045 A 
ATOM      2  C   UNL     1     -12.703  45.695  23.510  1.00  0.00     0.005 A 
ATOM      3  C   UNL     1     -13.438  45.899  24.683  1.00  0.00     0.012 A 
ATOM      4  C   UNL     1     -14.614  45.169  24.919  1.00  0.00     0.014 A 
ATOM      5  C   UNL     1     -15.044  44.235  23.966  1.00  0.00     0.012 A 
ATOM      6  C   UNL     1     -14.310  44.030  22.794  1.00  0.00     0.005 A 
ENDROOT
BRANCH   1   7
ATOM      7  C   UNL     1     -12.345  44.525  21.276  1.00  0.00     0.013 C 
ATOM      8  C   UNL     1     -12.306  43.036  20.913  1.00  0.00     0.012 C 
ATOM      9  C   UNL     1     -10.929  45.103  21.387  1.00  0.00     0.012 C 
ENDBRANCH   1   7
BRANCH   4  10
ATOM     10  C   UNL     1     -15.402  45.372  26.149  1.00  0.00     0.260 C 
ATOM     11  O   UNL     1     -15.775  44.395  26.851  1.00  0.00    -0.298 OA
ENDBRANCH   4  10
TORSDOF 2
ENDMDL
MODEL 3
REMARK VINA RESULT:    -5.397      2.517      4.504
REMARK INTER + INTRA:          -6.220
REMARK INTER:                  -6.032
REMARK INTRA:                  -0.189
REMARK UNBOUND:                -0.192
REMARK SMILES CC(C)c1ccc(C=O)cc1
REMARK SMILES IDX 4 1 5 2 6 3 7 4 10 5 11 6 2 7 1 8 3 9 8 10 9 11
REMARK H PARENT
REMARK Flexibility Score: inf
ROOT
ATOM      1  C   UNL     1     -13.638  45.270  24.004  1.00  0.00    -0.045 A 
ATOM      2  C   UNL     1     -14.601  44.287  23.714  1.00  0.00     0.005 A 
ATOM      3  C   UNL     1     -14.547  43.572  22.512  1.00  0.00     0.012 A 
ATOM      4  C   UNL     1     -13.528  43.828  21.581  1.00  0.00     0.014 A 
ATOM      5  C   UNL     1     -12.567  44.808  21.867  1.00  0.00     0.012 A 
ATOM      6  C   UNL     1     -12.620  45.522  23.067  1.00  0.00     0.005 A 
ENDROOT
BRANCH   1   7
ATOM      7  C   UNL     1     -13.684  46.053  25.303  1.00  0.00     0.013 C 
ATOM      8  C   UNL     1     -14.944  45.714  26.108  1.00  0.00     0.012 C 
ATOM      9  C   UNL     1     -13.583  47.561  25.043  1.00  0.00     0.012 C 
ENDBRANCH   1   7
BRANCH   4  10
ATOM     10  C   UNL     1     -13.455  43.085  20.308  1.00  0.00     0.260 C 
ATOM     11  O   UNL     1     -14.263  43.318  19.371  1.00  0.00    -0.298 OA
ENDBRANCH   4  10
TORSDOF 2
ENDMDL
MODEL 4
REMARK VINA RESULT:    -5.393      2.537      4.908
REMARK INTER + INTRA:          -6.215
REMARK INTER:                  -6.024
REMARK INTRA:                  -0.191
REMARK UNBOUND:                -0.192
REMARK SMILES CC(C)c1ccc(C=O)cc1
REMARK SMILES IDX 4 1 5 2 6 3 7 4 10 5 11 6 2 7 1 8 3 9 8 10 9 11
REMARK H PARENT
REMARK Flexibility Score: inf
ROOT
ATOM      1  C   UNL     1     -14.606  44.654  23.826  1.00  0.00    -0.045 A 
ATOM      2  C   UNL     1     -13.550  45.555  24.053  1.00  0.00     0.005 A 
ATOM      3  C   UNL     1     -12.447  45.589  23.193  1.00  0.00     0.012 A 
ATOM      4  C   UNL     1     -12.382  44.723  22.090  1.00  0.00     0.014 A 
ATOM      5  C   UNL     1     -13.433  43.823  21.861  1.00  0.00     0.012 A 
ATOM      6  C   UNL     1     -14.535  43.789  22.721  1.00  0.00     0.005 A 
ENDROOT
BRANCH   1   7
ATOM      7  C   UNL     1     -15.809  44.607  24.751  1.00  0.00     0.013 C 
ATOM      8  C   UNL     1     -15.415  44.971  26.188  1.00  0.00     0.012 C 
ATOM      9  C   UNL     1     -16.493  43.236  24.697  1.00  0.00     0.012 C 
ENDBRANCH   1   7
BRANCH   4  10
ATOM     10  C   UNL     1     -11.228  44.743  21.172  1.00  0.00     0.260 C 
ATOM     11  O   UNL     1     -10.420  43.778  21.120  1.00  0.00    -0.298 OA
ENDBRANCH   4  10
TORSDOF 2
ENDMDL
MODEL 5
REMARK VINA RESULT:    -5.317      2.335      4.742
REMARK INTER + INTRA:          -6.131
REMARK INTER:                  -5.945
REMARK INTRA:                  -0.186
REMARK UNBOUND:                -0.192
REMARK SMILES CC(C)c1ccc(C=O)cc1
REMARK SMILES IDX 4 1 5 2 6 3 7 4 10 5 11 6 2 7 1 8 3 9 8 10 9 11
REMARK H PARENT
REMARK Flexibility Score: inf
ROOT
ATOM      1  C   UNL     1     -14.534  45.206  24.926  1.00  0.00    -0.045 A 
ATOM      2  C   UNL     1     -15.073  44.241  24.056  1.00  0.00     0.005 A 
ATOM      3  C   UNL     1     -14.445  43.949  22.841  1.00  0.00     0.012 A 
ATOM      4  C   UNL     1     -13.265  44.616  22.475  1.00  0.00     0.014 A 
ATOM      5  C   UNL     1     -12.725  45.578  23.339  1.00  0.00     0.012 A 
ATOM      6  C   UNL     1     -13.353  45.871  24.554  1.00  0.00     0.005 A 
ENDROOT
BRANCH   1   7
ATOM      7  C   UNL     1     -15.205  45.533  26.247  1.00  0.00     0.013 C 
ATOM      8  C   UNL     1     -16.069  44.363  26.733  1.00  0.00     0.012 C 
ATOM      9  C   UNL     1     -16.028  46.822  26.144  1.00  0.00     0.012 C 
ENDBRANCH   1   7
BRANCH   4  10
ATOM     10  C   UNL     1     -12.589  44.322  21.198  1.00  0.00     0.260 C 
ATOM     11  O   UNL     1     -11.761  45.129  20.699  1.00  0.00    -0.298 OA
ENDBRANCH   4  10
TORSDOF 2
ENDMDL
MODEL 6
REMARK VINA RESULT:    -4.987     21.344     23.243
REMARK INTER + INTRA:          -5.762
REMARK INTER:                  -5.583
REMARK INTRA:                  -0.180
REMARK UNBOUND:                -0.192
REMARK SMILES CC(C)c1ccc(C=O)cc1
REMARK SMILES IDX 4 1 5 2 6 3 7 4 10 5 11 6 2 7 1 8 3 9 8 10 9 11
REMARK H PARENT
REMARK Flexibility Score: inf
ROOT
ATOM      1  C   UNL     1     -25.703  61.511  32.169  1.00  0.00    -0.045 A 
ATOM      2  C   UNL     1     -25.234  60.863  33.326  1.00  0.00     0.005 A 
ATOM      3  C   UNL     1     -26.003  60.850  34.495  1.00  0.00     0.012 A 
ATOM      4  C   UNL     1     -27.256  61.484  34.525  1.00  0.00     0.014 A 
ATOM      5  C   UNL     1     -27.726  62.130  33.373  1.00  0.00     0.012 A 
ATOM      6  C   UNL     1     -26.957  62.143  32.206  1.00  0.00     0.005 A 
ENDROOT
BRANCH   1   7
ATOM      7  C   UNL     1     -24.879  61.533  30.895  1.00  0.00     0.013 C 
ATOM      8  C   UNL     1     -24.730  62.961  30.357  1.00  0.00     0.012 C 
ATOM      9  C   UNL     1     -25.478  60.603  29.833  1.00  0.00     0.012 C 
ENDBRANCH   1   7
BRANCH   4  10
ATOM     10  C   UNL     1     -28.082  61.481  35.747  1.00  0.00     0.260 C 
ATOM     11  O   UNL     1     -27.996  62.411  36.592  1.00  0.00    -0.298 OA
ENDBRANCH   4  10
TORSDOF 2
ENDMDL
MODEL 7
REMARK VINA RESULT:    -4.896     21.184     23.213
REMARK INTER + INTRA:          -5.660
REMARK INTER:                  -5.484
REMARK INTRA:                  -0.177
REMARK UNBOUND:                -0.192
REMARK SMILES CC(C)c1ccc(C=O)cc1
REMARK SMILES IDX 4 1 5 2 6 3 7 4 10 5 11 6 2 7 1 8 3 9 8 10 9 11
REMARK H PARENT
REMARK Flexibility Score: inf
ROOT
ATOM      1  C   UNL     1     -25.773  61.303  32.294  1.00  0.00    -0.045 A 
ATOM      2  C   UNL     1     -27.051  61.890  32.253  1.00  0.00     0.005 A 
ATOM      3  C   UNL     1     -27.822  61.997  33.415  1.00  0.00     0.012 A 
ATOM      4  C   UNL     1     -27.327  61.520  34.640  1.00  0.00     0.014 A 
ATOM      5  C   UNL     1     -26.054  60.935  34.684  1.00  0.00     0.012 A 
ATOM      6  C   UNL     1     -25.284  60.827  33.523  1.00  0.00     0.005 A 
ENDROOT
BRANCH   1   7
ATOM      7  C   UNL     1     -24.926  61.180  31.040  1.00  0.00     0.013 C 
ATOM      8  C   UNL     1     -24.698  62.550  30.391  1.00  0.00     0.012 C 
ATOM      9  C   UNL     1     -25.552  60.195  30.046  1.00  0.00     0.012 C 
ENDBRANCH   1   7
BRANCH   4  10
ATOM     10  C   UNL     1     -28.125  61.624  35.876  1.00  0.00     0.260 C 
ATOM     11  O   UNL     1     -27.941  62.566  36.692  1.00  0.00    -0.298 OA
ENDBRANCH   4  10
TORSDOF 2
ENDMDL
MODEL 8
REMARK VINA RESULT:    -4.893     18.864     20.792
REMARK INTER + INTRA:          -5.658
REMARK INTER:                  -5.465
REMARK INTRA:                  -0.193
REMARK UNBOUND:                -0.192
REMARK SMILES CC(C)c1ccc(C=O)cc1
REMARK SMILES IDX 4 1 5 2 6 3 7 4 10 5 11 6 2 7 1 8 3 9 8 10 9 11
REMARK H PARENT
REMARK Flexibility Score: inf
ROOT
ATOM      1  C   UNL     1     -24.126  61.032  28.925  1.00  0.00    -0.045 A 
ATOM      2  C   UNL     1     -25.071  60.081  29.350  1.00  0.00     0.005 A 
ATOM      3  C   UNL     1     -25.894  60.339  30.451  1.00  0.00     0.012 A 
ATOM      4  C   UNL     1     -25.786  61.554  31.147  1.00  0.00     0.014 A 
ATOM      5  C   UNL     1     -24.844  62.504  30.726  1.00  0.00     0.012 A 
ATOM      6  C   UNL     1     -24.022  62.246  29.625  1.00  0.00     0.005 A 
ENDROOT
BRANCH   1   7
ATOM      7  C   UNL     1     -23.227  60.765  27.731  1.00  0.00     0.013 C 
ATOM      8  C   UNL     1     -22.896  59.273  27.612  1.00  0.00     0.012 C 
ATOM      9  C   UNL     1     -21.950  61.611  27.802  1.00  0.00     0.012 C 
ENDBRANCH   1   7
BRANCH   4  10
ATOM     10  C   UNL     1     -26.643  61.844  32.311  1.00  0.00     0.260 C 
ATOM     11  O   UNL     1     -27.846  61.472  32.343  1.00  0.00    -0.298 OA
ENDBRANCH   4  10
TORSDOF 2
ENDMDL
MODEL 9
REMARK VINA RESULT:    -4.869     19.235     20.500
REMARK INTER + INTRA:          -5.630
REMARK INTER:                  -5.439
REMARK INTRA:                  -0.191
REMARK UNBOUND:                -0.192
REMARK SMILES CC(C)c1ccc(C=O)cc1
REMARK SMILES IDX 4 1 5 2 6 3 7 4 10 5 11 6 2 7 1 8 3 9 8 10 9 11
REMARK H PARENT
REMARK Flexibility Score: inf
ROOT
ATOM      1  C   UNL     1     -22.693  61.313  29.180  1.00  0.00    -0.045 A 
ATOM      2  C   UNL     1     -22.523  61.730  30.512  1.00  0.00     0.005 A 
ATOM      3  C   UNL     1     -23.621  61.832  31.372  1.00  0.00     0.012 A 
ATOM      4  C   UNL     1     -24.911  61.517  30.913  1.00  0.00     0.014 A 
ATOM      5  C   UNL     1     -25.084  61.101  29.586  1.00  0.00     0.012 A 
ATOM      6  C   UNL     1     -23.986  61.000  28.727  1.00  0.00     0.005 A 
ENDROOT
BRANCH   1   7
ATOM      7  C   UNL     1     -21.510  61.199  28.237  1.00  0.00     0.013 C 
ATOM      8  C   UNL     1     -20.211  61.635  28.924  1.00  0.00     0.012 C 
ATOM      9  C   UNL     1     -21.749  61.998  26.950  1.00  0.00     0.012 C 
ENDBRANCH   1   7
BRANCH   4  10
ATOM     10  C   UNL     1     -26.082  61.619  31.804  1.00  0.00     0.260 C 
ATOM     11  O   UNL     1     -27.076  60.858  31.662  1.00  0.00    -0.298 OA
ENDBRANCH   4  10
TORSDOF 2
ENDMDL
