MODEL 1
REMARK VINA RESULT:    -2.763      0.000      0.000
REMARK INTER + INTRA:          -3.005
REMARK INTER:                  -3.005
REMARK INTRA:                   0.000
REMARK UNBOUND:                 0.000
REMARK SMILES [NH3+]CC(=O)[O-]
REMARK SMILES IDX 2 1 1 2 3 6 4 7 5 8
REMARK H PARENT 1 3 1 4 1 5
REMARK Flexibility Score: inf
ROOT
ATOM      1  C   UNL     1     129.411 127.534 122.885  1.00  0.00     0.312 C 
ENDROOT
BRANCH   1   2
ATOM      2  N   UNL     1     129.008 127.489 121.480  1.00  0.00    -0.353 N 
ATOM      3  H   UNL     1     129.550 126.738 120.994  1.00  0.00     0.344 HD
ATOM      4  H   UNL     1     127.987 127.272 121.408  1.00  0.00     0.344 HD
ATOM      5  H   UNL     1     129.209 128.406 121.020  1.00  0.00     0.344 HD
ENDBRANCH   1   2
BRANCH   1   6
ATOM      6  C   UNL     1     128.391 126.858 123.749  1.00  0.00     0.096 C 
ATOM      7  O   UNL     1     128.554 125.660 124.101  1.00  0.00    -0.544 OA
ATOM      8  O   UNL     1     127.238 127.534 124.122  1.00  0.00    -0.544 OA
ENDBRANCH   1   6
TORSDOF 2
ENDMDL
MODEL 2
REMARK VINA RESULT:    -2.760      2.484      2.888
REMARK INTER + INTRA:          -3.002
REMARK INTER:                  -3.002
REMARK INTRA:                   0.000
REMARK UNBOUND:                 0.000
REMARK SMILES [NH3+]CC(=O)[O-]
REMARK SMILES IDX 2 1 1 2 3 6 4 7 5 8
REMARK H PARENT 1 3 1 4 1 5
REMARK Flexibility Score: inf
ROOT
ATOM      1  C   UNL     1     128.571 125.917 125.103  1.00  0.00     0.312 C 
ENDROOT
BRANCH   1   2
ATOM      2  N   UNL     1     127.734 124.725 125.226  1.00  0.00    -0.353 N 
ATOM      3  H   UNL     1     126.745 124.977 125.000  1.00  0.00     0.344 HD
ATOM      4  H   UNL     1     128.058 123.989 124.557  1.00  0.00     0.344 HD
ATOM      5  H   UNL     1     127.775 124.357 126.204  1.00  0.00     0.344 HD
ENDBRANCH   1   2
BRANCH   1   6
ATOM      6  C   UNL     1     128.003 126.858 124.085  1.00  0.00     0.096 C 
ATOM      7  O   UNL     1     126.977 127.536 124.354  1.00  0.00    -0.544 OA
ATOM      8  O   UNL     1     128.578 126.948 122.825  1.00  0.00    -0.544 OA
ENDBRANCH   1   6
TORSDOF 2
ENDMDL
MODEL 3
REMARK VINA RESULT:    -2.527      2.972      3.440
REMARK INTER + INTRA:          -2.749
REMARK INTER:                  -2.749
REMARK INTRA:                   0.000
REMARK UNBOUND:                 0.000
REMARK SMILES [NH3+]CC(=O)[O-]
REMARK SMILES IDX 2 1 1 2 3 6 4 7 5 8
REMARK H PARENT 1 3 1 4 1 5
REMARK Flexibility Score: inf
ROOT
ATOM      1  C   UNL     1     127.253 126.959 126.262  1.00  0.00     0.312 C 
ENDROOT
BRANCH   1   2
ATOM      2  N   UNL     1     126.110 127.862 126.127  1.00  0.00    -0.353 N 
ATOM      3  H   UNL     1     125.301 127.472 126.664  1.00  0.00     0.344 HD
ATOM      4  H   UNL     1     126.350 128.804 126.513  1.00  0.00     0.344 HD
ATOM      5  H   UNL     1     125.840 127.950 125.121  1.00  0.00     0.344 HD
ENDBRANCH   1   2
BRANCH   1   6
ATOM      6  C   UNL     1     127.565 126.304 124.952  1.00  0.00     0.096 C 
ATOM      7  O   UNL     1     127.663 126.997 123.905  1.00  0.00    -0.544 OA
ATOM      8  O   UNL     1     127.698 124.924 124.880  1.00  0.00    -0.544 OA
ENDBRANCH   1   6
TORSDOF 2
ENDMDL
MODEL 4
REMARK VINA RESULT:    -2.510     18.061     18.422
REMARK INTER + INTRA:          -2.730
REMARK INTER:                  -2.730
REMARK INTRA:                   0.000
REMARK UNBOUND:                 0.000
REMARK SMILES [NH3+]CC(=O)[O-]
REMARK SMILES IDX 2 1 1 2 3 6 4 7 5 8
REMARK H PARENT 1 3 1 4 1 5
REMARK Flexibility Score: inf
ROOT
ATOM      1  C   UNL     1     111.398 122.841 124.405  1.00  0.00     0.312 C 
ENDROOT
BRANCH   1   2
ATOM      2  N   UNL     1     111.833 124.225 124.227  1.00  0.00    -0.353 N 
ATOM      3  H   UNL     1     112.301 124.551 125.104  1.00  0.00     0.344 HD
ATOM      4  H   UNL     1     112.514 124.288 123.435  1.00  0.00     0.344 HD
ATOM      5  H   UNL     1     111.009 124.838 124.034  1.00  0.00     0.344 HD
ENDBRANCH   1   2
BRANCH   1   6
ATOM      6  C   UNL     1     110.395 122.741 125.512  1.00  0.00     0.096 C 
ATOM      7  O   UNL     1     110.053 123.771 126.152  1.00  0.00    -0.544 OA
ATOM      8  O   UNL     1     109.875 121.505 125.871  1.00  0.00    -0.544 OA
ENDBRANCH   1   6
TORSDOF 2
ENDMDL
MODEL 5
REMARK VINA RESULT:    -2.212      3.259      3.625
REMARK INTER + INTRA:          -2.406
REMARK INTER:                  -2.406
REMARK INTRA:                   0.000
REMARK UNBOUND:                 0.000
REMARK SMILES [NH3+]CC(=O)[O-]
REMARK SMILES IDX 2 1 1 2 3 6 4 7 5 8
REMARK H PARENT 1 3 1 4 1 5
REMARK Flexibility Score: inf
ROOT
ATOM      1  C   UNL     1     127.459 127.296 126.285  1.00  0.00     0.312 C 
ENDROOT
BRANCH   1   2
ATOM      2  N   UNL     1     126.141 127.886 126.054  1.00  0.00    -0.353 N 
ATOM      3  H   UNL     1     126.128 128.331 125.107  1.00  0.00     0.344 HD
ATOM      4  H   UNL     1     125.405 127.144 126.090  1.00  0.00     0.344 HD
ATOM      5  H   UNL     1     125.944 128.616 126.775  1.00  0.00     0.344 HD
ENDBRANCH   1   2
BRANCH   1   6
ATOM      6  C   UNL     1     128.501 127.993 125.465  1.00  0.00     0.096 C 
ATOM      7  O   UNL     1     128.333 128.146 124.226  1.00  0.00    -0.544 OA
ATOM      8  O   UNL     1     129.677 128.429 126.059  1.00  0.00    -0.544 OA
ENDBRANCH   1   6
TORSDOF 2
ENDMDL
MODEL 6
REMARK VINA RESULT:    -2.174     20.918     21.085
REMARK INTER + INTRA:          -2.364
REMARK INTER:                  -2.364
REMARK INTRA:                   0.000
REMARK UNBOUND:                 0.000
REMARK SMILES [NH3+]CC(=O)[O-]
REMARK SMILES IDX 2 1 1 2 3 6 4 7 5 8
REMARK H PARENT 1 3 1 4 1 5
REMARK Flexibility Score: inf
ROOT
ATOM      1  C   UNL     1     114.379 116.579 113.470  1.00  0.00     0.312 C 
ENDROOT
BRANCH   1   2
ATOM      2  N   UNL     1     114.707 116.330 114.873  1.00  0.00    -0.353 N 
ATOM      3  H   UNL     1     115.728 116.498 115.020  1.00  0.00     0.344 HD
ATOM      4  H   UNL     1     114.164 116.979 115.489  1.00  0.00     0.344 HD
ATOM      5  H   UNL     1     114.487 115.338 115.122  1.00  0.00     0.344 HD
ENDBRANCH   1   2
BRANCH   1   6
ATOM      6  C   UNL     1     113.963 115.310 112.792  1.00  0.00     0.096 C 
ATOM      7  O   UNL     1     113.311 114.438 113.425  1.00  0.00    -0.544 OA
ATOM      8  O   UNL     1     114.339 115.069 111.477  1.00  0.00    -0.544 OA
ENDBRANCH   1   6
TORSDOF 2
ENDMDL
MODEL 7
REMARK VINA RESULT:    -2.137     13.999     14.226
REMARK INTER + INTRA:          -2.325
REMARK INTER:                  -2.325
REMARK INTRA:                   0.000
REMARK UNBOUND:                 0.000
REMARK SMILES [NH3+]CC(=O)[O-]
REMARK SMILES IDX 2 1 1 2 3 6 4 7 5 8
REMARK H PARENT 1 3 1 4 1 5
REMARK Flexibility Score: inf
ROOT
ATOM      1  C   UNL     1     125.853 116.934 113.643  1.00  0.00     0.312 C 
ENDROOT
BRANCH   1   2
ATOM      2  N   UNL     1     125.955 117.257 115.065  1.00  0.00    -0.353 N 
ATOM      3  H   UNL     1     125.471 116.515 115.620  1.00  0.00     0.344 HD
ATOM      4  H   UNL     1     126.960 117.294 115.352  1.00  0.00     0.344 HD
ATOM      5  H   UNL     1     125.498 118.177 115.257  1.00  0.00     0.344 HD
ENDBRANCH   1   2
BRANCH   1   6
ATOM      6  C   UNL     1     127.130 117.264 112.933  1.00  0.00     0.096 C 
ATOM      7  O   UNL     1     128.237 117.099 113.512  1.00  0.00    -0.544 OA
ATOM      8  O   UNL     1     127.096 117.800 111.653  1.00  0.00    -0.544 OA
ENDBRANCH   1   6
TORSDOF 2
ENDMDL
MODEL 8
REMARK VINA RESULT:    -2.021     13.657     13.904
REMARK INTER + INTRA:          -2.198
REMARK INTER:                  -2.198
REMARK INTRA:                   0.000
REMARK UNBOUND:                 0.000
REMARK SMILES [NH3+]CC(=O)[O-]
REMARK SMILES IDX 2 1 1 2 3 6 4 7 5 8
REMARK H PARENT 1 3 1 4 1 5
REMARK Flexibility Score: inf
ROOT
ATOM      1  C   UNL     1     120.040 126.914 113.692  1.00  0.00     0.312 C 
ENDROOT
BRANCH   1   2
ATOM      2  N   UNL     1     119.553 126.690 115.053  1.00  0.00    -0.353 N 
ATOM      3  H   UNL     1     120.294 126.201 115.605  1.00  0.00     0.344 HD
ATOM      4  H   UNL     1     119.337 127.606 115.511  1.00  0.00     0.344 HD
ATOM      5  H   UNL     1     118.695 126.093 115.033  1.00  0.00     0.344 HD
ENDBRANCH   1   2
BRANCH   1   6
ATOM      6  C   UNL     1     119.024 127.663 112.885  1.00  0.00     0.096 C 
ATOM      7  O   UNL     1     118.525 128.730 113.329  1.00  0.00    -0.544 OA
ATOM      8  O   UNL     1     118.594 127.156 111.666  1.00  0.00    -0.544 OA
ENDBRANCH   1   6
TORSDOF 2
ENDMDL
MODEL 9
REMARK VINA RESULT:    -1.973     13.793     14.101
REMARK INTER + INTRA:          -2.146
REMARK INTER:                  -2.146
REMARK INTRA:                   0.000
REMARK UNBOUND:                 0.000
REMARK SMILES [NH3+]CC(=O)[O-]
REMARK SMILES IDX 2 1 1 2 3 6 4 7 5 8
REMARK H PARENT 1 3 1 4 1 5
REMARK Flexibility Score: inf
ROOT
ATOM      1  C   UNL     1     124.189 116.737 114.219  1.00  0.00     0.312 C 
ENDROOT
BRANCH   1   2
ATOM      2  N   UNL     1     123.758 117.411 115.443  1.00  0.00    -0.353 N 
ATOM      3  H   UNL     1     122.716 117.500 115.436  1.00  0.00     0.344 HD
ATOM      4  H   UNL     1     124.044 116.852 116.280  1.00  0.00     0.344 HD
ATOM      5  H   UNL     1     124.179 118.366 115.494  1.00  0.00     0.344 HD
ENDBRANCH   1   2
BRANCH   1   6
ATOM      6  C   UNL     1     125.664 116.899 114.019  1.00  0.00     0.096 C 
ATOM      7  O   UNL     1     126.330 117.638 114.791  1.00  0.00    -0.544 OA
ATOM      8  O   UNL     1     126.294 116.274 112.951  1.00  0.00    -0.544 OA
ENDBRANCH   1   6
TORSDOF 2
ENDMDL
