MODEL 1
REMARK VINA RESULT:    -7.504      0.000      0.000
REMARK INTER + INTRA:         -10.708
REMARK INTER:                 -10.136
REMARK INTRA:                  -0.572
REMARK UNBOUND:                -0.572
REMARK SMILES COc1ccc(-c2cc(=O)c3c(OC)c(OC)c(OC)cc3o2)cc1OC
REMARK SMILES IDX 7 1 8 2 9 3 10 4 11 5 12 6 15 7 18 8 21 9 22 10 23 11 6 12
REMARK SMILES IDX 3 13 25 14 4 15 24 16 5 17 2 18 1 19 26 20 27 21 13 22 14 23
REMARK SMILES IDX 19 24 20 25 16 26 17 27
REMARK H PARENT
REMARK Flexibility Score: inf
ROOT
ATOM      1  C   UNL     1     165.018 155.425 151.569  1.00  0.00     0.138 A 
ATOM      2  C   UNL     1     164.036 154.427 151.493  1.00  0.00     0.100 A 
ATOM      3  C   UNL     1     164.338 153.213 150.877  1.00  0.00     0.197 A 
ATOM      4  O   UNL     1     163.441 152.328 150.816  1.00  0.00    -0.289 OA
ATOM      5  C   UNL     1     165.627 153.001 150.333  1.00  0.00     0.111 A 
ATOM      6  C   UNL     1     166.010 151.796 149.690  1.00  0.00     0.179 A 
ATOM      7  C   UNL     1     167.329 151.665 149.166  1.00  0.00     0.204 A 
ATOM      8  C   UNL     1     168.244 152.745 149.291  1.00  0.00     0.168 A 
ATOM      9  C   UNL     1     167.836 153.927 149.929  1.00  0.00     0.098 A 
ATOM     10  C   UNL     1     166.553 154.059 150.444  1.00  0.00     0.146 A 
ATOM     11  O   UNL     1     166.218 155.199 151.041  1.00  0.00    -0.456 OA
ENDROOT
BRANCH   1  12
ATOM     12  C   UNL     1     164.754 156.738 152.207  1.00  0.00     0.021 A 
ATOM     13  C   UNL     1     164.209 159.213 153.454  1.00  0.00     0.160 A 
ATOM     14  C   UNL     1     164.993 159.175 152.291  1.00  0.00     0.161 A 
ATOM     15  C   UNL     1     163.692 158.017 153.982  1.00  0.00     0.051 A 
ATOM     16  C   UNL     1     165.258 157.937 151.670  1.00  0.00     0.062 A 
ATOM     17  C   UNL     1     163.957 156.796 153.362  1.00  0.00     0.016 A 
BRANCH  13  18
ATOM     18  O   UNL     1     163.966 160.459 154.053  1.00  0.00    -0.493 OA
ATOM     19  C   UNL     1     164.330 160.799 155.387  1.00  0.00     0.278 C 
ENDBRANCH  13  18
BRANCH  14  20
ATOM     20  O   UNL     1     165.487 160.385 151.782  1.00  0.00    -0.493 OA
ATOM     21  C   UNL     1     165.813 160.615 150.415  1.00  0.00     0.278 C 
ENDBRANCH  14  20
ENDBRANCH   1  12
BRANCH   6  22
ATOM     22  O   UNL     1     165.045 150.769 149.600  1.00  0.00    -0.492 OA
ATOM     23  C   UNL     1     164.357 150.323 148.436  1.00  0.00     0.278 C 
ENDBRANCH   6  22
BRANCH   8  24
ATOM     24  O   UNL     1     169.546 152.626 148.780  1.00  0.00    -0.493 OA
ATOM     25  C   UNL     1     169.998 153.178 147.547  1.00  0.00     0.278 C 
ENDBRANCH   8  24
BRANCH   7  26
ATOM     26  O   UNL     1     167.679 150.455 148.537  1.00  0.00    -0.490 OA
ATOM     27  C   UNL     1     167.766 150.196 147.139  1.00  0.00     0.278 C 
ENDBRANCH   7  26
TORSDOF 6
ENDMDL
MODEL 2
REMARK VINA RESULT:    -7.158      1.655      3.502
REMARK INTER + INTRA:         -10.240
REMARK INTER:                  -9.644
REMARK INTRA:                  -0.596
REMARK UNBOUND:                -0.572
REMARK SMILES COc1ccc(-c2cc(=O)c3c(OC)c(OC)c(OC)cc3o2)cc1OC
REMARK SMILES IDX 7 1 8 2 9 3 10 4 11 5 12 6 15 7 18 8 21 9 22 10 23 11 6 12
REMARK SMILES IDX 3 13 25 14 4 15 24 16 5 17 2 18 1 19 26 20 27 21 13 22 14 23
REMARK SMILES IDX 19 24 20 25 16 26 17 27
REMARK H PARENT
REMARK Flexibility Score: inf
ROOT
ATOM      1  C   UNL     1     166.338 154.264 150.803  1.00  0.00     0.138 A 
ATOM      2  C   UNL     1     167.671 154.242 150.370  1.00  0.00     0.100 A 
ATOM      3  C   UNL     1     168.217 153.051 149.892  1.00  0.00     0.197 A 
ATOM      4  O   UNL     1     169.418 153.049 149.509  1.00  0.00    -0.289 OA
ATOM      5  C   UNL     1     167.423 151.880 149.851  1.00  0.00     0.111 A 
ATOM      6  C   UNL     1     167.907 150.631 149.381  1.00  0.00     0.179 A 
ATOM      7  C   UNL     1     167.042 149.498 149.377  1.00  0.00     0.204 A 
ATOM      8  C   UNL     1     165.707 149.632 149.846  1.00  0.00     0.168 A 
ATOM      9  C   UNL     1     165.259 150.878 150.309  1.00  0.00     0.098 A 
ATOM     10  C   UNL     1     166.095 151.987 150.313  1.00  0.00     0.146 A 
ATOM     11  O   UNL     1     165.620 153.145 150.760  1.00  0.00    -0.456 OA
ENDROOT
BRANCH   1  12
ATOM     12  C   UNL     1     165.705 155.500 151.327  1.00  0.00     0.021 A 
ATOM     13  C   UNL     1     164.471 157.820 152.362  1.00  0.00     0.160 A 
ATOM     14  C   UNL     1     165.145 157.877 151.133  1.00  0.00     0.161 A 
ATOM     15  C   UNL     1     164.406 156.602 153.062  1.00  0.00     0.051 A 
ATOM     16  C   UNL     1     165.756 156.715 150.618  1.00  0.00     0.062 A 
ATOM     17  C   UNL     1     165.012 155.456 152.546  1.00  0.00     0.016 A 
BRANCH  13  18
ATOM     18  O   UNL     1     163.877 158.994 152.851  1.00  0.00    -0.493 OA
ATOM     19  C   UNL     1     164.291 159.678 154.030  1.00  0.00     0.278 C 
ENDBRANCH  13  18
BRANCH  14  20
ATOM     20  O   UNL     1     165.184 159.104 150.452  1.00  0.00    -0.493 OA
ATOM     21  C   UNL     1     164.781 159.292 149.100  1.00  0.00     0.278 C 
ENDBRANCH  14  20
ENDBRANCH   1  12
BRANCH   6  22
ATOM     22  O   UNL     1     169.245 150.575 148.933  1.00  0.00    -0.492 OA
ATOM     23  C   UNL     1     170.327 149.857 149.518  1.00  0.00     0.278 C 
ENDBRANCH   6  22
BRANCH   8  24
ATOM     24  O   UNL     1     164.847 148.522 149.845  1.00  0.00    -0.493 OA
ATOM     25  C   UNL     1     164.029 148.118 148.750  1.00  0.00     0.278 C 
ENDBRANCH   8  24
BRANCH   7  26
ATOM     26  O   UNL     1     167.550 148.274 148.900  1.00  0.00    -0.490 OA
ATOM     27  C   UNL     1     167.580 147.812 147.553  1.00  0.00     0.278 C 
ENDBRANCH   7  26
TORSDOF 6
ENDMDL
MODEL 3
REMARK VINA RESULT:    -6.984      6.040      8.868
REMARK INTER + INTRA:         -10.005
REMARK INTER:                  -9.467
REMARK INTRA:                  -0.538
REMARK UNBOUND:                -0.572
REMARK SMILES COc1ccc(-c2cc(=O)c3c(OC)c(OC)c(OC)cc3o2)cc1OC
REMARK SMILES IDX 7 1 8 2 9 3 10 4 11 5 12 6 15 7 18 8 21 9 22 10 23 11 6 12
REMARK SMILES IDX 3 13 25 14 4 15 24 16 5 17 2 18 1 19 26 20 27 21 13 22 14 23
REMARK SMILES IDX 19 24 20 25 16 26 17 27
REMARK H PARENT
REMARK Flexibility Score: inf
ROOT
ATOM      1  C   UNL     1     167.645 148.119 150.584  1.00  0.00     0.138 A 
ATOM      2  C   UNL     1     167.863 147.070 149.680  1.00  0.00     0.100 A 
ATOM      3  C   UNL     1     168.168 145.798 150.166  1.00  0.00     0.197 A 
ATOM      4  O   UNL     1     168.362 144.867 149.338  1.00  0.00    -0.289 OA
ATOM      5  C   UNL     1     168.257 145.581 151.561  1.00  0.00     0.111 A 
ATOM      6  C   UNL     1     168.565 144.318 152.132  1.00  0.00     0.179 A 
ATOM      7  C   UNL     1     168.640 144.185 153.549  1.00  0.00     0.204 A 
ATOM      8  C   UNL     1     168.408 145.320 154.373  1.00  0.00     0.168 A 
ATOM      9  C   UNL     1     168.110 146.556 153.781  1.00  0.00     0.098 A 
ATOM     10  C   UNL     1     168.033 146.692 152.401  1.00  0.00     0.146 A 
ATOM     11  O   UNL     1     167.745 147.885 151.890  1.00  0.00    -0.456 OA
ENDROOT
BRANCH   1  12
ATOM     12  C   UNL     1     167.323 149.494 150.127  1.00  0.00     0.021 A 
ATOM     13  C   UNL     1     166.660 152.106 149.284  1.00  0.00     0.160 A 
ATOM     14  C   UNL     1     167.729 151.428 148.680  1.00  0.00     0.161 A 
ATOM     15  C   UNL     1     165.920 151.472 150.298  1.00  0.00     0.051 A 
ATOM     16  C   UNL     1     168.054 150.122 149.101  1.00  0.00     0.062 A 
ATOM     17  C   UNL     1     166.246 150.179 150.709  1.00  0.00     0.016 A 
BRANCH  13  18
ATOM     18  O   UNL     1     166.364 153.407 148.848  1.00  0.00    -0.493 OA
ATOM     19  C   UNL     1     166.642 154.591 149.589  1.00  0.00     0.278 C 
ENDBRANCH  13  18
BRANCH  14  20
ATOM     20  O   UNL     1     168.443 152.082 147.664  1.00  0.00    -0.493 OA
ATOM     21  C   UNL     1     169.641 152.824 147.867  1.00  0.00     0.278 C 
ENDBRANCH  14  20
ENDBRANCH   1  12
BRANCH   6  22
ATOM     22  O   UNL     1     168.786 143.239 151.249  1.00  0.00    -0.492 OA
ATOM     23  C   UNL     1     168.104 141.989 151.217  1.00  0.00     0.278 C 
ENDBRANCH   6  22
BRANCH   8  24
ATOM     24  O   UNL     1     168.478 145.199 155.770  1.00  0.00    -0.493 OA
ATOM     25  C   UNL     1     168.099 146.209 156.702  1.00  0.00     0.278 C 
ENDBRANCH   8  24
BRANCH   7  26
ATOM     26  O   UNL     1     168.943 142.918 154.084  1.00  0.00    -0.490 OA
ATOM     27  C   UNL     1     170.230 142.390 154.390  1.00  0.00     0.278 C 
ENDBRANCH   7  26
TORSDOF 6
ENDMDL
MODEL 4
REMARK VINA RESULT:    -6.909      1.649      2.201
REMARK INTER + INTRA:          -9.904
REMARK INTER:                  -9.348
REMARK INTRA:                  -0.556
REMARK UNBOUND:                -0.572
REMARK SMILES COc1ccc(-c2cc(=O)c3c(OC)c(OC)c(OC)cc3o2)cc1OC
REMARK SMILES IDX 7 1 8 2 9 3 10 4 11 5 12 6 15 7 18 8 21 9 22 10 23 11 6 12
REMARK SMILES IDX 3 13 25 14 4 15 24 16 5 17 2 18 1 19 26 20 27 21 13 22 14 23
REMARK SMILES IDX 19 24 20 25 16 26 17 27
REMARK H PARENT
REMARK Flexibility Score: inf
ROOT
ATOM      1  C   UNL     1     165.250 153.452 150.802  1.00  0.00     0.138 A 
ATOM      2  C   UNL     1     164.428 152.330 150.978  1.00  0.00     0.100 A 
ATOM      3  C   UNL     1     164.735 151.144 150.311  1.00  0.00     0.197 A 
ATOM      4  O   UNL     1     163.984 150.145 150.479  1.00  0.00    -0.289 OA
ATOM      5  C   UNL     1     165.868 151.086 149.465  1.00  0.00     0.111 A 
ATOM      6  C   UNL     1     166.245 149.918 148.752  1.00  0.00     0.179 A 
ATOM      7  C   UNL     1     167.400 149.945 147.917  1.00  0.00     0.204 A 
ATOM      8  C   UNL     1     168.158 151.142 147.807  1.00  0.00     0.168 A 
ATOM      9  C   UNL     1     167.759 152.282 148.520  1.00  0.00     0.098 A 
ATOM     10  C   UNL     1     166.636 152.261 149.338  1.00  0.00     0.146 A 
ATOM     11  O   UNL     1     166.303 153.368 149.994  1.00  0.00    -0.456 OA
ENDROOT
BRANCH   1  12
ATOM     12  C   UNL     1     164.969 154.742 151.481  1.00  0.00     0.021 A 
ATOM     13  C   UNL     1     164.396 157.171 152.802  1.00  0.00     0.160 A 
ATOM     14  C   UNL     1     165.172 157.178 151.634  1.00  0.00     0.161 A 
ATOM     15  C   UNL     1     163.900 155.952 153.299  1.00  0.00     0.051 A 
ATOM     16  C   UNL     1     165.452 155.964 150.975  1.00  0.00     0.062 A 
ATOM     17  C   UNL     1     164.180 154.754 152.641  1.00  0.00     0.016 A 
BRANCH  13  18
ATOM     18  O   UNL     1     164.137 158.395 153.439  1.00  0.00    -0.493 OA
ATOM     19  C   UNL     1     163.198 158.574 154.494  1.00  0.00     0.278 C 
ENDBRANCH  13  18
BRANCH  14  20
ATOM     20  O   UNL     1     165.644 158.411 151.157  1.00  0.00    -0.493 OA
ATOM     21  C   UNL     1     164.988 159.202 150.172  1.00  0.00     0.278 C 
ENDBRANCH  14  20
ENDBRANCH   1  12
BRANCH   6  22
ATOM     22  O   UNL     1     165.441 148.768 148.910  1.00  0.00    -0.492 OA
ATOM     23  C   UNL     1     164.618 148.142 147.930  1.00  0.00     0.278 C 
ENDBRANCH   6  22
BRANCH   8  24
ATOM     24  O   UNL     1     169.299 151.178 146.989  1.00  0.00    -0.493 OA
ATOM     25  C   UNL     1     170.592 150.709 147.360  1.00  0.00     0.278 C 
ENDBRANCH   8  24
BRANCH   7  26
ATOM     26  O   UNL     1     167.750 148.769 147.226  1.00  0.00    -0.490 OA
ATOM     27  C   UNL     1     168.577 147.704 147.687  1.00  0.00     0.278 C 
ENDBRANCH   7  26
TORSDOF 6
ENDMDL
MODEL 5
REMARK VINA RESULT:    -6.882      5.191     10.180
REMARK INTER + INTRA:          -9.868
REMARK INTER:                  -9.316
REMARK INTRA:                  -0.551
REMARK UNBOUND:                -0.572
REMARK SMILES COc1ccc(-c2cc(=O)c3c(OC)c(OC)c(OC)cc3o2)cc1OC
REMARK SMILES IDX 7 1 8 2 9 3 10 4 11 5 12 6 15 7 18 8 21 9 22 10 23 11 6 12
REMARK SMILES IDX 3 13 25 14 4 15 24 16 5 17 2 18 1 19 26 20 27 21 13 22 14 23
REMARK SMILES IDX 19 24 20 25 16 26 17 27
REMARK H PARENT
REMARK Flexibility Score: inf
ROOT
ATOM      1  C   UNL     1     168.161 147.783 150.793  1.00  0.00     0.138 A 
ATOM      2  C   UNL     1     169.126 148.142 149.842  1.00  0.00     0.100 A 
ATOM      3  C   UNL     1     168.979 149.333 149.132  1.00  0.00     0.197 A 
ATOM      4  O   UNL     1     169.856 149.639 148.279  1.00  0.00    -0.289 OA
ATOM      5  C   UNL     1     167.859 150.164 149.376  1.00  0.00     0.111 A 
ATOM      6  C   UNL     1     167.638 151.389 148.693  1.00  0.00     0.179 A 
ATOM      7  C   UNL     1     166.482 152.164 148.996  1.00  0.00     0.204 A 
ATOM      8  C   UNL     1     165.562 151.701 149.975  1.00  0.00     0.168 A 
ATOM      9  C   UNL     1     165.804 150.484 150.630  1.00  0.00     0.098 A 
ATOM     10  C   UNL     1     166.931 149.725 150.342  1.00  0.00     0.146 A 
ATOM     11  O   UNL     1     167.115 148.580 150.993  1.00  0.00    -0.456 OA
ENDROOT
BRANCH   1  12
ATOM     12  C   UNL     1     168.261 146.525 151.575  1.00  0.00     0.021 A 
ATOM     13  C   UNL     1     168.447 144.101 153.013  1.00  0.00     0.160 A 
ATOM     14  C   UNL     1     168.186 145.300 153.694  1.00  0.00     0.161 A 
ATOM     15  C   UNL     1     168.603 144.118 151.615  1.00  0.00     0.051 A 
ATOM     16  C   UNL     1     168.089 146.506 152.971  1.00  0.00     0.062 A 
ATOM     17  C   UNL     1     168.504 145.315 150.906  1.00  0.00     0.016 A 
BRANCH  13  18
ATOM     18  O   UNL     1     168.542 142.917 153.760  1.00  0.00    -0.493 OA
ATOM     19  C   UNL     1     168.884 141.645 153.217  1.00  0.00     0.278 C 
ENDBRANCH  13  18
BRANCH  14  20
ATOM     20  O   UNL     1     168.026 145.251 155.088  1.00  0.00    -0.493 OA
ATOM     21  C   UNL     1     168.205 146.360 155.962  1.00  0.00     0.278 C 
ENDBRANCH  14  20
ENDBRANCH   1  12
BRANCH   6  22
ATOM     22  O   UNL     1     168.594 151.782 147.731  1.00  0.00    -0.492 OA
ATOM     23  C   UNL     1     169.565 152.818 147.844  1.00  0.00     0.278 C 
ENDBRANCH   6  22
BRANCH   8  24
ATOM     24  O   UNL     1     164.421 152.458 150.282  1.00  0.00    -0.493 OA
ATOM     25  C   UNL     1     164.278 153.307 151.418  1.00  0.00     0.278 C 
ENDBRANCH   8  24
BRANCH   7  26
ATOM     26  O   UNL     1     166.293 153.377 148.305  1.00  0.00    -0.490 OA
ATOM     27  C   UNL     1     166.537 154.696 148.783  1.00  0.00     0.278 C 
ENDBRANCH   7  26
TORSDOF 6
ENDMDL
MODEL 6
REMARK VINA RESULT:    -6.764      5.147     10.561
REMARK INTER + INTRA:          -9.709
REMARK INTER:                  -9.149
REMARK INTRA:                  -0.560
REMARK UNBOUND:                -0.572
REMARK SMILES COc1ccc(-c2cc(=O)c3c(OC)c(OC)c(OC)cc3o2)cc1OC
REMARK SMILES IDX 7 1 8 2 9 3 10 4 11 5 12 6 15 7 18 8 21 9 22 10 23 11 6 12
REMARK SMILES IDX 3 13 25 14 4 15 24 16 5 17 2 18 1 19 26 20 27 21 13 22 14 23
REMARK SMILES IDX 19 24 20 25 16 26 17 27
REMARK H PARENT
REMARK Flexibility Score: inf
ROOT
ATOM      1  C   UNL     1     168.063 147.716 150.716  1.00  0.00     0.138 A 
ATOM      2  C   UNL     1     169.092 148.202 149.898  1.00  0.00     0.100 A 
ATOM      3  C   UNL     1     168.982 149.477 149.342  1.00  0.00     0.197 A 
ATOM      4  O   UNL     1     169.917 149.897 148.608  1.00  0.00    -0.289 OA
ATOM      5  C   UNL     1     167.835 150.263 149.606  1.00  0.00     0.111 A 
ATOM      6  C   UNL     1     167.649 151.566 149.076  1.00  0.00     0.179 A 
ATOM      7  C   UNL     1     166.462 152.290 149.388  1.00  0.00     0.204 A 
ATOM      8  C   UNL     1     165.477 151.697 150.224  1.00  0.00     0.168 A 
ATOM      9  C   UNL     1     165.686 150.405 150.729  1.00  0.00     0.098 A 
ATOM     10  C   UNL     1     166.843 149.695 150.431  1.00  0.00     0.146 A 
ATOM     11  O   UNL     1     166.993 148.475 150.938  1.00  0.00    -0.456 OA
ENDROOT
BRANCH   1  12
ATOM     12  C   UNL     1     168.121 146.366 151.330  1.00  0.00     0.021 A 
ATOM     13  C   UNL     1     168.224 143.821 152.550  1.00  0.00     0.160 A 
ATOM     14  C   UNL     1     168.651 143.977 151.223  1.00  0.00     0.161 A 
ATOM     15  C   UNL     1     167.759 144.939 153.265  1.00  0.00     0.051 A 
ATOM     16  C   UNL     1     168.602 145.250 150.619  1.00  0.00     0.062 A 
ATOM     17  C   UNL     1     167.714 146.196 152.662  1.00  0.00     0.016 A 
BRANCH  13  18
ATOM     18  O   UNL     1     168.280 142.541 153.123  1.00  0.00    -0.493 OA
ATOM     19  C   UNL     1     169.342 142.071 153.947  1.00  0.00     0.278 C 
ENDBRANCH  13  18
BRANCH  14  20
ATOM     20  O   UNL     1     169.119 142.845 150.538  1.00  0.00    -0.493 OA
ATOM     21  C   UNL     1     168.355 142.091 149.603  1.00  0.00     0.278 C 
ENDBRANCH  14  20
ENDBRANCH   1  12
BRANCH   6  22
ATOM     22  O   UNL     1     168.670 152.088 148.252  1.00  0.00    -0.492 OA
ATOM     23  C   UNL     1     169.577 153.143 148.554  1.00  0.00     0.278 C 
ENDBRANCH   6  22
BRANCH   8  24
ATOM     24  O   UNL     1     164.305 152.402 150.539  1.00  0.00    -0.493 OA
ATOM     25  C   UNL     1     164.049 153.059 151.777  1.00  0.00     0.278 C 
ENDBRANCH   8  24
BRANCH   7  26
ATOM     26  O   UNL     1     166.309 153.583 148.851  1.00  0.00    -0.490 OA
ATOM     27  C   UNL     1     166.491 154.828 149.518  1.00  0.00     0.278 C 
ENDBRANCH   7  26
TORSDOF 6
ENDMDL
MODEL 7
REMARK VINA RESULT:    -6.609      1.799      2.712
REMARK INTER + INTRA:          -9.499
REMARK INTER:                  -8.915
REMARK INTRA:                  -0.584
REMARK UNBOUND:                -0.572
REMARK SMILES COc1ccc(-c2cc(=O)c3c(OC)c(OC)c(OC)cc3o2)cc1OC
REMARK SMILES IDX 7 1 8 2 9 3 10 4 11 5 12 6 15 7 18 8 21 9 22 10 23 11 6 12
REMARK SMILES IDX 3 13 25 14 4 15 24 16 5 17 2 18 1 19 26 20 27 21 13 22 14 23
REMARK SMILES IDX 19 24 20 25 16 26 17 27
REMARK H PARENT
REMARK Flexibility Score: inf
ROOT
ATOM      1  C   UNL     1     165.175 154.015 151.092  1.00  0.00     0.138 A 
ATOM      2  C   UNL     1     164.116 153.111 151.253  1.00  0.00     0.100 A 
ATOM      3  C   UNL     1     164.304 151.769 150.922  1.00  0.00     0.197 A 
ATOM      4  O   UNL     1     163.339 150.971 151.071  1.00  0.00    -0.289 OA
ATOM      5  C   UNL     1     165.556 151.335 150.425  1.00  0.00     0.111 A 
ATOM      6  C   UNL     1     165.824 149.989 150.065  1.00  0.00     0.179 A 
ATOM      7  C   UNL     1     167.112 149.636 149.569  1.00  0.00     0.204 A 
ATOM      8  C   UNL     1     168.112 150.637 149.439  1.00  0.00     0.168 A 
ATOM      9  C   UNL     1     167.818 151.960 149.799  1.00  0.00     0.098 A 
ATOM     10  C   UNL     1     166.565 152.310 150.285  1.00  0.00     0.146 A 
ATOM     11  O   UNL     1     166.338 153.578 150.615  1.00  0.00    -0.456 OA
ENDROOT
BRANCH   1  12
ATOM     12  C   UNL     1     165.033 155.455 151.422  1.00  0.00     0.021 A 
ATOM     13  C   UNL     1     164.798 158.208 152.006  1.00  0.00     0.160 A 
ATOM     14  C   UNL     1     164.375 157.256 152.945  1.00  0.00     0.161 A 
ATOM     15  C   UNL     1     165.348 157.780 150.784  1.00  0.00     0.051 A 
ATOM     16  C   UNL     1     164.498 155.883 152.651  1.00  0.00     0.062 A 
ATOM     17  C   UNL     1     165.468 156.420 150.500  1.00  0.00     0.016 A 
BRANCH  13  18
ATOM     18  O   UNL     1     164.658 159.568 152.325  1.00  0.00    -0.493 OA
ATOM     19  C   UNL     1     164.141 160.556 151.439  1.00  0.00     0.278 C 
ENDBRANCH  13  18
BRANCH  14  20
ATOM     20  O   UNL     1     163.839 157.713 154.160  1.00  0.00    -0.493 OA
ATOM     21  C   UNL     1     162.528 157.418 154.628  1.00  0.00     0.278 C 
ENDBRANCH  14  20
ENDBRANCH   1  12
BRANCH   6  22
ATOM     22  O   UNL     1     164.779 149.051 150.219  1.00  0.00    -0.492 OA
ATOM     23  C   UNL     1     164.174 148.251 149.208  1.00  0.00     0.278 C 
ENDBRANCH   6  22
BRANCH   8  24
ATOM     24  O   UNL     1     169.386 150.299 148.953  1.00  0.00    -0.493 OA
ATOM     25  C   UNL     1     170.505 149.944 149.759  1.00  0.00     0.278 C 
ENDBRANCH   8  24
BRANCH   7  26
ATOM     26  O   UNL     1     167.348 148.291 149.224  1.00  0.00    -0.490 OA
ATOM     27  C   UNL     1     167.873 147.260 150.054  1.00  0.00     0.278 C 
ENDBRANCH   7  26
TORSDOF 6
ENDMDL
MODEL 8
REMARK VINA RESULT:    -6.600      6.758     10.102
REMARK INTER + INTRA:          -9.487
REMARK INTER:                  -8.888
REMARK INTRA:                  -0.598
REMARK UNBOUND:                -0.572
REMARK SMILES COc1ccc(-c2cc(=O)c3c(OC)c(OC)c(OC)cc3o2)cc1OC
REMARK SMILES IDX 7 1 8 2 9 3 10 4 11 5 12 6 15 7 18 8 21 9 22 10 23 11 6 12
REMARK SMILES IDX 3 13 25 14 4 15 24 16 5 17 2 18 1 19 26 20 27 21 13 22 14 23
REMARK SMILES IDX 19 24 20 25 16 26 17 27
REMARK H PARENT
REMARK Flexibility Score: inf
ROOT
ATOM      1  C   UNL     1     167.475 146.855 151.061  1.00  0.00     0.138 A 
ATOM      2  C   UNL     1     168.165 145.701 150.666  1.00  0.00     0.100 A 
ATOM      3  C   UNL     1     168.793 144.913 151.631  1.00  0.00     0.197 A 
ATOM      4  O   UNL     1     169.410 143.879 151.257  1.00  0.00    -0.289 OA
ATOM      5  C   UNL     1     168.729 145.287 152.995  1.00  0.00     0.111 A 
ATOM      6  C   UNL     1     169.342 144.540 154.034  1.00  0.00     0.179 A 
ATOM      7  C   UNL     1     169.233 144.988 155.382  1.00  0.00     0.204 A 
ATOM      8  C   UNL     1     168.514 146.180 155.669  1.00  0.00     0.168 A 
ATOM      9  C   UNL     1     167.922 146.900 154.621  1.00  0.00     0.098 A 
ATOM     10  C   UNL     1     168.022 146.467 153.306  1.00  0.00     0.146 A 
ATOM     11  O   UNL     1     167.440 147.184 152.350  1.00  0.00    -0.456 OA
ENDROOT
BRANCH   1  12
ATOM     12  C   UNL     1     166.793 147.735 150.080  1.00  0.00     0.021 A 
ATOM     13  C   UNL     1     165.451 149.374 148.211  1.00  0.00     0.160 A 
ATOM     14  C   UNL     1     166.821 149.564 148.451  1.00  0.00     0.161 A 
ATOM     15  C   UNL     1     164.761 148.358 148.898  1.00  0.00     0.051 A 
ATOM     16  C   UNL     1     167.487 148.741 149.381  1.00  0.00     0.062 A 
ATOM     17  C   UNL     1     165.428 147.547 149.816  1.00  0.00     0.016 A 
BRANCH  13  18
ATOM     18  O   UNL     1     164.814 150.212 147.283  1.00  0.00    -0.493 OA
ATOM     19  C   UNL     1     163.989 151.320 147.629  1.00  0.00     0.278 C 
ENDBRANCH  13  18
BRANCH  14  20
ATOM     20  O   UNL     1     167.484 150.579 147.743  1.00  0.00    -0.493 OA
ATOM     21  C   UNL     1     167.787 151.867 148.269  1.00  0.00     0.278 C 
ENDBRANCH  14  20
ENDBRANCH   1  12
BRANCH   6  22
ATOM     22  O   UNL     1     170.042 143.368 153.671  1.00  0.00    -0.492 OA
ATOM     23  C   UNL     1     169.697 142.021 153.974  1.00  0.00     0.278 C 
ENDBRANCH   6  22
BRANCH   8  24
ATOM     24  O   UNL     1     168.400 146.629 156.995  1.00  0.00    -0.493 OA
ATOM     25  C   UNL     1     168.940 147.848 157.499  1.00  0.00     0.278 C 
ENDBRANCH   8  24
BRANCH   7  26
ATOM     26  O   UNL     1     169.850 144.222 156.391  1.00  0.00    -0.490 OA
ATOM     27  C   UNL     1     171.137 144.419 156.967  1.00  0.00     0.278 C 
ENDBRANCH   7  26
TORSDOF 6
ENDMDL
MODEL 9
REMARK VINA RESULT:    -6.412      5.978     10.302
REMARK INTER + INTRA:          -9.233
REMARK INTER:                  -8.735
REMARK INTRA:                  -0.498
REMARK UNBOUND:                -0.572
REMARK SMILES COc1ccc(-c2cc(=O)c3c(OC)c(OC)c(OC)cc3o2)cc1OC
REMARK SMILES IDX 7 1 8 2 9 3 10 4 11 5 12 6 15 7 18 8 21 9 22 10 23 11 6 12
REMARK SMILES IDX 3 13 25 14 4 15 24 16 5 17 2 18 1 19 26 20 27 21 13 22 14 23
REMARK SMILES IDX 19 24 20 25 16 26 17 27
REMARK H PARENT
REMARK Flexibility Score: inf
ROOT
ATOM      1  C   UNL     1     167.771 146.828 151.335  1.00  0.00     0.138 A 
ATOM      2  C   UNL     1     167.749 146.114 150.129  1.00  0.00     0.100 A 
ATOM      3  C   UNL     1     167.346 146.757 148.959  1.00  0.00     0.197 A 
ATOM      4  O   UNL     1     167.331 146.098 147.884  1.00  0.00    -0.289 OA
ATOM      5  C   UNL     1     166.961 148.118 149.001  1.00  0.00     0.111 A 
ATOM      6  C   UNL     1     166.537 148.840 147.856  1.00  0.00     0.179 A 
ATOM      7  C   UNL     1     166.162 150.209 147.985  1.00  0.00     0.204 A 
ATOM      8  C   UNL     1     166.215 150.833 149.261  1.00  0.00     0.168 A 
ATOM      9  C   UNL     1     166.634 150.093 150.377  1.00  0.00     0.098 A 
ATOM     10  C   UNL     1     167.003 148.760 150.257  1.00  0.00     0.146 A 
ATOM     11  O   UNL     1     167.396 148.103 151.344  1.00  0.00    -0.456 OA
ENDROOT
BRANCH   1  12
ATOM     12  C   UNL     1     168.185 146.195 152.613  1.00  0.00     0.021 A 
ATOM     13  C   UNL     1     168.965 145.042 155.070  1.00  0.00     0.160 A 
ATOM     14  C   UNL     1     169.209 144.359 153.870  1.00  0.00     0.161 A 
ATOM     15  C   UNL     1     168.344 146.304 155.037  1.00  0.00     0.051 A 
ATOM     16  C   UNL     1     168.822 144.940 152.645  1.00  0.00     0.062 A 
ATOM     17  C   UNL     1     167.964 146.873 153.822  1.00  0.00     0.016 A 
BRANCH  13  18
ATOM     18  O   UNL     1     169.358 144.437 156.274  1.00  0.00    -0.493 OA
ATOM     19  C   UNL     1     170.631 144.611 156.889  1.00  0.00     0.278 C 
ENDBRANCH  13  18
BRANCH  14  20
ATOM     20  O   UNL     1     169.840 143.107 153.934  1.00  0.00    -0.493 OA
ATOM     21  C   UNL     1     169.171 141.856 153.810  1.00  0.00     0.278 C 
ENDBRANCH  14  20
ENDBRANCH   1  12
BRANCH   6  22
ATOM     22  O   UNL     1     166.508 148.152 146.623  1.00  0.00    -0.492 OA
ATOM     23  C   UNL     1     165.362 147.730 145.891  1.00  0.00     0.278 C 
ENDBRANCH   6  22
BRANCH   8  24
ATOM     24  O   UNL     1     165.850 152.182 149.400  1.00  0.00    -0.493 OA
ATOM     25  C   UNL     1     165.551 152.830 150.633  1.00  0.00     0.278 C 
ENDBRANCH   8  24
BRANCH   7  26
ATOM     26  O   UNL     1     165.750 150.900 146.829  1.00  0.00    -0.490 OA
ATOM     27  C   UNL     1     164.426 151.282 146.471  1.00  0.00     0.278 C 
ENDBRANCH   7  26
TORSDOF 6
ENDMDL
