MODEL 1
REMARK VINA RESULT:    -6.176      0.000      0.000
REMARK INTER + INTRA:         -13.352
REMARK INTER:                 -11.592
REMARK INTRA:                  -1.761
REMARK UNBOUND:                -1.761
REMARK SMILES O=C([O-])CCCCCCCCCCCCCCC(=O)[O-]
REMARK SMILES IDX 10 1 9 2 8 3 7 4 6 5 5 6 4 7 2 8 1 9 3 10 11 11 12 12 13 13
REMARK SMILES IDX 14 14 15 15 16 16 17 17 18 18 19 19 20 20
REMARK H PARENT
REMARK Flexibility Score: inf
ROOT
ATOM      1  C   UNL     1      14.121   2.042  15.433  1.00  0.00     0.000 C 
ENDROOT
BRANCH   1   2
ATOM      2  C   UNL     1      13.206   3.102  16.068  1.00  0.00     0.000 C 
BRANCH   2   3
ATOM      3  C   UNL     1      13.199   3.032  17.604  1.00  0.00     0.000 C 
BRANCH   3   4
ATOM      4  C   UNL     1      13.676   1.672  18.145  1.00  0.00     0.000 C 
BRANCH   4   5
ATOM      5  C   UNL     1      14.762   1.745  19.235  1.00  0.00     0.000 C 
BRANCH   5   6
ATOM      6  C   UNL     1      16.050   0.998  18.849  1.00  0.00     0.006 C 
BRANCH   6   7
ATOM      7  C   UNL     1      16.152  -0.373  19.532  1.00  0.00     0.053 C 
BRANCH   7   8
ATOM      8  C   UNL     1      16.263  -1.486  18.535  1.00  0.00     0.041 C 
ATOM      9  O   UNL     1      15.249  -1.860  17.889  1.00  0.00    -0.550 OA
ATOM     10  O   UNL     1      17.491  -2.091  18.301  1.00  0.00    -0.550 OA
ENDBRANCH   7   8
ENDBRANCH   6   7
ENDBRANCH   5   6
ENDBRANCH   4   5
ENDBRANCH   3   4
ENDBRANCH   2   3
ENDBRANCH   1   2
BRANCH   1  11
ATOM     11  C   UNL     1      15.455   2.625  14.942  1.00  0.00     0.000 C 
BRANCH  11  12
ATOM     12  C   UNL     1      15.381   2.982  13.451  1.00  0.00     0.000 C 
BRANCH  12  13
ATOM     13  C   UNL     1      15.231   1.746  12.543  1.00  0.00     0.000 C 
BRANCH  13  14
ATOM     14  C   UNL     1      16.222   1.679  11.366  1.00  0.00     0.000 C 
BRANCH  14  15
ATOM     15  C   UNL     1      17.620   1.141  11.723  1.00  0.00     0.000 C 
BRANCH  15  16
ATOM     16  C   UNL     1      17.602  -0.267  12.361  1.00  0.00     0.006 C 
BRANCH  16  17
ATOM     17  C   UNL     1      18.444  -0.377  13.642  1.00  0.00     0.053 C 
BRANCH  17  18
ATOM     18  C   UNL     1      17.598  -0.279  14.875  1.00  0.00     0.041 C 
ATOM     19  O   UNL     1      16.425  -0.739  14.878  1.00  0.00    -0.550 OA
ATOM     20  O   UNL     1      18.097   0.336  16.017  1.00  0.00    -0.550 OA
ENDBRANCH  17  18
ENDBRANCH  16  17
ENDBRANCH  15  16
ENDBRANCH  14  15
ENDBRANCH  13  14
ENDBRANCH  12  13
ENDBRANCH  11  12
ENDBRANCH   1  11
TORSDOF 15
ENDMDL
MODEL 2
REMARK VINA RESULT:    -6.170      1.300      5.850
REMARK INTER + INTRA:         -13.342
REMARK INTER:                 -12.133
REMARK INTRA:                  -1.208
REMARK UNBOUND:                -1.761
REMARK SMILES O=C([O-])CCCCCCCCCCCCCCC(=O)[O-]
REMARK SMILES IDX 10 1 9 2 8 3 7 4 6 5 5 6 4 7 2 8 1 9 3 10 11 11 12 12 13 13
REMARK SMILES IDX 14 14 15 15 16 16 17 17 18 18 19 19 20 20
REMARK H PARENT
REMARK Flexibility Score: inf
ROOT
ATOM      1  C   UNL     1      13.125   3.101  16.044  1.00  0.00     0.000 C 
ENDROOT
BRANCH   1   2
ATOM      2  C   UNL     1      14.506   2.651  15.538  1.00  0.00     0.000 C 
BRANCH   2   3
ATOM      3  C   UNL     1      14.465   2.130  14.092  1.00  0.00     0.000 C 
BRANCH   3   4
ATOM      4  C   UNL     1      15.492   2.821  13.176  1.00  0.00     0.000 C 
BRANCH   4   5
ATOM      5  C   UNL     1      15.684   2.165  11.796  1.00  0.00     0.000 C 
BRANCH   5   6
ATOM      6  C   UNL     1      17.154   1.829  11.491  1.00  0.00     0.006 C 
BRANCH   6   7
ATOM      7  C   UNL     1      17.434   0.322  11.576  1.00  0.00     0.053 C 
BRANCH   7   8
ATOM      8  C   UNL     1      17.752  -0.109  12.975  1.00  0.00     0.041 C 
ATOM      9  O   UNL     1      18.946  -0.135  13.372  1.00  0.00    -0.550 OA
ATOM     10  O   UNL     1      16.728  -0.454  13.847  1.00  0.00    -0.550 OA
ENDBRANCH   7   8
ENDBRANCH   6   7
ENDBRANCH   5   6
ENDBRANCH   4   5
ENDBRANCH   3   4
ENDBRANCH   2   3
ENDBRANCH   1   2
BRANCH   1  11
ATOM     11  C   UNL     1      13.122   3.439  17.542  1.00  0.00     0.000 C 
BRANCH  11  12
ATOM     12  C   UNL     1      14.355   2.846  18.240  1.00  0.00     0.000 C 
BRANCH  12  13
ATOM     13  C   UNL     1      14.041   1.560  19.027  1.00  0.00     0.000 C 
BRANCH  13  14
ATOM     14  C   UNL     1      14.757   1.437  20.385  1.00  0.00     0.000 C 
BRANCH  14  15
ATOM     15  C   UNL     1      15.335   0.043  20.692  1.00  0.00     0.000 C 
BRANCH  15  16
ATOM     16  C   UNL     1      16.183  -0.547  19.543  1.00  0.00     0.006 C 
BRANCH  16  17
ATOM     17  C   UNL     1      17.502   0.204  19.299  1.00  0.00     0.053 C 
BRANCH  17  18
ATOM     18  C   UNL     1      17.699   0.531  17.849  1.00  0.00     0.041 C 
ATOM     19  O   UNL     1      17.569   1.716  17.443  1.00  0.00    -0.550 OA
ATOM     20  O   UNL     1      18.007  -0.477  16.943  1.00  0.00    -0.550 OA
ENDBRANCH  17  18
ENDBRANCH  16  17
ENDBRANCH  15  16
ENDBRANCH  14  15
ENDBRANCH  13  14
ENDBRANCH  12  13
ENDBRANCH  11  12
ENDBRANCH   1  11
TORSDOF 15
ENDMDL
MODEL 3
REMARK VINA RESULT:    -6.166      1.980      3.985
REMARK INTER + INTRA:         -13.334
REMARK INTER:                 -11.649
REMARK INTRA:                  -1.685
REMARK UNBOUND:                -1.761
REMARK SMILES O=C([O-])CCCCCCCCCCCCCCC(=O)[O-]
REMARK SMILES IDX 10 1 9 2 8 3 7 4 6 5 5 6 4 7 2 8 1 9 3 10 11 11 12 12 13 13
REMARK SMILES IDX 14 14 15 15 16 16 17 17 18 18 19 19 20 20
REMARK H PARENT
REMARK Flexibility Score: inf
ROOT
ATOM      1  C   UNL     1      16.592  -0.711  14.983  1.00  0.00     0.000 C 
ENDROOT
BRANCH   1   2
ATOM      2  C   UNL     1      16.205  -1.171  16.398  1.00  0.00     0.000 C 
BRANCH   2   3
ATOM      3  C   UNL     1      17.250  -2.114  17.019  1.00  0.00     0.000 C 
BRANCH   3   4
ATOM      4  C   UNL     1      17.558  -1.782  18.491  1.00  0.00     0.000 C 
BRANCH   4   5
ATOM      5  C   UNL     1      16.373  -1.219  19.297  1.00  0.00     0.000 C 
BRANCH   5   6
ATOM      6  C   UNL     1      16.525   0.277  19.623  1.00  0.00     0.006 C 
BRANCH   6   7
ATOM      7  C   UNL     1      15.251   0.867  20.244  1.00  0.00     0.053 C 
BRANCH   7   8
ATOM      8  C   UNL     1      14.364   1.491  19.210  1.00  0.00     0.041 C 
ATOM      9  O   UNL     1      13.702   0.765  18.423  1.00  0.00    -0.550 OA
ATOM     10  O   UNL     1      14.247   2.873  19.136  1.00  0.00    -0.550 OA
ENDBRANCH   7   8
ENDBRANCH   6   7
ENDBRANCH   5   6
ENDBRANCH   4   5
ENDBRANCH   3   4
ENDBRANCH   2   3
ENDBRANCH   1   2
BRANCH   1  11
ATOM     11  C   UNL     1      18.050  -0.233  14.891  1.00  0.00     0.000 C 
BRANCH  11  12
ATOM     12  C   UNL     1      18.565  -0.321  13.448  1.00  0.00     0.000 C 
BRANCH  12  13
ATOM     13  C   UNL     1      17.442  -0.204  12.400  1.00  0.00     0.000 C 
BRANCH  13  14
ATOM     14  C   UNL     1      17.392   1.139  11.647  1.00  0.00     0.000 C 
BRANCH  14  15
ATOM     15  C   UNL     1      15.976   1.690  11.391  1.00  0.00     0.000 C 
BRANCH  15  16
ATOM     16  C   UNL     1      15.080   1.714  12.650  1.00  0.00     0.006 C 
BRANCH  16  17
ATOM     17  C   UNL     1      15.476   2.793  13.671  1.00  0.00     0.053 C 
BRANCH  17  18
ATOM     18  C   UNL     1      14.884   2.527  15.022  1.00  0.00     0.041 C 
ATOM     19  O   UNL     1      15.597   2.623  16.056  1.00  0.00    -0.550 OA
ATOM     20  O   UNL     1      13.551   2.154  15.138  1.00  0.00    -0.550 OA
ENDBRANCH  17  18
ENDBRANCH  16  17
ENDBRANCH  15  16
ENDBRANCH  14  15
ENDBRANCH  13  14
ENDBRANCH  12  13
ENDBRANCH  11  12
ENDBRANCH   1  11
TORSDOF 15
ENDMDL
MODEL 4
REMARK VINA RESULT:    -6.166      1.410      5.269
REMARK INTER + INTRA:         -13.333
REMARK INTER:                 -11.796
REMARK INTRA:                  -1.537
REMARK UNBOUND:                -1.761
REMARK SMILES O=C([O-])CCCCCCCCCCCCCCC(=O)[O-]
REMARK SMILES IDX 10 1 9 2 8 3 7 4 6 5 5 6 4 7 2 8 1 9 3 10 11 11 12 12 13 13
REMARK SMILES IDX 14 14 15 15 16 16 17 17 18 18 19 19 20 20
REMARK H PARENT
REMARK Flexibility Score: inf
ROOT
ATOM      1  C   UNL     1      15.539   1.778  12.085  1.00  0.00     0.000 C 
ENDROOT
BRANCH   1   2
ATOM      2  C   UNL     1      16.754   1.743  11.142  1.00  0.00     0.000 C 
BRANCH   2   3
ATOM      3  C   UNL     1      17.736   0.611  11.487  1.00  0.00     0.000 C 
BRANCH   3   4
ATOM      4  C   UNL     1      17.434  -0.053  12.843  1.00  0.00     0.000 C 
BRANCH   4   5
ATOM      5  C   UNL     1      18.671  -0.403  13.692  1.00  0.00     0.000 C 
BRANCH   5   6
ATOM      6  C   UNL     1      18.322  -0.738  15.152  1.00  0.00     0.006 C 
BRANCH   6   7
ATOM      7  C   UNL     1      16.807  -0.723  15.404  1.00  0.00     0.053 C 
BRANCH   7   8
ATOM      8  C   UNL     1      16.429  -1.569  16.581  1.00  0.00     0.041 C 
ATOM      9  O   UNL     1      15.367  -1.331  17.215  1.00  0.00    -0.550 OA
ATOM     10  O   UNL     1      17.234  -2.635  16.961  1.00  0.00    -0.550 OA
ENDBRANCH   7   8
ENDBRANCH   6   7
ENDBRANCH   5   6
ENDBRANCH   4   5
ENDBRANCH   3   4
ENDBRANCH   2   3
ENDBRANCH   1   2
BRANCH   1  11
ATOM     11  C   UNL     1      15.514   3.031  12.974  1.00  0.00     0.000 C 
BRANCH  11  12
ATOM     12  C   UNL     1      15.330   2.650  14.450  1.00  0.00     0.000 C 
BRANCH  12  13
ATOM     13  C   UNL     1      14.021   1.882  14.715  1.00  0.00     0.000 C 
BRANCH  13  14
ATOM     14  C   UNL     1      12.952   2.669  15.497  1.00  0.00     0.000 C 
BRANCH  14  15
ATOM     15  C   UNL     1      13.481   3.451  16.714  1.00  0.00     0.000 C 
BRANCH  15  16
ATOM     16  C   UNL     1      13.354   2.685  18.050  1.00  0.00     0.006 C 
BRANCH  16  17
ATOM     17  C   UNL     1      14.703   2.250  18.645  1.00  0.00     0.053 C 
BRANCH  17  18
ATOM     18  C   UNL     1      14.541   1.151  19.651  1.00  0.00     0.041 C 
ATOM     19  O   UNL     1      15.358   1.038  20.603  1.00  0.00    -0.550 OA
ATOM     20  O   UNL     1      13.499   0.241  19.528  1.00  0.00    -0.550 OA
ENDBRANCH  17  18
ENDBRANCH  16  17
ENDBRANCH  15  16
ENDBRANCH  14  15
ENDBRANCH  13  14
ENDBRANCH  12  13
ENDBRANCH  11  12
ENDBRANCH   1  11
TORSDOF 15
ENDMDL
MODEL 5
REMARK VINA RESULT:    -6.147      1.460      2.384
REMARK INTER + INTRA:         -13.299
REMARK INTER:                 -11.583
REMARK INTRA:                  -1.716
REMARK UNBOUND:                -1.761
REMARK SMILES O=C([O-])CCCCCCCCCCCCCCC(=O)[O-]
REMARK SMILES IDX 10 1 9 2 8 3 7 4 6 5 5 6 4 7 2 8 1 9 3 10 11 11 12 12 13 13
REMARK SMILES IDX 14 14 15 15 16 16 17 17 18 18 19 19 20 20
REMARK H PARENT
REMARK Flexibility Score: inf
ROOT
ATOM      1  C   UNL     1      15.330   2.575  14.424  1.00  0.00     0.000 C 
ENDROOT
BRANCH   1   2
ATOM      2  C   UNL     1      14.002   1.840  14.669  1.00  0.00     0.000 C 
BRANCH   2   3
ATOM      3  C   UNL     1      13.005   2.678  15.487  1.00  0.00     0.000 C 
BRANCH   3   4
ATOM      4  C   UNL     1      13.683   3.507  16.593  1.00  0.00     0.000 C 
BRANCH   4   5
ATOM      5  C   UNL     1      13.218   3.193  18.027  1.00  0.00     0.000 C 
BRANCH   5   6
ATOM      6  C   UNL     1      13.609   1.779  18.488  1.00  0.00     0.006 C 
BRANCH   6   7
ATOM      7  C   UNL     1      15.072   1.702  18.945  1.00  0.00     0.053 C 
BRANCH   7   8
ATOM      8  C   UNL     1      15.950   1.073  17.907  1.00  0.00     0.041 C 
ATOM      9  O   UNL     1      17.075   1.573  17.642  1.00  0.00    -0.550 OA
ATOM     10  O   UNL     1      15.537  -0.081  17.253  1.00  0.00    -0.550 OA
ENDBRANCH   7   8
ENDBRANCH   6   7
ENDBRANCH   5   6
ENDBRANCH   4   5
ENDBRANCH   3   4
ENDBRANCH   2   3
ENDBRANCH   1   2
BRANCH   1  11
ATOM     11  C   UNL     1      15.483   3.055  12.972  1.00  0.00     0.000 C 
BRANCH  11  12
ATOM     12  C   UNL     1      15.474   1.868  11.999  1.00  0.00     0.000 C 
BRANCH  12  13
ATOM     13  C   UNL     1      16.653   1.892  11.008  1.00  0.00     0.000 C 
BRANCH  13  14
ATOM     14  C   UNL     1      17.580   0.663  11.069  1.00  0.00     0.000 C 
BRANCH  14  15
ATOM     15  C   UNL     1      18.332   0.481  12.400  1.00  0.00     0.000 C 
BRANCH  15  16
ATOM     16  C   UNL     1      17.811  -0.697  13.255  1.00  0.00     0.006 C 
BRANCH  16  17
ATOM     17  C   UNL     1      17.974  -0.483  14.768  1.00  0.00     0.053 C 
BRANCH  17  18
ATOM     18  C   UNL     1      19.350  -0.847  15.238  1.00  0.00     0.041 C 
ATOM     19  O   UNL     1      20.214   0.050  15.426  1.00  0.00    -0.550 OA
ATOM     20  O   UNL     1      19.685  -2.179  15.451  1.00  0.00    -0.550 OA
ENDBRANCH  17  18
ENDBRANCH  16  17
ENDBRANCH  15  16
ENDBRANCH  14  15
ENDBRANCH  13  14
ENDBRANCH  12  13
ENDBRANCH  11  12
ENDBRANCH   1  11
TORSDOF 15
ENDMDL
MODEL 6
REMARK VINA RESULT:    -6.125      2.223      5.278
REMARK INTER + INTRA:         -13.257
REMARK INTER:                 -11.472
REMARK INTRA:                  -1.785
REMARK UNBOUND:                -1.761
REMARK SMILES O=C([O-])CCCCCCCCCCCCCCC(=O)[O-]
REMARK SMILES IDX 10 1 9 2 8 3 7 4 6 5 5 6 4 7 2 8 1 9 3 10 11 11 12 12 13 13
REMARK SMILES IDX 14 14 15 15 16 16 17 17 18 18 19 19 20 20
REMARK H PARENT
REMARK Flexibility Score: inf
ROOT
ATOM      1  C   UNL     1      15.451   0.255  20.301  1.00  0.00     0.000 C 
ENDROOT
BRANCH   1   2
ATOM      2  C   UNL     1      16.429  -0.692  19.587  1.00  0.00     0.000 C 
BRANCH   2   3
ATOM      3  C   UNL     1      17.702   0.025  19.106  1.00  0.00     0.000 C 
BRANCH   3   4
ATOM      4  C   UNL     1      17.503   0.774  17.776  1.00  0.00     0.000 C 
BRANCH   4   5
ATOM      5  C   UNL     1      16.483   0.139  16.812  1.00  0.00     0.000 C 
BRANCH   5   6
ATOM      6  C   UNL     1      17.097  -0.958  15.927  1.00  0.00     0.006 C 
BRANCH   6   7
ATOM      7  C   UNL     1      18.090  -0.389  14.904  1.00  0.00     0.053 C 
BRANCH   7   8
ATOM      8  C   UNL     1      19.504  -0.767  15.227  1.00  0.00     0.041 C 
ATOM      9  O   UNL     1      20.320   0.110  15.615  1.00  0.00    -0.550 OA
ATOM     10  O   UNL     1      19.911  -2.091  15.128  1.00  0.00    -0.550 OA
ENDBRANCH   7   8
ENDBRANCH   6   7
ENDBRANCH   5   6
ENDBRANCH   4   5
ENDBRANCH   3   4
ENDBRANCH   2   3
ENDBRANCH   1   2
BRANCH   1  11
ATOM     11  C   UNL     1      14.002   0.089  19.816  1.00  0.00     0.000 C 
BRANCH  11  12
ATOM     12  C   UNL     1      13.670   1.115  18.724  1.00  0.00     0.000 C 
BRANCH  12  13
ATOM     13  C   UNL     1      14.287   2.501  18.992  1.00  0.00     0.000 C 
BRANCH  13  14
ATOM     14  C   UNL     1      14.369   3.425  17.762  1.00  0.00     0.000 C 
BRANCH  14  15
ATOM     15  C   UNL     1      13.103   3.457  16.886  1.00  0.00     0.000 C 
BRANCH  15  16
ATOM     16  C   UNL     1      13.273   2.754  15.520  1.00  0.00     0.006 C 
BRANCH  16  17
ATOM     17  C   UNL     1      14.731   2.402  15.182  1.00  0.00     0.053 C 
BRANCH  17  18
ATOM     18  C   UNL     1      14.936   2.231  13.707  1.00  0.00     0.041 C 
ATOM     19  O   UNL     1      14.886   1.084  13.189  1.00  0.00    -0.550 OA
ATOM     20  O   UNL     1      15.202   3.336  12.908  1.00  0.00    -0.550 OA
ENDBRANCH  17  18
ENDBRANCH  16  17
ENDBRANCH  15  16
ENDBRANCH  14  15
ENDBRANCH  13  14
ENDBRANCH  12  13
ENDBRANCH  11  12
ENDBRANCH   1  11
TORSDOF 15
ENDMDL
MODEL 7
REMARK VINA RESULT:    -6.123      1.971      4.413
REMARK INTER + INTRA:         -13.253
REMARK INTER:                 -11.406
REMARK INTRA:                  -1.847
REMARK UNBOUND:                -1.761
REMARK SMILES O=C([O-])CCCCCCCCCCCCCCC(=O)[O-]
REMARK SMILES IDX 10 1 9 2 8 3 7 4 6 5 5 6 4 7 2 8 1 9 3 10 11 11 12 12 13 13
REMARK SMILES IDX 14 14 15 15 16 16 17 17 18 18 19 19 20 20
REMARK H PARENT
REMARK Flexibility Score: inf
ROOT
ATOM      1  C   UNL     1      14.264   0.668  18.436  1.00  0.00     0.000 C 
ENDROOT
BRANCH   1   2
ATOM      2  C   UNL     1      15.248  -0.320  19.085  1.00  0.00     0.000 C 
BRANCH   2   3
ATOM      3  C   UNL     1      16.495   0.378  19.654  1.00  0.00     0.000 C 
BRANCH   3   4
ATOM      4  C   UNL     1      17.729   0.238  18.743  1.00  0.00     0.000 C 
BRANCH   4   5
ATOM      5  C   UNL     1      17.754   1.178  17.524  1.00  0.00     0.000 C 
BRANCH   5   6
ATOM      6  C   UNL     1      17.517   0.442  16.194  1.00  0.00     0.006 C 
BRANCH   6   7
ATOM      7  C   UNL     1      17.975  -1.022  16.252  1.00  0.00     0.053 C 
BRANCH   7   8
ATOM      8  C   UNL     1      19.336  -1.206  15.654  1.00  0.00     0.041 C 
ATOM      9  O   UNL     1      19.819  -2.362  15.525  1.00  0.00    -0.550 OA
ATOM     10  O   UNL     1      20.057  -0.104  15.212  1.00  0.00    -0.550 OA
ENDBRANCH   7   8
ENDBRANCH   6   7
ENDBRANCH   5   6
ENDBRANCH   4   5
ENDBRANCH   3   4
ENDBRANCH   2   3
ENDBRANCH   1   2
BRANCH   1  11
ATOM     11  C   UNL     1      14.233   2.029  19.147  1.00  0.00     0.000 C 
BRANCH  11  12
ATOM     12  C   UNL     1      14.342   3.178  18.134  1.00  0.00     0.000 C 
BRANCH  12  13
ATOM     13  C   UNL     1      13.057   3.375  17.307  1.00  0.00     0.000 C 
BRANCH  13  14
ATOM     14  C   UNL     1      13.153   2.922  15.838  1.00  0.00     0.000 C 
BRANCH  14  15
ATOM     15  C   UNL     1      14.582   2.642  15.336  1.00  0.00     0.000 C 
BRANCH  15  16
ATOM     16  C   UNL     1      14.631   1.914  13.973  1.00  0.00     0.006 C 
BRANCH  16  17
ATOM     17  C   UNL     1      15.451   2.655  12.905  1.00  0.00     0.053 C 
BRANCH  17  18
ATOM     18  C   UNL     1      16.279   1.714  12.084  1.00  0.00     0.041 C 
ATOM     19  O   UNL     1      16.316   1.830  10.830  1.00  0.00    -0.550 OA
ATOM     20  O   UNL     1      16.997   0.697  12.702  1.00  0.00    -0.550 OA
ENDBRANCH  17  18
ENDBRANCH  16  17
ENDBRANCH  15  16
ENDBRANCH  14  15
ENDBRANCH  13  14
ENDBRANCH  12  13
ENDBRANCH  11  12
ENDBRANCH   1  11
TORSDOF 15
ENDMDL
MODEL 8
REMARK VINA RESULT:    -6.108      1.849      5.597
REMARK INTER + INTRA:         -13.225
REMARK INTER:                 -11.466
REMARK INTRA:                  -1.759
REMARK UNBOUND:                -1.761
REMARK SMILES O=C([O-])CCCCCCCCCCCCCCC(=O)[O-]
REMARK SMILES IDX 10 1 9 2 8 3 7 4 6 5 5 6 4 7 2 8 1 9 3 10 11 11 12 12 13 13
REMARK SMILES IDX 14 14 15 15 16 16 17 17 18 18 19 19 20 20
REMARK H PARENT
REMARK Flexibility Score: inf
ROOT
ATOM      1  C   UNL     1      14.017   2.672  18.075  1.00  0.00     0.000 C 
ENDROOT
BRANCH   1   2
ATOM      2  C   UNL     1      13.273   3.437  16.968  1.00  0.00     0.000 C 
BRANCH   2   3
ATOM      3  C   UNL     1      13.278   2.685  15.626  1.00  0.00     0.000 C 
BRANCH   3   4
ATOM      4  C   UNL     1      14.675   2.612  14.983  1.00  0.00     0.000 C 
BRANCH   4   5
ATOM      5  C   UNL     1      14.743   1.848  13.648  1.00  0.00     0.000 C 
BRANCH   5   6
ATOM      6  C   UNL     1      15.821   2.396  12.697  1.00  0.00     0.006 C 
BRANCH   6   7
ATOM      7  C   UNL     1      15.895   1.601  11.386  1.00  0.00     0.053 C 
BRANCH   7   8
ATOM      8  C   UNL     1      17.254   1.006  11.170  1.00  0.00     0.041 C 
ATOM      9  O   UNL     1      17.755   0.980  10.015  1.00  0.00    -0.550 OA
ATOM     10  O   UNL     1      17.976   0.509  12.247  1.00  0.00    -0.550 OA
ENDBRANCH   7   8
ENDBRANCH   6   7
ENDBRANCH   5   6
ENDBRANCH   4   5
ENDBRANCH   3   4
ENDBRANCH   2   3
ENDBRANCH   1   2
BRANCH   1  11
ATOM     11  C   UNL     1      13.624   1.188  18.140  1.00  0.00     0.000 C 
BRANCH  11  12
ATOM     12  C   UNL     1      14.125   0.545  19.440  1.00  0.00     0.000 C 
BRANCH  12  13
ATOM     13  C   UNL     1      15.535   1.020  19.842  1.00  0.00     0.000 C 
BRANCH  13  14
ATOM     14  C   UNL     1      16.672   0.036  19.510  1.00  0.00     0.000 C 
BRANCH  14  15
ATOM     15  C   UNL     1      17.728   0.571  18.524  1.00  0.00     0.000 C 
BRANCH  15  16
ATOM     16  C   UNL     1      17.176   0.846  17.107  1.00  0.00     0.006 C 
BRANCH  16  17
ATOM     17  C   UNL     1      16.603  -0.401  16.414  1.00  0.00     0.053 C 
BRANCH  17  18
ATOM     18  C   UNL     1      17.616  -1.502  16.320  1.00  0.00     0.041 C 
ATOM     19  O   UNL     1      17.449  -2.573  16.961  1.00  0.00    -0.550 OA
ATOM     20  O   UNL     1      18.754  -1.338  15.540  1.00  0.00    -0.550 OA
ENDBRANCH  17  18
ENDBRANCH  16  17
ENDBRANCH  15  16
ENDBRANCH  14  15
ENDBRANCH  13  14
ENDBRANCH  12  13
ENDBRANCH  11  12
ENDBRANCH   1  11
TORSDOF 15
ENDMDL
MODEL 9
REMARK VINA RESULT:    -6.092      2.531      4.570
REMARK INTER + INTRA:         -13.195
REMARK INTER:                 -11.231
REMARK INTRA:                  -1.964
REMARK UNBOUND:                -1.761
REMARK SMILES O=C([O-])CCCCCCCCCCCCCCC(=O)[O-]
REMARK SMILES IDX 10 1 9 2 8 3 7 4 6 5 5 6 4 7 2 8 1 9 3 10 11 11 12 12 13 13
REMARK SMILES IDX 14 14 15 15 16 16 17 17 18 18 19 19 20 20
REMARK H PARENT
REMARK Flexibility Score: inf
ROOT
ATOM      1  C   UNL     1      17.384  -2.251  17.317  1.00  0.00     0.000 C 
ENDROOT
BRANCH   1   2
ATOM      2  C   UNL     1      17.287  -1.864  18.802  1.00  0.00     0.000 C 
BRANCH   2   3
ATOM      3  C   UNL     1      17.357  -0.344  19.021  1.00  0.00     0.000 C 
BRANCH   3   4
ATOM      4  C   UNL     1      16.192   0.194  19.872  1.00  0.00     0.000 C 
BRANCH   4   5
ATOM      5  C   UNL     1      14.799  -0.342  19.491  1.00  0.00     0.000 C 
BRANCH   5   6
ATOM      6  C   UNL     1      14.033   0.598  18.545  1.00  0.00     0.006 C 
BRANCH   6   7
ATOM      7  C   UNL     1      14.678   1.988  18.462  1.00  0.00     0.053 C 
BRANCH   7   8
ATOM      8  C   UNL     1      13.698   3.034  18.027  1.00  0.00     0.041 C 
ATOM      9  O   UNL     1      13.609   4.120  18.659  1.00  0.00    -0.550 OA
ATOM     10  O   UNL     1      12.903   2.821  16.908  1.00  0.00    -0.550 OA
ENDBRANCH   7   8
ENDBRANCH   6   7
ENDBRANCH   5   6
ENDBRANCH   4   5
ENDBRANCH   3   4
ENDBRANCH   2   3
ENDBRANCH   1   2
BRANCH   1  11
ATOM     11  C   UNL     1      16.273  -1.619  16.464  1.00  0.00     0.000 C 
BRANCH  11  12
ATOM     12  C   UNL     1      16.867  -0.730  15.363  1.00  0.00     0.000 C 
BRANCH  12  13
ATOM     13  C   UNL     1      16.464   0.751  15.502  1.00  0.00     0.000 C 
BRANCH  13  14
ATOM     14  C   UNL     1      15.199   1.157  14.723  1.00  0.00     0.000 C 
BRANCH  14  15
ATOM     15  C   UNL     1      15.155   2.630  14.275  1.00  0.00     0.000 C 
BRANCH  15  16
ATOM     16  C   UNL     1      15.472   2.835  12.776  1.00  0.00     0.006 C 
BRANCH  16  17
ATOM     17  C   UNL     1      15.719   1.525  12.011  1.00  0.00     0.053 C 
BRANCH  17  18
ATOM     18  C   UNL     1      17.158   1.369  11.622  1.00  0.00     0.041 C 
ATOM     19  O   UNL     1      17.713   2.228  10.886  1.00  0.00    -0.550 OA
ATOM     20  O   UNL     1      17.882   0.266  12.058  1.00  0.00    -0.550 OA
ENDBRANCH  17  18
ENDBRANCH  16  17
ENDBRANCH  15  16
ENDBRANCH  14  15
ENDBRANCH  13  14
ENDBRANCH  12  13
ENDBRANCH  11  12
ENDBRANCH   1  11
TORSDOF 15
ENDMDL
