MODEL 1
REMARK VINA RESULT:    -6.267      0.000      0.000
REMARK INTER + INTRA:          -8.217
REMARK INTER:                  -8.098
REMARK INTRA:                  -0.119
REMARK UNBOUND:                -0.119
REMARK SMILES C=CC(=O)CCCCC
REMARK SMILES IDX 6 1 7 2 8 3 9 4 5 5 3 6 4 7 2 8 1 9
REMARK H PARENT
REMARK Flexibility Score: inf
ROOT
ATOM      1  C   UNL     1      11.117  20.848  23.439  1.00  0.00     0.008 C 
ENDROOT
BRANCH   1   2
ATOM      2  C   UNL     1      12.210  20.892  24.518  1.00  0.00     0.000 C 
BRANCH   2   3
ATOM      3  C   UNL     1      13.321  21.901  24.191  1.00  0.00    -0.003 C 
ATOM      4  C   UNL     1      13.292  23.129  25.100  1.00  0.00     0.004 C 
ENDBRANCH   2   3
ENDBRANCH   1   2
BRANCH   1   5
ATOM      5  C   UNL     1      10.085  19.752  23.748  1.00  0.00     0.080 C 
BRANCH   5   6
ATOM      6  C   UNL     1       8.783  20.301  24.288  1.00  0.00     0.155 C 
ATOM      7  O   UNL     1       8.753  21.441  24.826  1.00  0.00    -0.295 OA
BRANCH   6   8
ATOM      8  C   UNL     1       7.521  19.538  24.202  1.00  0.00     0.039 C 
ATOM      9  C   UNL     1       7.293  18.412  24.880  1.00  0.00     0.012 C 
ENDBRANCH   6   8
ENDBRANCH   5   6
ENDBRANCH   1   5
TORSDOF 5
ENDMDL
MODEL 2
REMARK VINA RESULT:    -6.087      1.520      4.944
REMARK INTER + INTRA:          -7.985
REMARK INTER:                  -7.693
REMARK INTRA:                  -0.291
REMARK UNBOUND:                -0.119
REMARK SMILES C=CC(=O)CCCCC
REMARK SMILES IDX 6 1 7 2 8 3 9 4 5 5 3 6 4 7 2 8 1 9
REMARK H PARENT
REMARK Flexibility Score: inf
ROOT
ATOM      1  C   UNL     1       9.798  21.795  24.134  1.00  0.00     0.008 C 
ENDROOT
BRANCH   1   2
ATOM      2  C   UNL     1       8.819  20.847  24.843  1.00  0.00     0.000 C 
BRANCH   2   3
ATOM      3  C   UNL     1       8.750  19.465  24.177  1.00  0.00    -0.003 C 
ATOM      4  C   UNL     1       7.495  18.683  24.563  1.00  0.00     0.004 C 
ENDBRANCH   2   3
ENDBRANCH   1   2
BRANCH   1   5
ATOM      5  C   UNL     1      10.884  21.005  23.388  1.00  0.00     0.080 C 
BRANCH   5   6
ATOM      6  C   UNL     1      12.181  20.908  24.160  1.00  0.00     0.155 C 
ATOM      7  O   UNL     1      12.423  19.889  24.864  1.00  0.00    -0.295 OA
BRANCH   6   8
ATOM      8  C   UNL     1      13.196  21.980  24.117  1.00  0.00     0.039 C 
ATOM      9  C   UNL     1      13.261  22.969  25.010  1.00  0.00     0.012 C 
ENDBRANCH   6   8
ENDBRANCH   5   6
ENDBRANCH   1   5
TORSDOF 5
ENDMDL
MODEL 3
REMARK VINA RESULT:    -3.566     12.181     12.953
REMARK INTER + INTRA:          -4.727
REMARK INTER:                  -4.505
REMARK INTRA:                  -0.222
REMARK UNBOUND:                -0.119
REMARK SMILES C=CC(=O)CCCCC
REMARK SMILES IDX 6 1 7 2 8 3 9 4 5 5 3 6 4 7 2 8 1 9
REMARK H PARENT
REMARK Flexibility Score: inf
ROOT
ATOM      1  C   UNL     1      15.832  12.540  15.848  1.00  0.00     0.008 C 
ENDROOT
BRANCH   1   2
ATOM      2  C   UNL     1      16.019  11.258  15.021  1.00  0.00     0.000 C 
BRANCH   2   3
ATOM      3  C   UNL     1      17.497  10.935  14.762  1.00  0.00    -0.003 C 
ATOM      4  C   UNL     1      18.413  12.141  14.973  1.00  0.00     0.004 C 
ENDBRANCH   2   3
ENDBRANCH   1   2
BRANCH   1   5
ATOM      5  C   UNL     1      14.489  12.520  16.596  1.00  0.00     0.080 C 
BRANCH   5   6
ATOM      6  C   UNL     1      13.443  13.404  15.956  1.00  0.00     0.155 C 
ATOM      7  O   UNL     1      12.267  12.978  15.795  1.00  0.00    -0.295 OA
BRANCH   6   8
ATOM      8  C   UNL     1      13.752  14.778  15.507  1.00  0.00     0.039 C 
ATOM      9  C   UNL     1      13.902  15.809  16.339  1.00  0.00     0.012 C 
ENDBRANCH   6   8
ENDBRANCH   5   6
ENDBRANCH   1   5
TORSDOF 5
ENDMDL
MODEL 4
REMARK VINA RESULT:    -3.466     11.561     12.028
REMARK INTER + INTRA:          -4.599
REMARK INTER:                  -4.033
REMARK INTRA:                  -0.565
REMARK UNBOUND:                -0.119
REMARK SMILES C=CC(=O)CCCCC
REMARK SMILES IDX 6 1 7 2 8 3 9 4 5 5 3 6 4 7 2 8 1 9
REMARK H PARENT
REMARK Flexibility Score: inf
ROOT
ATOM      1  C   UNL     1       4.701  29.975  17.081  1.00  0.00     0.008 C 
ENDROOT
BRANCH   1   2
ATOM      2  C   UNL     1       5.805  29.983  18.150  1.00  0.00     0.000 C 
BRANCH   2   3
ATOM      3  C   UNL     1       6.981  30.897  17.777  1.00  0.00    -0.003 C 
ATOM      4  C   UNL     1       8.148  30.134  17.151  1.00  0.00     0.004 C 
ENDBRANCH   2   3
ENDBRANCH   1   2
BRANCH   1   5
ATOM      5  C   UNL     1       4.241  28.540  16.778  1.00  0.00     0.080 C 
BRANCH   5   6
ATOM      6  C   UNL     1       5.316  27.701  16.123  1.00  0.00     0.155 C 
ATOM      7  O   UNL     1       5.728  27.991  14.967  1.00  0.00    -0.295 OA
BRANCH   6   8
ATOM      8  C   UNL     1       5.915  26.534  16.802  1.00  0.00     0.039 C 
ATOM      9  C   UNL     1       7.141  26.536  17.327  1.00  0.00     0.012 C 
ENDBRANCH   6   8
ENDBRANCH   5   6
ENDBRANCH   1   5
TORSDOF 5
ENDMDL
MODEL 5
REMARK VINA RESULT:    -3.436     12.203     13.403
REMARK INTER + INTRA:          -4.560
REMARK INTER:                  -4.308
REMARK INTRA:                  -0.252
REMARK UNBOUND:                -0.119
REMARK SMILES C=CC(=O)CCCCC
REMARK SMILES IDX 6 1 7 2 8 3 9 4 5 5 3 6 4 7 2 8 1 9
REMARK H PARENT
REMARK Flexibility Score: inf
ROOT
ATOM      1  C   UNL     1      13.874  14.241  16.220  1.00  0.00     0.008 C 
ENDROOT
BRANCH   1   2
ATOM      2  C   UNL     1      12.880  14.079  15.059  1.00  0.00     0.000 C 
BRANCH   2   3
ATOM      3  C   UNL     1      12.004  12.826  15.203  1.00  0.00    -0.003 C 
ATOM      4  C   UNL     1      10.742  12.883  14.342  1.00  0.00     0.004 C 
ENDBRANCH   2   3
ENDBRANCH   1   2
BRANCH   1   5
ATOM      5  C   UNL     1      14.499  12.889  16.599  1.00  0.00     0.080 C 
BRANCH   5   6
ATOM      6  C   UNL     1      15.782  12.601  15.852  1.00  0.00     0.155 C 
ATOM      7  O   UNL     1      16.724  13.440  15.866  1.00  0.00    -0.295 OA
BRANCH   6   8
ATOM      8  C   UNL     1      15.979  11.348  15.095  1.00  0.00     0.039 C 
ATOM      9  C   UNL     1      17.155  10.966  14.596  1.00  0.00     0.012 C 
ENDBRANCH   6   8
ENDBRANCH   5   6
ENDBRANCH   1   5
TORSDOF 5
ENDMDL
MODEL 6
REMARK VINA RESULT:    -3.412     11.772     12.589
REMARK INTER + INTRA:          -4.529
REMARK INTER:                  -4.143
REMARK INTRA:                  -0.386
REMARK UNBOUND:                -0.119
REMARK SMILES C=CC(=O)CCCCC
REMARK SMILES IDX 6 1 7 2 8 3 9 4 5 5 3 6 4 7 2 8 1 9
REMARK H PARENT
REMARK Flexibility Score: inf
ROOT
ATOM      1  C   UNL     1       6.326  30.493  17.777  1.00  0.00     0.008 C 
ENDROOT
BRANCH   1   2
ATOM      2  C   UNL     1       5.504  31.125  16.642  1.00  0.00     0.000 C 
BRANCH   2   3
ATOM      3  C   UNL     1       4.053  30.623  16.615  1.00  0.00    -0.003 C 
ATOM      4  C   UNL     1       3.924  29.160  17.039  1.00  0.00     0.004 C 
ENDBRANCH   2   3
ENDBRANCH   1   2
BRANCH   1   5
ATOM      5  C   UNL     1       7.751  30.167  17.306  1.00  0.00     0.080 C 
BRANCH   5   6
ATOM      6  C   UNL     1       7.879  28.774  16.731  1.00  0.00     0.155 C 
ATOM      7  O   UNL     1       8.574  28.578  15.697  1.00  0.00    -0.295 OA
BRANCH   6   8
ATOM      8  C   UNL     1       7.211  27.611  17.350  1.00  0.00     0.039 C 
ATOM      9  C   UNL     1       7.369  26.357  16.924  1.00  0.00     0.012 C 
ENDBRANCH   6   8
ENDBRANCH   5   6
ENDBRANCH   1   5
TORSDOF 5
ENDMDL
MODEL 7
REMARK VINA RESULT:    -3.367     12.248     13.351
REMARK INTER + INTRA:          -4.470
REMARK INTER:                  -4.175
REMARK INTRA:                  -0.296
REMARK UNBOUND:                -0.119
REMARK SMILES C=CC(=O)CCCCC
REMARK SMILES IDX 6 1 7 2 8 3 9 4 5 5 3 6 4 7 2 8 1 9
REMARK H PARENT
REMARK Flexibility Score: inf
ROOT
ATOM      1  C   UNL     1       6.011  30.692  17.835  1.00  0.00     0.008 C 
ENDROOT
BRANCH   1   2
ATOM      2  C   UNL     1       5.265  31.065  16.545  1.00  0.00     0.000 C 
BRANCH   2   3
ATOM      3  C   UNL     1       3.911  30.351  16.419  1.00  0.00    -0.003 C 
ATOM      4  C   UNL     1       3.937  28.929  16.980  1.00  0.00     0.004 C 
ENDBRANCH   2   3
ENDBRANCH   1   2
BRANCH   1   5
ATOM      5  C   UNL     1       7.532  30.791  17.637  1.00  0.00     0.080 C 
BRANCH   5   6
ATOM      6  C   UNL     1       8.125  29.559  16.991  1.00  0.00     0.155 C 
ATOM      7  O   UNL     1       7.573  28.436  17.146  1.00  0.00    -0.295 OA
BRANCH   6   8
ATOM      8  C   UNL     1       9.349  29.625  16.166  1.00  0.00     0.039 C 
ATOM      9  C   UNL     1       9.893  30.767  15.744  1.00  0.00     0.012 C 
ENDBRANCH   6   8
ENDBRANCH   5   6
ENDBRANCH   1   5
TORSDOF 5
ENDMDL
MODEL 8
REMARK VINA RESULT:    -3.319     11.711     12.685
REMARK INTER + INTRA:          -4.409
REMARK INTER:                  -3.875
REMARK INTRA:                  -0.534
REMARK UNBOUND:                -0.119
REMARK SMILES C=CC(=O)CCCCC
REMARK SMILES IDX 6 1 7 2 8 3 9 4 5 5 3 6 4 7 2 8 1 9
REMARK H PARENT
REMARK Flexibility Score: inf
ROOT
ATOM      1  C   UNL     1       5.861  29.418  17.792  1.00  0.00     0.008 C 
ENDROOT
BRANCH   1   2
ATOM      2  C   UNL     1       5.774  28.113  16.986  1.00  0.00     0.000 C 
BRANCH   2   3
ATOM      3  C   UNL     1       6.854  27.098  17.388  1.00  0.00    -0.003 C 
ATOM      4  C   UNL     1       7.466  26.377  16.187  1.00  0.00     0.004 C 
ENDBRANCH   2   3
ENDBRANCH   1   2
BRANCH   1   5
ATOM      5  C   UNL     1       6.108  30.620  16.867  1.00  0.00     0.080 C 
BRANCH   5   6
ATOM      6  C   UNL     1       7.331  30.451  15.993  1.00  0.00     0.155 C 
ATOM      7  O   UNL     1       7.220  30.489  14.737  1.00  0.00    -0.295 OA
BRANCH   6   8
ATOM      8  C   UNL     1       8.676  30.244  16.567  1.00  0.00     0.039 C 
ATOM      9  C   UNL     1       9.653  29.591  15.938  1.00  0.00     0.012 C 
ENDBRANCH   6   8
ENDBRANCH   5   6
ENDBRANCH   1   5
TORSDOF 5
ENDMDL
MODEL 9
REMARK VINA RESULT:    -3.277     12.108     13.211
REMARK INTER + INTRA:          -4.354
REMARK INTER:                  -3.798
REMARK INTRA:                  -0.556
REMARK UNBOUND:                -0.119
REMARK SMILES C=CC(=O)CCCCC
REMARK SMILES IDX 6 1 7 2 8 3 9 4 5 5 3 6 4 7 2 8 1 9
REMARK H PARENT
REMARK Flexibility Score: inf
ROOT
ATOM      1  C   UNL     1      14.609  12.586  16.585  1.00  0.00     0.008 C 
ENDROOT
BRANCH   1   2
ATOM      2  C   UNL     1      13.281  13.171  16.078  1.00  0.00     0.000 C 
BRANCH   2   3
ATOM      3  C   UNL     1      13.467  14.506  15.342  1.00  0.00    -0.003 C 
ATOM      4  C   UNL     1      13.824  15.657  16.283  1.00  0.00     0.004 C 
ENDBRANCH   2   3
ENDBRANCH   1   2
BRANCH   1   5
ATOM      5  C   UNL     1      15.399  11.945  15.434  1.00  0.00     0.080 C 
BRANCH   5   6
ATOM      6  C   UNL     1      16.788  12.522  15.277  1.00  0.00     0.155 C 
ATOM      7  O   UNL     1      17.668  11.886  14.634  1.00  0.00    -0.295 OA
BRANCH   6   8
ATOM      8  C   UNL     1      17.159  13.829  15.858  1.00  0.00     0.039 C 
ATOM      9  C   UNL     1      17.447  14.905  15.125  1.00  0.00     0.012 C 
ENDBRANCH   6   8
ENDBRANCH   5   6
ENDBRANCH   1   5
TORSDOF 5
ENDMDL
