MODEL 1
REMARK VINA RESULT:    -4.943      0.000      0.000
REMARK INTER + INTRA:          -7.776
REMARK INTER:                  -6.965
REMARK INTRA:                  -0.811
REMARK UNBOUND:                -0.811
REMARK SMILES C=CC(=C)CCC=C(C)CCC=C(C)C
REMARK SMILES IDX 8 1 7 2 9 3 10 4 11 5 12 6 14 7 13 8 15 9 6 10 5 11 3 12
REMARK SMILES IDX 4 13 2 14 1 15
REMARK H PARENT
REMARK Flexibility Score: inf
ROOT
ATOM      1  C   UNL     1      20.373  63.354  15.137  1.00  0.00    -0.077 C 
ATOM      2  C   UNL     1      21.726  63.325  15.101  1.00  0.00    -0.028 C 
ATOM      3  C   UNL     1      19.533  62.750  14.037  1.00  0.00     0.039 C 
ENDROOT
BRANCH   1   4
ATOM      4  C   UNL     1      19.686  63.991  16.325  1.00  0.00     0.034 C 
BRANCH   4   5
ATOM      5  C   UNL     1      18.806  65.165  15.880  1.00  0.00     0.032 C 
BRANCH   5   6
ATOM      6  C   UNL     1      17.502  65.174  16.637  1.00  0.00    -0.028 C 
ATOM      7  C   UNL     1      16.127  64.723  14.592  1.00  0.00     0.039 C 
ATOM      8  C   UNL     1      16.288  65.009  16.065  1.00  0.00    -0.080 C 
ATOM      9  C   UNL     1      15.045  65.062  16.916  1.00  0.00     0.039 C 
ENDBRANCH   5   6
ENDBRANCH   4   5
ENDBRANCH   1   4
BRANCH   2  10
ATOM     10  C   UNL     1      22.542  62.747  13.972  1.00  0.00     0.032 C 
BRANCH  10  11
ATOM     11  C   UNL     1      24.038  62.772  14.310  1.00  0.00     0.039 C 
BRANCH  11  12
ATOM     12  C   UNL     1      24.545  61.377  14.608  1.00  0.00    -0.055 C 
ATOM     13  C   UNL     1      24.787  60.543  13.590  1.00  0.00     0.012 C 
BRANCH  12  14
ATOM     14  C   UNL     1      24.828  60.913  15.991  1.00  0.00    -0.005 C 
ATOM     15  C   UNL     1      24.297  61.460  17.084  1.00  0.00     0.009 C 
ENDBRANCH  12  14
ENDBRANCH  11  12
ENDBRANCH  10  11
ENDBRANCH   2  10
TORSDOF 7
ENDMDL
MODEL 2
REMARK VINA RESULT:    -4.821      1.079      7.158
REMARK INTER + INTRA:          -7.604
REMARK INTER:                  -6.623
REMARK INTRA:                  -0.981
REMARK UNBOUND:                -0.811
REMARK SMILES C=CC(=C)CCC=C(C)CCC=C(C)C
REMARK SMILES IDX 8 1 7 2 9 3 10 4 11 5 12 6 14 7 13 8 15 9 6 10 5 11 3 12
REMARK SMILES IDX 4 13 2 14 1 15
REMARK H PARENT
REMARK Flexibility Score: inf
ROOT
ATOM      1  C   UNL     1      20.466  63.224  14.664  1.00  0.00    -0.077 C 
ATOM      2  C   UNL     1      20.421  63.856  15.860  1.00  0.00    -0.028 C 
ATOM      3  C   UNL     1      19.223  62.678  14.004  1.00  0.00     0.039 C 
ENDROOT
BRANCH   1   4
ATOM      4  C   UNL     1      21.798  63.082  13.962  1.00  0.00     0.034 C 
BRANCH   4   5
ATOM      5  C   UNL     1      22.944  63.549  14.867  1.00  0.00     0.032 C 
BRANCH   5   6
ATOM      6  C   UNL     1      23.808  62.386  15.282  1.00  0.00    -0.028 C 
ATOM      7  C   UNL     1      23.105  62.515  17.683  1.00  0.00     0.039 C 
ATOM      8  C   UNL     1      23.915  61.932  16.551  1.00  0.00    -0.080 C 
ATOM      9  C   UNL     1      24.830  60.774  16.858  1.00  0.00     0.039 C 
ENDBRANCH   5   6
ENDBRANCH   4   5
ENDBRANCH   1   4
BRANCH   2  10
ATOM     10  C   UNL     1      19.172  64.048  16.683  1.00  0.00     0.032 C 
BRANCH  10  11
ATOM     11  C   UNL     1      18.435  65.327  16.268  1.00  0.00     0.039 C 
BRANCH  11  12
ATOM     12  C   UNL     1      16.948  65.074  16.143  1.00  0.00    -0.055 C 
ATOM     13  C   UNL     1      16.202  65.015  17.253  1.00  0.00     0.012 C 
BRANCH  12  14
ATOM     14  C   UNL     1      16.274  64.934  14.825  1.00  0.00    -0.005 C 
ATOM     15  C   UNL     1      14.955  64.994  14.652  1.00  0.00     0.009 C 
ENDBRANCH  12  14
ENDBRANCH  11  12
ENDBRANCH  10  11
ENDBRANCH   2  10
TORSDOF 7
ENDMDL
MODEL 3
REMARK VINA RESULT:    -4.812      1.531      7.446
REMARK INTER + INTRA:          -7.592
REMARK INTER:                  -6.586
REMARK INTRA:                  -1.006
REMARK UNBOUND:                -0.811
REMARK SMILES C=CC(=C)CCC=C(C)CCC=C(C)C
REMARK SMILES IDX 8 1 7 2 9 3 10 4 11 5 12 6 14 7 13 8 15 9 6 10 5 11 3 12
REMARK SMILES IDX 4 13 2 14 1 15
REMARK H PARENT
REMARK Flexibility Score: inf
ROOT
ATOM      1  C   UNL     1      19.554  64.137  15.477  1.00  0.00    -0.077 C 
ATOM      2  C   UNL     1      18.609  64.578  14.615  1.00  0.00    -0.028 C 
ATOM      3  C   UNL     1      19.477  64.418  16.959  1.00  0.00     0.039 C 
ENDROOT
BRANCH   1   4
ATOM      4  C   UNL     1      20.708  63.318  14.941  1.00  0.00     0.034 C 
BRANCH   4   5
ATOM      5  C   UNL     1      22.049  63.898  15.406  1.00  0.00     0.032 C 
BRANCH   5   6
ATOM      6  C   UNL     1      23.053  62.800  15.647  1.00  0.00    -0.028 C 
ATOM      7  C   UNL     1      22.619  62.728  18.114  1.00  0.00     0.039 C 
ATOM      8  C   UNL     1      23.342  62.287  16.865  1.00  0.00    -0.080 C 
ATOM      9  C   UNL     1      24.384  61.205  16.994  1.00  0.00     0.039 C 
ENDBRANCH   5   6
ENDBRANCH   4   5
ENDBRANCH   1   4
BRANCH   2  10
ATOM     10  C   UNL     1      17.421  65.423  15.003  1.00  0.00     0.032 C 
BRANCH  10  11
ATOM     11  C   UNL     1      16.108  64.685  14.715  1.00  0.00     0.039 C 
BRANCH  11  12
ATOM     12  C   UNL     1      15.205  64.699  15.929  1.00  0.00    -0.055 C 
ATOM     13  C   UNL     1      13.878  64.669  15.754  1.00  0.00     0.012 C 
BRANCH  12  14
ATOM     14  C   UNL     1      15.740  64.698  17.316  1.00  0.00    -0.005 C 
ATOM     15  C   UNL     1      15.582  65.703  18.176  1.00  0.00     0.009 C 
ENDBRANCH  12  14
ENDBRANCH  11  12
ENDBRANCH  10  11
ENDBRANCH   2  10
TORSDOF 7
ENDMDL
MODEL 4
REMARK VINA RESULT:    -4.735      1.096      1.996
REMARK INTER + INTRA:          -7.483
REMARK INTER:                  -6.300
REMARK INTRA:                  -1.184
REMARK UNBOUND:                -0.811
REMARK SMILES C=CC(=C)CCC=C(C)CCC=C(C)C
REMARK SMILES IDX 8 1 7 2 9 3 10 4 11 5 12 6 14 7 13 8 15 9 6 10 5 11 3 12
REMARK SMILES IDX 4 13 2 14 1 15
REMARK H PARENT
REMARK Flexibility Score: inf
ROOT
ATOM      1  C   UNL     1      19.638  64.179  16.945  1.00  0.00    -0.077 C 
ATOM      2  C   UNL     1      19.707  64.169  15.593  1.00  0.00    -0.028 C 
ATOM      3  C   UNL     1      20.322  63.129  17.787  1.00  0.00     0.039 C 
ENDROOT
BRANCH   1   4
ATOM      4  C   UNL     1      18.871  65.289  17.629  1.00  0.00     0.034 C 
BRANCH   4   5
ATOM      5  C   UNL     1      17.928  65.988  16.643  1.00  0.00     0.032 C 
BRANCH   5   6
ATOM      6  C   UNL     1      16.495  65.601  16.904  1.00  0.00    -0.028 C 
ATOM      7  C   UNL     1      16.156  64.683  14.597  1.00  0.00     0.039 C 
ATOM      8  C   UNL     1      15.677  65.043  15.983  1.00  0.00    -0.080 C 
ATOM      9  C   UNL     1      14.251  64.719  16.346  1.00  0.00     0.039 C 
ENDBRANCH   5   6
ENDBRANCH   4   5
ENDBRANCH   1   4
BRANCH   2  10
ATOM     10  C   UNL     1      20.413  63.114  14.779  1.00  0.00     0.032 C 
BRANCH  10  11
ATOM     11  C   UNL     1      21.734  63.651  14.215  1.00  0.00     0.039 C 
BRANCH  11  12
ATOM     12  C   UNL     1      22.903  62.824  14.704  1.00  0.00    -0.055 C 
ATOM     13  C   UNL     1      23.489  61.964  13.862  1.00  0.00     0.012 C 
BRANCH  12  14
ATOM     14  C   UNL     1      23.456  62.963  16.077  1.00  0.00    -0.005 C 
ATOM     15  C   UNL     1      23.833  61.936  16.837  1.00  0.00     0.009 C 
ENDBRANCH  12  14
ENDBRANCH  11  12
ENDBRANCH  10  11
ENDBRANCH   2  10
TORSDOF 7
ENDMDL
MODEL 5
REMARK VINA RESULT:    -4.633      1.623      6.262
REMARK INTER + INTRA:          -7.340
REMARK INTER:                  -5.449
REMARK INTRA:                  -1.892
REMARK UNBOUND:                -0.811
REMARK SMILES C=CC(=C)CCC=C(C)CCC=C(C)C
REMARK SMILES IDX 8 1 7 2 9 3 10 4 11 5 12 6 14 7 13 8 15 9 6 10 5 11 3 12
REMARK SMILES IDX 4 13 2 14 1 15
REMARK H PARENT
REMARK Flexibility Score: inf
ROOT
ATOM      1  C   UNL     1      21.614  63.486  17.446  1.00  0.00    -0.077 C 
ATOM      2  C   UNL     1      21.808  64.661  16.801  1.00  0.00    -0.028 C 
ATOM      3  C   UNL     1      20.271  63.102  18.018  1.00  0.00     0.039 C 
ENDROOT
BRANCH   1   4
ATOM      4  C   UNL     1      22.775  62.524  17.578  1.00  0.00     0.034 C 
BRANCH   4   5
ATOM      5  C   UNL     1      23.947  62.962  16.692  1.00  0.00     0.032 C 
BRANCH   5   6
ATOM      6  C   UNL     1      24.260  61.909  15.659  1.00  0.00    -0.028 C 
ATOM      7  C   UNL     1      23.356  63.276  13.763  1.00  0.00     0.039 C 
ATOM      8  C   UNL     1      23.969  62.025  14.343  1.00  0.00    -0.080 C 
ATOM      9  C   UNL     1      24.305  60.898  13.400  1.00  0.00     0.039 C 
ENDBRANCH   5   6
ENDBRANCH   4   5
ENDBRANCH   1   4
BRANCH   2  10
ATOM     10  C   UNL     1      20.752  65.722  16.618  1.00  0.00     0.032 C 
BRANCH  10  11
ATOM     11  C   UNL     1      20.330  65.826  15.148  1.00  0.00     0.039 C 
BRANCH  11  12
ATOM     12  C   UNL     1      19.320  64.753  14.802  1.00  0.00    -0.055 C 
ATOM     13  C   UNL     1      18.089  64.826  15.323  1.00  0.00     0.012 C 
BRANCH  12  14
ATOM     14  C   UNL     1      19.631  63.642  13.866  1.00  0.00    -0.005 C 
ATOM     15  C   UNL     1      19.754  62.367  14.235  1.00  0.00     0.009 C 
ENDBRANCH  12  14
ENDBRANCH  11  12
ENDBRANCH  10  11
ENDBRANCH   2  10
TORSDOF 7
ENDMDL
MODEL 6
REMARK VINA RESULT:    -4.616      1.059      1.808
REMARK INTER + INTRA:          -7.315
REMARK INTER:                  -6.513
REMARK INTRA:                  -0.802
REMARK UNBOUND:                -0.811
REMARK SMILES C=CC(=C)CCC=C(C)CCC=C(C)C
REMARK SMILES IDX 8 1 7 2 9 3 10 4 11 5 12 6 14 7 13 8 15 9 6 10 5 11 3 12
REMARK SMILES IDX 4 13 2 14 1 15
REMARK H PARENT
REMARK Flexibility Score: inf
ROOT
ATOM      1  C   UNL     1      19.649  64.001  14.957  1.00  0.00    -0.077 C 
ATOM      2  C   UNL     1      20.502  64.187  15.992  1.00  0.00    -0.028 C 
ATOM      3  C   UNL     1      19.649  62.730  14.142  1.00  0.00     0.039 C 
ENDROOT
BRANCH   1   4
ATOM      4  C   UNL     1      18.655  65.092  14.623  1.00  0.00     0.034 C 
BRANCH   4   5
ATOM      5  C   UNL     1      17.696  65.332  15.795  1.00  0.00     0.032 C 
BRANCH   5   6
ATOM      6  C   UNL     1      16.278  65.006  15.402  1.00  0.00    -0.028 C 
ATOM      7  C   UNL     1      15.382  65.387  17.710  1.00  0.00     0.039 C 
ATOM      8  C   UNL     1      15.233  64.996  16.261  1.00  0.00    -0.080 C 
ATOM      9  C   UNL     1      13.858  64.631  15.763  1.00  0.00     0.039 C 
ENDBRANCH   5   6
ENDBRANCH   4   5
ENDBRANCH   1   4
BRANCH   2  10
ATOM     10  C   UNL     1      21.558  63.200  16.420  1.00  0.00     0.032 C 
BRANCH  10  11
ATOM     11  C   UNL     1      22.944  63.635  15.929  1.00  0.00     0.039 C 
BRANCH  11  12
ATOM     12  C   UNL     1      23.611  62.524  15.146  1.00  0.00    -0.055 C 
ATOM     13  C   UNL     1      23.288  62.353  13.859  1.00  0.00     0.012 C 
BRANCH  12  14
ATOM     14  C   UNL     1      24.647  61.642  15.744  1.00  0.00    -0.005 C 
ATOM     15  C   UNL     1      24.509  61.014  16.911  1.00  0.00     0.009 C 
ENDBRANCH  12  14
ENDBRANCH  11  12
ENDBRANCH  10  11
ENDBRANCH   2  10
TORSDOF 7
ENDMDL
MODEL 7
REMARK VINA RESULT:    -4.605      0.916      7.659
REMARK INTER + INTRA:          -7.300
REMARK INTER:                  -6.720
REMARK INTRA:                  -0.580
REMARK UNBOUND:                -0.811
REMARK SMILES C=CC(=C)CCC=C(C)CCC=C(C)C
REMARK SMILES IDX 8 1 7 2 9 3 10 4 11 5 12 6 14 7 13 8 15 9 6 10 5 11 3 12
REMARK SMILES IDX 4 13 2 14 1 15
REMARK H PARENT
REMARK Flexibility Score: inf
ROOT
ATOM      1  C   UNL     1      20.353  63.620  14.481  1.00  0.00    -0.077 C 
ATOM      2  C   UNL     1      20.135  64.418  15.552  1.00  0.00    -0.028 C 
ATOM      3  C   UNL     1      19.311  62.646  13.985  1.00  0.00     0.039 C 
ENDROOT
BRANCH   1   4
ATOM      4  C   UNL     1      21.673  63.724  13.748  1.00  0.00     0.034 C 
BRANCH   4   5
ATOM      5  C   UNL     1      22.818  63.178  14.608  1.00  0.00     0.032 C 
BRANCH   5   6
ATOM      6  C   UNL     1      23.555  62.080  13.885  1.00  0.00    -0.028 C 
ATOM      7  C   UNL     1      24.684  61.250  15.962  1.00  0.00     0.039 C 
ATOM      8  C   UNL     1      24.423  61.227  14.476  1.00  0.00    -0.080 C 
ATOM      9  C   UNL     1      25.125  60.180  13.650  1.00  0.00     0.039 C 
ENDBRANCH   5   6
ENDBRANCH   4   5
ENDBRANCH   1   4
BRANCH   2  10
ATOM     10  C   UNL     1      18.881  64.404  16.390  1.00  0.00     0.032 C 
BRANCH  10  11
ATOM     11  C   UNL     1      17.909  65.500  15.939  1.00  0.00     0.039 C 
BRANCH  11  12
ATOM     12  C   UNL     1      16.485  65.141  16.305  1.00  0.00    -0.055 C 
ATOM     13  C   UNL     1      16.170  64.969  17.595  1.00  0.00     0.012 C 
BRANCH  12  14
ATOM     14  C   UNL     1      15.411  65.016  15.287  1.00  0.00    -0.005 C 
ATOM     15  C   UNL     1      14.157  64.661  15.565  1.00  0.00     0.009 C 
ENDBRANCH  12  14
ENDBRANCH  11  12
ENDBRANCH  10  11
ENDBRANCH   2  10
TORSDOF 7
ENDMDL
MODEL 8
REMARK VINA RESULT:    -4.596      1.868      3.164
REMARK INTER + INTRA:          -7.288
REMARK INTER:                  -5.824
REMARK INTRA:                  -1.464
REMARK UNBOUND:                -0.811
REMARK SMILES C=CC(=C)CCC=C(C)CCC=C(C)C
REMARK SMILES IDX 8 1 7 2 9 3 10 4 11 5 12 6 14 7 13 8 15 9 6 10 5 11 3 12
REMARK SMILES IDX 4 13 2 14 1 15
REMARK H PARENT
REMARK Flexibility Score: inf
ROOT
ATOM      1  C   UNL     1      19.891  64.693  17.156  1.00  0.00    -0.077 C 
ATOM      2  C   UNL     1      20.297  65.543  16.184  1.00  0.00    -0.028 C 
ATOM      3  C   UNL     1      20.774  63.576  17.659  1.00  0.00     0.039 C 
ENDROOT
BRANCH   1   4
ATOM      4  C   UNL     1      18.522  64.885  17.770  1.00  0.00     0.034 C 
BRANCH   4   5
ATOM      5  C   UNL     1      17.646  65.775  16.881  1.00  0.00     0.032 C 
BRANCH   5   6
ATOM      6  C   UNL     1      16.205  65.337  16.937  1.00  0.00    -0.028 C 
ATOM      7  C   UNL     1      16.107  64.801  14.491  1.00  0.00     0.039 C 
ATOM      8  C   UNL     1      15.491  64.927  15.863  1.00  0.00    -0.080 C 
ATOM      9  C   UNL     1      14.046  64.534  16.030  1.00  0.00     0.039 C 
ENDBRANCH   5   6
ENDBRANCH   4   5
ENDBRANCH   1   4
BRANCH   2  10
ATOM     10  C   UNL     1      21.621  65.456  15.467  1.00  0.00     0.032 C 
BRANCH  10  11
ATOM     11  C   UNL     1      21.440  64.907  14.048  1.00  0.00     0.039 C 
BRANCH  11  12
ATOM     12  C   UNL     1      21.565  63.398  14.035  1.00  0.00    -0.055 C 
ATOM     13  C   UNL     1      22.782  62.848  13.947  1.00  0.00     0.012 C 
BRANCH  12  14
ATOM     14  C   UNL     1      20.386  62.503  14.163  1.00  0.00    -0.005 C 
ATOM     15  C   UNL     1      19.138  62.865  13.867  1.00  0.00     0.009 C 
ENDBRANCH  12  14
ENDBRANCH  11  12
ENDBRANCH  10  11
ENDBRANCH   2  10
TORSDOF 7
ENDMDL
MODEL 9
REMARK VINA RESULT:    -4.515      2.112      6.897
REMARK INTER + INTRA:          -7.173
REMARK INTER:                  -5.978
REMARK INTRA:                  -1.195
REMARK UNBOUND:                -0.811
REMARK SMILES C=CC(=C)CCC=C(C)CCC=C(C)C
REMARK SMILES IDX 8 1 7 2 9 3 10 4 11 5 12 6 14 7 13 8 15 9 6 10 5 11 3 12
REMARK SMILES IDX 4 13 2 14 1 15
REMARK H PARENT
REMARK Flexibility Score: inf
ROOT
ATOM      1  C   UNL     1      19.939  63.929  14.339  1.00  0.00    -0.077 C 
ATOM      2  C   UNL     1      19.313  65.025  14.827  1.00  0.00    -0.028 C 
ATOM      3  C   UNL     1      19.181  62.679  13.960  1.00  0.00     0.039 C 
ENDROOT
BRANCH   1   4
ATOM      4  C   UNL     1      21.440  63.968  14.148  1.00  0.00     0.034 C 
BRANCH   4   5
ATOM      5  C   UNL     1      22.149  63.165  15.244  1.00  0.00     0.032 C 
BRANCH   5   6
ATOM      6  C   UNL     1      22.496  64.048  16.416  1.00  0.00    -0.028 C 
ATOM      7  C   UNL     1      20.641  63.154  17.843  1.00  0.00     0.039 C 
ATOM      8  C   UNL     1      21.806  64.076  17.579  1.00  0.00    -0.080 C 
ATOM      9  C   UNL     1      22.226  65.018  18.677  1.00  0.00     0.039 C 
ENDBRANCH   5   6
ENDBRANCH   4   5
ENDBRANCH   1   4
BRANCH   2  10
ATOM     10  C   UNL     1      17.831  65.119  15.091  1.00  0.00     0.032 C 
BRANCH  10  11
ATOM     11  C   UNL     1      17.522  64.864  16.571  1.00  0.00     0.039 C 
BRANCH  11  12
ATOM     12  C   UNL     1      16.078  65.191  16.883  1.00  0.00    -0.055 C 
ATOM     13  C   UNL     1      15.737  65.496  18.141  1.00  0.00     0.012 C 
BRANCH  12  14
ATOM     14  C   UNL     1      15.028  65.229  15.833  1.00  0.00    -0.005 C 
ATOM     15  C   UNL     1      13.938  64.462  15.838  1.00  0.00     0.009 C 
ENDBRANCH  12  14
ENDBRANCH  11  12
ENDBRANCH  10  11
ENDBRANCH   2  10
TORSDOF 7
ENDMDL
