MODEL 1
REMARK VINA RESULT:    -4.038      0.000      0.000
REMARK INTER + INTRA:          -7.766
REMARK INTER:                  -5.690
REMARK INTRA:                  -2.076
REMARK UNBOUND:                -2.076
REMARK SMILES C=CC(=C)CCC=C(C)CCC=C(C)C
REMARK SMILES IDX 8 1 7 2 9 3 10 4 11 5 12 6 14 7 13 8 15 9 6 10 5 11 3 12
REMARK SMILES IDX 4 13 2 14 1 15
REMARK H PARENT
REMARK Flexibility Score: inf
ROOT
ATOM      1  C   UNL     1     137.888 132.505 135.265  1.00  0.00    -0.077 C 
ATOM      2  C   UNL     1     136.931 132.602 134.314  1.00  0.00    -0.028 C 
ATOM      3  C   UNL     1     139.263 133.036 134.950  1.00  0.00     0.039 C 
ENDROOT
BRANCH   1   4
ATOM      4  C   UNL     1     137.623 131.949 136.650  1.00  0.00     0.034 C 
BRANCH   4   5
ATOM      5  C   UNL     1     137.862 133.020 137.720  1.00  0.00     0.032 C 
BRANCH   5   6
ATOM      6  C   UNL     1     136.582 133.375 138.436  1.00  0.00    -0.028 C 
ATOM      7  C   UNL     1     134.544 134.724 138.845  1.00  0.00     0.039 C 
ATOM      8  C   UNL     1     135.813 134.429 138.086  1.00  0.00    -0.080 C 
ATOM      9  C   UNL     1     136.186 135.335 136.941  1.00  0.00     0.039 C 
ENDBRANCH   5   6
ENDBRANCH   4   5
ENDBRANCH   1   4
BRANCH   2  10
ATOM     10  C   UNL     1     135.515 132.107 134.466  1.00  0.00     0.032 C 
BRANCH  10  11
ATOM     11  C   UNL     1     134.511 133.201 134.083  1.00  0.00     0.039 C 
BRANCH  11  12
ATOM     12  C   UNL     1     133.493 133.403 135.184  1.00  0.00    -0.055 C 
ATOM     13  C   UNL     1     133.409 132.495 136.164  1.00  0.00     0.012 C 
BRANCH  12  14
ATOM     14  C   UNL     1     132.616 134.601 135.246  1.00  0.00    -0.005 C 
ATOM     15  C   UNL     1     131.789 134.868 136.257  1.00  0.00     0.009 C 
ENDBRANCH  12  14
ENDBRANCH  11  12
ENDBRANCH  10  11
ENDBRANCH   2  10
TORSDOF 7
ENDMDL
MODEL 2
REMARK VINA RESULT:    -3.999      4.765      7.153
REMARK INTER + INTRA:          -7.711
REMARK INTER:                  -5.941
REMARK INTRA:                  -1.771
REMARK UNBOUND:                -2.076
REMARK SMILES C=CC(=C)CCC=C(C)CCC=C(C)C
REMARK SMILES IDX 8 1 7 2 9 3 10 4 11 5 12 6 14 7 13 8 15 9 6 10 5 11 3 12
REMARK SMILES IDX 4 13 2 14 1 15
REMARK H PARENT
REMARK Flexibility Score: inf
ROOT
ATOM      1  C   UNL     1     137.921 139.665 134.852  1.00  0.00    -0.077 C 
ATOM      2  C   UNL     1     138.934 139.875 135.725  1.00  0.00    -0.028 C 
ATOM      3  C   UNL     1     137.522 140.794 133.936  1.00  0.00     0.039 C 
ENDROOT
BRANCH   1   4
ATOM      4  C   UNL     1     137.216 138.331 134.711  1.00  0.00     0.034 C 
BRANCH   4   5
ATOM      5  C   UNL     1     135.762 138.432 135.185  1.00  0.00     0.032 C 
BRANCH   5   6
ATOM      6  C   UNL     1     135.683 138.578 136.685  1.00  0.00    -0.028 C 
ATOM      7  C   UNL     1     135.174 139.773 138.795  1.00  0.00     0.039 C 
ATOM      8  C   UNL     1     135.229 139.697 137.291  1.00  0.00    -0.080 C 
ATOM      9  C   UNL     1     134.765 140.893 136.498  1.00  0.00     0.039 C 
ENDBRANCH   5   6
ENDBRANCH   4   5
ENDBRANCH   1   4
BRANCH   2  10
ATOM     10  C   UNL     1     139.440 138.857 136.714  1.00  0.00     0.032 C 
BRANCH  10  11
ATOM     11  C   UNL     1     140.639 138.090 136.143  1.00  0.00     0.039 C 
BRANCH  11  12
ATOM     12  C   UNL     1     140.220 136.716 135.669  1.00  0.00    -0.055 C 
ATOM     13  C   UNL     1     139.467 135.955 136.472  1.00  0.00     0.012 C 
BRANCH  12  14
ATOM     14  C   UNL     1     140.573 136.198 134.322  1.00  0.00    -0.005 C 
ATOM     15  C   UNL     1     140.302 136.836 133.183  1.00  0.00     0.009 C 
ENDBRANCH  12  14
ENDBRANCH  11  12
ENDBRANCH  10  11
ENDBRANCH   2  10
TORSDOF 7
ENDMDL
MODEL 3
REMARK VINA RESULT:    -3.983      4.486      6.025
REMARK INTER + INTRA:          -7.689
REMARK INTER:                  -5.332
REMARK INTRA:                  -2.357
REMARK UNBOUND:                -2.076
REMARK SMILES C=CC(=C)CCC=C(C)CCC=C(C)C
REMARK SMILES IDX 8 1 7 2 9 3 10 4 11 5 12 6 14 7 13 8 15 9 6 10 5 11 3 12
REMARK SMILES IDX 4 13 2 14 1 15
REMARK H PARENT
REMARK Flexibility Score: inf
ROOT
ATOM      1  C   UNL     1     139.644 138.752 136.262  1.00  0.00    -0.077 C 
ATOM      2  C   UNL     1     139.281 139.343 135.100  1.00  0.00    -0.028 C 
ATOM      3  C   UNL     1     140.879 137.888 136.268  1.00  0.00     0.039 C 
ENDROOT
BRANCH   1   4
ATOM      4  C   UNL     1     138.903 138.970 137.566  1.00  0.00     0.034 C 
BRANCH   4   5
ATOM      5  C   UNL     1     138.299 137.656 138.073  1.00  0.00     0.032 C 
BRANCH   5   6
ATOM      6  C   UNL     1     136.832 137.559 137.735  1.00  0.00    -0.028 C 
ATOM      7  C   UNL     1     134.882 136.771 136.425  1.00  0.00     0.039 C 
ATOM      8  C   UNL     1     136.363 136.824 136.704  1.00  0.00    -0.080 C 
ATOM      9  C   UNL     1     137.287 136.040 135.807  1.00  0.00     0.039 C 
ENDBRANCH   5   6
ENDBRANCH   4   5
ENDBRANCH   1   4
BRANCH   2  10
ATOM     10  C   UNL     1     138.068 140.221 134.925  1.00  0.00     0.032 C 
BRANCH  10  11
ATOM     11  C   UNL     1     136.947 139.465 134.202  1.00  0.00     0.039 C 
BRANCH  11  12
ATOM     12  C   UNL     1     135.590 139.966 134.645  1.00  0.00    -0.055 C 
ATOM     13  C   UNL     1     134.505 139.591 133.958  1.00  0.00     0.012 C 
BRANCH  12  14
ATOM     14  C   UNL     1     135.413 140.820 135.848  1.00  0.00    -0.005 C 
ATOM     15  C   UNL     1     134.762 140.435 136.946  1.00  0.00     0.009 C 
ENDBRANCH  12  14
ENDBRANCH  11  12
ENDBRANCH  10  11
ENDBRANCH   2  10
TORSDOF 7
ENDMDL
MODEL 4
REMARK VINA RESULT:    -3.976      2.794      5.238
REMARK INTER + INTRA:          -7.680
REMARK INTER:                  -5.320
REMARK INTRA:                  -2.360
REMARK UNBOUND:                -2.076
REMARK SMILES C=CC(=C)CCC=C(C)CCC=C(C)C
REMARK SMILES IDX 8 1 7 2 9 3 10 4 11 5 12 6 14 7 13 8 15 9 6 10 5 11 3 12
REMARK SMILES IDX 4 13 2 14 1 15
REMARK H PARENT
REMARK Flexibility Score: inf
ROOT
ATOM      1  C   UNL     1     138.775 132.991 136.248  1.00  0.00    -0.077 C 
ATOM      2  C   UNL     1     139.399 133.307 135.090  1.00  0.00    -0.028 C 
ATOM      3  C   UNL     1     137.867 131.788 136.265  1.00  0.00     0.039 C 
ENDROOT
BRANCH   1   4
ATOM      4  C   UNL     1     138.998 133.752 137.540  1.00  0.00     0.034 C 
BRANCH   4   5
ATOM      5  C   UNL     1     137.705 134.439 137.995  1.00  0.00     0.032 C 
BRANCH   5   6
ATOM      6  C   UNL     1     137.612 135.845 137.457  1.00  0.00    -0.028 C 
ATOM      7  C   UNL     1     136.760 137.613 135.944  1.00  0.00     0.039 C 
ATOM      8  C   UNL     1     136.804 136.186 136.429  1.00  0.00    -0.080 C 
ATOM      9  C   UNL     1     135.930 135.170 135.739  1.00  0.00     0.039 C 
ENDBRANCH   5   6
ENDBRANCH   4   5
ENDBRANCH   1   4
BRANCH   2  10
ATOM     10  C   UNL     1     140.324 134.483 134.905  1.00  0.00     0.032 C 
BRANCH  10  11
ATOM     11  C   UNL     1     139.669 135.559 134.030  1.00  0.00     0.039 C 
BRANCH  11  12
ATOM     12  C   UNL     1     140.051 136.943 134.507  1.00  0.00    -0.055 C 
ATOM     13  C   UNL     1     139.759 137.998 133.737  1.00  0.00     0.012 C 
BRANCH  12  14
ATOM     14  C   UNL     1     140.694 137.179 135.826  1.00  0.00    -0.005 C 
ATOM     15  C   UNL     1     140.384 138.192 136.635  1.00  0.00     0.009 C 
ENDBRANCH  12  14
ENDBRANCH  11  12
ENDBRANCH  10  11
ENDBRANCH   2  10
TORSDOF 7
ENDMDL
MODEL 5
REMARK VINA RESULT:    -3.965      3.378      5.423
REMARK INTER + INTRA:          -7.664
REMARK INTER:                  -5.644
REMARK INTRA:                  -2.020
REMARK UNBOUND:                -2.076
REMARK SMILES C=CC(=C)CCC=C(C)CCC=C(C)C
REMARK SMILES IDX 8 1 7 2 9 3 10 4 11 5 12 6 14 7 13 8 15 9 6 10 5 11 3 12
REMARK SMILES IDX 4 13 2 14 1 15
REMARK H PARENT
REMARK Flexibility Score: inf
ROOT
ATOM      1  C   UNL     1     139.199 133.858 134.615  1.00  0.00    -0.077 C 
ATOM      2  C   UNL     1     139.565 134.959 133.919  1.00  0.00    -0.028 C 
ATOM      3  C   UNL     1     138.205 132.914 133.988  1.00  0.00     0.039 C 
ENDROOT
BRANCH   1   4
ATOM      4  C   UNL     1     139.789 133.500 135.964  1.00  0.00     0.034 C 
BRANCH   4   5
ATOM      5  C   UNL     1     138.723 133.581 137.062  1.00  0.00     0.032 C 
BRANCH   5   6
ATOM      6  C   UNL     1     138.704 134.944 137.709  1.00  0.00    -0.028 C 
ATOM      7  C   UNL     1     137.807 137.218 138.118  1.00  0.00     0.039 C 
ATOM      8  C   UNL     1     137.766 135.876 137.432  1.00  0.00    -0.080 C 
ATOM      9  C   UNL     1     136.658 135.613 136.444  1.00  0.00     0.039 C 
ENDBRANCH   5   6
ENDBRANCH   4   5
ENDBRANCH   1   4
BRANCH   2  10
ATOM     10  C   UNL     1     140.532 136.004 134.411  1.00  0.00     0.032 C 
BRANCH  10  11
ATOM     11  C   UNL     1     139.983 137.415 134.166  1.00  0.00     0.039 C 
BRANCH  11  12
ATOM     12  C   UNL     1     140.104 138.262 135.413  1.00  0.00    -0.055 C 
ATOM     13  C   UNL     1     140.953 137.882 136.375  1.00  0.00     0.012 C 
BRANCH  12  14
ATOM     14  C   UNL     1     139.349 139.530 135.588  1.00  0.00    -0.005 C 
ATOM     15  C   UNL     1     138.338 139.910 134.807  1.00  0.00     0.009 C 
ENDBRANCH  12  14
ENDBRANCH  11  12
ENDBRANCH  10  11
ENDBRANCH   2  10
TORSDOF 7
ENDMDL
MODEL 6
REMARK VINA RESULT:    -3.962      1.140      4.348
REMARK INTER + INTRA:          -7.659
REMARK INTER:                  -5.265
REMARK INTRA:                  -2.395
REMARK UNBOUND:                -2.076
REMARK SMILES C=CC(=C)CCC=C(C)CCC=C(C)C
REMARK SMILES IDX 8 1 7 2 9 3 10 4 11 5 12 6 14 7 13 8 15 9 6 10 5 11 3 12
REMARK SMILES IDX 4 13 2 14 1 15
REMARK H PARENT
REMARK Flexibility Score: inf
ROOT
ATOM      1  C   UNL     1     133.069 133.864 136.314  1.00  0.00    -0.077 C 
ATOM      2  C   UNL     1     133.376 133.210 135.170  1.00  0.00    -0.028 C 
ATOM      3  C   UNL     1     131.812 134.695 136.348  1.00  0.00     0.039 C 
ENDROOT
BRANCH   1   4
ATOM      4  C   UNL     1     133.896 133.746 137.579  1.00  0.00     0.034 C 
BRANCH   4   5
ATOM      5  C   UNL     1     134.437 135.117 138.003  1.00  0.00     0.032 C 
BRANCH   5   6
ATOM      6  C   UNL     1     135.906 135.249 137.683  1.00  0.00    -0.028 C 
ATOM      7  C   UNL     1     137.847 136.009 136.342  1.00  0.00     0.039 C 
ATOM      8  C   UNL     1     136.364 135.914 136.599  1.00  0.00    -0.080 C 
ATOM      9  C   UNL     1     135.426 136.576 135.622  1.00  0.00     0.039 C 
ENDBRANCH   5   6
ENDBRANCH   4   5
ENDBRANCH   1   4
BRANCH   2  10
ATOM     10  C   UNL     1     134.600 132.354 134.971  1.00  0.00     0.032 C 
BRANCH  10  11
ATOM     11  C   UNL     1     135.681 133.120 134.197  1.00  0.00     0.039 C 
BRANCH  11  12
ATOM     12  C   UNL     1     137.062 132.716 134.665  1.00  0.00    -0.055 C 
ATOM     13  C   UNL     1     138.130 133.165 133.996  1.00  0.00     0.012 C 
BRANCH  12  14
ATOM     14  C   UNL     1     137.278 131.877 135.873  1.00  0.00    -0.005 C 
ATOM     15  C   UNL     1     137.894 132.304 136.975  1.00  0.00     0.009 C 
ENDBRANCH  12  14
ENDBRANCH  11  12
ENDBRANCH  10  11
ENDBRANCH   2  10
TORSDOF 7
ENDMDL
MODEL 7
REMARK VINA RESULT:    -3.958      1.419      5.400
REMARK INTER + INTRA:          -7.654
REMARK INTER:                  -5.501
REMARK INTRA:                  -2.152
REMARK UNBOUND:                -2.076
REMARK SMILES C=CC(=C)CCC=C(C)CCC=C(C)C
REMARK SMILES IDX 8 1 7 2 9 3 10 4 11 5 12 6 14 7 13 8 15 9 6 10 5 11 3 12
REMARK SMILES IDX 4 13 2 14 1 15
REMARK H PARENT
REMARK Flexibility Score: inf
ROOT
ATOM      1  C   UNL     1     132.565 136.117 135.840  1.00  0.00    -0.077 C 
ATOM      2  C   UNL     1     133.595 136.682 136.511  1.00  0.00    -0.028 C 
ATOM      3  C   UNL     1     132.143 136.734 134.531  1.00  0.00     0.039 C 
ENDROOT
BRANCH   1   4
ATOM      4  C   UNL     1     131.863 134.860 136.311  1.00  0.00     0.034 C 
BRANCH   4   5
ATOM      5  C   UNL     1     132.075 133.714 135.315  1.00  0.00     0.032 C 
BRANCH   5   6
ATOM      6  C   UNL     1     133.372 132.990 135.578  1.00  0.00    -0.028 C 
ATOM      7  C   UNL     1     135.696 132.300 135.067  1.00  0.00     0.039 C 
ATOM      8  C   UNL     1     134.429 133.048 134.739  1.00  0.00    -0.080 C 
ATOM      9  C   UNL     1     134.383 133.850 133.464  1.00  0.00     0.039 C 
ENDBRANCH   5   6
ENDBRANCH   4   5
ENDBRANCH   1   4
BRANCH   2  10
ATOM     10  C   UNL     1     134.127 136.197 137.836  1.00  0.00     0.032 C 
BRANCH  10  11
ATOM     11  C   UNL     1     135.344 135.286 137.634  1.00  0.00     0.039 C 
BRANCH  11  12
ATOM     12  C   UNL     1     135.312 134.126 138.604  1.00  0.00    -0.055 C 
ATOM     13  C   UNL     1     134.131 133.707 139.074  1.00  0.00     0.012 C 
BRANCH  12  14
ATOM     14  C   UNL     1     136.541 133.399 139.015  1.00  0.00    -0.005 C 
ATOM     15  C   UNL     1     137.495 133.009 138.169  1.00  0.00     0.009 C 
ENDBRANCH  12  14
ENDBRANCH  11  12
ENDBRANCH  10  11
ENDBRANCH   2  10
TORSDOF 7
ENDMDL
MODEL 8
REMARK VINA RESULT:    -3.954      4.411      6.636
REMARK INTER + INTRA:          -7.648
REMARK INTER:                  -5.399
REMARK INTRA:                  -2.248
REMARK UNBOUND:                -2.076
REMARK SMILES C=CC(=C)CCC=C(C)CCC=C(C)C
REMARK SMILES IDX 8 1 7 2 9 3 10 4 11 5 12 6 14 7 13 8 15 9 6 10 5 11 3 12
REMARK SMILES IDX 4 13 2 14 1 15
REMARK H PARENT
REMARK Flexibility Score: inf
ROOT
ATOM      1  C   UNL     1     136.147 140.123 135.802  1.00  0.00    -0.077 C 
ATOM      2  C   UNL     1     136.758 139.108 136.455  1.00  0.00    -0.028 C 
ATOM      3  C   UNL     1     136.763 140.621 134.519  1.00  0.00     0.039 C 
ENDROOT
BRANCH   1   4
ATOM      4  C   UNL     1     134.841 140.736 136.266  1.00  0.00     0.034 C 
BRANCH   4   5
ATOM      5  C   UNL     1     133.739 140.521 135.222  1.00  0.00     0.032 C 
BRANCH   5   6
ATOM      6  C   UNL     1     132.978 139.244 135.482  1.00  0.00    -0.028 C 
ATOM      7  C   UNL     1     132.315 136.900 135.029  1.00  0.00     0.039 C 
ATOM      8  C   UNL     1     133.105 138.144 134.709  1.00  0.00    -0.080 C 
ATOM      9  C   UNL     1     134.027 138.116 133.517  1.00  0.00     0.039 C 
ENDBRANCH   5   6
ENDBRANCH   4   5
ENDBRANCH   1   4
BRANCH   2  10
ATOM     10  C   UNL     1     136.278 138.509 137.753  1.00  0.00     0.032 C 
BRANCH  10  11
ATOM     11  C   UNL     1     135.457 137.239 137.497  1.00  0.00     0.039 C 
BRANCH  11  12
ATOM     12  C   UNL     1     134.188 137.247 138.320  1.00  0.00    -0.055 C 
ATOM     13  C   UNL     1     133.512 136.104 138.480  1.00  0.00     0.012 C 
BRANCH  12  14
ATOM     14  C   UNL     1     133.690 138.470 139.001  1.00  0.00    -0.005 C 
ATOM     15  C   UNL     1     133.276 138.502 140.268  1.00  0.00     0.009 C 
ENDBRANCH  12  14
ENDBRANCH  11  12
ENDBRANCH  10  11
ENDBRANCH   2  10
TORSDOF 7
ENDMDL
MODEL 9
REMARK VINA RESULT:    -3.904      3.082      5.764
REMARK INTER + INTRA:          -7.578
REMARK INTER:                  -5.166
REMARK INTRA:                  -2.412
REMARK UNBOUND:                -2.076
REMARK SMILES C=CC(=C)CCC=C(C)CCC=C(C)C
REMARK SMILES IDX 8 1 7 2 9 3 10 4 11 5 12 6 14 7 13 8 15 9 6 10 5 11 3 12
REMARK SMILES IDX 4 13 2 14 1 15
REMARK H PARENT
REMARK Flexibility Score: inf
ROOT
ATOM      1  C   UNL     1     138.583 133.187 136.768  1.00  0.00    -0.077 C 
ATOM      2  C   UNL     1     138.084 133.937 137.778  1.00  0.00    -0.028 C 
ATOM      3  C   UNL     1     137.881 131.899 136.420  1.00  0.00     0.039 C 
ENDROOT
BRANCH   1   4
ATOM      4  C   UNL     1     139.772 133.615 135.931  1.00  0.00     0.034 C 
BRANCH   4   5
ATOM      5  C   UNL     1     139.354 133.851 134.475  1.00  0.00     0.032 C 
BRANCH   5   6
ATOM      6  C   UNL     1     139.339 135.323 134.140  1.00  0.00    -0.028 C 
ATOM      7  C   UNL     1     138.263 137.518 133.741  1.00  0.00     0.039 C 
ATOM      8  C   UNL     1     138.203 136.050 134.079  1.00  0.00    -0.080 C 
ATOM      9  C   UNL     1     136.853 135.433 134.343  1.00  0.00     0.039 C 
ENDBRANCH   5   6
ENDBRANCH   4   5
ENDBRANCH   1   4
BRANCH   2  10
ATOM     10  C   UNL     1     138.677 135.238 138.256  1.00  0.00     0.032 C 
BRANCH  10  11
ATOM     11  C   UNL     1     137.819 136.426 137.805  1.00  0.00     0.039 C 
BRANCH  11  12
ATOM     12  C   UNL     1     138.689 137.613 137.455  1.00  0.00    -0.055 C 
ATOM     13  C   UNL     1     138.112 138.803 137.251  1.00  0.00     0.012 C 
BRANCH  12  14
ATOM     14  C   UNL     1     140.170 137.517 137.378  1.00  0.00    -0.005 C 
ATOM     15  C   UNL     1     140.885 137.861 136.306  1.00  0.00     0.009 C 
ENDBRANCH  12  14
ENDBRANCH  11  12
ENDBRANCH  10  11
ENDBRANCH   2  10
TORSDOF 7
ENDMDL
