MODEL 1
REMARK VINA RESULT:    -5.223      0.000      0.000
REMARK INTER + INTRA:          -5.375
REMARK INTER:                  -5.375
REMARK INTRA:                   0.000
REMARK UNBOUND:                 0.000
REMARK SMILES Cc1ccccc1O
REMARK SMILES IDX 1 1 2 2 3 3 4 4 5 5 6 6 7 7 8 8
REMARK H PARENT 8 9
REMARK Flexibility Score: inf
ROOT
ATOM      1  C   UNL     1     -11.550  61.097  39.897  1.00  0.00     0.048 C 
ATOM      2  C   UNL     1     -12.917  61.293  39.304  1.00  0.00    -0.009 A 
ATOM      3  C   UNL     1     -13.687  60.172  38.947  1.00  0.00     0.007 A 
ATOM      4  C   UNL     1     -14.961  60.332  38.396  1.00  0.00     0.001 A 
ATOM      5  C   UNL     1     -15.480  61.612  38.196  1.00  0.00     0.004 A 
ATOM      6  C   UNL     1     -14.727  62.735  38.546  1.00  0.00     0.046 A 
ATOM      7  C   UNL     1     -13.449  62.589  39.099  1.00  0.00     0.118 A 
ENDROOT
BRANCH   7   8
ATOM      8  O   UNL     1     -12.735  63.741  39.433  1.00  0.00    -0.508 OA
ATOM      9  H   UNL     1     -13.102  64.459  40.045  1.00  0.00     0.293 HD
ENDBRANCH   7   8
TORSDOF 1
ENDMDL
MODEL 2
REMARK VINA RESULT:    -5.122      1.947      2.788
REMARK INTER + INTRA:          -5.272
REMARK INTER:                  -5.272
REMARK INTRA:                   0.000
REMARK UNBOUND:                 0.000
REMARK SMILES Cc1ccccc1O
REMARK SMILES IDX 1 1 2 2 3 3 4 4 5 5 6 6 7 7 8 8
REMARK H PARENT 8 9
REMARK Flexibility Score: inf
ROOT
ATOM      1  C   UNL     1     -10.661  62.853  38.947  1.00  0.00     0.048 C 
ATOM      2  C   UNL     1     -11.831  62.007  39.364  1.00  0.00    -0.009 A 
ATOM      3  C   UNL     1     -13.133  62.392  39.001  1.00  0.00     0.007 A 
ATOM      4  C   UNL     1     -14.234  61.619  39.379  1.00  0.00     0.001 A 
ATOM      5  C   UNL     1     -14.046  60.454  40.123  1.00  0.00     0.004 A 
ATOM      6  C   UNL     1     -12.758  60.058  40.491  1.00  0.00     0.046 A 
ATOM      7  C   UNL     1     -11.647  60.824  40.120  1.00  0.00     0.118 A 
ENDROOT
BRANCH   7   8
ATOM      8  O   UNL     1     -10.380  60.387  40.511  1.00  0.00    -0.508 OA
ATOM      9  H   UNL     1      -9.646  60.162  39.852  1.00  0.00     0.293 HD
ENDBRANCH   7   8
TORSDOF 1
ENDMDL
MODEL 3
REMARK VINA RESULT:    -5.054      0.730      2.586
REMARK INTER + INTRA:          -5.202
REMARK INTER:                  -5.202
REMARK INTRA:                   0.000
REMARK UNBOUND:                 0.000
REMARK SMILES Cc1ccccc1O
REMARK SMILES IDX 1 1 2 2 3 3 4 4 5 5 6 6 7 7 8 8
REMARK H PARENT 8 9
REMARK Flexibility Score: inf
ROOT
ATOM      1  C   UNL     1     -15.603  64.066  37.877  1.00  0.00     0.048 C 
ATOM      2  C   UNL     1     -15.032  62.749  38.322  1.00  0.00    -0.009 A 
ATOM      3  C   UNL     1     -15.734  61.560  38.055  1.00  0.00     0.007 A 
ATOM      4  C   UNL     1     -15.219  60.326  38.459  1.00  0.00     0.001 A 
ATOM      5  C   UNL     1     -14.000  60.264  39.135  1.00  0.00     0.004 A 
ATOM      6  C   UNL     1     -13.291  61.437  39.408  1.00  0.00     0.046 A 
ATOM      7  C   UNL     1     -13.795  62.681  39.008  1.00  0.00     0.118 A 
ENDROOT
BRANCH   7   8
ATOM      8  O   UNL     1     -13.050  63.823  39.304  1.00  0.00    -0.508 OA
ATOM      9  H   UNL     1     -12.382  63.865  40.063  1.00  0.00     0.293 HD
ENDBRANCH   7   8
TORSDOF 1
ENDMDL
MODEL 4
REMARK VINA RESULT:    -5.004     18.127     19.235
REMARK INTER + INTRA:          -5.150
REMARK INTER:                  -5.150
REMARK INTRA:                   0.000
REMARK UNBOUND:                 0.000
REMARK SMILES Cc1ccccc1O
REMARK SMILES IDX 1 1 2 2 3 3 4 4 5 5 6 6 7 7 8 8
REMARK H PARENT 8 9
REMARK Flexibility Score: inf
ROOT
ATOM      1  C   UNL     1     -13.648  49.491  53.596  1.00  0.00     0.048 C 
ATOM      2  C   UNL     1     -12.218  49.797  53.942  1.00  0.00    -0.009 A 
ATOM      3  C   UNL     1     -11.483  48.888  54.724  1.00  0.00     0.007 A 
ATOM      4  C   UNL     1     -10.152  49.154  55.056  1.00  0.00     0.001 A 
ATOM      5  C   UNL     1      -9.541  50.327  54.612  1.00  0.00     0.004 A 
ATOM      6  C   UNL     1     -10.259  51.238  53.834  1.00  0.00     0.046 A 
ATOM      7  C   UNL     1     -11.593  50.986  53.494  1.00  0.00     0.118 A 
ENDROOT
BRANCH   7   8
ATOM      8  O   UNL     1     -12.268  51.927  52.715  1.00  0.00    -0.508 OA
ATOM      9  H   UNL     1     -11.876  52.330  51.874  1.00  0.00     0.293 HD
ENDBRANCH   7   8
TORSDOF 1
ENDMDL
MODEL 5
REMARK VINA RESULT:    -4.984      0.959      2.725
REMARK INTER + INTRA:          -5.130
REMARK INTER:                  -5.130
REMARK INTRA:                   0.000
REMARK UNBOUND:                 0.000
REMARK SMILES Cc1ccccc1O
REMARK SMILES IDX 1 1 2 2 3 3 4 4 5 5 6 6 7 7 8 8
REMARK H PARENT 8 9
REMARK Flexibility Score: inf
ROOT
ATOM      1  C   UNL     1     -16.649  61.826  37.988  1.00  0.00     0.048 C 
ATOM      2  C   UNL     1     -15.223  61.598  38.403  1.00  0.00    -0.009 A 
ATOM      3  C   UNL     1     -14.742  60.284  38.547  1.00  0.00     0.007 A 
ATOM      4  C   UNL     1     -13.418  60.052  38.931  1.00  0.00     0.001 A 
ATOM      5  C   UNL     1     -12.562  61.125  39.175  1.00  0.00     0.004 A 
ATOM      6  C   UNL     1     -13.026  62.436  39.036  1.00  0.00     0.046 A 
ATOM      7  C   UNL     1     -14.350  62.684  38.652  1.00  0.00     0.118 A 
ENDROOT
BRANCH   7   8
ATOM      8  O   UNL     1     -14.766  64.010  38.527  1.00  0.00    -0.508 OA
ATOM      9  H   UNL     1     -14.687  64.534  37.664  1.00  0.00     0.293 HD
ENDBRANCH   7   8
TORSDOF 1
ENDMDL
MODEL 6
REMARK VINA RESULT:    -4.848     17.606     18.474
REMARK INTER + INTRA:          -4.990
REMARK INTER:                  -4.990
REMARK INTRA:                   0.000
REMARK UNBOUND:                 0.000
REMARK SMILES Cc1ccccc1O
REMARK SMILES IDX 1 1 2 2 3 3 4 4 5 5 6 6 7 7 8 8
REMARK H PARENT 8 9
REMARK Flexibility Score: inf
ROOT
ATOM      1  C   UNL     1     -10.839  51.742  53.665  1.00  0.00     0.048 C 
ATOM      2  C   UNL     1     -11.824  50.617  53.509  1.00  0.00    -0.009 A 
ATOM      3  C   UNL     1     -11.779  49.525  54.393  1.00  0.00     0.007 A 
ATOM      4  C   UNL     1     -12.687  48.470  54.265  1.00  0.00     0.001 A 
ATOM      5  C   UNL     1     -13.648  48.495  53.254  1.00  0.00     0.004 A 
ATOM      6  C   UNL     1     -13.705  49.573  52.368  1.00  0.00     0.046 A 
ATOM      7  C   UNL     1     -12.801  50.637  52.485  1.00  0.00     0.118 A 
ENDROOT
BRANCH   7   8
ATOM      8  O   UNL     1     -12.899  51.691  51.576  1.00  0.00    -0.508 OA
ATOM      9  H   UNL     1     -13.721  52.276  51.495  1.00  0.00     0.293 HD
ENDBRANCH   7   8
TORSDOF 1
ENDMDL
MODEL 7
REMARK VINA RESULT:    -4.704     14.834     16.022
REMARK INTER + INTRA:          -4.842
REMARK INTER:                  -4.842
REMARK INTRA:                   0.000
REMARK UNBOUND:                 0.000
REMARK SMILES Cc1ccccc1O
REMARK SMILES IDX 1 1 2 2 3 3 4 4 5 5 6 6 7 7 8 8
REMARK H PARENT 8 9
REMARK Flexibility Score: inf
ROOT
ATOM      1  C   UNL     1      -6.229  64.229  51.344  1.00  0.00     0.048 C 
ATOM      2  C   UNL     1      -6.633  63.454  52.568  1.00  0.00    -0.009 A 
ATOM      3  C   UNL     1      -5.839  62.378  53.003  1.00  0.00     0.007 A 
ATOM      4  C   UNL     1      -6.197  61.646  54.138  1.00  0.00     0.001 A 
ATOM      5  C   UNL     1      -7.349  61.980  54.850  1.00  0.00     0.004 A 
ATOM      6  C   UNL     1      -8.147  63.046  54.430  1.00  0.00     0.046 A 
ATOM      7  C   UNL     1      -7.801  63.788  53.294  1.00  0.00     0.118 A 
ENDROOT
BRANCH   7   8
ATOM      8  O   UNL     1      -8.630  64.845  52.915  1.00  0.00    -0.508 OA
ATOM      9  H   UNL     1      -9.297  64.778  52.156  1.00  0.00     0.293 HD
ENDBRANCH   7   8
TORSDOF 1
ENDMDL
MODEL 8
REMARK VINA RESULT:    -4.689      2.105      3.769
REMARK INTER + INTRA:          -4.826
REMARK INTER:                  -4.826
REMARK INTRA:                   0.000
REMARK UNBOUND:                 0.000
REMARK SMILES Cc1ccccc1O
REMARK SMILES IDX 1 1 2 2 3 3 4 4 5 5 6 6 7 7 8 8
REMARK H PARENT 8 9
REMARK Flexibility Score: inf
ROOT
ATOM      1  C   UNL     1     -16.973  62.479  37.875  1.00  0.00     0.048 C 
ATOM      2  C   UNL     1     -15.629  61.972  38.319  1.00  0.00    -0.009 A 
ATOM      3  C   UNL     1     -14.592  62.885  38.578  1.00  0.00     0.007 A 
ATOM      4  C   UNL     1     -13.336  62.433  38.992  1.00  0.00     0.001 A 
ATOM      5  C   UNL     1     -13.103  61.068  39.152  1.00  0.00     0.004 A 
ATOM      6  C   UNL     1     -14.124  60.148  38.899  1.00  0.00     0.046 A 
ATOM      7  C   UNL     1     -15.387  60.587  38.482  1.00  0.00     0.118 A 
ENDROOT
BRANCH   7   8
ATOM      8  O   UNL     1     -16.374  59.630  38.242  1.00  0.00    -0.508 OA
ATOM      9  H   UNL     1     -16.735  59.016  38.961  1.00  0.00     0.293 HD
ENDBRANCH   7   8
TORSDOF 1
ENDMDL
MODEL 9
REMARK VINA RESULT:    -4.665      4.229      5.082
REMARK INTER + INTRA:          -4.802
REMARK INTER:                  -4.802
REMARK INTRA:                   0.000
REMARK UNBOUND:                 0.000
REMARK SMILES Cc1ccccc1O
REMARK SMILES IDX 1 1 2 2 3 3 4 4 5 5 6 6 7 7 8 8
REMARK H PARENT 8 9
REMARK Flexibility Score: inf
ROOT
ATOM      1  C   UNL     1     -10.006  62.058  42.943  1.00  0.00     0.048 C 
ATOM      2  C   UNL     1      -9.906  62.585  41.539  1.00  0.00    -0.009 A 
ATOM      3  C   UNL     1      -9.619  63.945  41.325  1.00  0.00     0.007 A 
ATOM      4  C   UNL     1      -9.521  64.454  40.027  1.00  0.00     0.001 A 
ATOM      5  C   UNL     1      -9.709  63.613  38.931  1.00  0.00     0.004 A 
ATOM      6  C   UNL     1      -9.995  62.260  39.127  1.00  0.00     0.046 A 
ATOM      7  C   UNL     1     -10.097  61.736  40.422  1.00  0.00     0.118 A 
ENDROOT
BRANCH   7   8
ATOM      8  O   UNL     1     -10.384  60.378  40.567  1.00  0.00    -0.508 OA
ATOM      9  H   UNL     1     -10.033  59.669  39.935  1.00  0.00     0.293 HD
ENDBRANCH   7   8
TORSDOF 1
ENDMDL
