MODEL 1
REMARK VINA RESULT:    -5.725      0.000      0.000
REMARK INTER + INTRA:          -6.158
REMARK INTER:                  -6.060
REMARK INTRA:                  -0.098
REMARK UNBOUND:                -0.098
REMARK SMILES C=C(C)[C@H]1CC=C(C)C(=O)C1
REMARK SMILES IDX 8 1 7 2 6 3 5 4 4 5 11 6 9 7 10 8 2 9 1 10 3 11
REMARK H PARENT
REMARK Flexibility Score: inf
ROOT
ATOM      1  C   UNL     1      25.187  11.334  27.337  1.00  0.00     0.048 C 
ATOM      2  C   UNL     1      26.402  10.613  26.819  1.00  0.00    -0.012 C 
ATOM      3  C   UNL     1      27.542  11.293  26.606  1.00  0.00    -0.019 C 
ATOM      4  C   UNL     1      28.780  10.626  26.070  1.00  0.00     0.036 C 
ATOM      5  C   UNL     1      28.876   9.165  26.551  1.00  0.00     0.025 C 
ATOM      6  C   UNL     1      27.592   8.397  26.181  1.00  0.00     0.089 C 
ATOM      7  C   UNL     1      26.375   9.138  26.662  1.00  0.00     0.158 C 
ATOM      8  O   UNL     1      25.317   8.494  26.896  1.00  0.00    -0.295 OA
ENDROOT
BRANCH   5   9
ATOM      9  C   UNL     1      30.120   8.474  26.009  1.00  0.00    -0.077 C 
ATOM     10  C   UNL     1      30.155   7.144  25.820  1.00  0.00     0.008 C 
ATOM     11  C   UNL     1      31.347   9.281  25.672  1.00  0.00     0.039 C 
ENDBRANCH   5   9
TORSDOF 1
ENDMDL
MODEL 2
REMARK VINA RESULT:    -5.709      1.983      4.581
REMARK INTER + INTRA:          -6.141
REMARK INTER:                  -6.048
REMARK INTRA:                  -0.093
REMARK UNBOUND:                -0.098
REMARK SMILES C=C(C)[C@H]1CC=C(C)C(=O)C1
REMARK SMILES IDX 8 1 7 2 6 3 5 4 4 5 11 6 9 7 10 8 2 9 1 10 3 11
REMARK H PARENT
REMARK Flexibility Score: inf
ROOT
ATOM      1  C   UNL     1      30.107   6.671  25.769  1.00  0.00     0.048 C 
ATOM      2  C   UNL     1      29.215   7.876  25.893  1.00  0.00    -0.012 C 
ATOM      3  C   UNL     1      27.929   7.721  26.254  1.00  0.00    -0.019 C 
ATOM      4  C   UNL     1      26.988   8.890  26.373  1.00  0.00     0.036 C 
ATOM      5  C   UNL     1      27.733  10.157  26.836  1.00  0.00     0.025 C 
ATOM      6  C   UNL     1      28.916  10.454  25.893  1.00  0.00     0.089 C 
ATOM      7  C   UNL     1      29.785   9.236  25.736  1.00  0.00     0.158 C 
ATOM      8  O   UNL     1      30.999   9.385  25.433  1.00  0.00    -0.295 OA
ENDROOT
BRANCH   5   9
ATOM      9  C   UNL     1      26.794  11.351  26.952  1.00  0.00    -0.077 C 
ATOM     10  C   UNL     1      25.715  11.317  27.752  1.00  0.00     0.008 C 
ATOM     11  C   UNL     1      27.065  12.606  26.162  1.00  0.00     0.039 C 
ENDBRANCH   5   9
TORSDOF 1
ENDMDL
MODEL 3
REMARK VINA RESULT:    -5.505      8.550     10.195
REMARK INTER + INTRA:          -5.925
REMARK INTER:                  -5.832
REMARK INTRA:                  -0.093
REMARK UNBOUND:                -0.098
REMARK SMILES C=C(C)[C@H]1CC=C(C)C(=O)C1
REMARK SMILES IDX 8 1 7 2 6 3 5 4 4 5 11 6 9 7 10 8 2 9 1 10 3 11
REMARK H PARENT
REMARK Flexibility Score: inf
ROOT
ATOM      1  C   UNL     1      37.857  11.183  28.353  1.00  0.00     0.048 C 
ATOM      2  C   UNL     1      37.047  12.388  28.749  1.00  0.00    -0.012 C 
ATOM      3  C   UNL     1      37.623  13.603  28.771  1.00  0.00    -0.019 C 
ATOM      4  C   UNL     1      36.865  14.838  29.178  1.00  0.00     0.036 C 
ATOM      5  C   UNL     1      35.381  14.736  28.773  1.00  0.00     0.025 C 
ATOM      6  C   UNL     1      34.758  13.451  29.352  1.00  0.00     0.089 C 
ATOM      7  C   UNL     1      35.591  12.251  28.993  1.00  0.00     0.158 C 
ATOM      8  O   UNL     1      35.041  11.118  28.937  1.00  0.00    -0.295 OA
ENDROOT
BRANCH   5   9
ATOM      9  C   UNL     1      34.599  15.976  29.187  1.00  0.00    -0.077 C 
ATOM     10  C   UNL     1      34.956  17.201  28.766  1.00  0.00     0.008 C 
ATOM     11  C   UNL     1      33.397  15.845  30.086  1.00  0.00     0.039 C 
ENDBRANCH   5   9
TORSDOF 1
ENDMDL
MODEL 4
REMARK VINA RESULT:    -5.501      1.218      4.138
REMARK INTER + INTRA:          -5.920
REMARK INTER:                  -5.830
REMARK INTRA:                  -0.090
REMARK UNBOUND:                -0.098
REMARK SMILES C=C(C)[C@H]1CC=C(C)C(=O)C1
REMARK SMILES IDX 8 1 7 2 6 3 5 4 4 5 11 6 9 7 10 8 2 9 1 10 3 11
REMARK H PARENT
REMARK Flexibility Score: inf
ROOT
ATOM      1  C   UNL     1      30.108   6.568  25.716  1.00  0.00     0.048 C 
ATOM      2  C   UNL     1      29.333   7.799  26.100  1.00  0.00    -0.012 C 
ATOM      3  C   UNL     1      29.963   8.982  26.200  1.00  0.00    -0.019 C 
ATOM      4  C   UNL     1      29.240  10.240  26.600  1.00  0.00     0.036 C 
ATOM      5  C   UNL     1      27.783  10.225  26.100  1.00  0.00     0.025 C 
ATOM      6  C   UNL     1      27.062   8.955  26.594  1.00  0.00     0.089 C 
ATOM      7  C   UNL     1      27.859   7.727  26.247  1.00  0.00     0.158 C 
ATOM      8  O   UNL     1      27.261   6.625  26.119  1.00  0.00    -0.295 OA
ENDROOT
BRANCH   5   9
ATOM      9  C   UNL     1      27.035  11.488  26.505  1.00  0.00    -0.077 C 
ATOM     10  C   UNL     1      27.192  12.640  25.831  1.00  0.00     0.008 C 
ATOM     11  C   UNL     1      26.096  11.466  27.684  1.00  0.00     0.039 C 
ENDBRANCH   5   9
TORSDOF 1
ENDMDL
MODEL 5
REMARK VINA RESULT:    -5.233      1.379      2.395
REMARK INTER + INTRA:          -5.637
REMARK INTER:                  -5.541
REMARK INTRA:                  -0.096
REMARK UNBOUND:                -0.098
REMARK SMILES C=C(C)[C@H]1CC=C(C)C(=O)C1
REMARK SMILES IDX 8 1 7 2 6 3 5 4 4 5 11 6 9 7 10 8 2 9 1 10 3 11
REMARK H PARENT
REMARK Flexibility Score: inf
ROOT
ATOM      1  C   UNL     1      27.498  11.597  26.857  1.00  0.00     0.048 C 
ATOM      2  C   UNL     1      27.848  10.187  26.465  1.00  0.00    -0.012 C 
ATOM      3  C   UNL     1      29.126   9.865  26.199  1.00  0.00    -0.019 C 
ATOM      4  C   UNL     1      29.528   8.475  25.783  1.00  0.00     0.036 C 
ATOM      5  C   UNL     1      28.626   7.415  26.444  1.00  0.00     0.025 C 
ATOM      6  C   UNL     1      27.144   7.710  26.138  1.00  0.00     0.089 C 
ATOM      7  C   UNL     1      26.805   9.132  26.491  1.00  0.00     0.158 C 
ATOM      8  O   UNL     1      25.613   9.426  26.774  1.00  0.00    -0.295 OA
ENDROOT
BRANCH   5   9
ATOM      9  C   UNL     1      29.016   6.004  26.025  1.00  0.00    -0.077 C 
ATOM     10  C   UNL     1      30.189   5.753  25.419  1.00  0.00     0.008 C 
ATOM     11  C   UNL     1      28.081   4.851  26.288  1.00  0.00     0.039 C 
ENDBRANCH   5   9
TORSDOF 1
ENDMDL
MODEL 6
REMARK VINA RESULT:    -5.168      1.903      4.316
REMARK INTER + INTRA:          -5.568
REMARK INTER:                  -5.470
REMARK INTRA:                  -0.098
REMARK UNBOUND:                -0.098
REMARK SMILES C=C(C)[C@H]1CC=C(C)C(=O)C1
REMARK SMILES IDX 8 1 7 2 6 3 5 4 4 5 11 6 9 7 10 8 2 9 1 10 3 11
REMARK H PARENT
REMARK Flexibility Score: inf
ROOT
ATOM      1  C   UNL     1      32.097   9.175  25.752  1.00  0.00     0.048 C 
ATOM      2  C   UNL     1      30.642   9.124  26.131  1.00  0.00    -0.012 C 
ATOM      3  C   UNL     1      29.988  10.262  26.424  1.00  0.00    -0.019 C 
ATOM      4  C   UNL     1      28.538  10.267  26.828  1.00  0.00     0.036 C 
ATOM      5  C   UNL     1      27.762   9.134  26.127  1.00  0.00     0.025 C 
ATOM      6  C   UNL     1      28.439   7.777  26.399  1.00  0.00     0.089 C 
ATOM      7  C   UNL     1      29.904   7.840  26.060  1.00  0.00     0.158 C 
ATOM      8  O   UNL     1      30.507   6.777  25.750  1.00  0.00    -0.295 OA
ENDROOT
BRANCH   5   9
ATOM      9  C   UNL     1      26.295   9.122  26.533  1.00  0.00    -0.077 C 
ATOM     10  C   UNL     1      25.571   7.990  26.503  1.00  0.00     0.008 C 
ATOM     11  C   UNL     1      25.623  10.394  26.981  1.00  0.00     0.039 C 
ENDBRANCH   5   9
TORSDOF 1
ENDMDL
MODEL 7
REMARK VINA RESULT:    -5.142      8.078      9.529
REMARK INTER + INTRA:          -5.540
REMARK INTER:                  -5.445
REMARK INTRA:                  -0.095
REMARK UNBOUND:                -0.098
REMARK SMILES C=C(C)[C@H]1CC=C(C)C(=O)C1
REMARK SMILES IDX 8 1 7 2 6 3 5 4 4 5 11 6 9 7 10 8 2 9 1 10 3 11
REMARK H PARENT
REMARK Flexibility Score: inf
ROOT
ATOM      1  C   UNL     1      35.495  16.475  29.023  1.00  0.00     0.048 C 
ATOM      2  C   UNL     1      35.611  14.975  29.042  1.00  0.00    -0.012 C 
ATOM      3  C   UNL     1      34.506  14.220  29.172  1.00  0.00    -0.019 C 
ATOM      4  C   UNL     1      34.567  12.717  29.218  1.00  0.00     0.036 C 
ATOM      5  C   UNL     1      35.723  12.183  28.350  1.00  0.00     0.025 C 
ATOM      6  C   UNL     1      37.054  12.834  28.775  1.00  0.00     0.089 C 
ATOM      7  C   UNL     1      36.925  14.332  28.796  1.00  0.00     0.158 C 
ATOM      8  O   UNL     1      37.957  15.039  28.638  1.00  0.00    -0.295 OA
ENDROOT
BRANCH   5   9
ATOM      9  C   UNL     1      35.803  10.662  28.394  1.00  0.00    -0.077 C 
ATOM     10  C   UNL     1      34.695   9.903  28.368  1.00  0.00     0.008 C 
ATOM     11  C   UNL     1      37.144   9.978  28.467  1.00  0.00     0.039 C 
ENDBRANCH   5   9
TORSDOF 1
ENDMDL
MODEL 8
REMARK VINA RESULT:    -5.104      7.582      8.575
REMARK INTER + INTRA:          -5.500
REMARK INTER:                  -5.408
REMARK INTRA:                  -0.092
REMARK UNBOUND:                -0.098
REMARK SMILES C=C(C)[C@H]1CC=C(C)C(=O)C1
REMARK SMILES IDX 8 1 7 2 6 3 5 4 4 5 11 6 9 7 10 8 2 9 1 10 3 11
REMARK H PARENT
REMARK Flexibility Score: inf
ROOT
ATOM      1  C   UNL     1      34.629  14.028  29.262  1.00  0.00     0.048 C 
ATOM      2  C   UNL     1      35.024  12.608  28.957  1.00  0.00    -0.012 C 
ATOM      3  C   UNL     1      34.074  11.680  28.748  1.00  0.00    -0.019 C 
ATOM      4  C   UNL     1      34.413  10.242  28.459  1.00  0.00     0.036 C 
ATOM      5  C   UNL     1      35.734  10.131  27.673  1.00  0.00     0.025 C 
ATOM      6  C   UNL     1      36.866  10.858  28.425  1.00  0.00     0.089 C 
ATOM      7  C   UNL     1      36.455  12.264  28.767  1.00  0.00     0.158 C 
ATOM      8  O   UNL     1      37.345  13.141  28.927  1.00  0.00    -0.295 OA
ENDROOT
BRANCH   5   9
ATOM      9  C   UNL     1      36.095   8.680  27.381  1.00  0.00    -0.077 C 
ATOM     10  C   UNL     1      35.338   7.920  26.572  1.00  0.00     0.008 C 
ATOM     11  C   UNL     1      37.323   8.067  28.003  1.00  0.00     0.039 C 
ENDBRANCH   5   9
TORSDOF 1
ENDMDL
MODEL 9
REMARK VINA RESULT:    -5.075      7.316      9.947
REMARK INTER + INTRA:          -5.470
REMARK INTER:                  -5.377
REMARK INTRA:                  -0.093
REMARK UNBOUND:                -0.098
REMARK SMILES C=C(C)[C@H]1CC=C(C)C(=O)C1
REMARK SMILES IDX 8 1 7 2 6 3 5 4 4 5 11 6 9 7 10 8 2 9 1 10 3 11
REMARK H PARENT
REMARK Flexibility Score: inf
ROOT
ATOM      1  C   UNL     1      39.280   9.095  25.768  1.00  0.00     0.048 C 
ATOM      2  C   UNL     1      38.094   9.745  26.427  1.00  0.00    -0.012 C 
ATOM      3  C   UNL     1      36.852   9.458  26.001  1.00  0.00    -0.019 C 
ATOM      4  C   UNL     1      35.632  10.094  26.611  1.00  0.00     0.036 C 
ATOM      5  C   UNL     1      35.846  10.377  28.111  1.00  0.00     0.025 C 
ATOM      6  C   UNL     1      37.114  11.229  28.317  1.00  0.00     0.089 C 
ATOM      7  C   UNL     1      38.290  10.602  27.622  1.00  0.00     0.158 C 
ATOM      8  O   UNL     1      39.453  10.843  28.046  1.00  0.00    -0.295 OA
ENDROOT
BRANCH   5   9
ATOM      9  C   UNL     1      34.622  11.030  28.741  1.00  0.00    -0.077 C 
ATOM     10  C   UNL     1      33.407  10.462  28.659  1.00  0.00     0.008 C 
ATOM     11  C   UNL     1      34.757  12.339  29.475  1.00  0.00     0.039 C 
ENDBRANCH   5   9
TORSDOF 1
ENDMDL
