MODEL 1
REMARK VINA RESULT:     0.140      0.000      0.000
REMARK INTER + INTRA:           0.822
REMARK INTER:                   0.230
REMARK INTRA:                   0.592
REMARK UNBOUND:                 0.592
REMARK SMILES C[C@@H]1O[C@@H](OC[C@H]2O[C@H](Oc3c(-c4ccc(O)c(O)c4)oc4cc(O)cc(O)c4c3=O)[C@@H](O)[C@@H](O)[C@H]2O)[C@H](O)[C@H](O)[C@@H]1O
REMARK SMILES IDX 7 1 36 2 34 3 32 4 9 5 8 6 6 7 5 8 4 9 1 10 2 11 42 12 3 13
REMARK SMILES IDX 40 14 38 15 43 16 41 18 39 20 37 22 35 24 10 26 11 27 12 28
REMARK SMILES IDX 30 29 21 30 29 31 31 32 22 33 27 34 23 35 26 36 24 37 13 38
REMARK SMILES IDX 20 39 14 40 18 41 15 42 16 43 19 44 17 46 28 48 25 50 33 52
REMARK H PARENT 43 17 41 19 39 21 37 23 35 25 19 45 17 47 28 49 25 51 33 53
REMARK Flexibility Score: inf
ROOT
ATOM      1  C   UNL     1      60.005  24.155  17.519  1.00  0.00     0.180 C 
ATOM      2  C   UNL     1      59.551  25.334  16.636  1.00  0.00     0.177 C 
ATOM      3  C   UNL     1      58.162  25.782  17.104  1.00  0.00     0.180 C 
ATOM      4  C   UNL     1      58.185  26.110  18.619  1.00  0.00     0.214 C 
ATOM      5  C   UNL     1      58.812  24.927  19.394  1.00  0.00     0.339 C 
ATOM      6  O   UNL     1      60.078  24.565  18.870  1.00  0.00    -0.332 OA
ENDROOT
BRANCH   1   7
ATOM      7  C   UNL     1      61.381  23.610  17.117  1.00  0.00     0.198 C 
BRANCH   7   8
ATOM      8  O   UNL     1      62.140  23.290  18.271  1.00  0.00    -0.347 OA
BRANCH   8   9
ATOM      9  C   UNL     1      62.702  24.431  18.907  1.00  0.00     0.281 C 
ATOM     10  C   UNL     1      65.441  24.970  16.514  1.00  0.00     0.041 C 
ATOM     11  C   UNL     1      64.656  24.281  17.621  1.00  0.00     0.150 C 
ATOM     12  C   UNL     1      65.551  23.939  18.833  1.00  0.00     0.174 C 
ATOM     13  O   UNL     1      63.574  25.111  18.014  1.00  0.00    -0.344 OA
ATOM     14  C   UNL     1      64.701  23.211  19.893  1.00  0.00     0.179 C 
ATOM     15  C   UNL     1      63.430  24.018  20.211  1.00  0.00     0.202 C 
BRANCH  12  16
ATOM     16  O   UNL     1      66.099  25.112  19.389  1.00  0.00    -0.388 OA
ATOM     17  H   UNL     1      65.367  25.583  19.886  1.00  0.00     0.211 HD
ENDBRANCH  12  16
BRANCH  14  18
ATOM     18  O   UNL     1      65.449  23.018  21.074  1.00  0.00    -0.387 OA
ATOM     19  H   UNL     1      64.858  23.267  21.825  1.00  0.00     0.211 HD
ENDBRANCH  14  18
BRANCH  15  20
ATOM     20  O   UNL     1      63.782  25.165  20.942  1.00  0.00    -0.385 OA
ATOM     21  H   UNL     1      64.719  25.042  21.264  1.00  0.00     0.211 HD
ENDBRANCH  15  20
ENDBRANCH   8   9
ENDBRANCH   7   8
ENDBRANCH   1   7
BRANCH   2  22
ATOM     22  O   UNL     1      60.459  26.406  16.764  1.00  0.00    -0.387 OA
ATOM     23  H   UNL     1      60.100  27.149  16.232  1.00  0.00     0.211 HD
ENDBRANCH   2  22
BRANCH   3  24
ATOM     24  O   UNL     1      57.736  26.898  16.365  1.00  0.00    -0.387 OA
ATOM     25  H   UNL     1      58.391  27.624  16.556  1.00  0.00     0.211 HD
ENDBRANCH   3  24
BRANCH   5  26
ATOM     26  O   UNL     1      57.858  23.852  19.400  1.00  0.00    -0.454 OA
BRANCH  26  27
ATOM     27  C   UNL     1      56.769  23.549  20.242  1.00  0.00     0.214 A 
ATOM     28  C   UNL     1      56.980  23.607  21.641  1.00  0.00     0.180 A 
ATOM     29  C   UNL     1      55.465  23.246  19.778  1.00  0.00     0.239 A 
ATOM     30  O   UNL     1      55.959  23.443  22.463  1.00  0.00    -0.452 OA
ATOM     31  C   UNL     1      54.390  23.237  20.679  1.00  0.00     0.111 A 
ATOM     32  O   UNL     1      55.273  22.959  18.570  1.00  0.00    -0.285 OA
ATOM     33  C   UNL     1      54.708  23.277  22.054  1.00  0.00     0.146 A 
ATOM     34  C   UNL     1      53.016  23.190  20.307  1.00  0.00     0.134 A 
ATOM     35  C   UNL     1      53.713  23.158  23.026  1.00  0.00     0.094 A 
ATOM     36  C   UNL     1      52.025  23.060  21.295  1.00  0.00     0.093 A 
ATOM     37  C   UNL     1      52.373  23.027  22.649  1.00  0.00     0.123 A 
BRANCH  28  38
ATOM     38  C   UNL     1      58.325  23.796  22.281  1.00  0.00     0.025 A 
ATOM     39  C   UNL     1      59.515  23.250  21.763  1.00  0.00     0.062 A 
ATOM     40  C   UNL     1      58.405  24.618  23.426  1.00  0.00     0.016 A 
ATOM     41  C   UNL     1      60.747  23.478  22.391  1.00  0.00     0.158 A 
ATOM     42  C   UNL     1      59.629  24.845  24.047  1.00  0.00     0.051 A 
ATOM     43  C   UNL     1      60.806  24.310  23.517  1.00  0.00     0.157 A 
BRANCH  41  44
ATOM     44  O   UNL     1      61.921  22.875  21.921  1.00  0.00    -0.504 OA
ATOM     45  H   UNL     1      62.845  23.219  22.153  1.00  0.00     0.293 HD
ENDBRANCH  41  44
BRANCH  43  46
ATOM     46  O   UNL     1      62.023  24.620  24.125  1.00  0.00    -0.504 OA
ATOM     47  H   UNL     1      62.562  25.457  23.917  1.00  0.00     0.293 HD
ENDBRANCH  43  46
ENDBRANCH  28  38
BRANCH  34  48
ATOM     48  O   UNL     1      52.550  23.340  19.002  1.00  0.00    -0.507 OA
ATOM     49  H   UNL     1      51.936  22.705  18.531  1.00  0.00     0.293 HD
ENDBRANCH  34  48
BRANCH  37  50
ATOM     50  O   UNL     1      51.380  22.875  23.606  1.00  0.00    -0.508 OA
ATOM     51  H   UNL     1      51.604  22.556  24.560  1.00  0.00     0.293 HD
ENDBRANCH  37  50
ENDBRANCH  26  27
ENDBRANCH   5  26
BRANCH   4  52
ATOM     52  O   UNL     1      58.919  27.280  18.862  1.00  0.00    -0.384 OA
ATOM     53  H   UNL     1      58.282  27.987  19.163  1.00  0.00     0.211 HD
ENDBRANCH   4  52
TORSDOF 16
ENDMDL
MODEL 2
REMARK VINA RESULT:     1.696      2.726      7.154
REMARK INTER + INTRA:           3.379
REMARK INTER:                   1.647
REMARK INTRA:                   1.732
REMARK UNBOUND:                 0.592
REMARK SMILES C[C@@H]1O[C@@H](OC[C@H]2O[C@H](Oc3c(-c4ccc(O)c(O)c4)oc4cc(O)cc(O)c4c3=O)[C@@H](O)[C@@H](O)[C@H]2O)[C@H](O)[C@H](O)[C@@H]1O
REMARK SMILES IDX 7 1 36 2 34 3 32 4 9 5 8 6 6 7 5 8 4 9 1 10 2 11 42 12 3 13
REMARK SMILES IDX 40 14 38 15 43 16 41 18 39 20 37 22 35 24 10 26 11 27 12 28
REMARK SMILES IDX 30 29 21 30 29 31 31 32 22 33 27 34 23 35 26 36 24 37 13 38
REMARK SMILES IDX 20 39 14 40 18 41 15 42 16 43 19 44 17 46 28 48 25 50 33 52
REMARK H PARENT 43 17 41 19 39 21 37 23 35 25 19 45 17 47 28 49 25 51 33 53
REMARK Flexibility Score: inf
ROOT
ATOM      1  C   UNL     1      60.554  24.020  20.676  1.00  0.00     0.180 C 
ATOM      2  C   UNL     1      60.223  24.155  22.175  1.00  0.00     0.177 C 
ATOM      3  C   UNL     1      58.885  24.890  22.311  1.00  0.00     0.180 C 
ATOM      4  C   UNL     1      57.787  24.165  21.493  1.00  0.00     0.214 C 
ATOM      5  C   UNL     1      58.288  23.932  20.049  1.00  0.00     0.339 C 
ATOM      6  O   UNL     1      59.544  23.276  20.025  1.00  0.00    -0.332 OA
ENDROOT
BRANCH   1   7
ATOM      7  C   UNL     1      61.894  23.316  20.427  1.00  0.00     0.198 C 
BRANCH   7   8
ATOM      8  O   UNL     1      62.508  22.977  21.658  1.00  0.00    -0.347 OA
BRANCH   8   9
ATOM      9  C   UNL     1      63.928  22.932  21.583  1.00  0.00     0.281 C 
ATOM     10  C   UNL     1      64.591  25.512  24.117  1.00  0.00     0.041 C 
ATOM     11  C   UNL     1      64.133  24.933  22.786  1.00  0.00     0.150 C 
ATOM     12  C   UNL     1      64.717  25.714  21.588  1.00  0.00     0.174 C 
ATOM     13  O   UNL     1      64.500  23.563  22.720  1.00  0.00    -0.344 OA
ATOM     14  C   UNL     1      64.181  25.098  20.279  1.00  0.00     0.179 C 
ATOM     15  C   UNL     1      64.418  23.578  20.264  1.00  0.00     0.202 C 
BRANCH  12  16
ATOM     16  O   UNL     1      66.125  25.653  21.597  1.00  0.00    -0.388 OA
ATOM     17  H   UNL     1      66.447  25.921  20.687  1.00  0.00     0.211 HD
ENDBRANCH  12  16
BRANCH  14  18
ATOM     18  O   UNL     1      64.811  25.689  19.165  1.00  0.00    -0.387 OA
ATOM     19  H   UNL     1      64.361  26.556  19.014  1.00  0.00     0.211 HD
ENDBRANCH  14  18
BRANCH  15  20
ATOM     20  O   UNL     1      65.791  23.327  20.094  1.00  0.00    -0.385 OA
ATOM     21  H   UNL     1      66.243  23.524  20.962  1.00  0.00     0.211 HD
ENDBRANCH  15  20
ENDBRANCH   8   9
ENDBRANCH   7   8
ENDBRANCH   1   7
BRANCH   2  22
ATOM     22  O   UNL     1      60.118  22.875  22.760  1.00  0.00    -0.387 OA
ATOM     23  H   UNL     1      59.190  22.580  22.636  1.00  0.00     0.211 HD
ENDBRANCH   2  22
BRANCH   3  24
ATOM     24  O   UNL     1      58.515  24.979  23.663  1.00  0.00    -0.387 OA
ATOM     25  H   UNL     1      59.169  25.596  24.092  1.00  0.00     0.211 HD
ENDBRANCH   3  24
BRANCH   5  26
ATOM     26  O   UNL     1      58.285  25.201  19.374  1.00  0.00    -0.454 OA
BRANCH  26  27
ATOM     27  C   UNL     1      59.188  25.807  18.478  1.00  0.00     0.214 A 
ATOM     28  C   UNL     1      58.991  27.175  18.167  1.00  0.00     0.180 A 
ATOM     29  C   UNL     1      60.310  25.151  17.914  1.00  0.00     0.239 A 
ATOM     30  O   UNL     1      59.881  27.809  17.424  1.00  0.00    -0.452 OA
ATOM     31  C   UNL     1      61.302  25.901  17.266  1.00  0.00     0.111 A 
ATOM     32  O   UNL     1      60.405  23.900  17.968  1.00  0.00    -0.285 OA
ATOM     33  C   UNL     1      61.000  27.250  16.983  1.00  0.00     0.146 A 
ATOM     34  C   UNL     1      62.578  25.401  16.878  1.00  0.00     0.134 A 
ATOM     35  C   UNL     1      61.879  28.044  16.242  1.00  0.00     0.094 A 
ATOM     36  C   UNL     1      63.448  26.206  16.124  1.00  0.00     0.093 A 
ATOM     37  C   UNL     1      63.093  27.518  15.792  1.00  0.00     0.123 A 
BRANCH  28  38
ATOM     38  C   UNL     1      57.789  27.968  18.588  1.00  0.00     0.025 A 
ATOM     39  C   UNL     1      57.688  28.627  19.829  1.00  0.00     0.062 A 
ATOM     40  C   UNL     1      56.733  28.113  17.663  1.00  0.00     0.016 A 
ATOM     41  C   UNL     1      56.549  29.372  20.160  1.00  0.00     0.158 A 
ATOM     42  C   UNL     1      55.603  28.855  17.993  1.00  0.00     0.051 A 
ATOM     43  C   UNL     1      55.520  29.516  19.221  1.00  0.00     0.157 A 
BRANCH  41  44
ATOM     44  O   UNL     1      56.415  29.965  21.422  1.00  0.00    -0.504 OA
ATOM     45  H   UNL     1      55.828  30.774  21.588  1.00  0.00     0.293 HD
ENDBRANCH  41  44
BRANCH  43  46
ATOM     46  O   UNL     1      54.403  30.311  19.486  1.00  0.00    -0.504 OA
ATOM     47  H   UNL     1      54.415  31.109  20.115  1.00  0.00     0.293 HD
ENDBRANCH  43  46
ENDBRANCH  28  38
BRANCH  34  48
ATOM     48  O   UNL     1      63.084  24.159  17.260  1.00  0.00    -0.507 OA
ATOM     49  H   UNL     1      62.890  23.291  16.800  1.00  0.00     0.293 HD
ENDBRANCH  34  48
BRANCH  37  50
ATOM     50  O   UNL     1      63.958  28.287  15.027  1.00  0.00    -0.508 OA
ATOM     51  H   UNL     1      63.601  28.964  14.338  1.00  0.00     0.293 HD
ENDBRANCH  37  50
ENDBRANCH  26  27
ENDBRANCH   5  26
BRANCH   4  52
ATOM     52  O   UNL     1      57.457  22.936  22.085  1.00  0.00    -0.384 OA
ATOM     53  H   UNL     1      58.075  22.243  21.722  1.00  0.00     0.211 HD
ENDBRANCH   4  52
TORSDOF 16
ENDMDL
MODEL 3
REMARK VINA RESULT:     2.279     17.284     21.240
REMARK INTER + INTRA:           4.337
REMARK INTER:                   0.263
REMARK INTRA:                   4.075
REMARK UNBOUND:                 0.592
REMARK SMILES C[C@@H]1O[C@@H](OC[C@H]2O[C@H](Oc3c(-c4ccc(O)c(O)c4)oc4cc(O)cc(O)c4c3=O)[C@@H](O)[C@@H](O)[C@H]2O)[C@H](O)[C@H](O)[C@@H]1O
REMARK SMILES IDX 7 1 36 2 34 3 32 4 9 5 8 6 6 7 5 8 4 9 1 10 2 11 42 12 3 13
REMARK SMILES IDX 40 14 38 15 43 16 41 18 39 20 37 22 35 24 10 26 11 27 12 28
REMARK SMILES IDX 30 29 21 30 29 31 31 32 22 33 27 34 23 35 26 36 24 37 13 38
REMARK SMILES IDX 20 39 14 40 18 41 15 42 16 43 19 44 17 46 28 48 25 50 33 52
REMARK H PARENT 43 17 41 19 39 21 37 23 35 25 19 45 17 47 28 49 25 51 33 53
REMARK Flexibility Score: inf
ROOT
ATOM      1  C   UNL     1      62.493  42.366   7.697  1.00  0.00     0.180 C 
ATOM      2  C   UNL     1      63.488  43.058   6.746  1.00  0.00     0.177 C 
ATOM      3  C   UNL     1      64.782  42.237   6.718  1.00  0.00     0.180 C 
ATOM      4  C   UNL     1      64.477  40.766   6.339  1.00  0.00     0.214 C 
ATOM      5  C   UNL     1      63.349  40.222   7.246  1.00  0.00     0.339 C 
ATOM      6  O   UNL     1      62.208  41.062   7.231  1.00  0.00    -0.332 OA
ENDROOT
BRANCH   1   7
ATOM      7  C   UNL     1      61.164  43.123   7.818  1.00  0.00     0.198 C 
BRANCH   7   8
ATOM      8  O   UNL     1      60.078  42.213   7.824  1.00  0.00    -0.347 OA
BRANCH   8   9
ATOM      9  C   UNL     1      59.222  42.355   6.696  1.00  0.00     0.281 C 
ATOM     10  C   UNL     1      57.619  39.055   6.936  1.00  0.00     0.041 C 
ATOM     11  C   UNL     1      58.731  40.063   6.684  1.00  0.00     0.150 C 
ATOM     12  C   UNL     1      59.437  39.813   5.333  1.00  0.00     0.174 C 
ATOM     13  O   UNL     1      58.193  41.376   6.735  1.00  0.00    -0.344 OA
ATOM     14  C   UNL     1      60.573  40.843   5.164  1.00  0.00     0.179 C 
ATOM     15  C   UNL     1      60.042  42.270   5.384  1.00  0.00     0.202 C 
BRANCH  12  16
ATOM     16  O   UNL     1      58.524  39.937   4.267  1.00  0.00    -0.388 OA
ATOM     17  H   UNL     1      57.962  40.749   4.441  1.00  0.00     0.211 HD
ENDBRANCH  12  16
BRANCH  14  18
ATOM     18  O   UNL     1      61.140  40.740   3.876  1.00  0.00    -0.387 OA
ATOM     19  H   UNL     1      61.043  39.797   3.600  1.00  0.00     0.211 HD
ENDBRANCH  14  18
BRANCH  15  20
ATOM     20  O   UNL     1      59.232  42.635   4.295  1.00  0.00    -0.385 OA
ATOM     21  H   UNL     1      59.609  43.473   3.905  1.00  0.00     0.211 HD
ENDBRANCH  15  20
ENDBRANCH   8   9
ENDBRANCH   7   8
ENDBRANCH   1   7
BRANCH   2  22
ATOM     22  O   UNL     1      62.943  43.121   5.446  1.00  0.00    -0.387 OA
ATOM     23  H   UNL     1      61.970  43.191   5.547  1.00  0.00     0.211 HD
ENDBRANCH   2  22
BRANCH   3  24
ATOM     24  O   UNL     1      65.696  42.801   5.812  1.00  0.00    -0.387 OA
ATOM     25  H   UNL     1      66.548  42.299   5.928  1.00  0.00     0.211 HD
ENDBRANCH   3  24
BRANCH   5  26
ATOM     26  O   UNL     1      63.902  40.017   8.557  1.00  0.00    -0.454 OA
BRANCH  26  27
ATOM     27  C   UNL     1      63.355  40.132   9.851  1.00  0.00     0.214 A 
ATOM     28  C   UNL     1      62.245  39.314  10.173  1.00  0.00     0.180 A 
ATOM     29  C   UNL     1      63.879  40.972  10.865  1.00  0.00     0.239 A 
ATOM     30  O   UNL     1      61.776  39.307  11.408  1.00  0.00    -0.452 OA
ATOM     31  C   UNL     1      63.452  40.813  12.191  1.00  0.00     0.111 A 
ATOM     32  O   UNL     1      64.704  41.874  10.576  1.00  0.00    -0.285 OA
ATOM     33  C   UNL     1      62.323  39.991  12.404  1.00  0.00     0.146 A 
ATOM     34  C   UNL     1      64.069  41.415  13.324  1.00  0.00     0.134 A 
ATOM     35  C   UNL     1      61.757  39.864  13.674  1.00  0.00     0.094 A 
ATOM     36  C   UNL     1      63.483  41.287  14.594  1.00  0.00     0.093 A 
ATOM     37  C   UNL     1      62.321  40.528  14.766  1.00  0.00     0.123 A 
BRANCH  28  38
ATOM     38  C   UNL     1      61.508  38.467   9.177  1.00  0.00     0.025 A 
ATOM     39  C   UNL     1      60.451  37.602   9.523  1.00  0.00     0.062 A 
ATOM     40  C   UNL     1      61.852  38.595   7.815  1.00  0.00     0.016 A 
ATOM     41  C   UNL     1      59.784  36.851   8.546  1.00  0.00     0.158 A 
ATOM     42  C   UNL     1      61.187  37.850   6.846  1.00  0.00     0.051 A 
ATOM     43  C   UNL     1      60.132  37.006   7.198  1.00  0.00     0.157 A 
BRANCH  41  44
ATOM     44  O   UNL     1      58.784  35.935   8.897  1.00  0.00    -0.504 OA
ATOM     45  H   UNL     1      57.862  36.221   9.206  1.00  0.00     0.293 HD
ENDBRANCH  41  44
BRANCH  43  46
ATOM     46  O   UNL     1      59.441  36.331   6.190  1.00  0.00    -0.504 OA
ATOM     47  H   UNL     1      58.970  35.440   6.327  1.00  0.00     0.293 HD
ENDBRANCH  43  46
ENDBRANCH  28  38
BRANCH  34  48
ATOM     48  O   UNL     1      65.291  42.086  13.288  1.00  0.00    -0.507 OA
ATOM     49  H   UNL     1      66.177  41.683  13.523  1.00  0.00     0.293 HD
ENDBRANCH  34  48
BRANCH  37  50
ATOM     50  O   UNL     1      61.746  40.435  16.026  1.00  0.00    -0.508 OA
ATOM     51  H   UNL     1      62.028  39.695  16.686  1.00  0.00     0.293 HD
ENDBRANCH  37  50
ENDBRANCH  26  27
ENDBRANCH   5  26
BRANCH   4  52
ATOM     52  O   UNL     1      64.093  40.669   4.993  1.00  0.00    -0.384 OA
ATOM     53  H   UNL     1      63.759  39.743   4.833  1.00  0.00     0.211 HD
ENDBRANCH   4  52
TORSDOF 16
ENDMDL
MODEL 4
REMARK VINA RESULT:     2.281      2.175      5.232
REMARK INTER + INTRA:           4.340
REMARK INTER:                   6.143
REMARK INTRA:                  -1.804
REMARK UNBOUND:                 0.592
REMARK SMILES C[C@@H]1O[C@@H](OC[C@H]2O[C@H](Oc3c(-c4ccc(O)c(O)c4)oc4cc(O)cc(O)c4c3=O)[C@@H](O)[C@@H](O)[C@H]2O)[C@H](O)[C@H](O)[C@@H]1O
REMARK SMILES IDX 7 1 36 2 34 3 32 4 9 5 8 6 6 7 5 8 4 9 1 10 2 11 42 12 3 13
REMARK SMILES IDX 40 14 38 15 43 16 41 18 39 20 37 22 35 24 10 26 11 27 12 28
REMARK SMILES IDX 30 29 21 30 29 31 31 32 22 33 27 34 23 35 26 36 24 37 13 38
REMARK SMILES IDX 20 39 14 40 18 41 15 42 16 43 19 44 17 46 28 48 25 50 33 52
REMARK H PARENT 43 17 41 19 39 21 37 23 35 25 19 45 17 47 28 49 25 51 33 53
REMARK Flexibility Score: inf
ROOT
ATOM      1  C   UNL     1      58.987  26.224  17.632  1.00  0.00     0.180 C 
ATOM      2  C   UNL     1      60.468  25.927  17.329  1.00  0.00     0.177 C 
ATOM      3  C   UNL     1      60.909  24.738  18.191  1.00  0.00     0.180 C 
ATOM      4  C   UNL     1      59.970  23.528  17.958  1.00  0.00     0.214 C 
ATOM      5  C   UNL     1      58.499  23.976  18.124  1.00  0.00     0.339 C 
ATOM      6  O   UNL     1      58.195  25.098  17.313  1.00  0.00    -0.332 OA
ENDROOT
BRANCH   1   7
ATOM      7  C   UNL     1      58.449  27.420  16.836  1.00  0.00     0.198 C 
BRANCH   7   8
ATOM      8  O   UNL     1      57.999  28.435  17.718  1.00  0.00    -0.347 OA
BRANCH   8   9
ATOM      9  C   UNL     1      57.274  27.928  18.832  1.00  0.00     0.281 C 
ATOM     10  C   UNL     1      53.951  29.084  17.764  1.00  0.00     0.041 C 
ATOM     11  C   UNL     1      55.381  29.193  18.273  1.00  0.00     0.150 C 
ATOM     12  C   UNL     1      55.476  30.083  19.533  1.00  0.00     0.174 C 
ATOM     13  O   UNL     1      55.884  27.892  18.538  1.00  0.00    -0.344 OA
ATOM     14  C   UNL     1      56.953  30.179  19.967  1.00  0.00     0.179 C 
ATOM     15  C   UNL     1      57.568  28.775  20.096  1.00  0.00     0.202 C 
BRANCH  12  16
ATOM     16  O   UNL     1      54.709  29.538  20.582  1.00  0.00    -0.388 OA
ATOM     17  H   UNL     1      54.270  30.299  21.064  1.00  0.00     0.211 HD
ENDBRANCH  12  16
BRANCH  14  18
ATOM     18  O   UNL     1      57.058  30.859  21.198  1.00  0.00    -0.387 OA
ATOM     19  H   UNL     1      56.224  31.378  21.306  1.00  0.00     0.211 HD
ENDBRANCH  14  18
BRANCH  15  20
ATOM     20  O   UNL     1      57.033  28.138  21.228  1.00  0.00    -0.385 OA
ATOM     21  H   UNL     1      56.847  27.188  20.982  1.00  0.00     0.211 HD
ENDBRANCH  15  20
ENDBRANCH   8   9
ENDBRANCH   7   8
ENDBRANCH   1   7
BRANCH   2  22
ATOM     22  O   UNL     1      60.623  25.601  15.965  1.00  0.00    -0.387 OA
ATOM     23  H   UNL     1      61.017  24.704  15.929  1.00  0.00     0.211 HD
ENDBRANCH   2  22
BRANCH   3  24
ATOM     24  O   UNL     1      62.239  24.393  17.899  1.00  0.00    -0.387 OA
ATOM     25  H   UNL     1      62.200  23.754  17.136  1.00  0.00     0.211 HD
ENDBRANCH   3  24
BRANCH   5  26
ATOM     26  O   UNL     1      58.262  24.191  19.525  1.00  0.00    -0.454 OA
BRANCH  26  27
ATOM     27  C   UNL     1      57.203  23.826  20.380  1.00  0.00     0.214 A 
ATOM     28  C   UNL     1      57.460  23.791  21.772  1.00  0.00     0.180 A 
ATOM     29  C   UNL     1      55.885  23.549  19.940  1.00  0.00     0.239 A 
ATOM     30  O   UNL     1      56.467  23.567  22.614  1.00  0.00    -0.452 OA
ATOM     31  C   UNL     1      54.840  23.474  20.873  1.00  0.00     0.111 A 
ATOM     32  O   UNL     1      55.653  23.343  18.723  1.00  0.00    -0.285 OA
ATOM     33  C   UNL     1      55.204  23.423  22.236  1.00  0.00     0.146 A 
ATOM     34  C   UNL     1      53.455  23.445  20.544  1.00  0.00     0.134 A 
ATOM     35  C   UNL     1      54.242  23.234  23.230  1.00  0.00     0.094 A 
ATOM     36  C   UNL     1      52.498  23.244  21.553  1.00  0.00     0.093 A 
ATOM     37  C   UNL     1      52.891  23.122  22.890  1.00  0.00     0.123 A 
BRANCH  28  38
ATOM     38  C   UNL     1      58.825  23.943  22.378  1.00  0.00     0.025 A 
ATOM     39  C   UNL     1      59.982  23.342  21.847  1.00  0.00     0.062 A 
ATOM     40  C   UNL     1      58.961  24.785  23.503  1.00  0.00     0.016 A 
ATOM     41  C   UNL     1      61.236  23.537  22.444  1.00  0.00     0.158 A 
ATOM     42  C   UNL     1      60.206  24.980  24.092  1.00  0.00     0.051 A 
ATOM     43  C   UNL     1      61.350  24.390  23.549  1.00  0.00     0.157 A 
BRANCH  41  44
ATOM     44  O   UNL     1      62.375  22.880  21.962  1.00  0.00    -0.504 OA
ATOM     45  H   UNL     1      62.327  22.031  21.411  1.00  0.00     0.293 HD
ENDBRANCH  41  44
BRANCH  43  46
ATOM     46  O   UNL     1      62.591  24.667  24.124  1.00  0.00    -0.504 OA
ATOM     47  H   UNL     1      62.768  25.464  24.730  1.00  0.00     0.293 HD
ENDBRANCH  43  46
ENDBRANCH  28  38
BRANCH  34  48
ATOM     48  O   UNL     1      52.946  23.681  19.268  1.00  0.00    -0.507 OA
ATOM     49  H   UNL     1      52.462  23.008  18.706  1.00  0.00     0.293 HD
ENDBRANCH  34  48
BRANCH  37  50
ATOM     50  O   UNL     1      51.930  22.901  23.867  1.00  0.00    -0.508 OA
ATOM     51  H   UNL     1      51.043  22.427  23.644  1.00  0.00     0.293 HD
ENDBRANCH  37  50
ENDBRANCH  26  27
ENDBRANCH   5  26
BRANCH   4  52
ATOM     52  O   UNL     1      60.161  22.990  16.676  1.00  0.00    -0.384 OA
ATOM     53  H   UNL     1      60.860  23.532  16.215  1.00  0.00     0.211 HD
ENDBRANCH   4  52
TORSDOF 16
ENDMDL
MODEL 5
REMARK VINA RESULT:     2.798      8.350     13.348
REMARK INTER + INTRA:           5.190
REMARK INTER:                   5.066
REMARK INTRA:                   0.124
REMARK UNBOUND:                 0.592
REMARK SMILES C[C@@H]1O[C@@H](OC[C@H]2O[C@H](Oc3c(-c4ccc(O)c(O)c4)oc4cc(O)cc(O)c4c3=O)[C@@H](O)[C@@H](O)[C@H]2O)[C@H](O)[C@H](O)[C@@H]1O
REMARK SMILES IDX 7 1 36 2 34 3 32 4 9 5 8 6 6 7 5 8 4 9 1 10 2 11 42 12 3 13
REMARK SMILES IDX 40 14 38 15 43 16 41 18 39 20 37 22 35 24 10 26 11 27 12 28
REMARK SMILES IDX 30 29 21 30 29 31 31 32 22 33 27 34 23 35 26 36 24 37 13 38
REMARK SMILES IDX 20 39 14 40 18 41 15 42 16 43 19 44 17 46 28 48 25 50 33 52
REMARK H PARENT 43 17 41 19 39 21 37 23 35 25 19 45 17 47 28 49 25 51 33 53
REMARK Flexibility Score: inf
ROOT
ATOM      1  C   UNL     1      48.541  26.824  20.553  1.00  0.00     0.180 C 
ATOM      2  C   UNL     1      48.819  26.803  22.069  1.00  0.00     0.177 C 
ATOM      3  C   UNL     1      48.246  28.085  22.684  1.00  0.00     0.180 C 
ATOM      4  C   UNL     1      46.745  28.228  22.326  1.00  0.00     0.214 C 
ATOM      5  C   UNL     1      46.560  28.068  20.799  1.00  0.00     0.339 C 
ATOM      6  O   UNL     1      47.148  26.871  20.319  1.00  0.00    -0.332 OA
ENDROOT
BRANCH   1   7
ATOM      7  C   UNL     1      49.099  25.589  19.833  1.00  0.00     0.198 C 
BRANCH   7   8
ATOM      8  O   UNL     1      49.847  24.790  20.734  1.00  0.00    -0.347 OA
BRANCH   8   9
ATOM      9  C   UNL     1      51.092  25.374  21.100  1.00  0.00     0.281 C 
ATOM     10  C   UNL     1      53.199  23.385  18.837  1.00  0.00     0.041 C 
ATOM     11  C   UNL     1      52.293  23.672  20.026  1.00  0.00     0.150 C 
ATOM     12  C   UNL     1      52.879  23.113  21.342  1.00  0.00     0.174 C 
ATOM     13  O   UNL     1      52.080  25.072  20.125  1.00  0.00    -0.344 OA
ATOM     14  C   UNL     1      51.893  23.405  22.492  1.00  0.00     0.179 C 
ATOM     15  C   UNL     1      51.516  24.897  22.511  1.00  0.00     0.202 C 
BRANCH  12  16
ATOM     16  O   UNL     1      54.123  23.710  21.623  1.00  0.00    -0.388 OA
ATOM     17  H   UNL     1      54.253  23.691  22.616  1.00  0.00     0.211 HD
ENDBRANCH  12  16
BRANCH  14  18
ATOM     18  O   UNL     1      52.463  23.043  23.730  1.00  0.00    -0.387 OA
ATOM     19  H   UNL     1      53.443  23.105  23.619  1.00  0.00     0.211 HD
ENDBRANCH  14  18
BRANCH  15  20
ATOM     20  O   UNL     1      52.619  25.646  22.954  1.00  0.00    -0.385 OA
ATOM     21  H   UNL     1      52.618  26.510  22.454  1.00  0.00     0.211 HD
ENDBRANCH  15  20
ENDBRANCH   8   9
ENDBRANCH   7   8
ENDBRANCH   1   7
BRANCH   2  22
ATOM     22  O   UNL     1      48.195  25.681  22.656  1.00  0.00    -0.387 OA
ATOM     23  H   UNL     1      48.607  25.553  23.537  1.00  0.00     0.211 HD
ENDBRANCH   2  22
BRANCH   3  24
ATOM     24  O   UNL     1      48.422  28.077  24.077  1.00  0.00    -0.387 OA
ATOM     25  H   UNL     1      49.376  28.313  24.239  1.00  0.00     0.211 HD
ENDBRANCH   3  24
BRANCH   5  26
ATOM     26  O   UNL     1      47.066  29.256  20.169  1.00  0.00    -0.454 OA
BRANCH  26  27
ATOM     27  C   UNL     1      46.699  29.943  18.995  1.00  0.00     0.214 A 
ATOM     28  C   UNL     1      46.350  31.311  19.112  1.00  0.00     0.180 A 
ATOM     29  C   UNL     1      46.710  29.368  17.700  1.00  0.00     0.239 A 
ATOM     30  O   UNL     1      46.112  32.019  18.023  1.00  0.00    -0.452 OA
ATOM     31  C   UNL     1      46.606  30.193  16.571  1.00  0.00     0.111 A 
ATOM     32  O   UNL     1      46.787  28.122  17.561  1.00  0.00    -0.285 OA
ATOM     33  C   UNL     1      46.234  31.536  16.793  1.00  0.00     0.146 A 
ATOM     34  C   UNL     1      46.847  29.774  15.231  1.00  0.00     0.134 A 
ATOM     35  C   UNL     1      45.995  32.403  15.725  1.00  0.00     0.094 A 
ATOM     36  C   UNL     1      46.593  30.653  14.164  1.00  0.00     0.093 A 
ATOM     37  C   UNL     1      46.152  31.957  14.409  1.00  0.00     0.123 A 
BRANCH  28  38
ATOM     38  C   UNL     1      46.177  32.025  20.421  1.00  0.00     0.025 A 
ATOM     39  C   UNL     1      46.135  31.367  21.665  1.00  0.00     0.062 A 
ATOM     40  C   UNL     1      46.118  33.435  20.404  1.00  0.00     0.016 A 
ATOM     41  C   UNL     1      45.993  32.088  22.859  1.00  0.00     0.158 A 
ATOM     42  C   UNL     1      45.979  34.149  21.590  1.00  0.00     0.051 A 
ATOM     43  C   UNL     1      45.952  33.488  22.820  1.00  0.00     0.157 A 
BRANCH  41  44
ATOM     44  O   UNL     1      45.875  31.431  24.090  1.00  0.00    -0.504 OA
ATOM     45  H   UNL     1      46.442  31.670  24.896  1.00  0.00     0.293 HD
ENDBRANCH  41  44
BRANCH  43  46
ATOM     46  O   UNL     1      45.886  34.242  23.992  1.00  0.00    -0.504 OA
ATOM     47  H   UNL     1      45.517  35.188  24.035  1.00  0.00     0.293 HD
ENDBRANCH  43  46
ENDBRANCH  28  38
BRANCH  34  48
ATOM     48  O   UNL     1      47.404  28.545  14.881  1.00  0.00    -0.507 OA
ATOM     49  H   UNL     1      47.554  28.226  13.944  1.00  0.00     0.293 HD
ENDBRANCH  34  48
BRANCH  37  50
ATOM     50  O   UNL     1      45.885  32.800  13.339  1.00  0.00    -0.508 OA
ATOM     51  H   UNL     1      45.961  33.823  13.435  1.00  0.00     0.293 HD
ENDBRANCH  37  50
ENDBRANCH  26  27
ENDBRANCH   5  26
BRANCH   4  52
ATOM     52  O   UNL     1      45.979  27.265  23.002  1.00  0.00    -0.384 OA
ATOM     53  H   UNL     1      45.452  26.759  22.323  1.00  0.00     0.211 HD
ENDBRANCH   4  52
TORSDOF 16
ENDMDL
