MODEL 1
REMARK VINA RESULT:    -5.077      0.000      0.000
REMARK INTER + INTRA:         -10.775
REMARK INTER:                  -8.936
REMARK INTRA:                  -1.840
REMARK UNBOUND:                -1.840
REMARK SMILES CCCCCCCCCCCCCCC(=O)[O-]
REMARK SMILES IDX 9 1 10 2 11 3 12 4 13 5 14 6 15 7 16 8 17 9 8 10 7 11 6 12
REMARK SMILES IDX 5 13 4 14 3 15 2 16 1 17
REMARK H PARENT
REMARK Flexibility Score: inf
ROOT
ATOM      1  C   UNL     1      34.920  42.890  47.129  1.00  0.00     0.000 C 
ENDROOT
BRANCH   1   2
ATOM      2  C   UNL     1      33.743  42.352  47.959  1.00  0.00     0.000 C 
BRANCH   2   3
ATOM      3  C   UNL     1      32.701  41.615  47.099  1.00  0.00     0.000 C 
BRANCH   3   4
ATOM      4  C   UNL     1      31.400  42.416  46.935  1.00  0.00     0.000 C 
BRANCH   4   5
ATOM      5  C   UNL     1      31.250  43.025  45.530  1.00  0.00     0.006 C 
BRANCH   5   6
ATOM      6  C   UNL     1      32.006  44.355  45.393  1.00  0.00     0.053 C 
BRANCH   6   7
ATOM      7  C   UNL     1      32.791  44.418  44.119  1.00  0.00     0.041 C 
ATOM      8  O   UNL     1      33.989  44.808  44.133  1.00  0.00    -0.550 OA
ATOM      9  O   UNL     1      32.213  44.014  42.922  1.00  0.00    -0.550 OA
ENDBRANCH   6   7
ENDBRANCH   5   6
ENDBRANCH   4   5
ENDBRANCH   3   4
ENDBRANCH   2   3
ENDBRANCH   1   2
BRANCH   1  10
ATOM     10  C   UNL     1      35.287  44.337  47.487  1.00  0.00     0.000 C 
BRANCH  10  11
ATOM     11  C   UNL     1      34.282  44.927  48.484  1.00  0.00    -0.000 C 
BRANCH  11  12
ATOM     12  C   UNL     1      35.003  45.570  49.676  1.00  0.00    -0.000 C 
BRANCH  12  13
ATOM     13  C   UNL     1      34.839  44.720  50.942  1.00  0.00    -0.000 C 
BRANCH  13  14
ATOM     14  C   UNL     1      36.168  44.061  51.338  1.00  0.00    -0.000 C 
BRANCH  14  15
ATOM     15  C   UNL     1      36.348  42.659  50.730  1.00  0.00    -0.000 C 
BRANCH  15  16
ATOM     16  C   UNL     1      37.585  42.499  49.828  1.00  0.00    -0.003 C 
ATOM     17  C   UNL     1      38.807  41.967  50.578  1.00  0.00     0.004 C 
ENDBRANCH  15  16
ENDBRANCH  14  15
ENDBRANCH  13  14
ENDBRANCH  12  13
ENDBRANCH  11  12
ENDBRANCH  10  11
ENDBRANCH   1  10
TORSDOF 13
ENDMDL
MODEL 2
REMARK VINA RESULT:    -5.061      2.765      6.491
REMARK INTER + INTRA:         -10.748
REMARK INTER:                  -8.852
REMARK INTRA:                  -1.895
REMARK UNBOUND:                -1.840
REMARK SMILES CCCCCCCCCCCCCCC(=O)[O-]
REMARK SMILES IDX 9 1 10 2 11 3 12 4 13 5 14 6 15 7 16 8 17 9 8 10 7 11 6 12
REMARK SMILES IDX 5 13 4 14 3 15 2 16 1 17
REMARK H PARENT
REMARK Flexibility Score: inf
ROOT
ATOM      1  C   UNL     1      35.274  44.190  47.549  1.00  0.00     0.000 C 
ENDROOT
BRANCH   1   2
ATOM      2  C   UNL     1      34.363  44.822  48.613  1.00  0.00     0.000 C 
BRANCH   2   3
ATOM      3  C   UNL     1      35.111  45.134  49.922  1.00  0.00     0.000 C 
BRANCH   3   4
ATOM      4  C   UNL     1      34.783  44.131  51.041  1.00  0.00     0.000 C 
BRANCH   4   5
ATOM      5  C   UNL     1      35.737  42.924  51.055  1.00  0.00     0.006 C 
BRANCH   5   6
ATOM      6  C   UNL     1      37.193  43.335  50.789  1.00  0.00     0.053 C 
BRANCH   6   7
ATOM      7  C   UNL     1      37.965  42.241  50.119  1.00  0.00     0.041 C 
ATOM      8  O   UNL     1      38.111  42.243  48.867  1.00  0.00    -0.550 OA
ATOM      9  O   UNL     1      38.554  41.238  50.878  1.00  0.00    -0.550 OA
ENDBRANCH   6   7
ENDBRANCH   5   6
ENDBRANCH   4   5
ENDBRANCH   3   4
ENDBRANCH   2   3
ENDBRANCH   1   2
BRANCH   1  10
ATOM     10  C   UNL     1      34.973  42.701  47.319  1.00  0.00     0.000 C 
BRANCH  10  11
ATOM     11  C   UNL     1      33.678  42.287  48.028  1.00  0.00    -0.000 C 
BRANCH  11  12
ATOM     12  C   UNL     1      32.695  41.640  47.044  1.00  0.00    -0.000 C 
BRANCH  12  13
ATOM     13  C   UNL     1      31.414  42.472  46.918  1.00  0.00    -0.000 C 
BRANCH  13  14
ATOM     14  C   UNL     1      31.237  42.998  45.486  1.00  0.00    -0.000 C 
BRANCH  14  15
ATOM     15  C   UNL     1      31.896  44.371  45.265  1.00  0.00    -0.000 C 
BRANCH  15  16
ATOM     16  C   UNL     1      32.669  44.512  43.941  1.00  0.00    -0.003 C 
ATOM     17  C   UNL     1      34.150  44.832  44.145  1.00  0.00     0.004 C 
ENDBRANCH  15  16
ENDBRANCH  14  15
ENDBRANCH  13  14
ENDBRANCH  12  13
ENDBRANCH  11  12
ENDBRANCH  10  11
ENDBRANCH   1  10
TORSDOF 13
ENDMDL
MODEL 3
REMARK VINA RESULT:    -4.989      3.349      6.804
REMARK INTER + INTRA:         -10.620
REMARK INTER:                  -9.345
REMARK INTRA:                  -1.275
REMARK UNBOUND:                -1.840
REMARK SMILES CCCCCCCCCCCCCCC(=O)[O-]
REMARK SMILES IDX 9 1 10 2 11 3 12 4 13 5 14 6 15 7 16 8 17 9 8 10 7 11 6 12
REMARK SMILES IDX 5 13 4 14 3 15 2 16 1 17
REMARK H PARENT
REMARK Flexibility Score: inf
ROOT
ATOM      1  C   UNL     1      33.061  43.378  49.035  1.00  0.00     0.000 C 
ENDROOT
BRANCH   1   2
ATOM      2  C   UNL     1      33.055  42.866  50.484  1.00  0.00     0.000 C 
BRANCH   2   3
ATOM      3  C   UNL     1      34.474  42.642  51.038  1.00  0.00     0.000 C 
BRANCH   3   4
ATOM      4  C   UNL     1      35.324  43.923  51.014  1.00  0.00     0.000 C 
BRANCH   4   5
ATOM      5  C   UNL     1      36.834  43.631  50.958  1.00  0.00     0.006 C 
BRANCH   5   6
ATOM      6  C   UNL     1      37.183  42.593  49.882  1.00  0.00     0.053 C 
BRANCH   6   7
ATOM      7  C   UNL     1      38.504  41.940  50.149  1.00  0.00     0.041 C 
ATOM      8  O   UNL     1      38.912  41.008  49.405  1.00  0.00    -0.550 OA
ATOM      9  O   UNL     1      39.301  42.381  51.197  1.00  0.00    -0.550 OA
ENDBRANCH   6   7
ENDBRANCH   5   6
ENDBRANCH   4   5
ENDBRANCH   3   4
ENDBRANCH   2   3
ENDBRANCH   1   2
BRANCH   1  10
ATOM     10  C   UNL     1      33.377  42.273  48.016  1.00  0.00     0.000 C 
BRANCH  10  11
ATOM     11  C   UNL     1      34.659  42.595  47.238  1.00  0.00    -0.000 C 
BRANCH  11  12
ATOM     12  C   UNL     1      34.742  44.091  46.908  1.00  0.00    -0.000 C 
BRANCH  12  13
ATOM     13  C   UNL     1      35.587  44.332  45.652  1.00  0.00    -0.000 C 
BRANCH  13  14
ATOM     14  C   UNL     1      34.706  44.765  44.470  1.00  0.00    -0.000 C 
BRANCH  14  15
ATOM     15  C   UNL     1      33.214  44.455  44.689  1.00  0.00    -0.000 C 
BRANCH  15  16
ATOM     16  C   UNL     1      32.401  44.249  43.398  1.00  0.00    -0.003 C 
ATOM     17  C   UNL     1      32.199  45.542  42.606  1.00  0.00     0.004 C 
ENDBRANCH  15  16
ENDBRANCH  14  15
ENDBRANCH  13  14
ENDBRANCH  12  13
ENDBRANCH  11  12
ENDBRANCH  10  11
ENDBRANCH   1  10
TORSDOF 13
ENDMDL
MODEL 4
REMARK VINA RESULT:    -4.988      3.111      6.570
REMARK INTER + INTRA:         -10.617
REMARK INTER:                  -9.047
REMARK INTRA:                  -1.570
REMARK UNBOUND:                -1.840
REMARK SMILES CCCCCCCCCCCCCCC(=O)[O-]
REMARK SMILES IDX 9 1 10 2 11 3 12 4 13 5 14 6 15 7 16 8 17 9 8 10 7 11 6 12
REMARK SMILES IDX 5 13 4 14 3 15 2 16 1 17
REMARK H PARENT
REMARK Flexibility Score: inf
ROOT
ATOM      1  C   UNL     1      33.626  44.678  48.210  1.00  0.00     0.000 C 
ENDROOT
BRANCH   1   2
ATOM      2  C   UNL     1      35.134  44.806  47.943  1.00  0.00     0.000 C 
BRANCH   2   3
ATOM      3  C   UNL     1      35.519  44.392  46.512  1.00  0.00     0.000 C 
BRANCH   3   4
ATOM      4  C   UNL     1      36.435  43.158  46.482  1.00  0.00     0.000 C 
BRANCH   4   5
ATOM      5  C   UNL     1      36.433  42.384  47.813  1.00  0.00     0.006 C 
BRANCH   5   6
ATOM      6  C   UNL     1      37.837  42.283  48.424  1.00  0.00     0.053 C 
BRANCH   6   7
ATOM      7  C   UNL     1      37.809  42.459  49.911  1.00  0.00     0.041 C 
ATOM      8  O   UNL     1      38.886  42.539  50.560  1.00  0.00    -0.550 OA
ATOM      9  O   UNL     1      36.595  42.569  50.577  1.00  0.00    -0.550 OA
ENDBRANCH   6   7
ENDBRANCH   5   6
ENDBRANCH   4   5
ENDBRANCH   3   4
ENDBRANCH   2   3
ENDBRANCH   1   2
BRANCH   1  10
ATOM     10  C   UNL     1      33.285  43.512  49.150  1.00  0.00     0.000 C 
BRANCH  10  11
ATOM     11  C   UNL     1      32.242  42.583  48.516  1.00  0.00    -0.000 C 
BRANCH  11  12
ATOM     12  C   UNL     1      32.581  42.296  47.048  1.00  0.00    -0.000 C 
BRANCH  12  13
ATOM     13  C   UNL     1      31.321  42.333  46.175  1.00  0.00    -0.000 C 
BRANCH  13  14
ATOM     14  C   UNL     1      31.128  43.721  45.546  1.00  0.00    -0.000 C 
BRANCH  14  15
ATOM     15  C   UNL     1      32.370  44.212  44.782  1.00  0.00    -0.000 C 
BRANCH  15  16
ATOM     16  C   UNL     1      32.207  44.271  43.253  1.00  0.00    -0.003 C 
ATOM     17  C   UNL     1      32.539  45.644  42.668  1.00  0.00     0.004 C 
ENDBRANCH  15  16
ENDBRANCH  14  15
ENDBRANCH  13  14
ENDBRANCH  12  13
ENDBRANCH  11  12
ENDBRANCH  10  11
ENDBRANCH   1  10
TORSDOF 13
ENDMDL
MODEL 5
REMARK VINA RESULT:    -4.959      1.320      2.189
REMARK INTER + INTRA:         -10.566
REMARK INTER:                  -9.137
REMARK INTRA:                  -1.429
REMARK UNBOUND:                -1.840
REMARK SMILES CCCCCCCCCCCCCCC(=O)[O-]
REMARK SMILES IDX 9 1 10 2 11 3 12 4 13 5 14 6 15 7 16 8 17 9 8 10 7 11 6 12
REMARK SMILES IDX 5 13 4 14 3 15 2 16 1 17
REMARK H PARENT
REMARK Flexibility Score: inf
ROOT
ATOM      1  C   UNL     1      33.328  43.399  49.039  1.00  0.00     0.000 C 
ENDROOT
BRANCH   1   2
ATOM      2  C   UNL     1      31.792  43.361  49.082  1.00  0.00     0.000 C 
BRANCH   2   3
ATOM      3  C   UNL     1      31.150  43.964  47.820  1.00  0.00     0.000 C 
BRANCH   3   4
ATOM      4  C   UNL     1      30.691  42.888  46.822  1.00  0.00     0.000 C 
BRANCH   4   5
ATOM      5  C   UNL     1      31.381  43.015  45.453  1.00  0.00     0.006 C 
BRANCH   5   6
ATOM      6  C   UNL     1      31.987  44.409  45.239  1.00  0.00     0.053 C 
BRANCH   6   7
ATOM      7  C   UNL     1      32.748  44.492  43.951  1.00  0.00     0.041 C 
ATOM      8  O   UNL     1      33.947  44.879  43.948  1.00  0.00    -0.550 OA
ATOM      9  O   UNL     1      32.146  44.109  42.760  1.00  0.00    -0.550 OA
ENDBRANCH   6   7
ENDBRANCH   5   6
ENDBRANCH   4   5
ENDBRANCH   3   4
ENDBRANCH   2   3
ENDBRANCH   1   2
BRANCH   1  10
ATOM     10  C   UNL     1      33.872  44.683  48.396  1.00  0.00     0.000 C 
BRANCH  10  11
ATOM     11  C   UNL     1      35.022  44.368  47.431  1.00  0.00    -0.000 C 
BRANCH  11  12
ATOM     12  C   UNL     1      35.384  42.878  47.475  1.00  0.00    -0.000 C 
BRANCH  12  13
ATOM     13  C   UNL     1      36.866  42.662  47.146  1.00  0.00    -0.000 C 
BRANCH  13  14
ATOM     14  C   UNL     1      37.595  41.979  48.313  1.00  0.00    -0.000 C 
BRANCH  14  15
ATOM     15  C   UNL     1      37.307  42.643  49.671  1.00  0.00    -0.000 C 
BRANCH  15  16
ATOM     16  C   UNL     1      38.539  42.820  50.578  1.00  0.00    -0.003 C 
ATOM     17  C   UNL     1      39.198  41.493  50.956  1.00  0.00     0.004 C 
ENDBRANCH  15  16
ENDBRANCH  14  15
ENDBRANCH  13  14
ENDBRANCH  12  13
ENDBRANCH  11  12
ENDBRANCH  10  11
ENDBRANCH   1  10
TORSDOF 13
ENDMDL
MODEL 6
REMARK VINA RESULT:    -4.911      1.476      2.500
REMARK INTER + INTRA:         -10.483
REMARK INTER:                  -9.063
REMARK INTRA:                  -1.420
REMARK UNBOUND:                -1.840
REMARK SMILES CCCCCCCCCCCCCCC(=O)[O-]
REMARK SMILES IDX 9 1 10 2 11 3 12 4 13 5 14 6 15 7 16 8 17 9 8 10 7 11 6 12
REMARK SMILES IDX 5 13 4 14 3 15 2 16 1 17
REMARK H PARENT
REMARK Flexibility Score: inf
ROOT
ATOM      1  C   UNL     1      33.469  42.232  47.698  1.00  0.00     0.000 C 
ENDROOT
BRANCH   1   2
ATOM      2  C   UNL     1      34.776  42.695  47.036  1.00  0.00     0.000 C 
BRANCH   2   3
ATOM      3  C   UNL     1      34.977  44.218  47.126  1.00  0.00     0.000 C 
BRANCH   3   4
ATOM      4  C   UNL     1      35.482  44.824  45.806  1.00  0.00     0.000 C 
BRANCH   4   5
ATOM      5  C   UNL     1      34.779  44.229  44.573  1.00  0.00     0.006 C 
BRANCH   5   6
ATOM      6  C   UNL     1      33.984  45.287  43.794  1.00  0.00     0.053 C 
BRANCH   6   7
ATOM      7  C   UNL     1      32.582  44.837  43.520  1.00  0.00     0.041 C 
ATOM      8  O   UNL     1      32.018  45.148  42.438  1.00  0.00    -0.550 OA
ATOM      9  O   UNL     1      31.910  44.047  44.445  1.00  0.00    -0.550 OA
ENDBRANCH   6   7
ENDBRANCH   5   6
ENDBRANCH   4   5
ENDBRANCH   3   4
ENDBRANCH   2   3
ENDBRANCH   1   2
BRANCH   1  10
ATOM     10  C   UNL     1      33.116  43.048  48.950  1.00  0.00     0.000 C 
BRANCH  10  11
ATOM     11  C   UNL     1      33.867  42.520  50.179  1.00  0.00    -0.000 C 
BRANCH  11  12
ATOM     12  C   UNL     1      34.406  43.675  51.032  1.00  0.00    -0.000 C 
BRANCH  12  13
ATOM     13  C   UNL     1      35.879  43.956  50.710  1.00  0.00    -0.000 C 
BRANCH  13  14
ATOM     14  C   UNL     1      36.699  42.657  50.705  1.00  0.00    -0.000 C 
BRANCH  14  15
ATOM     15  C   UNL     1      37.472  42.441  49.392  1.00  0.00    -0.000 C 
BRANCH  15  16
ATOM     16  C   UNL     1      38.655  41.461  49.492  1.00  0.00    -0.003 C 
ATOM     17  C   UNL     1      39.243  41.375  50.901  1.00  0.00     0.004 C 
ENDBRANCH  15  16
ENDBRANCH  14  15
ENDBRANCH  13  14
ENDBRANCH  12  13
ENDBRANCH  11  12
ENDBRANCH  10  11
ENDBRANCH   1  10
TORSDOF 13
ENDMDL
MODEL 7
REMARK VINA RESULT:    -4.886      2.600      3.550
REMARK INTER + INTRA:         -10.439
REMARK INTER:                  -9.194
REMARK INTRA:                  -1.245
REMARK UNBOUND:                -1.840
REMARK SMILES CCCCCCCCCCCCCCC(=O)[O-]
REMARK SMILES IDX 9 1 10 2 11 3 12 4 13 5 14 6 15 7 16 8 17 9 8 10 7 11 6 12
REMARK SMILES IDX 5 13 4 14 3 15 2 16 1 17
REMARK H PARENT
REMARK Flexibility Score: inf
ROOT
ATOM      1  C   UNL     1      35.419  44.273  45.100  1.00  0.00     0.000 C 
ENDROOT
BRANCH   1   2
ATOM      2  C   UNL     1      34.359  45.144  44.407  1.00  0.00     0.000 C 
BRANCH   2   3
ATOM      3  C   UNL     1      33.208  44.312  43.812  1.00  0.00     0.000 C 
BRANCH   3   4
ATOM      4  C   UNL     1      31.890  44.496  44.583  1.00  0.00     0.000 C 
BRANCH   4   5
ATOM      5  C   UNL     1      31.829  43.646  45.865  1.00  0.00     0.006 C 
BRANCH   5   6
ATOM      6  C   UNL     1      31.812  44.512  47.132  1.00  0.00     0.053 C 
BRANCH   6   7
ATOM      7  C   UNL     1      31.707  43.679  48.372  1.00  0.00     0.041 C 
ATOM      8  O   UNL     1      30.796  42.815  48.479  1.00  0.00    -0.550 OA
ATOM      9  O   UNL     1      32.634  43.831  49.396  1.00  0.00    -0.550 OA
ENDBRANCH   6   7
ENDBRANCH   5   6
ENDBRANCH   4   5
ENDBRANCH   3   4
ENDBRANCH   2   3
ENDBRANCH   1   2
BRANCH   1  10
ATOM     10  C   UNL     1      35.495  44.524  46.614  1.00  0.00     0.000 C 
BRANCH  10  11
ATOM     11  C   UNL     1      35.466  43.202  47.391  1.00  0.00    -0.000 C 
BRANCH  11  12
ATOM     12  C   UNL     1      36.719  42.367  47.103  1.00  0.00    -0.000 C 
BRANCH  12  13
ATOM     13  C   UNL     1      37.635  42.306  48.332  1.00  0.00    -0.000 C 
BRANCH  13  14
ATOM     14  C   UNL     1      36.878  42.721  49.603  1.00  0.00    -0.000 C 
BRANCH  14  15
ATOM     15  C   UNL     1      37.606  42.311  50.895  1.00  0.00    -0.000 C 
BRANCH  15  16
ATOM     16  C   UNL     1      38.735  41.282  50.703  1.00  0.00    -0.003 C 
ATOM     17  C   UNL     1      39.927  41.522  51.630  1.00  0.00     0.004 C 
ENDBRANCH  15  16
ENDBRANCH  14  15
ENDBRANCH  13  14
ENDBRANCH  12  13
ENDBRANCH  11  12
ENDBRANCH  10  11
ENDBRANCH   1  10
TORSDOF 13
ENDMDL
MODEL 8
REMARK VINA RESULT:    -4.863      3.362      6.474
REMARK INTER + INTRA:         -10.398
REMARK INTER:                  -8.791
REMARK INTRA:                  -1.607
REMARK UNBOUND:                -1.840
REMARK SMILES CCCCCCCCCCCCCCC(=O)[O-]
REMARK SMILES IDX 9 1 10 2 11 3 12 4 13 5 14 6 15 7 16 8 17 9 8 10 7 11 6 12
REMARK SMILES IDX 5 13 4 14 3 15 2 16 1 17
REMARK H PARENT
REMARK Flexibility Score: inf
ROOT
ATOM      1  C   UNL     1      33.466  42.004  48.167  1.00  0.00     0.000 C 
ENDROOT
BRANCH   1   2
ATOM      2  C   UNL     1      33.482  43.170  49.169  1.00  0.00     0.000 C 
BRANCH   2   3
ATOM      3  C   UNL     1      34.401  42.902  50.374  1.00  0.00     0.000 C 
BRANCH   3   4
ATOM      4  C   UNL     1      35.761  43.607  50.244  1.00  0.00     0.000 C 
BRANCH   4   5
ATOM      5  C   UNL     1      36.869  42.671  49.729  1.00  0.00     0.006 C 
BRANCH   5   6
ATOM      6  C   UNL     1      38.167  42.812  50.537  1.00  0.00     0.053 C 
BRANCH   6   7
ATOM      7  C   UNL     1      39.003  41.571  50.465  1.00  0.00     0.041 C 
ATOM      8  O   UNL     1      39.068  40.913  49.393  1.00  0.00    -0.550 OA
ATOM      9  O   UNL     1      39.737  41.161  51.571  1.00  0.00    -0.550 OA
ENDBRANCH   6   7
ENDBRANCH   5   6
ENDBRANCH   4   5
ENDBRANCH   3   4
ENDBRANCH   2   3
ENDBRANCH   1   2
BRANCH   1  10
ATOM     10  C   UNL     1      32.330  42.118  47.141  1.00  0.00     0.000 C 
BRANCH  10  11
ATOM     11  C   UNL     1      31.511  43.395  47.369  1.00  0.00    -0.000 C 
BRANCH  11  12
ATOM     12  C   UNL     1      31.502  44.275  46.113  1.00  0.00    -0.000 C 
BRANCH  12  13
ATOM     13  C   UNL     1      32.419  43.696  45.029  1.00  0.00    -0.000 C 
BRANCH  13  14
ATOM     14  C   UNL     1      33.228  44.806  44.341  1.00  0.00    -0.000 C 
BRANCH  14  15
ATOM     15  C   UNL     1      34.745  44.659  44.552  1.00  0.00    -0.000 C 
BRANCH  15  16
ATOM     16  C   UNL     1      35.186  44.540  46.022  1.00  0.00    -0.003 C 
ATOM     17  C   UNL     1      36.214  43.432  46.250  1.00  0.00     0.004 C 
ENDBRANCH  15  16
ENDBRANCH  14  15
ENDBRANCH  13  14
ENDBRANCH  12  13
ENDBRANCH  11  12
ENDBRANCH  10  11
ENDBRANCH   1  10
TORSDOF 13
ENDMDL
MODEL 9
REMARK VINA RESULT:    -4.785      2.833      6.359
REMARK INTER + INTRA:         -10.261
REMARK INTER:                  -8.914
REMARK INTRA:                  -1.347
REMARK UNBOUND:                -1.840
REMARK SMILES CCCCCCCCCCCCCCC(=O)[O-]
REMARK SMILES IDX 9 1 10 2 11 3 12 4 13 5 14 6 15 7 16 8 17 9 8 10 7 11 6 12
REMARK SMILES IDX 5 13 4 14 3 15 2 16 1 17
REMARK H PARENT
REMARK Flexibility Score: inf
ROOT
ATOM      1  C   UNL     1      37.696  42.570  47.576  1.00  0.00     0.000 C 
ENDROOT
BRANCH   1   2
ATOM      2  C   UNL     1      37.754  41.747  48.872  1.00  0.00     0.000 C 
BRANCH   2   3
ATOM      3  C   UNL     1      38.349  42.539  50.050  1.00  0.00     0.000 C 
BRANCH   3   4
ATOM      4  C   UNL     1      37.277  43.288  50.858  1.00  0.00     0.000 C 
BRANCH   4   5
ATOM      5  C   UNL     1      35.892  42.621  50.768  1.00  0.00     0.006 C 
BRANCH   5   6
ATOM      6  C   UNL     1      34.759  43.653  50.685  1.00  0.00     0.053 C 
BRANCH   6   7
ATOM      7  C   UNL     1      33.429  43.043  51.004  1.00  0.00     0.041 C 
ATOM      8  O   UNL     1      33.249  42.454  52.103  1.00  0.00    -0.550 OA
ATOM      9  O   UNL     1      32.376  43.155  50.104  1.00  0.00    -0.550 OA
ENDBRANCH   6   7
ENDBRANCH   5   6
ENDBRANCH   4   5
ENDBRANCH   3   4
ENDBRANCH   2   3
ENDBRANCH   1   2
BRANCH   1  10
ATOM     10  C   UNL     1      36.296  42.588  46.946  1.00  0.00     0.000 C 
BRANCH  10  11
ATOM     11  C   UNL     1      35.886  44.014  46.558  1.00  0.00    -0.000 C 
BRANCH  11  12
ATOM     12  C   UNL     1      34.534  44.386  47.178  1.00  0.00    -0.000 C 
BRANCH  12  13
ATOM     13  C   UNL     1      33.439  43.407  46.738  1.00  0.00    -0.000 C 
BRANCH  13  14
ATOM     14  C   UNL     1      32.152  44.155  46.358  1.00  0.00    -0.000 C 
BRANCH  14  15
ATOM     15  C   UNL     1      31.837  44.080  44.853  1.00  0.00    -0.000 C 
BRANCH  15  16
ATOM     16  C   UNL     1      32.951  44.608  43.932  1.00  0.00    -0.003 C 
ATOM     17  C   UNL     1      32.420  45.452  42.773  1.00  0.00     0.004 C 
ENDBRANCH  15  16
ENDBRANCH  14  15
ENDBRANCH  13  14
ENDBRANCH  12  13
ENDBRANCH  11  12
ENDBRANCH  10  11
ENDBRANCH   1  10
TORSDOF 13
ENDMDL
