MODEL 1
REMARK VINA RESULT:    -2.360      0.000      0.000
REMARK INTER + INTRA:          -2.360
REMARK INTER:                  -2.360
REMARK INTRA:                   0.000
REMARK UNBOUND:                 0.000
REMARK SMILES CC(=O)[O-]
REMARK SMILES IDX 1 1 2 2 3 3 4 4
REMARK H PARENT
REMARK Flexibility Score: inf
ROOT
ATOM      1  C   UNL     1       7.225 -13.323  -3.513  1.00  0.00     0.063 C 
ATOM      2  C   UNL     1       6.956 -13.321  -2.046  1.00  0.00     0.038 C 
ATOM      3  O   UNL     1       7.911 -13.384  -1.229  1.00  0.00    -0.550 OA
ATOM      4  O   UNL     1       5.649 -13.302  -1.578  1.00  0.00    -0.550 OA
ENDROOT
TORSDOF 0
ENDMDL
MODEL 2
REMARK VINA RESULT:    -2.352      0.113      1.621
REMARK INTER + INTRA:          -2.352
REMARK INTER:                  -2.352
REMARK INTRA:                   0.000
REMARK UNBOUND:                 0.000
REMARK SMILES CC(=O)[O-]
REMARK SMILES IDX 1 1 2 2 3 3 4 4
REMARK H PARENT
REMARK Flexibility Score: inf
ROOT
ATOM      1  C   UNL     1       7.209 -13.292  -3.588  1.00  0.00     0.063 C 
ATOM      2  C   UNL     1       6.915 -13.362  -2.128  1.00  0.00     0.038 C 
ATOM      3  O   UNL     1       5.723 -13.368  -1.723  1.00  0.00    -0.550 OA
ATOM      4  O   UNL     1       7.955 -13.367  -1.208  1.00  0.00    -0.550 OA
ENDROOT
TORSDOF 0
ENDMDL
MODEL 3
REMARK VINA RESULT:    -2.339      2.824      3.314
REMARK INTER + INTRA:          -2.339
REMARK INTER:                  -2.339
REMARK INTRA:                   0.000
REMARK UNBOUND:                 0.000
REMARK SMILES CC(=O)[O-]
REMARK SMILES IDX 1 1 2 2 3 3 4 4
REMARK H PARENT
REMARK Flexibility Score: inf
ROOT
ATOM      1  C   UNL     1       9.157 -10.886   0.324  1.00  0.00     0.063 C 
ATOM      2  C   UNL     1       8.265 -11.452  -0.729  1.00  0.00     0.038 C 
ATOM      3  O   UNL     1       7.947 -12.668  -0.700  1.00  0.00    -0.550 OA
ATOM      4  O   UNL     1       7.826 -10.649  -1.774  1.00  0.00    -0.550 OA
ENDROOT
TORSDOF 0
ENDMDL
MODEL 4
REMARK VINA RESULT:    -2.325      2.828      3.407
REMARK INTER + INTRA:          -2.325
REMARK INTER:                  -2.325
REMARK INTRA:                   0.000
REMARK UNBOUND:                 0.000
REMARK SMILES CC(=O)[O-]
REMARK SMILES IDX 1 1 2 2 3 3 4 4
REMARK H PARENT
REMARK Flexibility Score: inf
ROOT
ATOM      1  C   UNL     1       9.220 -10.827   0.346  1.00  0.00     0.063 C 
ATOM      2  C   UNL     1       8.351 -11.467  -0.684  1.00  0.00     0.038 C 
ATOM      3  O   UNL     1       7.811 -10.766  -1.578  1.00  0.00    -0.550 OA
ATOM      4  O   UNL     1       8.094 -12.830  -0.627  1.00  0.00    -0.550 OA
ENDROOT
TORSDOF 0
ENDMDL
MODEL 5
REMARK VINA RESULT:    -2.323      1.767      1.921
REMARK INTER + INTRA:          -2.323
REMARK INTER:                  -2.323
REMARK INTRA:                   0.000
REMARK UNBOUND:                 0.000
REMARK SMILES CC(=O)[O-]
REMARK SMILES IDX 1 1 2 2 3 3 4 4
REMARK H PARENT
REMARK Flexibility Score: inf
ROOT
ATOM      1  C   UNL     1       7.612 -13.628  -1.840  1.00  0.00     0.063 C 
ATOM      2  C   UNL     1       7.883 -12.499  -0.905  1.00  0.00     0.038 C 
ATOM      3  O   UNL     1       8.847 -12.564  -0.099  1.00  0.00    -0.550 OA
ATOM      4  O   UNL     1       7.041 -11.395  -0.885  1.00  0.00    -0.550 OA
ENDROOT
TORSDOF 0
ENDMDL
MODEL 6
REMARK VINA RESULT:    -2.233      3.011      3.447
REMARK INTER + INTRA:          -2.233
REMARK INTER:                  -2.233
REMARK INTRA:                   0.000
REMARK UNBOUND:                 0.000
REMARK SMILES CC(=O)[O-]
REMARK SMILES IDX 1 1 2 2 3 3 4 4
REMARK H PARENT
REMARK Flexibility Score: inf
ROOT
ATOM      1  C   UNL     1       7.733 -10.488  -1.075  1.00  0.00     0.063 C 
ATOM      2  C   UNL     1       8.643 -11.311  -0.227  1.00  0.00     0.038 C 
ATOM      3  O   UNL     1       9.499 -10.753   0.506  1.00  0.00    -0.550 OA
ATOM      4  O   UNL     1       8.582 -12.697  -0.284  1.00  0.00    -0.550 OA
ENDROOT
TORSDOF 0
ENDMDL
MODEL 7
REMARK VINA RESULT:    -2.031      1.821      1.901
REMARK INTER + INTRA:          -2.031
REMARK INTER:                  -2.031
REMARK INTRA:                   0.000
REMARK UNBOUND:                 0.000
REMARK SMILES CC(=O)[O-]
REMARK SMILES IDX 1 1 2 2 3 3 4 4
REMARK H PARENT
REMARK Flexibility Score: inf
ROOT
ATOM      1  C   UNL     1       7.169 -11.575  -2.502  1.00  0.00     0.063 C 
ATOM      2  C   UNL     1       7.320 -13.032  -2.784  1.00  0.00     0.038 C 
ATOM      3  O   UNL     1       7.559 -13.835  -1.845  1.00  0.00    -0.550 OA
ATOM      4  O   UNL     1       7.250 -13.499  -4.090  1.00  0.00    -0.550 OA
ENDROOT
TORSDOF 0
ENDMDL
MODEL 8
REMARK VINA RESULT:    -1.936      1.980      2.088
REMARK INTER + INTRA:          -1.936
REMARK INTER:                  -1.936
REMARK INTRA:                   0.000
REMARK UNBOUND:                 0.000
REMARK SMILES CC(=O)[O-]
REMARK SMILES IDX 1 1 2 2 3 3 4 4
REMARK H PARENT
REMARK Flexibility Score: inf
ROOT
ATOM      1  C   UNL     1       5.089 -13.271  -3.569  1.00  0.00     0.063 C 
ATOM      2  C   UNL     1       6.549 -13.346  -3.277  1.00  0.00     0.038 C 
ATOM      3  O   UNL     1       7.379 -13.422  -4.219  1.00  0.00    -0.550 OA
ATOM      4  O   UNL     1       6.994 -13.387  -1.962  1.00  0.00    -0.550 OA
ENDROOT
TORSDOF 0
ENDMDL
MODEL 9
REMARK VINA RESULT:    -1.835      8.733      8.964
REMARK INTER + INTRA:          -1.835
REMARK INTER:                  -1.835
REMARK INTRA:                   0.000
REMARK UNBOUND:                 0.000
REMARK SMILES CC(=O)[O-]
REMARK SMILES IDX 1 1 2 2 3 3 4 4
REMARK H PARENT
REMARK Flexibility Score: inf
ROOT
ATOM      1  C   UNL     1       5.029  -6.964  -8.719  1.00  0.00     0.063 C 
ATOM      2  C   UNL     1       4.612  -6.489  -7.368  1.00  0.00     0.038 C 
ATOM      3  O   UNL     1       5.222  -5.536  -6.817  1.00  0.00    -0.550 OA
ATOM      4  O   UNL     1       3.583  -7.132  -6.692  1.00  0.00    -0.550 OA
ENDROOT
TORSDOF 0
ENDMDL
