MODEL 1
REMARK VINA RESULT:    -4.557      0.000      0.000
REMARK INTER + INTRA:          -4.824
REMARK INTER:                  -4.824
REMARK INTRA:                   0.000
REMARK UNBOUND:                 0.000
REMARK SMILES O=c1ccc2cc(O)c(O)cc2o1
REMARK SMILES IDX 4 1 3 2 2 3 1 4 13 5 12 6 11 7 9 8 7 9 6 10 5 11 8 12 10 14
REMARK H PARENT 8 13 10 15
REMARK Flexibility Score: inf
ROOT
ATOM      1  C   UNL     1      22.726  43.912  26.415  1.00  0.00     0.019 A 
ATOM      2  C   UNL     1      23.057  45.186  26.877  1.00  0.00     0.094 A 
ATOM      3  C   UNL     1      22.833  45.498  28.223  1.00  0.00     0.336 A 
ATOM      4  O   UNL     1      23.125  46.643  28.659  1.00  0.00    -0.246 OA
ATOM      5  O   UNL     1      22.313  44.592  29.048  1.00  0.00    -0.423 OA
ATOM      6  C   UNL     1      21.983  43.366  28.647  1.00  0.00     0.142 A 
ATOM      7  C   UNL     1      21.440  42.456  29.559  1.00  0.00     0.098 A 
ATOM      8  C   UNL     1      21.090  41.162  29.143  1.00  0.00     0.161 A 
ATOM      9  C   UNL     1      21.287  40.778  27.805  1.00  0.00     0.158 A 
ATOM     10  C   UNL     1      21.832  41.687  26.889  1.00  0.00     0.062 A 
ATOM     11  C   UNL     1      22.181  42.980  27.303  1.00  0.00     0.022 A 
ENDROOT
BRANCH   9  12
ATOM     12  O   UNL     1      20.949  39.498  27.366  1.00  0.00    -0.504 OA
ATOM     13  H   UNL     1      21.253  38.664  27.853  1.00  0.00     0.293 HD
ENDBRANCH   9  12
BRANCH   8  14
ATOM     14  O   UNL     1      20.549  40.258  30.056  1.00  0.00    -0.504 OA
ATOM     15  H   UNL     1      20.583  39.258  29.895  1.00  0.00     0.293 HD
ENDBRANCH   8  14
TORSDOF 2
ENDMDL
MODEL 2
REMARK VINA RESULT:    -4.400      2.078      3.157
REMARK INTER + INTRA:          -4.657
REMARK INTER:                  -4.657
REMARK INTRA:                   0.000
REMARK UNBOUND:                 0.000
REMARK SMILES O=c1ccc2cc(O)c(O)cc2o1
REMARK SMILES IDX 4 1 3 2 2 3 1 4 13 5 12 6 11 7 9 8 7 9 6 10 5 11 8 12 10 14
REMARK H PARENT 8 13 10 15
REMARK Flexibility Score: inf
ROOT
ATOM      1  C   UNL     1      22.592  44.054  27.017  1.00  0.00     0.019 A 
ATOM      2  C   UNL     1      22.698  43.889  25.635  1.00  0.00     0.094 A 
ATOM      3  C   UNL     1      22.243  42.699  25.058  1.00  0.00     0.336 A 
ATOM      4  O   UNL     1      22.331  42.532  23.813  1.00  0.00    -0.246 OA
ATOM      5  O   UNL     1      21.718  41.739  25.816  1.00  0.00    -0.423 OA
ATOM      6  C   UNL     1      21.599  41.856  27.137  1.00  0.00     0.142 A 
ATOM      7  C   UNL     1      21.039  40.815  27.882  1.00  0.00     0.098 A 
ATOM      8  C   UNL     1      20.911  40.931  29.274  1.00  0.00     0.161 A 
ATOM      9  C   UNL     1      21.346  42.100  29.923  1.00  0.00     0.158 A 
ATOM     10  C   UNL     1      21.908  43.146  29.180  1.00  0.00     0.062 A 
ATOM     11  C   UNL     1      22.037  43.029  27.789  1.00  0.00     0.022 A 
ENDROOT
BRANCH   9  12
ATOM     12  O   UNL     1      21.230  42.242  31.306  1.00  0.00    -0.504 OA
ATOM     13  H   UNL     1      20.334  42.369  31.761  1.00  0.00     0.293 HD
ENDBRANCH   9  12
BRANCH   8  14
ATOM     14  O   UNL     1      20.351  39.890  30.014  1.00  0.00    -0.504 OA
ATOM     15  H   UNL     1      20.749  39.592  30.897  1.00  0.00     0.293 HD
ENDBRANCH   8  14
TORSDOF 2
ENDMDL
MODEL 3
REMARK VINA RESULT:    -4.382      1.323      4.479
REMARK INTER + INTRA:          -4.638
REMARK INTER:                  -4.638
REMARK INTRA:                   0.000
REMARK UNBOUND:                 0.000
REMARK SMILES O=c1ccc2cc(O)c(O)cc2o1
REMARK SMILES IDX 4 1 3 2 2 3 1 4 13 5 12 6 11 7 9 8 7 9 6 10 5 11 8 12 10 14
REMARK H PARENT 8 13 10 15
REMARK Flexibility Score: inf
ROOT
ATOM      1  C   UNL     1      22.366  43.184  25.974  1.00  0.00     0.019 A 
ATOM      2  C   UNL     1      21.986  41.842  25.997  1.00  0.00     0.094 A 
ATOM      3  C   UNL     1      21.624  41.261  27.218  1.00  0.00     0.336 A 
ATOM      4  O   UNL     1      21.278  40.051  27.259  1.00  0.00    -0.246 OA
ATOM      5  O   UNL     1      21.642  41.980  28.338  1.00  0.00    -0.423 OA
ATOM      6  C   UNL     1      21.998  43.262  28.359  1.00  0.00     0.142 A 
ATOM      7  C   UNL     1      21.998  43.966  29.566  1.00  0.00     0.098 A 
ATOM      8  C   UNL     1      22.373  45.319  29.596  1.00  0.00     0.161 A 
ATOM      9  C   UNL     1      22.749  45.968  28.407  1.00  0.00     0.158 A 
ATOM     10  C   UNL     1      22.749  45.265  27.195  1.00  0.00     0.062 A 
ATOM     11  C   UNL     1      22.376  43.915  27.166  1.00  0.00     0.022 A 
ENDROOT
BRANCH   9  12
ATOM     12  O   UNL     1      23.125  47.311  28.408  1.00  0.00    -0.504 OA
ATOM     13  H   UNL     1      23.102  47.876  29.248  1.00  0.00     0.293 HD
ENDBRANCH   9  12
BRANCH   8  14
ATOM     14  O   UNL     1      22.371  46.018  30.802  1.00  0.00    -0.504 OA
ATOM     15  H   UNL     1      23.118  46.657  31.046  1.00  0.00     0.293 HD
ENDBRANCH   8  14
TORSDOF 2
ENDMDL
MODEL 4
REMARK VINA RESULT:    -4.374      1.831      4.328
REMARK INTER + INTRA:          -4.630
REMARK INTER:                  -4.630
REMARK INTRA:                   0.000
REMARK UNBOUND:                 0.000
REMARK SMILES O=c1ccc2cc(O)c(O)cc2o1
REMARK SMILES IDX 4 1 3 2 2 3 1 4 13 5 12 6 11 7 9 8 7 9 6 10 5 11 8 12 10 14
REMARK H PARENT 8 13 10 15
REMARK Flexibility Score: inf
ROOT
ATOM      1  C   UNL     1      20.878  40.251  27.801  1.00  0.00     0.019 A 
ATOM      2  C   UNL     1      20.596  40.002  29.144  1.00  0.00     0.094 A 
ATOM      3  C   UNL     1      20.871  40.996  30.090  1.00  0.00     0.336 A 
ATOM      4  O   UNL     1      20.623  40.789  31.307  1.00  0.00    -0.246 OA
ATOM      5  O   UNL     1      21.393  42.160  29.712  1.00  0.00    -0.423 OA
ATOM      6  C   UNL     1      21.677  42.438  28.441  1.00  0.00     0.142 A 
ATOM      7  C   UNL     1      22.225  43.678  28.104  1.00  0.00     0.098 A 
ATOM      8  C   UNL     1      22.527  43.978  26.767  1.00  0.00     0.161 A 
ATOM      9  C   UNL     1      22.277  43.027  25.762  1.00  0.00     0.158 A 
ATOM     10  C   UNL     1      21.728  41.783  26.096  1.00  0.00     0.062 A 
ATOM     11  C   UNL     1      21.427  41.483  27.432  1.00  0.00     0.022 A 
ENDROOT
BRANCH   9  12
ATOM     12  O   UNL     1      22.568  43.299  24.425  1.00  0.00    -0.504 OA
ATOM     13  H   UNL     1      22.010  43.938  23.872  1.00  0.00     0.293 HD
ENDBRANCH   9  12
BRANCH   8  14
ATOM     14  O   UNL     1      23.073  45.217  26.435  1.00  0.00    -0.504 OA
ATOM     15  H   UNL     1      24.045  45.314  26.165  1.00  0.00     0.293 HD
ENDBRANCH   8  14
TORSDOF 2
ENDMDL
MODEL 5
REMARK VINA RESULT:    -4.282      1.593      5.073
REMARK INTER + INTRA:          -4.532
REMARK INTER:                  -4.532
REMARK INTRA:                   0.000
REMARK UNBOUND:                 0.000
REMARK SMILES O=c1ccc2cc(O)c(O)cc2o1
REMARK SMILES IDX 4 1 3 2 2 3 1 4 13 5 12 6 11 7 9 8 7 9 6 10 5 11 8 12 10 14
REMARK H PARENT 8 13 10 15
REMARK Flexibility Score: inf
ROOT
ATOM      1  C   UNL     1      20.931  41.668  30.465  1.00  0.00     0.019 A 
ATOM      2  C   UNL     1      20.796  40.667  29.503  1.00  0.00     0.094 A 
ATOM      3  C   UNL     1      21.196  40.932  28.189  1.00  0.00     0.336 A 
ATOM      4  O   UNL     1      21.081  40.041  27.306  1.00  0.00    -0.246 OA
ATOM      5  O   UNL     1      21.698  42.121  27.864  1.00  0.00    -0.423 OA
ATOM      6  C   UNL     1      21.844  43.103  28.751  1.00  0.00     0.142 A 
ATOM      7  C   UNL     1      22.377  44.331  28.351  1.00  0.00     0.098 A 
ATOM      8  C   UNL     1      22.533  45.371  29.280  1.00  0.00     0.161 A 
ATOM      9  C   UNL     1      22.153  45.176  30.620  1.00  0.00     0.158 A 
ATOM     10  C   UNL     1      21.619  43.946  31.024  1.00  0.00     0.062 A 
ATOM     11  C   UNL     1      21.462  42.908  30.096  1.00  0.00     0.022 A 
ENDROOT
BRANCH   9  12
ATOM     12  O   UNL     1      22.298  46.192  31.565  1.00  0.00    -0.504 OA
ATOM     13  H   UNL     1      23.055  46.863  31.522  1.00  0.00     0.293 HD
ENDBRANCH   9  12
BRANCH   8  14
ATOM     14  O   UNL     1      23.067  46.594  28.877  1.00  0.00    -0.504 OA
ATOM     15  H   UNL     1      22.896  47.445  29.400  1.00  0.00     0.293 HD
ENDBRANCH   8  14
TORSDOF 2
ENDMDL
MODEL 6
REMARK VINA RESULT:    -4.221      2.092      4.157
REMARK INTER + INTRA:          -4.468
REMARK INTER:                  -4.468
REMARK INTRA:                   0.000
REMARK UNBOUND:                 0.000
REMARK SMILES O=c1ccc2cc(O)c(O)cc2o1
REMARK SMILES IDX 4 1 3 2 2 3 1 4 13 5 12 6 11 7 9 8 7 9 6 10 5 11 8 12 10 14
REMARK H PARENT 8 13 10 15
REMARK Flexibility Score: inf
ROOT
ATOM      1  C   UNL     1      21.377  41.440  27.981  1.00  0.00     0.019 A 
ATOM      2  C   UNL     1      21.615  41.355  26.609  1.00  0.00     0.094 A 
ATOM      3  C   UNL     1      22.151  42.464  25.945  1.00  0.00     0.336 A 
ATOM      4  O   UNL     1      22.372  42.407  24.707  1.00  0.00    -0.246 OA
ATOM      5  O   UNL     1      22.429  43.581  26.614  1.00  0.00    -0.423 OA
ATOM      6  C   UNL     1      22.217  43.703  27.922  1.00  0.00     0.142 A 
ATOM      7  C   UNL     1      22.528  44.901  28.571  1.00  0.00     0.098 A 
ATOM      8  C   UNL     1      22.307  45.036  29.950  1.00  0.00     0.161 A 
ATOM      9  C   UNL     1      21.771  43.962  30.683  1.00  0.00     0.158 A 
ATOM     10  C   UNL     1      21.458  42.760  30.036  1.00  0.00     0.062 A 
ATOM     11  C   UNL     1      21.678  42.625  28.659  1.00  0.00     0.022 A 
ENDROOT
BRANCH   9  12
ATOM     12  O   UNL     1      21.542  44.070  32.055  1.00  0.00    -0.504 OA
ATOM     13  H   UNL     1      21.915  44.834  32.604  1.00  0.00     0.293 HD
ENDBRANCH   9  12
BRANCH   8  14
ATOM     14  O   UNL     1      22.620  46.233  30.594  1.00  0.00    -0.504 OA
ATOM     15  H   UNL     1      21.982  47.020  30.590  1.00  0.00     0.293 HD
ENDBRANCH   8  14
TORSDOF 2
ENDMDL
MODEL 7
REMARK VINA RESULT:    -4.082      1.199      1.505
REMARK INTER + INTRA:          -4.321
REMARK INTER:                  -4.321
REMARK INTRA:                   0.000
REMARK UNBOUND:                 0.000
REMARK SMILES O=c1ccc2cc(O)c(O)cc2o1
REMARK SMILES IDX 4 1 3 2 2 3 1 4 13 5 12 6 11 7 9 8 7 9 6 10 5 11 8 12 10 14
REMARK H PARENT 8 13 10 15
REMARK Flexibility Score: inf
ROOT
ATOM      1  C   UNL     1      22.044  42.517  25.965  1.00  0.00     0.019 A 
ATOM      2  C   UNL     1      22.528  43.783  25.635  1.00  0.00     0.094 A 
ATOM      3  C   UNL     1      22.690  44.732  26.650  1.00  0.00     0.336 A 
ATOM      4  O   UNL     1      23.125  45.881  26.371  1.00  0.00    -0.246 OA
ATOM      5  O   UNL     1      22.387  44.430  27.910  1.00  0.00    -0.423 OA
ATOM      6  C   UNL     1      21.924  43.235  28.267  1.00  0.00     0.142 A 
ATOM      7  C   UNL     1      21.622  42.975  29.607  1.00  0.00     0.098 A 
ATOM      8  C   UNL     1      21.133  41.717  29.991  1.00  0.00     0.161 A 
ATOM      9  C   UNL     1      20.945  40.713  29.024  1.00  0.00     0.158 A 
ATOM     10  C   UNL     1      21.246  40.970  27.681  1.00  0.00     0.062 A 
ATOM     11  C   UNL     1      21.734  42.226  27.297  1.00  0.00     0.022 A 
ENDROOT
BRANCH   9  12
ATOM     12  O   UNL     1      20.461  39.454  29.379  1.00  0.00    -0.504 OA
ATOM     13  H   UNL     1      19.481  39.290  29.575  1.00  0.00     0.293 HD
ENDBRANCH   9  12
BRANCH   8  14
ATOM     14  O   UNL     1      20.835  41.462  31.329  1.00  0.00    -0.504 OA
ATOM     15  H   UNL     1      20.666  42.213  31.988  1.00  0.00     0.293 HD
ENDBRANCH   8  14
TORSDOF 2
ENDMDL
MODEL 8
REMARK VINA RESULT:    -4.024      1.255      2.306
REMARK INTER + INTRA:          -4.260
REMARK INTER:                  -4.260
REMARK INTRA:                   0.000
REMARK UNBOUND:                 0.000
REMARK SMILES O=c1ccc2cc(O)c(O)cc2o1
REMARK SMILES IDX 4 1 3 2 2 3 1 4 13 5 12 6 11 7 9 8 7 9 6 10 5 11 8 12 10 14
REMARK H PARENT 8 13 10 15
REMARK Flexibility Score: inf
ROOT
ATOM      1  C   UNL     1      22.337  44.820  28.857  1.00  0.00     0.019 A 
ATOM      2  C   UNL     1      22.722  45.699  27.845  1.00  0.00     0.094 A 
ATOM      3  C   UNL     1      22.778  45.230  26.527  1.00  0.00     0.336 A 
ATOM      4  O   UNL     1      23.124  46.008  25.599  1.00  0.00    -0.246 OA
ATOM      5  O   UNL     1      22.468  43.967  26.247  1.00  0.00    -0.423 OA
ATOM      6  C   UNL     1      22.095  43.097  27.184  1.00  0.00     0.142 A 
ATOM      7  C   UNL     1      21.781  41.782  26.830  1.00  0.00     0.098 A 
ATOM      8  C   UNL     1      21.387  40.860  27.812  1.00  0.00     0.161 A 
ATOM      9  C   UNL     1      21.308  41.261  29.158  1.00  0.00     0.158 A 
ATOM     10  C   UNL     1      21.622  42.578  29.516  1.00  0.00     0.062 A 
ATOM     11  C   UNL     1      22.016  43.498  28.535  1.00  0.00     0.022 A 
ENDROOT
BRANCH   9  12
ATOM     12  O   UNL     1      20.920  40.365  30.154  1.00  0.00    -0.504 OA
ATOM     13  H   UNL     1      20.480  39.478  29.939  1.00  0.00     0.293 HD
ENDBRANCH   9  12
BRANCH   8  14
ATOM     14  O   UNL     1      21.074  39.550  27.454  1.00  0.00    -0.504 OA
ATOM     15  H   UNL     1      21.601  39.052  26.747  1.00  0.00     0.293 HD
ENDBRANCH   8  14
TORSDOF 2
ENDMDL
MODEL 9
REMARK VINA RESULT:    -3.654      1.495      2.146
REMARK INTER + INTRA:          -3.868
REMARK INTER:                  -3.868
REMARK INTRA:                   0.000
REMARK UNBOUND:                 0.000
REMARK SMILES O=c1ccc2cc(O)c(O)cc2o1
REMARK SMILES IDX 4 1 3 2 2 3 1 4 13 5 12 6 11 7 9 8 7 9 6 10 5 11 8 12 10 14
REMARK H PARENT 8 13 10 15
REMARK Flexibility Score: inf
ROOT
ATOM      1  C   UNL     1      22.846  45.383  27.862  1.00  0.00     0.019 A 
ATOM      2  C   UNL     1      22.776  45.936  29.141  1.00  0.00     0.094 A 
ATOM      3  C   UNL     1      22.283  45.154  30.191  1.00  0.00     0.336 A 
ATOM      4  O   UNL     1      22.212  45.636  31.353  1.00  0.00    -0.246 OA
ATOM      5  O   UNL     1      21.888  43.902  29.972  1.00  0.00    -0.423 OA
ATOM      6  C   UNL     1      21.938  43.337  28.767  1.00  0.00     0.142 A 
ATOM      7  C   UNL     1      21.508  42.018  28.597  1.00  0.00     0.098 A 
ATOM      8  C   UNL     1      21.557  41.416  27.331  1.00  0.00     0.161 A 
ATOM      9  C   UNL     1      22.042  42.142  26.228  1.00  0.00     0.158 A 
ATOM     10  C   UNL     1      22.473  43.464  26.395  1.00  0.00     0.062 A 
ATOM     11  C   UNL     1      22.423  44.065  27.660  1.00  0.00     0.022 A 
ENDROOT
BRANCH   9  12
ATOM     12  O   UNL     1      22.102  41.568  24.958  1.00  0.00    -0.504 OA
ATOM     13  H   UNL     1      21.923  40.583  24.804  1.00  0.00     0.293 HD
ENDBRANCH   9  12
BRANCH   8  14
ATOM     14  O   UNL     1      21.128  40.100  27.165  1.00  0.00    -0.504 OA
ATOM     15  H   UNL     1      21.697  39.315  27.462  1.00  0.00     0.293 HD
ENDBRANCH   8  14
TORSDOF 2
ENDMDL
