MODEL 1
REMARK VINA RESULT:    -6.077      0.000      0.000
REMARK INTER + INTRA:         -10.096
REMARK INTER:                  -9.274
REMARK INTRA:                  -0.822
REMARK UNBOUND:                -0.822
REMARK SMILES CC(=O)CCC=C(C)CCC=C(C)CCC=C(C)C
REMARK SMILES IDX 10 1 11 2 12 3 13 4 14 5 15 6 16 7 18 8 17 9 19 10 9 11 7 12
REMARK SMILES IDX 6 13 8 14 5 15 4 16 2 17 3 18 1 19
REMARK H PARENT
REMARK Flexibility Score: inf
ROOT
ATOM      1  C   UNL     1      21.858  28.921  38.836  1.00  0.00     0.032 C 
ENDROOT
BRANCH   1   2
ATOM      2  C   UNL     1      23.306  28.747  39.217  1.00  0.00    -0.028 C 
ATOM      3  C   UNL     1      23.730  28.162  40.361  1.00  0.00    -0.077 C 
ATOM      4  C   UNL     1      22.762  27.684  41.418  1.00  0.00     0.039 C 
BRANCH   3   5
ATOM      5  C   UNL     1      25.217  28.002  40.597  1.00  0.00     0.034 C 
BRANCH   5   6
ATOM      6  C   UNL     1      25.496  27.603  42.051  1.00  0.00     0.032 C 
BRANCH   6   7
ATOM      7  C   UNL     1      26.597  26.573  42.134  1.00  0.00    -0.028 C 
ATOM      8  C   UNL     1      25.013  24.816  42.936  1.00  0.00     0.039 C 
ATOM      9  C   UNL     1      26.387  25.302  42.536  1.00  0.00    -0.080 C 
ATOM     10  C   UNL     1      27.557  24.354  42.581  1.00  0.00     0.039 C 
ENDBRANCH   6   7
ENDBRANCH   5   6
ENDBRANCH   3   5
ENDBRANCH   1   2
BRANCH   1  11
ATOM     11  C   UNL     1      21.728  29.287  37.354  1.00  0.00     0.034 C 
BRANCH  11  12
ATOM     12  C   UNL     1      20.426  28.768  36.785  1.00  0.00    -0.077 C 
ATOM     13  C   UNL     1      19.487  29.654  36.379  1.00  0.00    -0.028 C 
ATOM     14  C   UNL     1      20.218  27.276  36.669  1.00  0.00     0.039 C 
BRANCH  13  15
ATOM     15  C   UNL     1      18.132  29.272  35.840  1.00  0.00     0.035 C 
BRANCH  15  16
ATOM     16  C   UNL     1      17.059  29.403  36.926  1.00  0.00     0.079 C 
BRANCH  16  17
ATOM     17  C   UNL     1      15.740  29.809  36.326  1.00  0.00     0.130 C 
ATOM     18  O   UNL     1      15.593  29.766  35.114  1.00  0.00    -0.300 OA
ATOM     19  C   UNL     1      14.594  30.256  37.186  1.00  0.00     0.087 C 
ENDBRANCH  16  17
ENDBRANCH  15  16
ENDBRANCH  13  15
ENDBRANCH  11  12
ENDBRANCH   1  11
TORSDOF 9
ENDMDL
MODEL 2
REMARK VINA RESULT:    -5.968      3.194      5.282
REMARK INTER + INTRA:          -9.930
REMARK INTER:                  -8.643
REMARK INTRA:                  -1.287
REMARK UNBOUND:                -0.822
REMARK SMILES CC(=O)CCC=C(C)CCC=C(C)CCC=C(C)C
REMARK SMILES IDX 10 1 11 2 12 3 13 4 14 5 15 6 16 7 18 8 17 9 19 10 9 11 7 12
REMARK SMILES IDX 6 13 8 14 5 15 4 16 2 17 3 18 1 19
REMARK H PARENT
REMARK Flexibility Score: inf
ROOT
ATOM      1  C   UNL     1      22.228  28.958  38.991  1.00  0.00     0.032 C 
ENDROOT
BRANCH   1   2
ATOM      2  C   UNL     1      23.082  30.196  38.876  1.00  0.00    -0.028 C 
ATOM      3  C   UNL     1      24.384  30.262  39.235  1.00  0.00    -0.077 C 
ATOM      4  C   UNL     1      25.096  29.090  39.870  1.00  0.00     0.039 C 
BRANCH   3   5
ATOM      5  C   UNL     1      25.141  31.554  39.017  1.00  0.00     0.034 C 
BRANCH   5   6
ATOM      6  C   UNL     1      24.184  32.685  38.621  1.00  0.00     0.032 C 
BRANCH   6   7
ATOM      7  C   UNL     1      24.115  33.744  39.695  1.00  0.00    -0.028 C 
ATOM      8  C   UNL     1      21.619  33.775  39.628  1.00  0.00     0.039 C 
ATOM      9  C   UNL     1      22.952  34.247  40.159  1.00  0.00    -0.080 C 
ATOM     10  C   UNL     1      22.997  35.302  41.234  1.00  0.00     0.039 C 
ENDBRANCH   6   7
ENDBRANCH   5   6
ENDBRANCH   3   5
ENDBRANCH   1   2
BRANCH   1  11
ATOM     11  C   UNL     1      22.406  28.061  37.763  1.00  0.00     0.034 C 
BRANCH  11  12
ATOM     12  C   UNL     1      21.071  27.770  37.113  1.00  0.00    -0.077 C 
ATOM     13  C   UNL     1      20.390  28.784  36.529  1.00  0.00    -0.028 C 
ATOM     14  C   UNL     1      20.545  26.354  37.117  1.00  0.00     0.039 C 
BRANCH  13  15
ATOM     15  C   UNL     1      19.032  28.641  35.890  1.00  0.00     0.035 C 
BRANCH  15  16
ATOM     16  C   UNL     1      17.999  29.513  36.613  1.00  0.00     0.079 C 
BRANCH  16  17
ATOM     17  C   UNL     1      18.512  30.918  36.780  1.00  0.00     0.130 C 
ATOM     18  O   UNL     1      18.722  31.603  35.790  1.00  0.00    -0.300 OA
ATOM     19  C   UNL     1      18.761  31.503  38.139  1.00  0.00     0.087 C 
ENDBRANCH  16  17
ENDBRANCH  15  16
ENDBRANCH  13  15
ENDBRANCH  11  12
ENDBRANCH   1  11
TORSDOF 9
ENDMDL
MODEL 3
REMARK VINA RESULT:    -5.952      3.022      4.788
REMARK INTER + INTRA:          -9.906
REMARK INTER:                  -7.803
REMARK INTRA:                  -2.103
REMARK UNBOUND:                -0.822
REMARK SMILES CC(=O)CCC=C(C)CCC=C(C)CCC=C(C)C
REMARK SMILES IDX 10 1 11 2 12 3 13 4 14 5 15 6 16 7 18 8 17 9 19 10 9 11 7 12
REMARK SMILES IDX 6 13 8 14 5 15 4 16 2 17 3 18 1 19
REMARK H PARENT
REMARK Flexibility Score: inf
ROOT
ATOM      1  C   UNL     1      23.097  33.966  39.136  1.00  0.00     0.032 C 
ENDROOT
BRANCH   1   2
ATOM      2  C   UNL     1      23.989  32.839  39.592  1.00  0.00    -0.028 C 
ATOM      3  C   UNL     1      24.627  31.986  38.759  1.00  0.00    -0.077 C 
ATOM      4  C   UNL     1      24.437  32.043  37.260  1.00  0.00     0.039 C 
BRANCH   3   5
ATOM      5  C   UNL     1      25.538  30.929  39.346  1.00  0.00     0.034 C 
BRANCH   5   6
ATOM      6  C   UNL     1      25.164  29.537  38.823  1.00  0.00     0.032 C 
BRANCH   6   7
ATOM      7  C   UNL     1      23.890  29.037  39.459  1.00  0.00    -0.028 C 
ATOM      8  C   UNL     1      25.153  27.682  41.134  1.00  0.00     0.039 C 
ATOM      9  C   UNL     1      23.874  28.192  40.511  1.00  0.00    -0.080 C 
ATOM     10  C   UNL     1      22.545  27.755  41.070  1.00  0.00     0.039 C 
ENDBRANCH   6   7
ENDBRANCH   5   6
ENDBRANCH   3   5
ENDBRANCH   1   2
BRANCH   1  11
ATOM     11  C   UNL     1      21.629  33.652  39.441  1.00  0.00     0.034 C 
BRANCH  11  12
ATOM     12  C   UNL     1      21.027  32.792  38.350  1.00  0.00    -0.077 C 
ATOM     13  C   UNL     1      20.680  31.515  38.637  1.00  0.00    -0.028 C 
ATOM     14  C   UNL     1      20.814  33.388  36.979  1.00  0.00     0.039 C 
BRANCH  13  15
ATOM     15  C   UNL     1      20.117  30.540  37.634  1.00  0.00     0.035 C 
BRANCH  15  16
ATOM     16  C   UNL     1      21.240  29.735  36.972  1.00  0.00     0.079 C 
BRANCH  16  17
ATOM     17  C   UNL     1      20.754  28.364  36.584  1.00  0.00     0.130 C 
ATOM     18  O   UNL     1      19.911  28.251  35.706  1.00  0.00    -0.300 OA
ATOM     19  C   UNL     1      21.292  27.128  37.243  1.00  0.00     0.087 C 
ENDBRANCH  16  17
ENDBRANCH  15  16
ENDBRANCH  13  15
ENDBRANCH  11  12
ENDBRANCH   1  11
TORSDOF 9
ENDMDL
MODEL 4
REMARK VINA RESULT:    -5.939      2.389      4.228
REMARK INTER + INTRA:          -9.885
REMARK INTER:                  -8.413
REMARK INTRA:                  -1.472
REMARK UNBOUND:                -0.822
REMARK SMILES CC(=O)CCC=C(C)CCC=C(C)CCC=C(C)C
REMARK SMILES IDX 10 1 11 2 12 3 13 4 14 5 15 6 16 7 18 8 17 9 19 10 9 11 7 12
REMARK SMILES IDX 6 13 8 14 5 15 4 16 2 17 3 18 1 19
REMARK H PARENT
REMARK Flexibility Score: inf
ROOT
ATOM      1  C   UNL     1      21.901  27.993  38.514  1.00  0.00     0.032 C 
ENDROOT
BRANCH   1   2
ATOM      2  C   UNL     1      23.285  28.559  38.714  1.00  0.00    -0.028 C 
ATOM      3  C   UNL     1      23.986  28.471  39.867  1.00  0.00    -0.077 C 
ATOM      4  C   UNL     1      23.399  27.846  41.112  1.00  0.00     0.039 C 
BRANCH   3   5
ATOM      5  C   UNL     1      25.389  29.036  39.918  1.00  0.00     0.034 C 
BRANCH   5   6
ATOM      6  C   UNL     1      25.552  30.179  38.909  1.00  0.00     0.032 C 
BRANCH   6   7
ATOM      7  C   UNL     1      25.253  31.516  39.543  1.00  0.00    -0.028 C 
ATOM      8  C   UNL     1      23.481  32.019  37.857  1.00  0.00     0.039 C 
ATOM      9  C   UNL     1      24.313  32.361  39.071  1.00  0.00    -0.080 C 
ATOM     10  C   UNL     1      24.095  33.672  39.781  1.00  0.00     0.039 C 
ENDBRANCH   6   7
ENDBRANCH   5   6
ENDBRANCH   3   5
ENDBRANCH   1   2
BRANCH   1  11
ATOM     11  C   UNL     1      21.592  27.834  37.022  1.00  0.00     0.034 C 
BRANCH  11  12
ATOM     12  C   UNL     1      20.453  28.741  36.611  1.00  0.00    -0.077 C 
ATOM     13  C   UNL     1      20.502  30.051  36.948  1.00  0.00    -0.028 C 
ATOM     14  C   UNL     1      19.304  28.163  35.819  1.00  0.00     0.039 C 
BRANCH  13  15
ATOM     15  C   UNL     1      19.415  31.050  36.642  1.00  0.00     0.035 C 
BRANCH  15  16
ATOM     16  C   UNL     1      18.412  31.130  37.798  1.00  0.00     0.079 C 
BRANCH  16  17
ATOM     17  C   UNL     1      17.000  31.033  37.285  1.00  0.00     0.130 C 
ATOM     18  O   UNL     1      16.416  32.048  36.938  1.00  0.00    -0.300 OA
ATOM     19  C   UNL     1      16.296  29.712  37.179  1.00  0.00     0.087 C 
ENDBRANCH  16  17
ENDBRANCH  15  16
ENDBRANCH  13  15
ENDBRANCH  11  12
ENDBRANCH   1  11
TORSDOF 9
ENDMDL
MODEL 5
REMARK VINA RESULT:    -5.933      3.645      5.221
REMARK INTER + INTRA:          -9.877
REMARK INTER:                  -7.569
REMARK INTRA:                  -2.308
REMARK UNBOUND:                -0.822
REMARK SMILES CC(=O)CCC=C(C)CCC=C(C)CCC=C(C)C
REMARK SMILES IDX 10 1 11 2 12 3 13 4 14 5 15 6 16 7 18 8 17 9 19 10 9 11 7 12
REMARK SMILES IDX 6 13 8 14 5 15 4 16 2 17 3 18 1 19
REMARK H PARENT
REMARK Flexibility Score: inf
ROOT
ATOM      1  C   UNL     1      21.112  32.896  38.231  1.00  0.00     0.032 C 
ENDROOT
BRANCH   1   2
ATOM      2  C   UNL     1      22.169  32.053  37.563  1.00  0.00    -0.028 C 
ATOM      3  C   UNL     1      22.252  31.850  36.228  1.00  0.00    -0.077 C 
ATOM      4  C   UNL     1      21.222  32.405  35.271  1.00  0.00     0.039 C 
BRANCH   3   5
ATOM      5  C   UNL     1      23.397  31.025  35.681  1.00  0.00     0.034 C 
BRANCH   5   6
ATOM      6  C   UNL     1      23.545  29.714  36.464  1.00  0.00     0.032 C 
BRANCH   6   7
ATOM      7  C   UNL     1      22.387  28.784  36.197  1.00  0.00    -0.028 C 
ATOM      8  C   UNL     1      21.969  28.461  38.638  1.00  0.00     0.039 C 
ATOM      9  C   UNL     1      21.663  28.208  37.181  1.00  0.00    -0.080 C 
ATOM     10  C   UNL     1      20.526  27.294  36.804  1.00  0.00     0.039 C 
ENDBRANCH   6   7
ENDBRANCH   5   6
ENDBRANCH   3   5
ENDBRANCH   1   2
BRANCH   1  11
ATOM     11  C   UNL     1      20.057  32.009  38.902  1.00  0.00     0.034 C 
BRANCH  11  12
ATOM     12  C   UNL     1      18.955  31.656  37.927  1.00  0.00    -0.077 C 
ATOM     13  C   UNL     1      18.736  30.354  37.628  1.00  0.00    -0.028 C 
ATOM     14  C   UNL     1      18.120  32.763  37.329  1.00  0.00     0.039 C 
BRANCH  13  15
ATOM     15  C   UNL     1      17.705  29.869  36.640  1.00  0.00     0.035 C 
BRANCH  15  16
ATOM     16  C   UNL     1      16.427  29.428  37.363  1.00  0.00     0.079 C 
BRANCH  16  17
ATOM     17  C   UNL     1      15.207  29.956  36.657  1.00  0.00     0.130 C 
ATOM     18  O   UNL     1      15.227  30.091  35.443  1.00  0.00    -0.300 OA
ATOM     19  C   UNL     1      13.959  30.311  37.410  1.00  0.00     0.087 C 
ENDBRANCH  16  17
ENDBRANCH  15  16
ENDBRANCH  13  15
ENDBRANCH  11  12
ENDBRANCH   1  11
TORSDOF 9
ENDMDL
MODEL 6
REMARK VINA RESULT:    -5.925      2.873      4.547
REMARK INTER + INTRA:          -9.864
REMARK INTER:                  -8.108
REMARK INTRA:                  -1.756
REMARK UNBOUND:                -0.822
REMARK SMILES CC(=O)CCC=C(C)CCC=C(C)CCC=C(C)C
REMARK SMILES IDX 10 1 11 2 12 3 13 4 14 5 15 6 16 7 18 8 17 9 19 10 9 11 7 12
REMARK SMILES IDX 6 13 8 14 5 15 4 16 2 17 3 18 1 19
REMARK H PARENT
REMARK Flexibility Score: inf
ROOT
ATOM      1  C   UNL     1      25.488  32.029  36.267  1.00  0.00     0.032 C 
ENDROOT
BRANCH   1   2
ATOM      2  C   UNL     1      25.923  31.149  37.412  1.00  0.00    -0.028 C 
ATOM      3  C   UNL     1      25.423  31.226  38.666  1.00  0.00    -0.077 C 
ATOM      4  C   UNL     1      24.410  32.277  39.058  1.00  0.00     0.039 C 
BRANCH   3   5
ATOM      5  C   UNL     1      25.909  30.246  39.712  1.00  0.00     0.034 C 
BRANCH   5   6
ATOM      6  C   UNL     1      25.515  28.812  39.338  1.00  0.00     0.032 C 
BRANCH   6   7
ATOM      7  C   UNL     1      24.098  28.505  39.759  1.00  0.00    -0.028 C 
ATOM      8  C   UNL     1      24.864  27.459  41.893  1.00  0.00     0.039 C 
ATOM      9  C   UNL     1      23.792  27.889  40.920  1.00  0.00    -0.080 C 
ATOM     10  C   UNL     1      22.343  27.631  41.243  1.00  0.00     0.039 C 
ENDBRANCH   6   7
ENDBRANCH   5   6
ENDBRANCH   3   5
ENDBRANCH   1   2
BRANCH   1  11
ATOM     11  C   UNL     1      24.744  31.210  35.208  1.00  0.00     0.034 C 
BRANCH  11  12
ATOM     12  C   UNL     1      23.246  31.346  35.379  1.00  0.00    -0.077 C 
ATOM     13  C   UNL     1      22.599  30.492  36.205  1.00  0.00    -0.028 C 
ATOM     14  C   UNL     1      22.519  32.443  34.637  1.00  0.00     0.039 C 
BRANCH  13  15
ATOM     15  C   UNL     1      21.108  30.488  36.429  1.00  0.00     0.035 C 
BRANCH  15  16
ATOM     16  C   UNL     1      20.715  29.410  37.444  1.00  0.00     0.079 C 
BRANCH  16  17
ATOM     17  C   UNL     1      20.541  28.077  36.766  1.00  0.00     0.130 C 
ATOM     18  O   UNL     1      19.818  27.993  35.785  1.00  0.00    -0.300 OA
ATOM     19  C   UNL     1      21.248  26.850  37.260  1.00  0.00     0.087 C 
ENDBRANCH  16  17
ENDBRANCH  15  16
ENDBRANCH  13  15
ENDBRANCH  11  12
ENDBRANCH   1  11
TORSDOF 9
ENDMDL
MODEL 7
REMARK VINA RESULT:    -5.906      1.795      2.227
REMARK INTER + INTRA:          -9.835
REMARK INTER:                  -8.801
REMARK INTRA:                  -1.034
REMARK UNBOUND:                -0.822
REMARK SMILES CC(=O)CCC=C(C)CCC=C(C)CCC=C(C)C
REMARK SMILES IDX 10 1 11 2 12 3 13 4 14 5 15 6 16 7 18 8 17 9 19 10 9 11 7 12
REMARK SMILES IDX 6 13 8 14 5 15 4 16 2 17 3 18 1 19
REMARK H PARENT
REMARK Flexibility Score: inf
ROOT
ATOM      1  C   UNL     1      21.894  28.697  38.640  1.00  0.00     0.032 C 
ENDROOT
BRANCH   1   2
ATOM      2  C   UNL     1      23.199  28.243  39.244  1.00  0.00    -0.028 C 
ATOM      3  C   UNL     1      24.247  29.059  39.499  1.00  0.00    -0.077 C 
ATOM      4  C   UNL     1      24.228  30.523  39.124  1.00  0.00     0.039 C 
BRANCH   3   5
ATOM      5  C   UNL     1      25.482  28.483  40.159  1.00  0.00     0.034 C 
BRANCH   5   6
ATOM      6  C   UNL     1      25.099  27.590  41.345  1.00  0.00     0.032 C 
BRANCH   6   7
ATOM      7  C   UNL     1      26.277  26.773  41.818  1.00  0.00    -0.028 C 
ATOM      8  C   UNL     1      24.787  24.988  42.730  1.00  0.00     0.039 C 
ATOM      9  C   UNL     1      26.145  25.588  42.450  1.00  0.00    -0.080 C 
ATOM     10  C   UNL     1      27.389  24.854  42.880  1.00  0.00     0.039 C 
ENDBRANCH   6   7
ENDBRANCH   5   6
ENDBRANCH   3   5
ENDBRANCH   1   2
BRANCH   1  11
ATOM     11  C   UNL     1      21.880  28.444  37.129  1.00  0.00     0.034 C 
BRANCH  11  12
ATOM     12  C   UNL     1      20.758  29.215  36.467  1.00  0.00    -0.077 C 
ATOM     13  C   UNL     1      20.909  30.543  36.256  1.00  0.00    -0.028 C 
ATOM     14  C   UNL     1      19.510  28.476  36.043  1.00  0.00     0.039 C 
BRANCH  13  15
ATOM     15  C   UNL     1      19.854  31.435  35.652  1.00  0.00     0.035 C 
BRANCH  15  16
ATOM     16  C   UNL     1      19.256  32.364  36.714  1.00  0.00     0.079 C 
BRANCH  16  17
ATOM     17  C   UNL     1      18.455  31.579  37.718  1.00  0.00     0.130 C 
ATOM     18  O   UNL     1      18.912  31.390  38.835  1.00  0.00    -0.300 OA
ATOM     19  C   UNL     1      17.100  31.031  37.381  1.00  0.00     0.087 C 
ENDBRANCH  16  17
ENDBRANCH  15  16
ENDBRANCH  13  15
ENDBRANCH  11  12
ENDBRANCH   1  11
TORSDOF 9
ENDMDL
MODEL 8
REMARK VINA RESULT:    -5.826      3.384      5.755
REMARK INTER + INTRA:          -9.713
REMARK INTER:                  -7.939
REMARK INTRA:                  -1.773
REMARK UNBOUND:                -0.822
REMARK SMILES CC(=O)CCC=C(C)CCC=C(C)CCC=C(C)C
REMARK SMILES IDX 10 1 11 2 12 3 13 4 14 5 15 6 16 7 18 8 17 9 19 10 9 11 7 12
REMARK SMILES IDX 6 13 8 14 5 15 4 16 2 17 3 18 1 19
REMARK H PARENT
REMARK Flexibility Score: inf
ROOT
ATOM      1  C   UNL     1      23.945  28.868  38.674  1.00  0.00     0.032 C 
ENDROOT
BRANCH   1   2
ATOM      2  C   UNL     1      24.282  30.168  39.359  1.00  0.00    -0.028 C 
ATOM      3  C   UNL     1      24.423  31.353  38.722  1.00  0.00    -0.077 C 
ATOM      4  C   UNL     1      24.326  31.466  37.217  1.00  0.00     0.039 C 
BRANCH   3   5
ATOM      5  C   UNL     1      24.710  32.596  39.537  1.00  0.00     0.034 C 
BRANCH   5   6
ATOM      6  C   UNL     1      23.988  33.812  38.945  1.00  0.00     0.032 C 
BRANCH   6   7
ATOM      7  C   UNL     1      23.247  34.582  40.011  1.00  0.00    -0.028 C 
ATOM      8  C   UNL     1      21.076  33.507  39.401  1.00  0.00     0.039 C 
ATOM      9  C   UNL     1      21.921  34.450  40.227  1.00  0.00    -0.080 C 
ATOM     10  C   UNL     1      21.280  35.266  41.319  1.00  0.00     0.039 C 
ENDBRANCH   6   7
ENDBRANCH   5   6
ENDBRANCH   3   5
ENDBRANCH   1   2
BRANCH   1  11
ATOM     11  C   UNL     1      22.526  28.418  39.034  1.00  0.00     0.034 C 
BRANCH  11  12
ATOM     12  C   UNL     1      21.546  28.814  37.951  1.00  0.00    -0.077 C 
ATOM     13  C   UNL     1      20.967  30.036  38.005  1.00  0.00    -0.028 C 
ATOM     14  C   UNL     1      21.258  27.843  36.830  1.00  0.00     0.039 C 
BRANCH  13  15
ATOM     15  C   UNL     1      19.941  30.537  37.019  1.00  0.00     0.035 C 
BRANCH  15  16
ATOM     16  C   UNL     1      18.536  30.491  37.629  1.00  0.00     0.079 C 
BRANCH  16  17
ATOM     17  C   UNL     1      17.624  29.626  36.801  1.00  0.00     0.130 C 
ATOM     18  O   UNL     1      16.528  29.314  37.241  1.00  0.00    -0.300 OA
ATOM     19  C   UNL     1      18.026  29.146  35.437  1.00  0.00     0.087 C 
ENDBRANCH  16  17
ENDBRANCH  15  16
ENDBRANCH  13  15
ENDBRANCH  11  12
ENDBRANCH   1  11
TORSDOF 9
ENDMDL
MODEL 9
REMARK VINA RESULT:    -5.767      3.796      7.769
REMARK INTER + INTRA:          -9.623
REMARK INTER:                  -7.231
REMARK INTRA:                  -2.393
REMARK UNBOUND:                -0.822
REMARK SMILES CC(=O)CCC=C(C)CCC=C(C)CCC=C(C)C
REMARK SMILES IDX 10 1 11 2 12 3 13 4 14 5 15 6 16 7 18 8 17 9 19 10 9 11 7 12
REMARK SMILES IDX 6 13 8 14 5 15 4 16 2 17 3 18 1 19
REMARK H PARENT
REMARK Flexibility Score: inf
ROOT
ATOM      1  C   UNL     1      19.449  28.499  36.728  1.00  0.00     0.032 C 
ENDROOT
BRANCH   1   2
ATOM      2  C   UNL     1      19.605  29.828  36.032  1.00  0.00    -0.028 C 
ATOM      3  C   UNL     1      19.403  31.027  36.623  1.00  0.00    -0.077 C 
ATOM      4  C   UNL     1      18.920  31.142  38.051  1.00  0.00     0.039 C 
BRANCH   3   5
ATOM      5  C   UNL     1      19.647  32.290  35.824  1.00  0.00     0.034 C 
BRANCH   5   6
ATOM      6  C   UNL     1      20.502  33.281  36.622  1.00  0.00     0.032 C 
BRANCH   6   7
ATOM      7  C   UNL     1      21.964  32.909  36.568  1.00  0.00    -0.028 C 
ATOM      8  C   UNL     1      22.105  32.743  39.055  1.00  0.00     0.039 C 
ATOM      9  C   UNL     1      22.703  32.663  37.670  1.00  0.00    -0.080 C 
ATOM     10  C   UNL     1      24.155  32.299  37.503  1.00  0.00     0.039 C 
ENDBRANCH   6   7
ENDBRANCH   5   6
ENDBRANCH   3   5
ENDBRANCH   1   2
BRANCH   1  11
ATOM     11  C   UNL     1      20.741  27.683  36.631  1.00  0.00     0.034 C 
BRANCH  11  12
ATOM     12  C   UNL     1      21.902  28.442  37.236  1.00  0.00    -0.077 C 
ATOM     13  C   UNL     1      22.037  28.472  38.583  1.00  0.00    -0.028 C 
ATOM     14  C   UNL     1      22.887  29.130  36.320  1.00  0.00     0.039 C 
BRANCH  13  15
ATOM     15  C   UNL     1      23.117  29.229  39.314  1.00  0.00     0.035 C 
BRANCH  15  16
ATOM     16  C   UNL     1      24.085  28.261  40.003  1.00  0.00     0.079 C 
BRANCH  16  17
ATOM     17  C   UNL     1      25.474  28.409  39.444  1.00  0.00     0.130 C 
ATOM     18  O   UNL     1      26.059  27.424  39.019  1.00  0.00    -0.300 OA
ATOM     19  C   UNL     1      26.156  29.744  39.387  1.00  0.00     0.087 C 
ENDBRANCH  16  17
ENDBRANCH  15  16
ENDBRANCH  13  15
ENDBRANCH  11  12
ENDBRANCH   1  11
TORSDOF 9
ENDMDL
