MODEL 1
REMARK VINA RESULT:    -3.451      0.000      0.000
REMARK INTER + INTRA:          -4.249
REMARK INTER:                  -4.157
REMARK INTRA:                  -0.093
REMARK UNBOUND:                -0.093
REMARK SMILES CC[C@@H](C)[C@H]([NH3+])C(=O)[O-]
REMARK SMILES IDX 3 1 4 2 5 3 6 4 7 8 8 9 9 10 2 11 1 12
REMARK H PARENT 6 5 6 6 6 7
REMARK Flexibility Score: inf
ROOT
ATOM      1  C   UNL     1      19.483  14.278 -16.521  1.00  0.00     0.050 C 
ATOM      2  C   UNL     1      19.462  14.234 -18.060  1.00  0.00     0.014 C 
ENDROOT
BRANCH   1   3
ATOM      3  C   UNL     1      19.888  12.890 -15.931  1.00  0.00     0.230 C 
BRANCH   3   4
ATOM      4  N   UNL     1      21.320  12.615 -16.113  1.00  0.00    -0.350 N 
ATOM      5  H   UNL     1      21.633  11.822 -15.508  1.00  0.00     0.345 HD
ATOM      6  H   UNL     1      21.874  13.466 -15.861  1.00  0.00     0.345 HD
ATOM      7  H   UNL     1      21.516  12.386 -17.115  1.00  0.00     0.345 HD
ENDBRANCH   3   4
BRANCH   3   8
ATOM      8  C   UNL     1      19.053  11.751 -16.470  1.00  0.00     0.099 C 
ATOM      9  O   UNL     1      19.615  10.765 -17.017  1.00  0.00    -0.544 OA
ATOM     10  O   UNL     1      17.668  11.767 -16.356  1.00  0.00    -0.544 OA
ENDBRANCH   3   8
ENDBRANCH   1   3
BRANCH   1  11
ATOM     11  C   UNL     1      20.362  15.462 -16.022  1.00  0.00     0.006 C 
ATOM     12  C   UNL     1      20.462  16.591 -17.049  1.00  0.00     0.004 C 
ENDBRANCH   1  11
TORSDOF 4
ENDMDL
MODEL 2
REMARK VINA RESULT:    -3.401      2.212      3.559
REMARK INTER + INTRA:          -4.190
REMARK INTER:                  -4.070
REMARK INTRA:                  -0.120
REMARK UNBOUND:                -0.093
REMARK SMILES CC[C@@H](C)[C@H]([NH3+])C(=O)[O-]
REMARK SMILES IDX 3 1 4 2 5 3 6 4 7 8 8 9 9 10 2 11 1 12
REMARK H PARENT 6 5 6 6 6 7
REMARK Flexibility Score: inf
ROOT
ATOM      1  C   UNL     1      19.381  11.592 -16.393  1.00  0.00     0.050 C 
ATOM      2  C   UNL     1      19.765  10.352 -17.219  1.00  0.00     0.014 C 
ENDROOT
BRANCH   1   3
ATOM      3  C   UNL     1      20.312  12.799 -16.736  1.00  0.00     0.230 C 
BRANCH   3   4
ATOM      4  N   UNL     1      21.680  12.592 -16.242  1.00  0.00    -0.350 N 
ATOM      5  H   UNL     1      22.287  12.160 -16.974  1.00  0.00     0.345 HD
ATOM      6  H   UNL     1      21.659  11.959 -15.409  1.00  0.00     0.345 HD
ATOM      7  H   UNL     1      22.094  13.505 -15.943  1.00  0.00     0.345 HD
ENDBRANCH   3   4
BRANCH   3   8
ATOM      8  C   UNL     1      19.765  14.124 -16.257  1.00  0.00     0.099 C 
ATOM      9  O   UNL     1      19.739  14.383 -15.025  1.00  0.00    -0.544 OA
ATOM     10  O   UNL     1      19.303  15.073 -17.161  1.00  0.00    -0.544 OA
ENDBRANCH   3   8
ENDBRANCH   1   3
BRANCH   1  11
ATOM     11  C   UNL     1      17.863  11.899 -16.541  1.00  0.00     0.006 C 
ATOM     12  C   UNL     1      17.388  11.813 -17.993  1.00  0.00     0.004 C 
ENDBRANCH   1  11
TORSDOF 4
ENDMDL
MODEL 3
REMARK VINA RESULT:    -3.344      2.853      3.805
REMARK INTER + INTRA:          -4.120
REMARK INTER:                  -4.007
REMARK INTRA:                  -0.114
REMARK UNBOUND:                -0.093
REMARK SMILES CC[C@@H](C)[C@H]([NH3+])C(=O)[O-]
REMARK SMILES IDX 3 1 4 2 5 3 6 4 7 8 8 9 9 10 2 11 1 12
REMARK H PARENT 6 5 6 6 6 7
REMARK Flexibility Score: inf
ROOT
ATOM      1  C   UNL     1      19.944  12.910 -17.006  1.00  0.00     0.050 C 
ATOM      2  C   UNL     1      18.881  13.808 -17.663  1.00  0.00     0.014 C 
ENDROOT
BRANCH   1   3
ATOM      3  C   UNL     1      20.768  13.708 -15.947  1.00  0.00     0.230 C 
BRANCH   3   4
ATOM      4  N   UNL     1      19.902  14.333 -14.938  1.00  0.00    -0.350 N 
ATOM      5  H   UNL     1      20.169  14.035 -13.972  1.00  0.00     0.345 HD
ATOM      6  H   UNL     1      18.908  14.056 -15.110  1.00  0.00     0.345 HD
ATOM      7  H   UNL     1      19.964  15.375 -15.009  1.00  0.00     0.345 HD
ENDBRANCH   3   4
BRANCH   3   8
ATOM      8  C   UNL     1      21.693  14.732 -16.565  1.00  0.00     0.099 C 
ATOM      9  O   UNL     1      22.710  14.353 -17.204  1.00  0.00    -0.544 OA
ATOM     10  O   UNL     1      21.428  16.091 -16.453  1.00  0.00    -0.544 OA
ENDBRANCH   3   8
ENDBRANCH   1   3
BRANCH   1  11
ATOM     11  C   UNL     1      19.293  11.607 -16.455  1.00  0.00     0.006 C 
ATOM     12  C   UNL     1      17.767  11.630 -16.552  1.00  0.00     0.004 C 
ENDBRANCH   1  11
TORSDOF 4
ENDMDL
MODEL 4
REMARK VINA RESULT:    -3.330      1.653      2.221
REMARK INTER + INTRA:          -4.104
REMARK INTER:                  -4.022
REMARK INTRA:                  -0.082
REMARK UNBOUND:                -0.093
REMARK SMILES CC[C@@H](C)[C@H]([NH3+])C(=O)[O-]
REMARK SMILES IDX 3 1 4 2 5 3 6 4 7 8 8 9 9 10 2 11 1 12
REMARK H PARENT 6 5 6 6 6 7
REMARK Flexibility Score: inf
ROOT
ATOM      1  C   UNL     1      20.452  13.273 -16.152  1.00  0.00     0.050 C 
ATOM      2  C   UNL     1      19.849  14.404 -15.299  1.00  0.00     0.014 C 
ENDROOT
BRANCH   1   3
ATOM      3  C   UNL     1      19.399  12.721 -17.166  1.00  0.00     0.230 C 
BRANCH   3   4
ATOM      4  N   UNL     1      18.444  13.757 -17.581  1.00  0.00    -0.350 N 
ATOM      5  H   UNL     1      18.851  14.713 -17.472  1.00  0.00     0.345 HD
ATOM      6  H   UNL     1      17.581  13.692 -16.994  1.00  0.00     0.345 HD
ATOM      7  H   UNL     1      18.168  13.609 -18.579  1.00  0.00     0.345 HD
ENDBRANCH   3   4
BRANCH   3   8
ATOM      8  C   UNL     1      18.672  11.497 -16.656  1.00  0.00     0.099 C 
ATOM      9  O   UNL     1      17.448  11.569 -16.369  1.00  0.00    -0.544 OA
ATOM     10  O   UNL     1      19.333  10.283 -16.515  1.00  0.00    -0.544 OA
ENDBRANCH   3   8
ENDBRANCH   1   3
BRANCH   1  11
ATOM     11  C   UNL     1      21.785  13.736 -16.809  1.00  0.00     0.006 C 
ATOM     12  C   UNL     1      22.014  15.242 -16.668  1.00  0.00     0.004 C 
ENDBRANCH   1  11
TORSDOF 4
ENDMDL
MODEL 5
REMARK VINA RESULT:    -3.313      1.658      1.959
REMARK INTER + INTRA:          -4.084
REMARK INTER:                  -3.989
REMARK INTRA:                  -0.094
REMARK UNBOUND:                -0.093
REMARK SMILES CC[C@@H](C)[C@H]([NH3+])C(=O)[O-]
REMARK SMILES IDX 3 1 4 2 5 3 6 4 7 8 8 9 9 10 2 11 1 12
REMARK H PARENT 6 5 6 6 6 7
REMARK Flexibility Score: inf
ROOT
ATOM      1  C   UNL     1      21.003  14.403 -17.119  1.00  0.00     0.050 C 
ATOM      2  C   UNL     1      21.931  13.208 -16.842  1.00  0.00     0.014 C 
ENDROOT
BRANCH   1   3
ATOM      3  C   UNL     1      19.649  14.242 -16.357  1.00  0.00     0.230 C 
BRANCH   3   4
ATOM      4  N   UNL     1      19.845  14.164 -14.903  1.00  0.00    -0.350 N 
ATOM      5  H   UNL     1      20.821  13.875 -14.667  1.00  0.00     0.345 HD
ATOM      6  H   UNL     1      19.183  13.463 -14.497  1.00  0.00     0.345 HD
ATOM      7  H   UNL     1      19.642  15.092 -14.464  1.00  0.00     0.345 HD
ENDBRANCH   3   4
BRANCH   3   8
ATOM      8  C   UNL     1      18.828  13.072 -16.848  1.00  0.00     0.099 C 
ATOM      9  O   UNL     1      18.169  13.173 -17.917  1.00  0.00    -0.544 OA
ATOM     10  O   UNL     1      18.802  11.874 -16.145  1.00  0.00    -0.544 OA
ENDBRANCH   3   8
ENDBRANCH   1   3
BRANCH   1  11
ATOM     11  C   UNL     1      21.738  15.744 -16.831  1.00  0.00     0.006 C 
ATOM     12  C   UNL     1      20.987  16.955 -17.388  1.00  0.00     0.004 C 
ENDBRANCH   1  11
TORSDOF 4
ENDMDL
MODEL 6
REMARK VINA RESULT:    -3.276      2.091      2.653
REMARK INTER + INTRA:          -4.039
REMARK INTER:                  -3.942
REMARK INTRA:                  -0.098
REMARK UNBOUND:                -0.093
REMARK SMILES CC[C@@H](C)[C@H]([NH3+])C(=O)[O-]
REMARK SMILES IDX 3 1 4 2 5 3 6 4 7 8 8 9 9 10 2 11 1 12
REMARK H PARENT 6 5 6 6 6 7
REMARK Flexibility Score: inf
ROOT
ATOM      1  C   UNL     1      20.988  15.083 -16.415  1.00  0.00     0.050 C 
ATOM      2  C   UNL     1      20.473  16.499 -16.730  1.00  0.00     0.014 C 
ENDROOT
BRANCH   1   3
ATOM      3  C   UNL     1      19.997  14.000 -16.949  1.00  0.00     0.230 C 
BRANCH   3   4
ATOM      4  N   UNL     1      18.824  14.603 -17.595  1.00  0.00    -0.350 N 
ATOM      5  H   UNL     1      18.993  15.609 -17.826  1.00  0.00     0.345 HD
ATOM      6  H   UNL     1      18.000  14.543 -16.953  1.00  0.00     0.345 HD
ATOM      7  H   UNL     1      18.590  14.081 -18.471  1.00  0.00     0.345 HD
ENDBRANCH   3   4
BRANCH   3   8
ATOM      8  C   UNL     1      19.572  13.012 -15.887  1.00  0.00     0.099 C 
ATOM      9  O   UNL     1      19.215  13.426 -14.752  1.00  0.00    -0.544 OA
ATOM     10  O   UNL     1      19.554  11.648 -16.149  1.00  0.00    -0.544 OA
ENDBRANCH   3   8
ENDBRANCH   1   3
BRANCH   1  11
ATOM     11  C   UNL     1      22.450  14.909 -16.918  1.00  0.00     0.006 C 
ATOM     12  C   UNL     1      22.660  13.590 -17.663  1.00  0.00     0.004 C 
ENDBRANCH   1  11
TORSDOF 4
ENDMDL
MODEL 7
REMARK VINA RESULT:    -3.266      2.021      2.545
REMARK INTER + INTRA:          -4.027
REMARK INTER:                  -3.902
REMARK INTRA:                  -0.125
REMARK UNBOUND:                -0.093
REMARK SMILES CC[C@@H](C)[C@H]([NH3+])C(=O)[O-]
REMARK SMILES IDX 3 1 4 2 5 3 6 4 7 8 8 9 9 10 2 11 1 12
REMARK H PARENT 6 5 6 6 6 7
REMARK Flexibility Score: inf
ROOT
ATOM      1  C   UNL     1      21.091  15.781 -16.369  1.00  0.00     0.050 C 
ATOM      2  C   UNL     1      20.652  16.864 -17.370  1.00  0.00     0.014 C 
ENDROOT
BRANCH   1   3
ATOM      3  C   UNL     1      19.975  14.702 -16.193  1.00  0.00     0.230 C 
BRANCH   3   4
ATOM      4  N   UNL     1      19.839  14.279 -14.792  1.00  0.00    -0.350 N 
ATOM      5  H   UNL     1      20.741  14.384 -14.275  1.00  0.00     0.345 HD
ATOM      6  H   UNL     1      19.549  13.274 -14.757  1.00  0.00     0.345 HD
ATOM      7  H   UNL     1      19.099  14.845 -14.317  1.00  0.00     0.345 HD
ENDBRANCH   3   4
BRANCH   3   8
ATOM      8  C   UNL     1      20.161  13.504 -17.096  1.00  0.00     0.099 C 
ATOM      9  O   UNL     1      20.516  12.399 -16.608  1.00  0.00    -0.544 OA
ATOM     10  O   UNL     1      19.930  13.600 -18.463  1.00  0.00    -0.544 OA
ENDBRANCH   3   8
ENDBRANCH   1   3
BRANCH   1  11
ATOM     11  C   UNL     1      22.479  15.200 -16.766  1.00  0.00     0.006 C 
ATOM     12  C   UNL     1      23.019  15.809 -18.061  1.00  0.00     0.004 C 
ENDBRANCH   1  11
TORSDOF 4
ENDMDL
MODEL 8
REMARK VINA RESULT:    -3.220      3.640      4.674
REMARK INTER + INTRA:          -3.971
REMARK INTER:                  -3.974
REMARK INTRA:                   0.003
REMARK UNBOUND:                -0.093
REMARK SMILES CC[C@@H](C)[C@H]([NH3+])C(=O)[O-]
REMARK SMILES IDX 3 1 4 2 5 3 6 4 7 8 8 9 9 10 2 11 1 12
REMARK H PARENT 6 5 6 6 6 7
REMARK Flexibility Score: inf
ROOT
ATOM      1  C   UNL     1      20.465  15.532 -16.529  1.00  0.00     0.050 C 
ATOM      2  C   UNL     1      21.889  14.978 -16.347  1.00  0.00     0.014 C 
ENDROOT
BRANCH   1   3
ATOM      3  C   UNL     1      20.444  16.666 -17.603  1.00  0.00     0.230 C 
BRANCH   3   4
ATOM      4  N   UNL     1      19.109  16.834 -18.194  1.00  0.00    -0.350 N 
ATOM      5  H   UNL     1      18.363  16.788 -17.464  1.00  0.00     0.345 HD
ATOM      6  H   UNL     1      18.938  16.076 -18.894  1.00  0.00     0.345 HD
ATOM      7  H   UNL     1      19.052  17.752 -18.691  1.00  0.00     0.345 HD
ENDBRANCH   3   4
BRANCH   3   8
ATOM      8  C   UNL     1      21.486  16.478 -18.682  1.00  0.00     0.099 C 
ATOM      9  O   UNL     1      22.520  17.198 -18.687  1.00  0.00    -0.544 OA
ATOM     10  O   UNL     1      21.328  15.509 -19.665  1.00  0.00    -0.544 OA
ENDBRANCH   3   8
ENDBRANCH   1   3
BRANCH   1  11
ATOM     11  C   UNL     1      19.460  14.376 -16.805  1.00  0.00     0.006 C 
ATOM     12  C   UNL     1      19.699  13.165 -15.902  1.00  0.00     0.004 C 
ENDBRANCH   1  11
TORSDOF 4
ENDMDL
MODEL 9
REMARK VINA RESULT:    -3.190      3.072      3.908
REMARK INTER + INTRA:          -3.936
REMARK INTER:                  -3.812
REMARK INTRA:                  -0.124
REMARK UNBOUND:                -0.093
REMARK SMILES CC[C@@H](C)[C@H]([NH3+])C(=O)[O-]
REMARK SMILES IDX 3 1 4 2 5 3 6 4 7 8 8 9 9 10 2 11 1 12
REMARK H PARENT 6 5 6 6 6 7
REMARK Flexibility Score: inf
ROOT
ATOM      1  C   UNL     1      21.499  14.563 -16.510  1.00  0.00     0.050 C 
ATOM      2  C   UNL     1      21.887  13.130 -16.913  1.00  0.00     0.014 C 
ENDROOT
BRANCH   1   3
ATOM      3  C   UNL     1      21.496  15.509 -17.753  1.00  0.00     0.230 C 
BRANCH   3   4
ATOM      4  N   UNL     1      22.072  16.824 -17.442  1.00  0.00    -0.350 N 
ATOM      5  H   UNL     1      21.434  17.597 -17.738  1.00  0.00     0.345 HD
ATOM      6  H   UNL     1      22.984  16.933 -17.942  1.00  0.00     0.345 HD
ATOM      7  H   UNL     1      22.256  16.900 -16.415  1.00  0.00     0.345 HD
ENDBRANCH   3   4
BRANCH   3   8
ATOM      8  C   UNL     1      20.128  15.660 -18.378  1.00  0.00     0.099 C 
ATOM      9  O   UNL     1      19.496  16.742 -18.251  1.00  0.00    -0.544 OA
ATOM     10  O   UNL     1      19.560  14.624 -19.109  1.00  0.00    -0.544 OA
ENDBRANCH   3   8
ENDBRANCH   1   3
BRANCH   1  11
ATOM     11  C   UNL     1      20.164  14.562 -15.709  1.00  0.00     0.006 C 
ATOM     12  C   UNL     1      19.512  13.179 -15.660  1.00  0.00     0.004 C 
ENDBRANCH   1  11
TORSDOF 4
ENDMDL
