MODEL 1
REMARK VINA RESULT:    -3.998      0.000      0.000
REMARK INTER + INTRA:          -5.592
REMARK INTER:                  -5.401
REMARK INTRA:                  -0.192
REMARK UNBOUND:                -0.192
REMARK SMILES CCCCCCCC(=O)[O-]
REMARK SMILES IDX 5 1 6 2 7 3 8 4 9 5 10 6 4 7 3 8 2 9 1 10
REMARK H PARENT
REMARK Flexibility Score: inf
ROOT
ATOM      1  C   UNL     1     -11.118  14.073 -13.815  1.00  0.00     0.000 C 
ENDROOT
BRANCH   1   2
ATOM      2  C   UNL     1      -9.850  14.834 -14.237  1.00  0.00     0.006 C 
BRANCH   2   3
ATOM      3  C   UNL     1      -9.098  14.142 -15.382  1.00  0.00     0.053 C 
BRANCH   3   4
ATOM      4  C   UNL     1      -8.394  15.154 -16.229  1.00  0.00     0.041 C 
ATOM      5  O   UNL     1      -7.656  16.024 -15.695  1.00  0.00    -0.550 OA
ATOM      6  O   UNL     1      -8.590  15.168 -17.604  1.00  0.00    -0.550 OA
ENDBRANCH   3   4
ENDBRANCH   2   3
ENDBRANCH   1   2
BRANCH   1   7
ATOM      7  C   UNL     1     -11.542  14.389 -12.370  1.00  0.00     0.000 C 
BRANCH   7   8
ATOM      8  C   UNL     1     -10.567  15.345 -11.664  1.00  0.00    -0.000 C 
BRANCH   8   9
ATOM      9  C   UNL     1     -11.198  16.049 -10.453  1.00  0.00    -0.003 C 
ATOM     10  C   UNL     1     -10.210  16.137  -9.293  1.00  0.00     0.004 C 
ENDBRANCH   8   9
ENDBRANCH   7   8
ENDBRANCH   1   7
TORSDOF 6
ENDMDL
MODEL 2
REMARK VINA RESULT:    -3.938     15.713     16.634
REMARK INTER + INTRA:          -5.511
REMARK INTER:                  -4.929
REMARK INTRA:                  -0.581
REMARK UNBOUND:                -0.192
REMARK SMILES CCCCCCCC(=O)[O-]
REMARK SMILES IDX 5 1 6 2 7 3 8 4 9 5 10 6 4 7 3 8 2 9 1 10
REMARK H PARENT
REMARK Flexibility Score: inf
ROOT
ATOM      1  C   UNL     1     -22.819  19.555 -24.430  1.00  0.00     0.000 C 
ENDROOT
BRANCH   1   2
ATOM      2  C   UNL     1     -21.467  19.867 -25.093  1.00  0.00     0.006 C 
BRANCH   2   3
ATOM      3  C   UNL     1     -20.613  18.612 -25.316  1.00  0.00     0.053 C 
BRANCH   3   4
ATOM      4  C   UNL     1     -21.331  17.646 -26.206  1.00  0.00     0.041 C 
ATOM      5  O   UNL     1     -21.716  16.535 -25.755  1.00  0.00    -0.550 OA
ATOM      6  O   UNL     1     -21.532  17.953 -27.546  1.00  0.00    -0.550 OA
ENDBRANCH   3   4
ENDBRANCH   2   3
ENDBRANCH   1   2
BRANCH   1   7
ATOM      7  C   UNL     1     -22.965  20.214 -23.047  1.00  0.00     0.000 C 
BRANCH   7   8
ATOM      8  C   UNL     1     -22.673  19.239 -21.896  1.00  0.00    -0.000 C 
BRANCH   8   9
ATOM      9  C   UNL     1     -22.765  17.767 -22.326  1.00  0.00    -0.003 C 
ATOM     10  C   UNL     1     -21.481  17.015 -21.986  1.00  0.00     0.004 C 
ENDBRANCH   8   9
ENDBRANCH   7   8
ENDBRANCH   1   7
TORSDOF 6
ENDMDL
MODEL 3
REMARK VINA RESULT:    -3.936     15.113     16.061
REMARK INTER + INTRA:          -5.508
REMARK INTER:                  -4.970
REMARK INTRA:                  -0.538
REMARK UNBOUND:                -0.192
REMARK SMILES CCCCCCCC(=O)[O-]
REMARK SMILES IDX 5 1 6 2 7 3 8 4 9 5 10 6 4 7 3 8 2 9 1 10
REMARK H PARENT
REMARK Flexibility Score: inf
ROOT
ATOM      1  C   UNL     1     -20.833  16.508 -23.448  1.00  0.00     0.000 C 
ENDROOT
BRANCH   1   2
ATOM      2  C   UNL     1     -19.861  17.498 -24.111  1.00  0.00     0.006 C 
BRANCH   2   3
ATOM      3  C   UNL     1     -20.573  18.505 -25.023  1.00  0.00     0.053 C 
BRANCH   3   4
ATOM      4  C   UNL     1     -21.503  17.795 -25.956  1.00  0.00     0.041 C 
ATOM      5  O   UNL     1     -21.054  17.225 -26.986  1.00  0.00    -0.550 OA
ATOM      6  O   UNL     1     -22.871  17.804 -25.715  1.00  0.00    -0.550 OA
ENDBRANCH   3   4
ENDBRANCH   2   3
ENDBRANCH   1   2
BRANCH   1   7
ATOM      7  C   UNL     1     -21.276  16.964 -22.046  1.00  0.00     0.000 C 
BRANCH   7   8
ATOM      8  C   UNL     1     -22.648  17.655 -22.057  1.00  0.00    -0.000 C 
BRANCH   8   9
ATOM      9  C   UNL     1     -22.574  19.128 -21.626  1.00  0.00    -0.003 C 
ATOM     10  C   UNL     1     -23.063  20.051 -22.739  1.00  0.00     0.004 C 
ENDBRANCH   8   9
ENDBRANCH   7   8
ENDBRANCH   1   7
TORSDOF 6
ENDMDL
MODEL 4
REMARK VINA RESULT:    -3.908     15.598     16.591
REMARK INTER + INTRA:          -5.470
REMARK INTER:                  -4.831
REMARK INTRA:                  -0.639
REMARK UNBOUND:                -0.192
REMARK SMILES CCCCCCCC(=O)[O-]
REMARK SMILES IDX 5 1 6 2 7 3 8 4 9 5 10 6 4 7 3 8 2 9 1 10
REMARK H PARENT
REMARK Flexibility Score: inf
ROOT
ATOM      1  C   UNL     1     -22.655  19.267 -23.545  1.00  0.00     0.000 C 
ENDROOT
BRANCH   1   2
ATOM      2  C   UNL     1     -22.295  19.640 -24.992  1.00  0.00     0.006 C 
BRANCH   2   3
ATOM      3  C   UNL     1     -20.977  19.006 -25.456  1.00  0.00     0.053 C 
BRANCH   3   4
ATOM      4  C   UNL     1     -21.237  17.980 -26.514  1.00  0.00     0.041 C 
ATOM      5  O   UNL     1     -21.438  16.778 -26.195  1.00  0.00    -0.550 OA
ATOM      6  O   UNL     1     -21.211  18.342 -27.855  1.00  0.00    -0.550 OA
ENDBRANCH   3   4
ENDBRANCH   2   3
ENDBRANCH   1   2
BRANCH   1   7
ATOM      7  C   UNL     1     -23.555  18.022 -23.462  1.00  0.00     0.000 C 
BRANCH   7   8
ATOM      8  C   UNL     1     -22.815  16.795 -22.906  1.00  0.00    -0.000 C 
BRANCH   8   9
ATOM      9  C   UNL     1     -21.557  17.172 -22.108  1.00  0.00    -0.003 C 
ATOM     10  C   UNL     1     -20.330  16.433 -22.636  1.00  0.00     0.004 C 
ENDBRANCH   8   9
ENDBRANCH   7   8
ENDBRANCH   1   7
TORSDOF 6
ENDMDL
MODEL 5
REMARK VINA RESULT:    -3.895     16.261     17.087
REMARK INTER + INTRA:          -5.453
REMARK INTER:                  -5.129
REMARK INTRA:                  -0.324
REMARK UNBOUND:                -0.192
REMARK SMILES CCCCCCCC(=O)[O-]
REMARK SMILES IDX 5 1 6 2 7 3 8 4 9 5 10 6 4 7 3 8 2 9 1 10
REMARK H PARENT
REMARK Flexibility Score: inf
ROOT
ATOM      1  C   UNL     1     -22.386  21.065 -24.990  1.00  0.00     0.000 C 
ENDROOT
BRANCH   1   2
ATOM      2  C   UNL     1     -21.488  20.327 -25.996  1.00  0.00     0.006 C 
BRANCH   2   3
ATOM      3  C   UNL     1     -21.009  18.966 -25.474  1.00  0.00     0.053 C 
BRANCH   3   4
ATOM      4  C   UNL     1     -21.408  17.876 -26.419  1.00  0.00     0.041 C 
ATOM      5  O   UNL     1     -21.690  16.729 -25.981  1.00  0.00    -0.550 OA
ATOM      6  O   UNL     1     -21.422  18.114 -27.788  1.00  0.00    -0.550 OA
ENDBRANCH   3   4
ENDBRANCH   2   3
ENDBRANCH   1   2
BRANCH   1   7
ATOM      7  C   UNL     1     -22.864  20.154 -23.845  1.00  0.00     0.000 C 
BRANCH   7   8
ATOM      8  C   UNL     1     -23.183  20.937 -22.562  1.00  0.00    -0.000 C 
BRANCH   8   9
ATOM      9  C   UNL     1     -23.031  20.085 -21.293  1.00  0.00    -0.003 C 
ATOM     10  C   UNL     1     -22.551  18.677 -21.632  1.00  0.00     0.004 C 
ENDBRANCH   8   9
ENDBRANCH   7   8
ENDBRANCH   1   7
TORSDOF 6
ENDMDL
MODEL 6
REMARK VINA RESULT:    -3.843     15.451     16.777
REMARK INTER + INTRA:          -5.383
REMARK INTER:                  -4.882
REMARK INTRA:                  -0.502
REMARK UNBOUND:                -0.192
REMARK SMILES CCCCCCCC(=O)[O-]
REMARK SMILES IDX 5 1 6 2 7 3 8 4 9 5 10 6 4 7 3 8 2 9 1 10
REMARK H PARENT
REMARK Flexibility Score: inf
ROOT
ATOM      1  C   UNL     1     -23.280  18.155 -24.630  1.00  0.00     0.000 C 
ENDROOT
BRANCH   1   2
ATOM      2  C   UNL     1     -23.361  17.492 -23.246  1.00  0.00     0.006 C 
BRANCH   2   3
ATOM      3  C   UNL     1     -22.221  17.924 -22.315  1.00  0.00     0.053 C 
BRANCH   3   4
ATOM      4  C   UNL     1     -21.186  16.847 -22.224  1.00  0.00     0.041 C 
ATOM      5  O   UNL     1     -20.178  16.871 -22.979  1.00  0.00    -0.550 OA
ATOM      6  O   UNL     1     -21.359  15.790 -21.339  1.00  0.00    -0.550 OA
ENDBRANCH   3   4
ENDBRANCH   2   3
ENDBRANCH   1   2
BRANCH   1   7
ATOM      7  C   UNL     1     -22.511  19.488 -24.602  1.00  0.00     0.000 C 
BRANCH   7   8
ATOM      8  C   UNL     1     -21.378  19.538 -25.640  1.00  0.00    -0.000 C 
BRANCH   8   9
ATOM      9  C   UNL     1     -21.023  18.152 -26.197  1.00  0.00    -0.003 C 
ATOM     10  C   UNL     1     -21.144  18.124 -27.719  1.00  0.00     0.004 C 
ENDBRANCH   8   9
ENDBRANCH   7   8
ENDBRANCH   1   7
TORSDOF 6
ENDMDL
MODEL 7
REMARK VINA RESULT:    -3.813     15.267     16.488
REMARK INTER + INTRA:          -5.343
REMARK INTER:                  -4.818
REMARK INTRA:                  -0.525
REMARK UNBOUND:                -0.192
REMARK SMILES CCCCCCCC(=O)[O-]
REMARK SMILES IDX 5 1 6 2 7 3 8 4 9 5 10 6 4 7 3 8 2 9 1 10
REMARK H PARENT
REMARK Flexibility Score: inf
ROOT
ATOM      1  C   UNL     1     -20.619  16.645 -23.981  1.00  0.00     0.000 C 
ENDROOT
BRANCH   1   2
ATOM      2  C   UNL     1     -20.731  16.706 -22.449  1.00  0.00     0.006 C 
BRANCH   2   3
ATOM      3  C   UNL     1     -21.953  17.505 -21.976  1.00  0.00     0.053 C 
BRANCH   3   4
ATOM      4  C   UNL     1     -23.215  16.781 -22.326  1.00  0.00     0.041 C 
ATOM      5  O   UNL     1     -23.978  17.235 -23.221  1.00  0.00    -0.550 OA
ATOM      6  O   UNL     1     -23.573  15.633 -21.632  1.00  0.00    -0.550 OA
ENDBRANCH   3   4
ENDBRANCH   2   3
ENDBRANCH   1   2
BRANCH   1   7
ATOM      7  C   UNL     1     -20.107  17.963 -24.589  1.00  0.00     0.000 C 
BRANCH   7   8
ATOM      8  C   UNL     1     -21.103  18.578 -25.586  1.00  0.00    -0.000 C 
BRANCH   8   9
ATOM      9  C   UNL     1     -21.354  20.071 -25.329  1.00  0.00    -0.003 C 
ATOM     10  C   UNL     1     -22.470  20.273 -24.307  1.00  0.00     0.004 C 
ENDBRANCH   8   9
ENDBRANCH   7   8
ENDBRANCH   1   7
TORSDOF 6
ENDMDL
MODEL 8
REMARK VINA RESULT:    -3.772     14.567     15.679
REMARK INTER + INTRA:          -5.287
REMARK INTER:                  -4.672
REMARK INTRA:                  -0.614
REMARK UNBOUND:                -0.192
REMARK SMILES CCCCCCCC(=O)[O-]
REMARK SMILES IDX 5 1 6 2 7 3 8 4 9 5 10 6 4 7 3 8 2 9 1 10
REMARK H PARENT
REMARK Flexibility Score: inf
ROOT
ATOM      1  C   UNL     1     -21.058  17.133 -24.332  1.00  0.00     0.000 C 
ENDROOT
BRANCH   1   2
ATOM      2  C   UNL     1     -20.773  15.808 -23.607  1.00  0.00     0.006 C 
BRANCH   2   3
ATOM      3  C   UNL     1     -20.442  16.005 -22.122  1.00  0.00     0.053 C 
BRANCH   3   4
ATOM      4  C   UNL     1     -21.469  15.330 -21.267  1.00  0.00     0.041 C 
ATOM      5  O   UNL     1     -21.112  14.523 -20.367  1.00  0.00    -0.550 OA
ATOM      6  O   UNL     1     -22.821  15.556 -21.494  1.00  0.00    -0.550 OA
ENDBRANCH   3   4
ENDBRANCH   2   3
ENDBRANCH   1   2
BRANCH   1   7
ATOM      7  C   UNL     1     -22.503  17.222 -24.854  1.00  0.00     0.000 C 
BRANCH   7   8
ATOM      8  C   UNL     1     -23.422  18.020 -23.915  1.00  0.00    -0.000 C 
BRANCH   8   9
ATOM      9  C   UNL     1     -22.703  19.199 -23.242  1.00  0.00    -0.003 C 
ATOM     10  C   UNL     1     -22.815  19.116 -21.722  1.00  0.00     0.004 C 
ENDBRANCH   8   9
ENDBRANCH   7   8
ENDBRANCH   1   7
TORSDOF 6
ENDMDL
MODEL 9
REMARK VINA RESULT:    -3.754     15.019     16.116
REMARK INTER + INTRA:          -5.263
REMARK INTER:                  -4.726
REMARK INTRA:                  -0.537
REMARK UNBOUND:                -0.192
REMARK SMILES CCCCCCCC(=O)[O-]
REMARK SMILES IDX 5 1 6 2 7 3 8 4 9 5 10 6 4 7 3 8 2 9 1 10
REMARK H PARENT
REMARK Flexibility Score: inf
ROOT
ATOM      1  C   UNL     1     -22.549  18.741 -21.730  1.00  0.00     0.000 C 
ENDROOT
BRANCH   1   2
ATOM      2  C   UNL     1     -22.966  19.683 -22.871  1.00  0.00     0.006 C 
BRANCH   2   3
ATOM      3  C   UNL     1     -22.797  19.045 -24.257  1.00  0.00     0.053 C 
BRANCH   3   4
ATOM      4  C   UNL     1     -21.690  19.717 -25.007  1.00  0.00     0.041 C 
ATOM      5  O   UNL     1     -21.815  20.912 -25.385  1.00  0.00    -0.550 OA
ATOM      6  O   UNL     1     -20.540  19.009 -25.331  1.00  0.00    -0.550 OA
ENDBRANCH   3   4
ENDBRANCH   2   3
ENDBRANCH   1   2
BRANCH   1   7
ATOM      7  C   UNL     1     -22.924  17.274 -22.009  1.00  0.00     0.000 C 
BRANCH   7   8
ATOM      8  C   UNL     1     -21.783  16.300 -21.674  1.00  0.00    -0.000 C 
BRANCH   8   9
ATOM      9  C   UNL     1     -20.527  16.542 -22.526  1.00  0.00    -0.003 C 
ATOM     10  C   UNL     1     -20.624  15.818 -23.866  1.00  0.00     0.004 C 
ENDBRANCH   8   9
ENDBRANCH   7   8
ENDBRANCH   1   7
TORSDOF 6
ENDMDL
