MODEL 1
REMARK VINA RESULT:    -4.700      0.000      0.000
REMARK INTER + INTRA:          -5.183
REMARK INTER:                  -5.113
REMARK INTRA:                  -0.071
REMARK UNBOUND:                -0.071
REMARK SMILES CCc1cccc(O)c1
REMARK SMILES IDX 3 1 9 2 7 3 6 4 5 5 4 6 2 7 1 8 8 9
REMARK H PARENT 8 10
REMARK Flexibility Score: inf
ROOT
ATOM      1  C   UNL     1      26.795 -39.234  -1.034  1.00  0.00    -0.045 A 
ATOM      2  C   UNL     1      27.208 -40.551  -0.774  1.00  0.00     0.049 A 
ATOM      3  C   UNL     1      27.367 -41.464  -1.828  1.00  0.00     0.115 A 
ATOM      4  C   UNL     1      27.104 -41.063  -3.141  1.00  0.00     0.046 A 
ATOM      5  C   UNL     1      26.679 -39.758  -3.404  1.00  0.00     0.004 A 
ATOM      6  C   UNL     1      26.520 -38.847  -2.356  1.00  0.00     0.004 A 
ENDROOT
BRANCH   1   7
ATOM      7  C   UNL     1      26.592 -38.264   0.099  1.00  0.00     0.032 C 
ATOM      8  C   UNL     1      26.937 -36.844  -0.339  1.00  0.00     0.009 C 
ENDBRANCH   1   7
BRANCH   3   9
ATOM      9  O   UNL     1      27.783 -42.770  -1.578  1.00  0.00    -0.508 OA
ATOM     10  H   UNL     1      28.754 -42.991  -1.393  1.00  0.00     0.293 HD
ENDBRANCH   3   9
TORSDOF 2
ENDMDL
MODEL 2
REMARK VINA RESULT:    -4.604      2.577      4.323
REMARK INTER + INTRA:          -5.078
REMARK INTER:                  -5.003
REMARK INTRA:                  -0.075
REMARK UNBOUND:                -0.071
REMARK SMILES CCc1cccc(O)c1
REMARK SMILES IDX 3 1 9 2 7 3 6 4 5 5 4 6 2 7 1 8 8 9
REMARK H PARENT 8 10
REMARK Flexibility Score: inf
ROOT
ATOM      1  C   UNL     1      26.895 -39.032  -1.620  1.00  0.00    -0.045 A 
ATOM      2  C   UNL     1      26.982 -37.657  -1.350  1.00  0.00     0.049 A 
ATOM      3  C   UNL     1      26.571 -37.152  -0.107  1.00  0.00     0.115 A 
ATOM      4  C   UNL     1      26.063 -38.022   0.863  1.00  0.00     0.046 A 
ATOM      5  C   UNL     1      25.961 -39.390   0.595  1.00  0.00     0.004 A 
ATOM      6  C   UNL     1      26.371 -39.895  -0.643  1.00  0.00     0.004 A 
ENDROOT
BRANCH   1   7
ATOM      7  C   UNL     1      27.305 -39.570  -2.965  1.00  0.00     0.032 C 
ATOM      8  C   UNL     1      26.747 -40.973  -3.177  1.00  0.00     0.009 C 
ENDBRANCH   1   7
BRANCH   3   9
ATOM      9  O   UNL     1      26.661 -35.790   0.171  1.00  0.00    -0.508 OA
ATOM     10  H   UNL     1      25.868 -35.171   0.052  1.00  0.00     0.293 HD
ENDBRANCH   3   9
TORSDOF 2
ENDMDL
MODEL 3
REMARK VINA RESULT:    -4.302      1.244      2.007
REMARK INTER + INTRA:          -4.750
REMARK INTER:                  -4.675
REMARK INTRA:                  -0.075
REMARK UNBOUND:                -0.071
REMARK SMILES CCc1cccc(O)c1
REMARK SMILES IDX 3 1 9 2 7 3 6 4 5 5 4 6 2 7 1 8 8 9
REMARK H PARENT 8 10
REMARK Flexibility Score: inf
ROOT
ATOM      1  C   UNL     1      26.842 -38.798  -1.008  1.00  0.00    -0.045 A 
ATOM      2  C   UNL     1      27.190 -39.396  -2.229  1.00  0.00     0.049 A 
ATOM      3  C   UNL     1      27.066 -40.784  -2.399  1.00  0.00     0.115 A 
ATOM      4  C   UNL     1      26.602 -41.574  -1.343  1.00  0.00     0.046 A 
ATOM      5  C   UNL     1      26.267 -40.986  -0.120  1.00  0.00     0.004 A 
ATOM      6  C   UNL     1      26.390 -39.604   0.050  1.00  0.00     0.004 A 
ENDROOT
BRANCH   1   7
ATOM      7  C   UNL     1      27.006 -37.314  -0.814  1.00  0.00     0.032 C 
ATOM      8  C   UNL     1      26.276 -36.849   0.441  1.00  0.00     0.009 C 
ENDBRANCH   1   7
BRANCH   3   9
ATOM      9  O   UNL     1      27.403 -41.383  -3.610  1.00  0.00    -0.508 OA
ATOM     10  H   UNL     1      27.964 -40.901  -4.302  1.00  0.00     0.293 HD
ENDBRANCH   3   9
TORSDOF 2
ENDMDL
MODEL 4
REMARK VINA RESULT:    -4.054     15.340     16.851
REMARK INTER + INTRA:          -4.480
REMARK INTER:                  -4.430
REMARK INTRA:                  -0.050
REMARK UNBOUND:                -0.071
REMARK SMILES CCc1cccc(O)c1
REMARK SMILES IDX 3 1 9 2 7 3 6 4 5 5 4 6 2 7 1 8 8 9
REMARK H PARENT 8 10
REMARK Flexibility Score: inf
ROOT
ATOM      1  C   UNL     1      39.029 -29.913   0.003  1.00  0.00    -0.045 A 
ATOM      2  C   UNL     1      40.080 -29.998  -0.924  1.00  0.00     0.049 A 
ATOM      3  C   UNL     1      41.361 -29.534  -0.588  1.00  0.00     0.115 A 
ATOM      4  C   UNL     1      41.588 -28.975   0.674  1.00  0.00     0.046 A 
ATOM      5  C   UNL     1      40.543 -28.875   1.596  1.00  0.00     0.004 A 
ATOM      6  C   UNL     1      39.267 -29.337   1.262  1.00  0.00     0.004 A 
ENDROOT
BRANCH   1   7
ATOM      7  C   UNL     1      37.647 -30.381  -0.369  1.00  0.00     0.032 C 
ATOM      8  C   UNL     1      37.131 -29.622  -1.587  1.00  0.00     0.009 C 
ENDBRANCH   1   7
BRANCH   3   9
ATOM      9  O   UNL     1      42.410 -29.621  -1.500  1.00  0.00    -0.508 OA
ATOM     10  H   UNL     1      42.955 -28.809  -1.761  1.00  0.00     0.293 HD
ENDBRANCH   3   9
TORSDOF 2
ENDMDL
MODEL 5
REMARK VINA RESULT:    -4.037      2.120      3.501
REMARK INTER + INTRA:          -4.461
REMARK INTER:                  -4.402
REMARK INTRA:                  -0.059
REMARK UNBOUND:                -0.071
REMARK SMILES CCc1cccc(O)c1
REMARK SMILES IDX 3 1 9 2 7 3 6 4 5 5 4 6 2 7 1 8 8 9
REMARK H PARENT 8 10
REMARK Flexibility Score: inf
ROOT
ATOM      1  C   UNL     1      26.938 -41.133  -1.339  1.00  0.00    -0.045 A 
ATOM      2  C   UNL     1      26.951 -39.845  -0.780  1.00  0.00     0.049 A 
ATOM      3  C   UNL     1      26.762 -38.718  -1.593  1.00  0.00     0.115 A 
ATOM      4  C   UNL     1      26.569 -38.878  -2.969  1.00  0.00     0.046 A 
ATOM      5  C   UNL     1      26.569 -40.157  -3.533  1.00  0.00     0.004 A 
ATOM      6  C   UNL     1      26.757 -41.281  -2.724  1.00  0.00     0.004 A 
ENDROOT
BRANCH   1   7
ATOM      7  C   UNL     1      27.174 -42.341  -0.472  1.00  0.00     0.032 C 
ATOM      8  C   UNL     1      28.568 -42.911  -0.709  1.00  0.00     0.009 C 
ENDBRANCH   1   7
BRANCH   3   9
ATOM      9  O   UNL     1      26.766 -37.437  -1.044  1.00  0.00    -0.508 OA
ATOM     10  H   UNL     1      27.572 -37.076  -0.548  1.00  0.00     0.293 HD
ENDBRANCH   3   9
TORSDOF 2
ENDMDL
MODEL 6
REMARK VINA RESULT:    -3.944      1.918      3.657
REMARK INTER + INTRA:          -4.361
REMARK INTER:                  -4.315
REMARK INTRA:                  -0.046
REMARK UNBOUND:                -0.071
REMARK SMILES CCc1cccc(O)c1
REMARK SMILES IDX 3 1 9 2 7 3 6 4 5 5 4 6 2 7 1 8 8 9
REMARK H PARENT 8 10
REMARK Flexibility Score: inf
ROOT
ATOM      1  C   UNL     1      26.965 -38.875  -1.411  1.00  0.00    -0.045 A 
ATOM      2  C   UNL     1      26.601 -39.781  -0.401  1.00  0.00     0.049 A 
ATOM      3  C   UNL     1      26.244 -39.315   0.873  1.00  0.00     0.115 A 
ATOM      4  C   UNL     1      26.262 -37.943   1.142  1.00  0.00     0.046 A 
ATOM      5  C   UNL     1      26.637 -37.038   0.145  1.00  0.00     0.004 A 
ATOM      6  C   UNL     1      26.992 -37.500  -1.125  1.00  0.00     0.004 A 
ENDROOT
BRANCH   1   7
ATOM      7  C   UNL     1      27.379 -39.376  -2.769  1.00  0.00     0.032 C 
ATOM      8  C   UNL     1      26.288 -40.251  -3.376  1.00  0.00     0.009 C 
ENDBRANCH   1   7
BRANCH   3   9
ATOM      9  O   UNL     1      25.875 -40.208   1.877  1.00  0.00    -0.508 OA
ATOM     10  H   UNL     1      24.933 -40.574   1.941  1.00  0.00     0.293 HD
ENDBRANCH   3   9
TORSDOF 2
ENDMDL
MODEL 7
REMARK VINA RESULT:    -3.899      1.959      3.103
REMARK INTER + INTRA:          -4.311
REMARK INTER:                  -4.252
REMARK INTRA:                  -0.059
REMARK UNBOUND:                -0.071
REMARK SMILES CCc1cccc(O)c1
REMARK SMILES IDX 3 1 9 2 7 3 6 4 5 5 4 6 2 7 1 8 8 9
REMARK H PARENT 8 10
REMARK Flexibility Score: inf
ROOT
ATOM      1  C   UNL     1      26.980 -40.754  -1.940  1.00  0.00    -0.045 A 
ATOM      2  C   UNL     1      27.991 -41.696  -1.695  1.00  0.00     0.049 A 
ATOM      3  C   UNL     1      27.938 -42.511  -0.554  1.00  0.00     0.115 A 
ATOM      4  C   UNL     1      26.878 -42.377   0.348  1.00  0.00     0.046 A 
ATOM      5  C   UNL     1      25.875 -41.431   0.116  1.00  0.00     0.004 A 
ATOM      6  C   UNL     1      25.927 -40.618  -1.020  1.00  0.00     0.004 A 
ENDROOT
BRANCH   1   7
ATOM      7  C   UNL     1      27.053 -39.856  -3.146  1.00  0.00     0.032 C 
ATOM      8  C   UNL     1      25.885 -40.123  -4.089  1.00  0.00     0.009 C 
ENDBRANCH   1   7
BRANCH   3   9
ATOM      9  O   UNL     1      28.934 -43.453  -0.308  1.00  0.00    -0.508 OA
ATOM     10  H   UNL     1      29.917 -43.218  -0.383  1.00  0.00     0.293 HD
ENDBRANCH   3   9
TORSDOF 2
ENDMDL
MODEL 8
REMARK VINA RESULT:    -3.833      2.307      3.927
REMARK INTER + INTRA:          -4.240
REMARK INTER:                  -4.166
REMARK INTRA:                  -0.073
REMARK UNBOUND:                -0.071
REMARK SMILES CCc1cccc(O)c1
REMARK SMILES IDX 3 1 9 2 7 3 6 4 5 5 4 6 2 7 1 8 8 9
REMARK H PARENT 8 10
REMARK Flexibility Score: inf
ROOT
ATOM      1  C   UNL     1      26.469 -39.819  -0.818  1.00  0.00    -0.045 A 
ATOM      2  C   UNL     1      26.136 -39.759   0.544  1.00  0.00     0.049 A 
ATOM      3  C   UNL     1      26.211 -38.543   1.239  1.00  0.00     0.115 A 
ATOM      4  C   UNL     1      26.629 -37.387   0.572  1.00  0.00     0.046 A 
ATOM      5  C   UNL     1      26.975 -37.443  -0.781  1.00  0.00     0.004 A 
ATOM      6  C   UNL     1      26.901 -38.655  -1.474  1.00  0.00     0.004 A 
ENDROOT
BRANCH   1   7
ATOM      7  C   UNL     1      26.421 -41.131  -1.556  1.00  0.00     0.032 C 
ATOM      8  C   UNL     1      26.333 -40.901  -3.061  1.00  0.00     0.009 C 
ENDBRANCH   1   7
BRANCH   3   9
ATOM      9  O   UNL     1      25.875 -38.474   2.589  1.00  0.00    -0.508 OA
ATOM     10  H   UNL     1      26.273 -37.770   3.199  1.00  0.00     0.293 HD
ENDBRANCH   3   9
TORSDOF 2
ENDMDL
MODEL 9
REMARK VINA RESULT:    -3.713      1.926      3.533
REMARK INTER + INTRA:          -4.109
REMARK INTER:                  -4.041
REMARK INTRA:                  -0.068
REMARK UNBOUND:                -0.071
REMARK SMILES CCc1cccc(O)c1
REMARK SMILES IDX 3 1 9 2 7 3 6 4 5 5 4 6 2 7 1 8 8 9
REMARK H PARENT 8 10
REMARK Flexibility Score: inf
ROOT
ATOM      1  C   UNL     1      26.701 -40.953  -1.257  1.00  0.00    -0.045 A 
ATOM      2  C   UNL     1      26.668 -41.989  -0.309  1.00  0.00     0.049 A 
ATOM      3  C   UNL     1      26.251 -41.733   1.006  1.00  0.00     0.115 A 
ATOM      4  C   UNL     1      25.875 -40.438   1.376  1.00  0.00     0.046 A 
ATOM      5  C   UNL     1      25.919 -39.400   0.440  1.00  0.00     0.004 A 
ATOM      6  C   UNL     1      26.334 -39.654  -0.870  1.00  0.00     0.004 A 
ENDROOT
BRANCH   1   7
ATOM      7  C   UNL     1      27.180 -41.221  -2.659  1.00  0.00     0.032 C 
ATOM      8  C   UNL     1      26.286 -40.521  -3.677  1.00  0.00     0.009 C 
ENDBRANCH   1   7
BRANCH   3   9
ATOM      9  O   UNL     1      26.209 -42.757   1.950  1.00  0.00    -0.508 OA
ATOM     10  H   UNL     1      25.749 -43.638   1.755  1.00  0.00     0.293 HD
ENDBRANCH   3   9
TORSDOF 2
ENDMDL
