MODEL 1
REMARK VINA RESULT:    -5.930      0.000      0.000
REMARK INTER + INTRA:          -6.450
REMARK INTER:                  -6.450
REMARK INTRA:                   0.000
REMARK UNBOUND:                 0.000
REMARK SMILES Cc1cc(O)c2c(c1)C(=O)c1cc(O)cc(O)c1C2=O
REMARK SMILES IDX 1 1 2 2 8 3 7 4 6 5 4 6 3 7 19 8 20 9 18 10 11 11 9 12 10 13
REMARK SMILES IDX 12 14 13 15 15 16 16 17 5 18 17 20 14 22
REMARK H PARENT 5 19 17 21 14 23
REMARK Flexibility Score: inf
ROOT
ATOM      1  C   UNL     1      -3.438   0.319  -4.855  1.00  0.00     0.044 C 
ATOM      2  C   UNL     1      -2.483   1.113  -5.699  1.00  0.00    -0.047 A 
ATOM      3  C   UNL     1      -1.718   2.134  -5.125  1.00  0.00     0.016 A 
ATOM      4  C   UNL     1      -0.849   2.908  -5.914  1.00  0.00     0.038 A 
ATOM      5  C   UNL     1      -0.750   2.661  -7.299  1.00  0.00     0.076 A 
ATOM      6  C   UNL     1      -1.545   1.646  -7.878  1.00  0.00     0.127 A 
ATOM      7  C   UNL     1      -2.407   0.886  -7.077  1.00  0.00     0.050 A 
ATOM      8  C   UNL     1       0.204   3.461  -8.111  1.00  0.00     0.201 C 
ATOM      9  O   UNL     1       0.573   3.029  -9.237  1.00  0.00    -0.288 OA
ATOM     10  C   UNL     1       0.807   4.701  -7.550  1.00  0.00     0.076 A 
ATOM     11  C   UNL     1       0.750   4.904  -6.151  1.00  0.00     0.041 A 
ATOM     12  C   UNL     1      -0.037   3.983  -5.298  1.00  0.00     0.194 C 
ATOM     13  O   UNL     1      -0.030   4.125  -4.043  1.00  0.00    -0.289 OA
ATOM     14  C   UNL     1       1.434   5.987  -5.572  1.00  0.00     0.059 A 
ATOM     15  C   UNL     1       2.158   6.877  -6.367  1.00  0.00     0.120 A 
ATOM     16  C   UNL     1       2.178   6.710  -7.750  1.00  0.00     0.093 A 
ATOM     17  C   UNL     1       1.486   5.657  -8.356  1.00  0.00     0.131 A 
ENDROOT
BRANCH   6  18
ATOM     18  O   UNL     1      -1.493   1.397  -9.251  1.00  0.00    -0.507 OA
ATOM     19  H   UNL     1      -0.754   0.842  -9.665  1.00  0.00     0.293 HD
ENDBRANCH   6  18
BRANCH  17  20
ATOM     20  O   UNL     1       1.470   5.625  -9.753  1.00  0.00    -0.507 OA
ATOM     21  H   UNL     1       1.698   6.419 -10.334  1.00  0.00     0.293 HD
ENDBRANCH  17  20
BRANCH  15  22
ATOM     22  O   UNL     1       2.850   7.941  -5.794  1.00  0.00    -0.508 OA
ATOM     23  H   UNL     1       2.678   8.899  -6.076  1.00  0.00     0.293 HD
ENDBRANCH  15  22
TORSDOF 3
ENDMDL
MODEL 2
REMARK VINA RESULT:    -5.637      1.786      5.812
REMARK INTER + INTRA:          -6.131
REMARK INTER:                  -6.131
REMARK INTRA:                   0.000
REMARK UNBOUND:                 0.000
REMARK SMILES Cc1cc(O)c2c(c1)C(=O)c1cc(O)cc(O)c1C2=O
REMARK SMILES IDX 1 1 2 2 8 3 7 4 6 5 4 6 3 7 19 8 20 9 18 10 11 11 9 12 10 13
REMARK SMILES IDX 12 14 13 15 15 16 16 17 5 18 17 20 14 22
REMARK H PARENT 5 19 17 21 14 23
REMARK Flexibility Score: inf
ROOT
ATOM      1  C   UNL     1       4.478   8.455  -3.631  1.00  0.00     0.044 C 
ATOM      2  C   UNL     1       3.582   7.687  -4.559  1.00  0.00    -0.047 A 
ATOM      3  C   UNL     1       2.623   6.808  -4.043  1.00  0.00     0.016 A 
ATOM      4  C   UNL     1       1.804   6.055  -4.904  1.00  0.00     0.038 A 
ATOM      5  C   UNL     1       1.953   6.180  -6.301  1.00  0.00     0.076 A 
ATOM      6  C   UNL     1       2.942   7.048  -6.816  1.00  0.00     0.127 A 
ATOM      7  C   UNL     1       3.750   7.789  -5.944  1.00  0.00     0.050 A 
ATOM      8  C   UNL     1       1.052   5.408  -7.197  1.00  0.00     0.201 C 
ATOM      9  O   UNL     1       0.917   5.767  -8.398  1.00  0.00    -0.288 OA
ATOM     10  C   UNL     1       0.228   4.295  -6.650  1.00  0.00     0.076 A 
ATOM     11  C   UNL     1       0.041   4.220  -5.250  1.00  0.00     0.041 A 
ATOM     12  C   UNL     1       0.787   5.132  -4.351  1.00  0.00     0.194 C 
ATOM     13  O   UNL     1       0.567   5.111  -3.107  1.00  0.00    -0.289 OA
ATOM     14  C   UNL     1      -0.846   3.272  -4.711  1.00  0.00     0.059 A 
ATOM     15  C   UNL     1      -1.535   2.390  -5.545  1.00  0.00     0.120 A 
ATOM     16  C   UNL     1      -1.319   2.426  -6.921  1.00  0.00     0.093 A 
ATOM     17  C   UNL     1      -0.422   3.341  -7.482  1.00  0.00     0.131 A 
ENDROOT
BRANCH   6  18
ATOM     18  O   UNL     1       3.135   7.170  -8.193  1.00  0.00    -0.507 OA
ATOM     19  H   UNL     1       2.616   6.608  -8.857  1.00  0.00     0.293 HD
ENDBRANCH   6  18
BRANCH  17  20
ATOM     20  O   UNL     1      -0.184   3.239  -8.855  1.00  0.00    -0.507 OA
ATOM     21  H   UNL     1      -0.713   2.640  -9.472  1.00  0.00     0.293 HD
ENDBRANCH  17  20
BRANCH  15  22
ATOM     22  O   UNL     1      -2.428   1.461  -5.016  1.00  0.00    -0.508 OA
ATOM     23  H   UNL     1      -3.219   1.121  -5.550  1.00  0.00     0.293 HD
ENDBRANCH  15  22
TORSDOF 3
ENDMDL
MODEL 3
REMARK VINA RESULT:    -5.179      1.672      4.051
REMARK INTER + INTRA:          -5.633
REMARK INTER:                  -5.633
REMARK INTRA:                   0.000
REMARK UNBOUND:                 0.000
REMARK SMILES Cc1cc(O)c2c(c1)C(=O)c1cc(O)cc(O)c1C2=O
REMARK SMILES IDX 1 1 2 2 8 3 7 4 6 5 4 6 3 7 19 8 20 9 18 10 11 11 9 12 10 13
REMARK SMILES IDX 12 14 13 15 15 16 16 17 5 18 17 20 14 22
REMARK H PARENT 5 19 17 21 14 23
REMARK Flexibility Score: inf
ROOT
ATOM      1  C   UNL     1      -2.170   1.943  -7.060  1.00  0.00     0.044 C 
ATOM      2  C   UNL     1      -1.239   2.986  -6.512  1.00  0.00    -0.047 A 
ATOM      3  C   UNL     1      -0.375   3.678  -7.369  1.00  0.00     0.016 A 
ATOM      4  C   UNL     1       0.527   4.629  -6.862  1.00  0.00     0.038 A 
ATOM      5  C   UNL     1       0.571   4.886  -5.476  1.00  0.00     0.076 A 
ATOM      6  C   UNL     1      -0.284   4.166  -4.612  1.00  0.00     0.127 A 
ATOM      7  C   UNL     1      -1.176   3.220  -5.135  1.00  0.00     0.050 A 
ATOM      8  C   UNL     1       1.501   5.925  -4.961  1.00  0.00     0.201 C 
ATOM      9  O   UNL     1       1.305   6.421  -3.819  1.00  0.00    -0.288 OA
ATOM     10  C   UNL     1       2.585   6.457  -5.833  1.00  0.00     0.076 A 
ATOM     11  C   UNL     1       2.495   6.239  -7.228  1.00  0.00     0.041 A 
ATOM     12  C   UNL     1       1.433   5.362  -7.776  1.00  0.00     0.194 C 
ATOM     13  O   UNL     1       1.311   5.225  -9.026  1.00  0.00    -0.289 OA
ATOM     14  C   UNL     1       3.419   6.850  -8.094  1.00  0.00     0.059 A 
ATOM     15  C   UNL     1       4.439   7.658  -7.588  1.00  0.00     0.120 A 
ATOM     16  C   UNL     1       4.562   7.836  -6.212  1.00  0.00     0.093 A 
ATOM     17  C   UNL     1       3.673   7.220  -5.325  1.00  0.00     0.131 A 
ENDROOT
BRANCH   6  18
ATOM     18  O   UNL     1      -0.244   4.375  -3.233  1.00  0.00    -0.507 OA
ATOM     19  H   UNL     1      -0.175   3.606  -2.577  1.00  0.00     0.293 HD
ENDBRANCH   6  18
BRANCH  17  20
ATOM     20  O   UNL     1       3.932   7.364  -3.960  1.00  0.00    -0.507 OA
ATOM     21  H   UNL     1       3.442   6.853  -3.240  1.00  0.00     0.293 HD
ENDBRANCH  17  20
BRANCH  15  22
ATOM     22  O   UNL     1       5.346   8.277  -8.444  1.00  0.00    -0.508 OA
ATOM     23  H   UNL     1       5.085   9.084  -9.000  1.00  0.00     0.293 HD
ENDBRANCH  15  22
TORSDOF 3
ENDMDL
MODEL 4
REMARK VINA RESULT:    -5.161      1.698      2.936
REMARK INTER + INTRA:          -5.614
REMARK INTER:                  -5.614
REMARK INTRA:                   0.000
REMARK UNBOUND:                 0.000
REMARK SMILES Cc1cc(O)c2c(c1)C(=O)c1cc(O)cc(O)c1C2=O
REMARK SMILES IDX 1 1 2 2 8 3 7 4 6 5 4 6 3 7 19 8 20 9 18 10 11 11 9 12 10 13
REMARK SMILES IDX 12 14 13 15 15 16 16 17 5 18 17 20 14 22
REMARK H PARENT 5 19 17 21 14 23
REMARK Flexibility Score: inf
ROOT
ATOM      1  C   UNL     1      -1.968   1.804  -5.475  1.00  0.00     0.044 C 
ATOM      2  C   UNL     1      -0.992   2.871  -5.882  1.00  0.00    -0.047 A 
ATOM      3  C   UNL     1      -0.397   3.687  -4.913  1.00  0.00     0.016 A 
ATOM      4  C   UNL     1       0.488   4.714  -5.287  1.00  0.00     0.038 A 
ATOM      5  C   UNL     1       0.776   4.930  -6.651  1.00  0.00     0.076 A 
ATOM      6  C   UNL     1       0.151   4.121  -7.626  1.00  0.00     0.127 A 
ATOM      7  C   UNL     1      -0.729   3.103  -7.236  1.00  0.00     0.050 A 
ATOM      8  C   UNL     1       1.746   5.992  -7.026  1.00  0.00     0.201 C 
ATOM      9  O   UNL     1       2.286   5.964  -8.164  1.00  0.00    -0.288 OA
ATOM     10  C   UNL     1       2.163   7.012  -6.024  1.00  0.00     0.076 A 
ATOM     11  C   UNL     1       1.918   6.751  -4.656  1.00  0.00     0.041 A 
ATOM     12  C   UNL     1       1.119   5.568  -4.255  1.00  0.00     0.194 C 
ATOM     13  O   UNL     1       0.960   5.299  -3.032  1.00  0.00    -0.289 OA
ATOM     14  C   UNL     1       2.427   7.620  -3.674  1.00  0.00     0.059 A 
ATOM     15  C   UNL     1       3.159   8.751  -4.039  1.00  0.00     0.120 A 
ATOM     16  C   UNL     1       3.362   9.040  -5.387  1.00  0.00     0.093 A 
ATOM     17  C   UNL     1       2.845   8.207  -6.384  1.00  0.00     0.131 A 
ENDROOT
BRANCH   6  18
ATOM     18  O   UNL     1       0.392   4.330  -8.985  1.00  0.00    -0.507 OA
ATOM     19  H   UNL     1       0.571   5.254  -9.360  1.00  0.00     0.293 HD
ENDBRANCH   6  18
BRANCH  17  20
ATOM     20  O   UNL     1       3.002   8.626  -7.708  1.00  0.00    -0.507 OA
ATOM     21  H   UNL     1       3.896   8.846  -8.124  1.00  0.00     0.293 HD
ENDBRANCH  17  20
BRANCH  15  22
ATOM     22  O   UNL     1       3.678   9.605  -3.068  1.00  0.00    -0.508 OA
ATOM     23  H   UNL     1       3.499   9.458  -2.082  1.00  0.00     0.293 HD
ENDBRANCH  15  22
TORSDOF 3
ENDMDL
MODEL 5
REMARK VINA RESULT:    -5.109      1.308      6.334
REMARK INTER + INTRA:          -5.557
REMARK INTER:                  -5.557
REMARK INTRA:                   0.000
REMARK UNBOUND:                 0.000
REMARK SMILES Cc1cc(O)c2c(c1)C(=O)c1cc(O)cc(O)c1C2=O
REMARK SMILES IDX 1 1 2 2 8 3 7 4 6 5 4 6 3 7 19 8 20 9 18 10 11 11 9 12 10 13
REMARK SMILES IDX 12 14 13 15 15 16 16 17 5 18 17 20 14 22
REMARK H PARENT 5 19 17 21 14 23
REMARK Flexibility Score: inf
ROOT
ATOM      1  C   UNL     1       3.860   8.624  -7.367  1.00  0.00     0.044 C 
ATOM      2  C   UNL     1       2.940   7.560  -6.842  1.00  0.00    -0.047 A 
ATOM      3  C   UNL     1       2.457   6.563  -7.698  1.00  0.00     0.016 A 
ATOM      4  C   UNL     1       1.565   5.584  -7.226  1.00  0.00     0.038 A 
ATOM      5  C   UNL     1       1.146   5.607  -5.879  1.00  0.00     0.076 A 
ATOM      6  C   UNL     1       1.616   6.631  -5.026  1.00  0.00     0.127 A 
ATOM      7  C   UNL     1       2.503   7.600  -5.514  1.00  0.00     0.050 A 
ATOM      8  C   UNL     1       0.236   4.540  -5.386  1.00  0.00     0.201 C 
ATOM      9  O   UNL     1       0.144   4.328  -4.147  1.00  0.00    -0.288 OA
ATOM     10  C   UNL     1      -0.471   3.654  -6.352  1.00  0.00     0.076 A 
ATOM     11  C   UNL     1       0.000   3.600  -7.685  1.00  0.00     0.041 A 
ATOM     12  C   UNL     1       1.064   4.529  -8.136  1.00  0.00     0.194 C 
ATOM     13  O   UNL     1       1.531   4.432  -9.305  1.00  0.00    -0.289 OA
ATOM     14  C   UNL     1      -0.548   2.669  -8.585  1.00  0.00     0.059 A 
ATOM     15  C   UNL     1      -1.568   1.806  -8.180  1.00  0.00     0.120 A 
ATOM     16  C   UNL     1      -2.069   1.888  -6.883  1.00  0.00     0.093 A 
ATOM     17  C   UNL     1      -1.561   2.822  -5.974  1.00  0.00     0.131 A 
ENDROOT
BRANCH   6  18
ATOM     18  O   UNL     1       1.196   6.699  -3.697  1.00  0.00    -0.507 OA
ATOM     19  H   UNL     1       0.692   5.939  -3.256  1.00  0.00     0.293 HD
ENDBRANCH   6  18
BRANCH  17  20
ATOM     20  O   UNL     1      -2.192   2.910  -4.731  1.00  0.00    -0.507 OA
ATOM     21  H   UNL     1      -2.797   3.673  -4.463  1.00  0.00     0.293 HD
ENDBRANCH  17  20
BRANCH  15  22
ATOM     22  O   UNL     1      -2.101   0.872  -9.064  1.00  0.00    -0.508 OA
ATOM     23  H   UNL     1      -3.101   0.721  -9.138  1.00  0.00     0.293 HD
ENDBRANCH  15  22
TORSDOF 3
ENDMDL
MODEL 6
REMARK VINA RESULT:    -4.964      6.073      9.261
REMARK INTER + INTRA:          -5.399
REMARK INTER:                  -5.399
REMARK INTRA:                   0.000
REMARK UNBOUND:                 0.000
REMARK SMILES Cc1cc(O)c2c(c1)C(=O)c1cc(O)cc(O)c1C2=O
REMARK SMILES IDX 1 1 2 2 8 3 7 4 6 5 4 6 3 7 19 8 20 9 18 10 11 11 9 12 10 13
REMARK SMILES IDX 12 14 13 15 15 16 16 17 5 18 17 20 14 22
REMARK H PARENT 5 19 17 21 14 23
REMARK Flexibility Score: inf
ROOT
ATOM      1  C   UNL     1       3.687  15.385  -5.127  1.00  0.00     0.044 C 
ATOM      2  C   UNL     1       3.466  13.924  -5.395  1.00  0.00    -0.047 A 
ATOM      3  C   UNL     1       4.532  13.113  -5.799  1.00  0.00     0.016 A 
ATOM      4  C   UNL     1       4.329  11.753  -6.090  1.00  0.00     0.038 A 
ATOM      5  C   UNL     1       3.036  11.198  -5.981  1.00  0.00     0.076 A 
ATOM      6  C   UNL     1       1.958  12.027  -5.599  1.00  0.00     0.127 A 
ATOM      7  C   UNL     1       2.179  13.381  -5.315  1.00  0.00     0.050 A 
ATOM      8  C   UNL     1       2.845   9.748  -6.252  1.00  0.00     0.201 C 
ATOM      9  O   UNL     1       1.814   9.168  -5.818  1.00  0.00    -0.288 OA
ATOM     10  C   UNL     1       3.918   8.966  -6.927  1.00  0.00     0.076 A 
ATOM     11  C   UNL     1       5.222   9.513  -6.975  1.00  0.00     0.041 A 
ATOM     12  C   UNL     1       5.464  10.900  -6.510  1.00  0.00     0.194 C 
ATOM     13  O   UNL     1       6.639  11.362  -6.488  1.00  0.00    -0.289 OA
ATOM     14  C   UNL     1       6.287   8.743  -7.472  1.00  0.00     0.059 A 
ATOM     15  C   UNL     1       6.068   7.444  -7.937  1.00  0.00     0.120 A 
ATOM     16  C   UNL     1       4.778   6.918  -7.937  1.00  0.00     0.093 A 
ATOM     17  C   UNL     1       3.695   7.671  -7.472  1.00  0.00     0.131 A 
ENDROOT
BRANCH   6  18
ATOM     18  O   UNL     1       0.662  11.515  -5.512  1.00  0.00    -0.507 OA
ATOM     19  H   UNL     1       0.427  10.762  -4.877  1.00  0.00     0.293 HD
ENDBRANCH   6  18
BRANCH  17  20
ATOM     20  O   UNL     1       2.423   7.109  -7.607  1.00  0.00    -0.507 OA
ATOM     21  H   UNL     1       1.820   6.896  -6.826  1.00  0.00     0.293 HD
ENDBRANCH  17  20
BRANCH  15  22
ATOM     22  O   UNL     1       7.124   6.673  -8.415  1.00  0.00    -0.508 OA
ATOM     23  H   UNL     1       7.857   6.337  -7.800  1.00  0.00     0.293 HD
ENDBRANCH  15  22
TORSDOF 3
ENDMDL
MODEL 7
REMARK VINA RESULT:    -4.857      5.534      8.165
REMARK INTER + INTRA:          -5.283
REMARK INTER:                  -5.283
REMARK INTRA:                   0.000
REMARK UNBOUND:                 0.000
REMARK SMILES Cc1cc(O)c2c(c1)C(=O)c1cc(O)cc(O)c1C2=O
REMARK SMILES IDX 1 1 2 2 8 3 7 4 6 5 4 6 3 7 19 8 20 9 18 10 11 11 9 12 10 13
REMARK SMILES IDX 12 14 13 15 15 16 16 17 5 18 17 20 14 22
REMARK H PARENT 5 19 17 21 14 23
REMARK Flexibility Score: inf
ROOT
ATOM      1  C   UNL     1       1.557  14.303  -4.749  1.00  0.00     0.044 C 
ATOM      2  C   UNL     1       1.725  12.847  -5.075  1.00  0.00    -0.047 A 
ATOM      3  C   UNL     1       2.960  12.364  -5.522  1.00  0.00     0.016 A 
ATOM      4  C   UNL     1       3.119  11.011  -5.867  1.00  0.00     0.038 A 
ATOM      5  C   UNL     1       2.022  10.129  -5.769  1.00  0.00     0.076 A 
ATOM      6  C   UNL     1       0.770  10.627  -5.343  1.00  0.00     0.127 A 
ATOM      7  C   UNL     1       0.630  11.979  -5.006  1.00  0.00     0.050 A 
ATOM      8  C   UNL     1       2.217   8.692  -6.098  1.00  0.00     0.201 C 
ATOM      9  O   UNL     1       1.385   7.843  -5.679  1.00  0.00    -0.288 OA
ATOM     10  C   UNL     1       3.444   8.248  -6.814  1.00  0.00     0.076 A 
ATOM     11  C   UNL     1       4.555   9.123  -6.852  1.00  0.00     0.041 A 
ATOM     12  C   UNL     1       4.431  10.506  -6.333  1.00  0.00     0.194 C 
ATOM     13  O   UNL     1       5.442  11.262  -6.303  1.00  0.00    -0.289 OA
ATOM     14  C   UNL     1       5.777   8.683  -7.391  1.00  0.00     0.059 A 
ATOM     15  C   UNL     1       5.900   7.391  -7.907  1.00  0.00     0.120 A 
ATOM     16  C   UNL     1       4.796   6.541  -7.916  1.00  0.00     0.093 A 
ATOM     17  C   UNL     1       3.562   6.962  -7.411  1.00  0.00     0.131 A 
ENDROOT
BRANCH   6  18
ATOM     18  O   UNL     1      -0.341   9.786  -5.266  1.00  0.00    -0.507 OA
ATOM     19  H   UNL     1      -0.446   8.981  -5.872  1.00  0.00     0.293 HD
ENDBRANCH   6  18
BRANCH  17  20
ATOM     20  O   UNL     1       2.482   6.088  -7.557  1.00  0.00    -0.507 OA
ATOM     21  H   UNL     1       2.444   5.169  -7.138  1.00  0.00     0.293 HD
ENDBRANCH  17  20
BRANCH  15  22
ATOM     22  O   UNL     1       7.114   6.946  -8.426  1.00  0.00    -0.508 OA
ATOM     23  H   UNL     1       7.176   6.096  -8.975  1.00  0.00     0.293 HD
ENDBRANCH  15  22
TORSDOF 3
ENDMDL
MODEL 8
REMARK VINA RESULT:    -4.851      1.798      3.651
REMARK INTER + INTRA:          -5.276
REMARK INTER:                  -5.276
REMARK INTRA:                   0.000
REMARK UNBOUND:                 0.000
REMARK SMILES Cc1cc(O)c2c(c1)C(=O)c1cc(O)cc(O)c1C2=O
REMARK SMILES IDX 1 1 2 2 8 3 7 4 6 5 4 6 3 7 19 8 20 9 18 10 11 11 9 12 10 13
REMARK SMILES IDX 12 14 13 15 15 16 16 17 5 18 17 20 14 22
REMARK H PARENT 5 19 17 21 14 23
REMARK Flexibility Score: inf
ROOT
ATOM      1  C   UNL     1      -1.324   1.113  -9.155  1.00  0.00     0.044 C 
ATOM      2  C   UNL     1      -0.845   2.137  -8.166  1.00  0.00    -0.047 A 
ATOM      3  C   UNL     1      -0.043   3.202  -8.589  1.00  0.00     0.016 A 
ATOM      4  C   UNL     1       0.443   4.145  -7.665  1.00  0.00     0.038 A 
ATOM      5  C   UNL     1       0.125   4.014  -6.297  1.00  0.00     0.076 A 
ATOM      6  C   UNL     1      -0.663   2.921  -5.872  1.00  0.00     0.127 A 
ATOM      7  C   UNL     1      -1.136   1.990  -6.806  1.00  0.00     0.050 A 
ATOM      8  C   UNL     1       0.612   5.042  -5.339  1.00  0.00     0.201 C 
ATOM      9  O   UNL     1       0.056   5.152  -4.214  1.00  0.00    -0.288 OA
ATOM     10  C   UNL     1       1.668   6.008  -5.751  1.00  0.00     0.076 A 
ATOM     11  C   UNL     1       1.932   6.168  -7.132  1.00  0.00     0.041 A 
ATOM     12  C   UNL     1       1.285   5.273  -8.122  1.00  0.00     0.194 C 
ATOM     13  O   UNL     1       1.468   5.463  -9.357  1.00  0.00    -0.289 OA
ATOM     14  C   UNL     1       2.815   7.173  -7.565  1.00  0.00     0.059 A 
ATOM     15  C   UNL     1       3.450   8.005  -6.641  1.00  0.00     0.120 A 
ATOM     16  C   UNL     1       3.232   7.820  -5.278  1.00  0.00     0.093 A 
ATOM     17  C   UNL     1       2.378   6.812  -4.818  1.00  0.00     0.131 A 
ENDROOT
BRANCH   6  18
ATOM     18  O   UNL     1      -0.968   2.746  -4.521  1.00  0.00    -0.507 OA
ATOM     19  H   UNL     1      -0.865   1.850  -4.061  1.00  0.00     0.293 HD
ENDBRANCH   6  18
BRANCH  17  20
ATOM     20  O   UNL     1       2.299   6.626  -3.435  1.00  0.00    -0.507 OA
ATOM     21  H   UNL     1       2.411   7.371  -2.763  1.00  0.00     0.293 HD
ENDBRANCH  17  20
BRANCH  15  22
ATOM     22  O   UNL     1       4.313   9.012  -7.067  1.00  0.00    -0.508 OA
ATOM     23  H   UNL     1       5.304   8.842  -7.197  1.00  0.00     0.293 HD
ENDBRANCH  15  22
TORSDOF 3
ENDMDL
MODEL 9
REMARK VINA RESULT:    -4.581      7.312      9.813
REMARK INTER + INTRA:          -4.982
REMARK INTER:                  -4.982
REMARK INTRA:                   0.000
REMARK UNBOUND:                 0.000
REMARK SMILES Cc1cc(O)c2c(c1)C(=O)c1cc(O)cc(O)c1C2=O
REMARK SMILES IDX 1 1 2 2 8 3 7 4 6 5 4 6 3 7 19 8 20 9 18 10 11 11 9 12 10 13
REMARK SMILES IDX 12 14 13 15 15 16 16 17 5 18 17 20 14 22
REMARK H PARENT 5 19 17 21 14 23
REMARK Flexibility Score: inf
ROOT
ATOM      1  C   UNL     1      -4.124  15.773  -2.875  1.00  0.00     0.044 C 
ATOM      2  C   UNL     1      -3.255  14.605  -3.245  1.00  0.00    -0.047 A 
ATOM      3  C   UNL     1      -1.969  14.819  -3.754  1.00  0.00     0.016 A 
ATOM      4  C   UNL     1      -1.162  13.734  -4.139  1.00  0.00     0.038 A 
ATOM      5  C   UNL     1      -1.652  12.417  -4.018  1.00  0.00     0.076 A 
ATOM      6  C   UNL     1      -2.961  12.208  -3.529  1.00  0.00     0.127 A 
ATOM      7  C   UNL     1      -3.752  13.301  -3.152  1.00  0.00     0.050 A 
ATOM      8  C   UNL     1      -0.770  11.279  -4.391  1.00  0.00     0.201 C 
ATOM      9  O   UNL     1      -1.034  10.125  -3.960  1.00  0.00    -0.288 OA
ATOM     10  C   UNL     1       0.477  11.523  -5.168  1.00  0.00     0.076 A 
ATOM     11  C   UNL     1       0.986  12.841  -5.229  1.00  0.00     0.041 A 
ATOM     12  C   UNL     1       0.201  13.968  -4.670  1.00  0.00     0.194 C 
ATOM     13  O   UNL     1       0.687  15.133  -4.663  1.00  0.00    -0.289 OA
ATOM     14  C   UNL     1       2.234  13.084  -5.828  1.00  0.00     0.059 A 
ATOM     15  C   UNL     1       2.972  12.035  -6.381  1.00  0.00     0.120 A 
ATOM     16  C   UNL     1       2.454  10.742  -6.367  1.00  0.00     0.093 A 
ATOM     17  C   UNL     1       1.203  10.476  -5.800  1.00  0.00     0.131 A 
ENDROOT
BRANCH   6  18
ATOM     18  O   UNL     1      -3.486  10.919  -3.427  1.00  0.00    -0.507 OA
ATOM     19  H   UNL     1      -3.823  10.414  -4.238  1.00  0.00     0.293 HD
ENDBRANCH   6  18
BRANCH  17  20
ATOM     20  O   UNL     1       0.712   9.174  -5.924  1.00  0.00    -0.507 OA
ATOM     21  H   UNL     1       1.297   8.368  -6.090  1.00  0.00     0.293 HD
ENDBRANCH  17  20
BRANCH  15  22
ATOM     22  O   UNL     1       4.216  12.270  -6.960  1.00  0.00    -0.508 OA
ATOM     23  H   UNL     1       4.455  13.171  -7.357  1.00  0.00     0.293 HD
ENDBRANCH  15  22
TORSDOF 3
ENDMDL
