MODEL 1
REMARK VINA RESULT:    -5.095      0.000      0.000
REMARK INTER + INTRA:          -5.524
REMARK INTER:                  -5.393
REMARK INTRA:                  -0.131
REMARK UNBOUND:                -0.131
REMARK SMILES C=C(C)[C@H]1CC=C(C)CC1
REMARK SMILES IDX 8 1 7 2 6 3 5 4 4 5 10 6 9 7 2 8 1 9 3 10
REMARK H PARENT
REMARK Flexibility Score: inf
ROOT
ATOM      1  C   UNL     1     145.802 150.686 165.110  1.00  0.00     0.039 C 
ATOM      2  C   UNL     1     146.328 150.176 163.797  1.00  0.00    -0.077 C 
ATOM      3  C   UNL     1     145.832 150.687 162.650  1.00  0.00    -0.027 C 
ATOM      4  C   UNL     1     146.255 150.206 161.284  1.00  0.00     0.035 C 
ATOM      5  C   UNL     1     147.633 149.523 161.310  1.00  0.00     0.018 C 
ATOM      6  C   UNL     1     147.688 148.499 162.453  1.00  0.00     0.013 C 
ATOM      7  C   UNL     1     147.490 149.202 163.802  1.00  0.00     0.031 C 
ENDROOT
BRANCH   5   8
ATOM      8  C   UNL     1     147.960 148.881 159.968  1.00  0.00    -0.077 C 
ATOM      9  C   UNL     1     147.366 149.323 158.848  1.00  0.00     0.008 C 
ATOM     10  C   UNL     1     148.939 147.738 159.861  1.00  0.00     0.039 C 
ENDBRANCH   5   8
TORSDOF 1
ENDMDL
MODEL 2
REMARK VINA RESULT:    -5.073      8.517      9.290
REMARK INTER + INTRA:          -5.500
REMARK INTER:                  -5.370
REMARK INTRA:                  -0.130
REMARK UNBOUND:                -0.131
REMARK SMILES C=C(C)[C@H]1CC=C(C)CC1
REMARK SMILES IDX 8 1 7 2 6 3 5 4 4 5 10 6 9 7 2 8 1 9 3 10
REMARK H PARENT
REMARK Flexibility Score: inf
ROOT
ATOM      1  C   UNL     1     144.961 140.128 165.184  1.00  0.00     0.039 C 
ATOM      2  C   UNL     1     144.442 140.630 163.864  1.00  0.00    -0.077 C 
ATOM      3  C   UNL     1     144.906 140.074 162.724  1.00  0.00    -0.027 C 
ATOM      4  C   UNL     1     144.488 140.542 161.352  1.00  0.00     0.035 C 
ATOM      5  C   UNL     1     143.138 141.279 161.376  1.00  0.00     0.018 C 
ATOM      6  C   UNL     1     143.135 142.329 162.496  1.00  0.00     0.013 C 
ATOM      7  C   UNL     1     143.319 141.649 163.858  1.00  0.00     0.031 C 
ENDROOT
BRANCH   5   8
ATOM      8  C   UNL     1     142.823 141.903 160.022  1.00  0.00    -0.077 C 
ATOM      9  C   UNL     1     143.360 141.393 158.903  1.00  0.00     0.008 C 
ATOM     10  C   UNL     1     141.918 143.105 159.903  1.00  0.00     0.039 C 
ENDBRANCH   5   8
TORSDOF 1
ENDMDL
MODEL 3
REMARK VINA RESULT:    -5.070      6.079      6.597
REMARK INTER + INTRA:          -5.497
REMARK INTER:                  -5.366
REMARK INTRA:                  -0.131
REMARK UNBOUND:                -0.131
REMARK SMILES C=C(C)[C@H]1CC=C(C)CC1
REMARK SMILES IDX 8 1 7 2 6 3 5 4 4 5 10 6 9 7 2 8 1 9 3 10
REMARK H PARENT
REMARK Flexibility Score: inf
ROOT
ATOM      1  C   UNL     1     140.047 145.789 165.030  1.00  0.00     0.039 C 
ATOM      2  C   UNL     1     140.568 146.327 163.725  1.00  0.00    -0.077 C 
ATOM      3  C   UNL     1     140.064 145.843 162.569  1.00  0.00    -0.027 C 
ATOM      4  C   UNL     1     140.557 146.279 161.212  1.00  0.00     0.035 C 
ATOM      5  C   UNL     1     141.242 147.655 161.257  1.00  0.00     0.018 C 
ATOM      6  C   UNL     1     142.258 147.696 162.408  1.00  0.00     0.013 C 
ATOM      7  C   UNL     1     141.545 147.487 163.750  1.00  0.00     0.031 C 
ENDROOT
BRANCH   5   8
ATOM      8  C   UNL     1     141.895 147.994 159.923  1.00  0.00    -0.077 C 
ATOM      9  C   UNL     1     141.497 147.373 158.801  1.00  0.00     0.008 C 
ATOM     10  C   UNL     1     143.001 149.016 159.826  1.00  0.00     0.039 C 
ENDBRANCH   5   8
TORSDOF 1
ENDMDL
MODEL 4
REMARK VINA RESULT:    -5.058      6.055      6.582
REMARK INTER + INTRA:          -5.485
REMARK INTER:                  -5.354
REMARK INTRA:                  -0.131
REMARK UNBOUND:                -0.131
REMARK SMILES C=C(C)[C@H]1CC=C(C)CC1
REMARK SMILES IDX 8 1 7 2 6 3 5 4 4 5 10 6 9 7 2 8 1 9 3 10
REMARK H PARENT
REMARK Flexibility Score: inf
ROOT
ATOM      1  C   UNL     1     150.630 144.986 165.189  1.00  0.00     0.039 C 
ATOM      2  C   UNL     1     150.137 144.451 163.873  1.00  0.00    -0.077 C 
ATOM      3  C   UNL     1     150.653 144.950 162.729  1.00  0.00    -0.027 C 
ATOM      4  C   UNL     1     150.187 144.518 161.360  1.00  0.00     0.035 C 
ATOM      5  C   UNL     1     149.519 143.132 161.384  1.00  0.00     0.018 C 
ATOM      6  C   UNL     1     148.486 143.069 162.519  1.00  0.00     0.013 C 
ATOM      7  C   UNL     1     149.175 143.278 163.873  1.00  0.00     0.031 C 
ENDROOT
BRANCH   5   8
ATOM      8  C   UNL     1     148.892 142.795 160.037  1.00  0.00    -0.077 C 
ATOM      9  C   UNL     1     149.343 143.384 158.919  1.00  0.00     0.008 C 
ATOM     10  C   UNL     1     147.755 141.811 159.925  1.00  0.00     0.039 C 
ENDBRANCH   5   8
TORSDOF 1
ENDMDL
MODEL 5
REMARK VINA RESULT:    -4.650      5.561      7.272
REMARK INTER + INTRA:          -5.053
REMARK INTER:                  -4.925
REMARK INTRA:                  -0.129
REMARK UNBOUND:                -0.131
REMARK SMILES C=C(C)[C@H]1CC=C(C)CC1
REMARK SMILES IDX 8 1 7 2 6 3 5 4 4 5 10 6 9 7 2 8 1 9 3 10
REMARK H PARENT
REMARK Flexibility Score: inf
ROOT
ATOM      1  C   UNL     1     143.507 148.382 158.781  1.00  0.00     0.039 C 
ATOM      2  C   UNL     1     142.770 147.961 160.022  1.00  0.00    -0.077 C 
ATOM      3  C   UNL     1     143.399 148.038 161.215  1.00  0.00    -0.027 C 
ATOM      4  C   UNL     1     142.765 147.590 162.509  1.00  0.00     0.035 C 
ATOM      5  C   UNL     1     141.229 147.575 162.428  1.00  0.00     0.018 C 
ATOM      6  C   UNL     1     140.779 146.851 161.150  1.00  0.00     0.013 C 
ATOM      7  C   UNL     1     141.304 147.589 159.913  1.00  0.00     0.031 C 
ENDROOT
BRANCH   5   8
ATOM      8  C   UNL     1     140.615 146.946 163.673  1.00  0.00    -0.077 C 
ATOM      9  C   UNL     1     140.122 145.699 163.624  1.00  0.00     0.008 C 
ATOM     10  C   UNL     1     140.533 147.703 164.976  1.00  0.00     0.039 C 
ENDBRANCH   5   8
TORSDOF 1
ENDMDL
MODEL 6
REMARK VINA RESULT:    -4.648      8.353      9.495
REMARK INTER + INTRA:          -5.051
REMARK INTER:                  -4.923
REMARK INTRA:                  -0.128
REMARK UNBOUND:                -0.131
REMARK SMILES C=C(C)[C@H]1CC=C(C)CC1
REMARK SMILES IDX 8 1 7 2 6 3 5 4 4 5 10 6 9 7 2 8 1 9 3 10
REMARK H PARENT
REMARK Flexibility Score: inf
ROOT
ATOM      1  C   UNL     1     142.355 143.521 158.729  1.00  0.00     0.039 C 
ATOM      2  C   UNL     1     142.774 142.786 159.973  1.00  0.00    -0.077 C 
ATOM      3  C   UNL     1     142.716 143.425 161.161  1.00  0.00    -0.027 C 
ATOM      4  C   UNL     1     143.164 142.794 162.456  1.00  0.00     0.035 C 
ATOM      5  C   UNL     1     143.155 141.257 162.387  1.00  0.00     0.018 C 
ATOM      6  C   UNL     1     143.862 140.787 161.107  1.00  0.00     0.013 C 
ATOM      7  C   UNL     1     143.122 141.314 159.871  1.00  0.00     0.031 C 
ENDROOT
BRANCH   5   8
ATOM      8  C   UNL     1     143.784 140.642 163.631  1.00  0.00    -0.077 C 
ATOM      9  C   UNL     1     145.053 140.205 163.599  1.00  0.00     0.008 C 
ATOM     10  C   UNL     1     143.005 140.497 164.915  1.00  0.00     0.039 C 
ENDBRANCH   5   8
TORSDOF 1
ENDMDL
MODEL 7
REMARK VINA RESULT:    -4.638      6.172      7.616
REMARK INTER + INTRA:          -5.040
REMARK INTER:                  -4.912
REMARK INTRA:                  -0.128
REMARK UNBOUND:                -0.131
REMARK SMILES C=C(C)[C@H]1CC=C(C)CC1
REMARK SMILES IDX 8 1 7 2 6 3 5 4 4 5 10 6 9 7 2 8 1 9 3 10
REMARK H PARENT
REMARK Flexibility Score: inf
ROOT
ATOM      1  C   UNL     1     147.190 142.388 158.752  1.00  0.00     0.039 C 
ATOM      2  C   UNL     1     147.934 142.792 159.996  1.00  0.00    -0.077 C 
ATOM      3  C   UNL     1     147.302 142.729 161.187  1.00  0.00    -0.027 C 
ATOM      4  C   UNL     1     147.943 143.162 162.482  1.00  0.00     0.035 C 
ATOM      5  C   UNL     1     149.479 143.143 162.405  1.00  0.00     0.018 C 
ATOM      6  C   UNL     1     149.948 143.857 161.128  1.00  0.00     0.013 C 
ATOM      7  C   UNL     1     149.409 143.130 159.889  1.00  0.00     0.031 C 
ENDROOT
BRANCH   5   8
ATOM      8  C   UNL     1     150.105 143.756 163.650  1.00  0.00    -0.077 C 
ATOM      9  C   UNL     1     150.563 145.018 163.622  1.00  0.00     0.008 C 
ATOM     10  C   UNL     1     150.238 142.971 164.932  1.00  0.00     0.039 C 
ENDBRANCH   5   8
TORSDOF 1
ENDMDL
MODEL 8
REMARK VINA RESULT:    -4.635      1.057      4.526
REMARK INTER + INTRA:          -5.036
REMARK INTER:                  -4.907
REMARK INTRA:                  -0.129
REMARK UNBOUND:                -0.131
REMARK SMILES C=C(C)[C@H]1CC=C(C)CC1
REMARK SMILES IDX 8 1 7 2 6 3 5 4 4 5 10 6 9 7 2 8 1 9 3 10
REMARK H PARENT
REMARK Flexibility Score: inf
ROOT
ATOM      1  C   UNL     1     148.383 147.198 158.830  1.00  0.00     0.039 C 
ATOM      2  C   UNL     1     147.979 147.951 160.068  1.00  0.00    -0.077 C 
ATOM      3  C   UNL     1     148.073 147.338 161.267  1.00  0.00    -0.027 C 
ATOM      4  C   UNL     1     147.642 147.988 162.558  1.00  0.00     0.035 C 
ATOM      5  C   UNL     1     147.625 149.523 162.458  1.00  0.00     0.018 C 
ATOM      6  C   UNL     1     146.883 149.956 161.185  1.00  0.00     0.013 C 
ATOM      7  C   UNL     1     147.605 149.416 159.944  1.00  0.00     0.031 C 
ENDROOT
BRANCH   5   8
ATOM      8  C   UNL     1     147.014 150.154 163.703  1.00  0.00    -0.077 C 
ATOM      9  C   UNL     1     145.818 150.759 163.633  1.00  0.00     0.008 C 
ATOM     10  C   UNL     1     147.730 150.126 165.030  1.00  0.00     0.039 C 
ENDBRANCH   5   8
TORSDOF 1
ENDMDL
MODEL 9
REMARK VINA RESULT:    -4.598      1.913      4.457
REMARK INTER + INTRA:          -4.997
REMARK INTER:                  -4.869
REMARK INTRA:                  -0.128
REMARK UNBOUND:                -0.131
REMARK SMILES C=C(C)[C@H]1CC=C(C)CC1
REMARK SMILES IDX 8 1 7 2 6 3 5 4 4 5 10 6 9 7 2 8 1 9 3 10
REMARK H PARENT
REMARK Flexibility Score: inf
ROOT
ATOM      1  C   UNL     1     148.993 144.988 163.991  1.00  0.00     0.039 C 
ATOM      2  C   UNL     1     148.274 146.304 163.871  1.00  0.00    -0.077 C 
ATOM      3  C   UNL     1     147.703 146.841 164.970  1.00  0.00    -0.027 C 
ATOM      4  C   UNL     1     146.915 148.127 164.942  1.00  0.00     0.035 C 
ATOM      5  C   UNL     1     147.283 149.008 163.736  1.00  0.00     0.018 C 
ATOM      6  C   UNL     1     147.278 148.165 162.452  1.00  0.00     0.013 C 
ATOM      7  C   UNL     1     148.324 147.048 162.550  1.00  0.00     0.031 C 
ENDROOT
BRANCH   5   8
ATOM      8  C   UNL     1     146.352 150.208 163.620  1.00  0.00    -0.077 C 
ATOM      9  C   UNL     1     145.999 150.895 164.718  1.00  0.00     0.008 C 
ATOM     10  C   UNL     1     145.798 150.647 162.287  1.00  0.00     0.039 C 
ENDBRANCH   5   8
TORSDOF 1
ENDMDL
