MODEL 1
REMARK VINA RESULT:    -4.679      0.000      0.000
REMARK INTER + INTRA:         -12.759
REMARK INTER:                 -10.149
REMARK INTRA:                  -2.610
REMARK UNBOUND:                -2.610
REMARK SMILES CCCCCCCCCCCCCCCCCCCCCC(=O)[O-]
REMARK SMILES IDX 12 1 11 2 10 3 9 4 8 5 7 6 6 7 5 8 4 9 3 10 2 11 1 12 13 13
REMARK SMILES IDX 14 14 15 15 16 16 17 17 18 18 19 19 20 20 21 21 22 22 23 23
REMARK SMILES IDX 24 24
REMARK H PARENT
REMARK Flexibility Score: inf
ROOT
ATOM      1  C   UNL     1      12.441  14.229  22.544  1.00  0.00     0.000 C 
ENDROOT
BRANCH   1   2
ATOM      2  C   UNL     1      11.509  13.168  21.928  1.00  0.00     0.000 C 
BRANCH   2   3
ATOM      3  C   UNL     1      10.180  13.022  22.684  1.00  0.00     0.000 C 
BRANCH   3   4
ATOM      4  C   UNL     1       9.285  14.254  22.473  1.00  0.00    -0.000 C 
BRANCH   4   5
ATOM      5  C   UNL     1       7.868  13.886  22.006  1.00  0.00    -0.000 C 
BRANCH   5   6
ATOM      6  C   UNL     1       6.940  13.501  23.168  1.00  0.00    -0.000 C 
BRANCH   6   7
ATOM      7  C   UNL     1       6.468  12.038  23.097  1.00  0.00    -0.000 C 
BRANCH   7   8
ATOM      8  C   UNL     1       6.683  11.378  21.718  1.00  0.00    -0.000 C 
BRANCH   8   9
ATOM      9  C   UNL     1       7.447  10.046  21.818  1.00  0.00    -0.000 C 
BRANCH   9  10
ATOM     10  C   UNL     1       8.793  10.083  21.063  1.00  0.00    -0.000 C 
BRANCH  10  11
ATOM     11  C   UNL     1       8.665  10.491  19.586  1.00  0.00    -0.003 C 
ATOM     12  C   UNL     1       9.454  11.751  19.240  1.00  0.00     0.004 C 
ENDBRANCH  10  11
ENDBRANCH   9  10
ENDBRANCH   8   9
ENDBRANCH   7   8
ENDBRANCH   6   7
ENDBRANCH   5   6
ENDBRANCH   4   5
ENDBRANCH   3   4
ENDBRANCH   2   3
ENDBRANCH   1   2
BRANCH   1  13
ATOM     13  C   UNL     1      12.767  14.027  24.035  1.00  0.00     0.000 C 
BRANCH  13  14
ATOM     14  C   UNL     1      13.290  15.306  24.711  1.00  0.00     0.000 C 
BRANCH  14  15
ATOM     15  C   UNL     1      12.201  16.384  24.868  1.00  0.00     0.000 C 
BRANCH  15  16
ATOM     16  C   UNL     1      12.588  17.583  25.757  1.00  0.00     0.000 C 
BRANCH  16  17
ATOM     17  C   UNL     1      13.067  18.835  24.997  1.00  0.00     0.000 C 
BRANCH  17  18
ATOM     18  C   UNL     1      14.320  18.626  24.127  1.00  0.00     0.000 C 
BRANCH  18  19
ATOM     19  C   UNL     1      14.063  18.895  22.637  1.00  0.00     0.000 C 
BRANCH  19  20
ATOM     20  C   UNL     1      13.887  17.579  21.865  1.00  0.00     0.006 C 
BRANCH  20  21
ATOM     21  C   UNL     1      12.918  17.724  20.684  1.00  0.00     0.053 C 
BRANCH  21  22
ATOM     22  C   UNL     1      13.623  18.163  19.438  1.00  0.00     0.041 C 
ATOM     23  O   UNL     1      13.945  17.318  18.562  1.00  0.00    -0.550 OA
ATOM     24  O   UNL     1      13.888  19.510  19.225  1.00  0.00    -0.550 OA
ENDBRANCH  21  22
ENDBRANCH  20  21
ENDBRANCH  19  20
ENDBRANCH  18  19
ENDBRANCH  17  18
ENDBRANCH  16  17
ENDBRANCH  15  16
ENDBRANCH  14  15
ENDBRANCH  13  14
ENDBRANCH   1  13
TORSDOF 20
ENDMDL
MODEL 2
REMARK VINA RESULT:    -4.632      2.309      7.882
REMARK INTER + INTRA:         -12.659
REMARK INTER:                  -9.607
REMARK INTRA:                  -3.052
REMARK UNBOUND:                -2.610
REMARK SMILES CCCCCCCCCCCCCCCCCCCCCC(=O)[O-]
REMARK SMILES IDX 12 1 11 2 10 3 9 4 8 5 7 6 6 7 5 8 4 9 3 10 2 11 1 12 13 13
REMARK SMILES IDX 14 14 15 15 16 16 17 17 18 18 19 19 20 20 21 21 22 22 23 23
REMARK SMILES IDX 24 24
REMARK H PARENT
REMARK Flexibility Score: inf
ROOT
ATOM      1  C   UNL     1       9.536  13.687  22.814  1.00  0.00     0.000 C 
ENDROOT
BRANCH   1   2
ATOM      2  C   UNL     1      10.651  14.581  22.237  1.00  0.00     0.000 C 
BRANCH   2   3
ATOM      3  C   UNL     1      11.869  14.697  23.166  1.00  0.00     0.000 C 
BRANCH   3   4
ATOM      4  C   UNL     1      11.448  15.130  24.579  1.00  0.00    -0.000 C 
BRANCH   4   5
ATOM      5  C   UNL     1      11.580  16.646  24.800  1.00  0.00    -0.000 C 
BRANCH   5   6
ATOM      6  C   UNL     1      12.991  17.062  25.241  1.00  0.00    -0.000 C 
BRANCH   6   7
ATOM      7  C   UNL     1      13.307  18.534  24.921  1.00  0.00    -0.000 C 
BRANCH   7   8
ATOM      8  C   UNL     1      14.522  18.724  23.989  1.00  0.00    -0.000 C 
BRANCH   8   9
ATOM      9  C   UNL     1      14.117  19.205  22.585  1.00  0.00    -0.000 C 
BRANCH   9  10
ATOM     10  C   UNL     1      14.288  18.106  21.515  1.00  0.00    -0.000 C 
BRANCH  10  11
ATOM     11  C   UNL     1      12.966  17.442  21.091  1.00  0.00    -0.003 C 
ATOM     12  C   UNL     1      11.736  18.277  21.440  1.00  0.00     0.004 C 
ENDBRANCH  10  11
ENDBRANCH   9  10
ENDBRANCH   8   9
ENDBRANCH   7   8
ENDBRANCH   6   7
ENDBRANCH   5   6
ENDBRANCH   4   5
ENDBRANCH   3   4
ENDBRANCH   2   3
ENDBRANCH   1   2
BRANCH   1  13
ATOM     13  C   UNL     1       8.166  13.820  22.124  1.00  0.00     0.000 C 
BRANCH  13  14
ATOM     14  C   UNL     1       6.987  13.615  23.090  1.00  0.00     0.000 C 
BRANCH  14  15
ATOM     15  C   UNL     1       6.410  12.188  23.030  1.00  0.00     0.000 C 
BRANCH  15  16
ATOM     16  C   UNL     1       6.721  11.408  21.737  1.00  0.00     0.000 C 
BRANCH  16  17
ATOM     17  C   UNL     1       7.519  10.104  21.933  1.00  0.00     0.000 C 
BRANCH  17  18
ATOM     18  C   UNL     1       8.372  10.052  23.214  1.00  0.00     0.000 C 
BRANCH  18  19
ATOM     19  C   UNL     1       9.880  10.068  22.926  1.00  0.00     0.000 C 
BRANCH  19  20
ATOM     20  C   UNL     1      10.152   9.946  21.419  1.00  0.00     0.006 C 
BRANCH  20  21
ATOM     21  C   UNL     1      11.139  11.011  20.920  1.00  0.00     0.053 C 
BRANCH  21  22
ATOM     22  C   UNL     1      10.717  11.584  19.601  1.00  0.00     0.041 C 
ATOM     23  O   UNL     1      11.567  11.770  18.692  1.00  0.00    -0.550 OA
ATOM     24  O   UNL     1       9.379  11.871  19.362  1.00  0.00    -0.550 OA
ENDBRANCH  21  22
ENDBRANCH  20  21
ENDBRANCH  19  20
ENDBRANCH  18  19
ENDBRANCH  17  18
ENDBRANCH  16  17
ENDBRANCH  15  16
ENDBRANCH  14  15
ENDBRANCH  13  14
ENDBRANCH   1  13
TORSDOF 20
ENDMDL
MODEL 3
REMARK VINA RESULT:    -4.595      1.496      1.991
REMARK INTER + INTRA:         -12.578
REMARK INTER:                  -9.314
REMARK INTRA:                  -3.265
REMARK UNBOUND:                -2.610
REMARK SMILES CCCCCCCCCCCCCCCCCCCCCC(=O)[O-]
REMARK SMILES IDX 12 1 11 2 10 3 9 4 8 5 7 6 6 7 5 8 4 9 3 10 2 11 1 12 13 13
REMARK SMILES IDX 14 14 15 15 16 16 17 17 18 18 19 19 20 20 21 21 22 22 23 23
REMARK SMILES IDX 24 24
REMARK H PARENT
REMARK Flexibility Score: inf
ROOT
ATOM      1  C   UNL     1      12.296  14.421  22.938  1.00  0.00     0.000 C 
ENDROOT
BRANCH   1   2
ATOM      2  C   UNL     1      10.793  14.310  23.262  1.00  0.00     0.000 C 
BRANCH   2   3
ATOM      3  C   UNL     1       9.903  14.359  22.011  1.00  0.00     0.000 C 
BRANCH   3   4
ATOM      4  C   UNL     1       8.426  14.547  22.390  1.00  0.00    -0.000 C 
BRANCH   4   5
ATOM      5  C   UNL     1       7.526  13.424  21.850  1.00  0.00    -0.000 C 
BRANCH   5   6
ATOM      6  C   UNL     1       6.964  12.526  22.961  1.00  0.00    -0.000 C 
BRANCH   6   7
ATOM      7  C   UNL     1       6.388  11.202  22.427  1.00  0.00    -0.000 C 
BRANCH   7   8
ATOM      8  C   UNL     1       7.319   9.988  22.631  1.00  0.00    -0.000 C 
BRANCH   8   9
ATOM      9  C   UNL     1       8.622  10.363  23.358  1.00  0.00    -0.000 C 
BRANCH   9  10
ATOM     10  C   UNL     1       9.878   9.967  22.554  1.00  0.00    -0.000 C 
BRANCH  10  11
ATOM     11  C   UNL     1      10.085  10.801  21.277  1.00  0.00    -0.003 C 
ATOM     12  C   UNL     1      11.550  11.136  21.010  1.00  0.00     0.004 C 
ENDBRANCH  10  11
ENDBRANCH   9  10
ENDBRANCH   8   9
ENDBRANCH   7   8
ENDBRANCH   6   7
ENDBRANCH   5   6
ENDBRANCH   4   5
ENDBRANCH   3   4
ENDBRANCH   2   3
ENDBRANCH   1   2
BRANCH   1  13
ATOM     13  C   UNL     1      13.196  14.805  24.126  1.00  0.00     0.000 C 
BRANCH  13  14
ATOM     14  C   UNL     1      12.452  15.613  25.203  1.00  0.00     0.000 C 
BRANCH  14  15
ATOM     15  C   UNL     1      13.012  17.038  25.370  1.00  0.00     0.000 C 
BRANCH  15  16
ATOM     16  C   UNL     1      11.964  18.167  25.314  1.00  0.00     0.000 C 
BRANCH  16  17
ATOM     17  C   UNL     1      11.005  18.113  24.109  1.00  0.00     0.000 C 
BRANCH  17  18
ATOM     18  C   UNL     1      11.568  18.710  22.806  1.00  0.00     0.000 C 
BRANCH  18  19
ATOM     19  C   UNL     1      11.566  17.707  21.643  1.00  0.00     0.000 C 
BRANCH  19  20
ATOM     20  C   UNL     1      12.956  17.619  20.992  1.00  0.00     0.006 C 
BRANCH  20  21
ATOM     21  C   UNL     1      14.055  18.201  21.892  1.00  0.00     0.053 C 
BRANCH  21  22
ATOM     22  C   UNL     1      14.754  19.354  21.239  1.00  0.00     0.041 C 
ATOM     23  O   UNL     1      14.268  20.513  21.315  1.00  0.00    -0.550 OA
ATOM     24  O   UNL     1      15.962  19.155  20.582  1.00  0.00    -0.550 OA
ENDBRANCH  21  22
ENDBRANCH  20  21
ENDBRANCH  19  20
ENDBRANCH  18  19
ENDBRANCH  17  18
ENDBRANCH  16  17
ENDBRANCH  15  16
ENDBRANCH  14  15
ENDBRANCH  13  14
ENDBRANCH   1  13
TORSDOF 20
ENDMDL
MODEL 4
REMARK VINA RESULT:    -4.562      1.727      2.815
REMARK INTER + INTRA:         -12.506
REMARK INTER:                  -9.653
REMARK INTRA:                  -2.853
REMARK UNBOUND:                -2.610
REMARK SMILES CCCCCCCCCCCCCCCCCCCCCC(=O)[O-]
REMARK SMILES IDX 12 1 11 2 10 3 9 4 8 5 7 6 6 7 5 8 4 9 3 10 2 11 1 12 13 13
REMARK SMILES IDX 14 14 15 15 16 16 17 17 18 18 19 19 20 20 21 21 22 22 23 23
REMARK SMILES IDX 24 24
REMARK H PARENT
REMARK Flexibility Score: inf
ROOT
ATOM      1  C   UNL     1      10.457  15.416  22.594  1.00  0.00     0.000 C 
ENDROOT
BRANCH   1   2
ATOM      2  C   UNL     1       9.540  14.218  22.908  1.00  0.00     0.000 C 
BRANCH   2   3
ATOM      3  C   UNL     1       8.186  14.292  22.187  1.00  0.00     0.000 C 
BRANCH   3   4
ATOM      4  C   UNL     1       7.070  13.667  23.040  1.00  0.00    -0.000 C 
BRANCH   4   5
ATOM      5  C   UNL     1       6.967  12.144  22.859  1.00  0.00    -0.000 C 
BRANCH   5   6
ATOM      6  C   UNL     1       6.831  11.727  21.387  1.00  0.00    -0.000 C 
BRANCH   6   7
ATOM      7  C   UNL     1       7.976  10.812  20.918  1.00  0.00    -0.000 C 
BRANCH   7   8
ATOM      8  C   UNL     1       8.775  11.374  19.723  1.00  0.00    -0.000 C 
BRANCH   8   9
ATOM      9  C   UNL     1      10.144  11.934  20.143  1.00  0.00    -0.000 C 
BRANCH   9  10
ATOM     10  C   UNL     1      10.762  11.153  21.323  1.00  0.00    -0.000 C 
BRANCH  10  11
ATOM     11  C   UNL     1      12.243  11.481  21.576  1.00  0.00    -0.003 C 
ATOM     12  C   UNL     1      12.942  12.080  20.358  1.00  0.00     0.004 C 
ENDBRANCH  10  11
ENDBRANCH   9  10
ENDBRANCH   8   9
ENDBRANCH   7   8
ENDBRANCH   6   7
ENDBRANCH   5   6
ENDBRANCH   4   5
ENDBRANCH   3   4
ENDBRANCH   2   3
ENDBRANCH   1   2
BRANCH   1  13
ATOM     13  C   UNL     1      11.950  15.075  22.436  1.00  0.00     0.000 C 
BRANCH  13  14
ATOM     14  C   UNL     1      12.843  15.821  23.442  1.00  0.00     0.000 C 
BRANCH  14  15
ATOM     15  C   UNL     1      12.101  16.184  24.742  1.00  0.00     0.000 C 
BRANCH  15  16
ATOM     16  C   UNL     1      12.825  17.198  25.649  1.00  0.00     0.000 C 
BRANCH  16  17
ATOM     17  C   UNL     1      12.014  18.461  26.000  1.00  0.00     0.000 C 
BRANCH  17  18
ATOM     18  C   UNL     1      11.077  18.960  24.886  1.00  0.00     0.000 C 
BRANCH  18  19
ATOM     19  C   UNL     1      11.683  20.112  24.070  1.00  0.00     0.000 C 
BRANCH  19  20
ATOM     20  C   UNL     1      12.022  19.654  22.643  1.00  0.00     0.006 C 
BRANCH  20  21
ATOM     21  C   UNL     1      13.424  20.103  22.208  1.00  0.00     0.053 C 
BRANCH  21  22
ATOM     22  C   UNL     1      14.457  19.059  22.502  1.00  0.00     0.041 C 
ATOM     23  O   UNL     1      14.775  18.218  21.621  1.00  0.00    -0.550 OA
ATOM     24  O   UNL     1      15.098  19.041  23.734  1.00  0.00    -0.550 OA
ENDBRANCH  21  22
ENDBRANCH  20  21
ENDBRANCH  19  20
ENDBRANCH  18  19
ENDBRANCH  17  18
ENDBRANCH  16  17
ENDBRANCH  15  16
ENDBRANCH  14  15
ENDBRANCH  13  14
ENDBRANCH   1  13
TORSDOF 20
ENDMDL
MODEL 5
REMARK VINA RESULT:    -4.561      1.535      3.737
REMARK INTER + INTRA:         -12.503
REMARK INTER:                  -9.788
REMARK INTRA:                  -2.715
REMARK UNBOUND:                -2.610
REMARK SMILES CCCCCCCCCCCCCCCCCCCCCC(=O)[O-]
REMARK SMILES IDX 12 1 11 2 10 3 9 4 8 5 7 6 6 7 5 8 4 9 3 10 2 11 1 12 13 13
REMARK SMILES IDX 14 14 15 15 16 16 17 17 18 18 19 19 20 20 21 21 22 22 23 23
REMARK SMILES IDX 24 24
REMARK H PARENT
REMARK Flexibility Score: inf
ROOT
ATOM      1  C   UNL     1       7.806  13.912  22.237  1.00  0.00     0.000 C 
ENDROOT
BRANCH   1   2
ATOM      2  C   UNL     1       6.852  13.420  23.342  1.00  0.00     0.000 C 
BRANCH   2   3
ATOM      3  C   UNL     1       6.099  12.137  22.959  1.00  0.00     0.000 C 
BRANCH   3   4
ATOM      4  C   UNL     1       6.752  11.454  21.748  1.00  0.00    -0.000 C 
BRANCH   4   5
ATOM      5  C   UNL     1       7.771  10.375  22.151  1.00  0.00    -0.000 C 
BRANCH   5   6
ATOM      6  C   UNL     1       8.847  10.143  21.080  1.00  0.00    -0.000 C 
BRANCH   6   7
ATOM      7  C   UNL     1       8.583  10.935  19.787  1.00  0.00    -0.000 C 
BRANCH   7   8
ATOM      8  C   UNL     1       9.578  12.091  19.548  1.00  0.00    -0.000 C 
BRANCH   8   9
ATOM      9  C   UNL     1      10.808  11.649  18.737  1.00  0.00    -0.000 C 
BRANCH   9  10
ATOM     10  C   UNL     1      12.022  11.330  19.636  1.00  0.00    -0.000 C 
BRANCH  10  11
ATOM     11  C   UNL     1      12.216  12.326  20.792  1.00  0.00    -0.003 C 
ATOM     12  C   UNL     1      12.085  11.681  22.169  1.00  0.00     0.004 C 
ENDBRANCH  10  11
ENDBRANCH   9  10
ENDBRANCH   8   9
ENDBRANCH   7   8
ENDBRANCH   6   7
ENDBRANCH   5   6
ENDBRANCH   4   5
ENDBRANCH   3   4
ENDBRANCH   2   3
ENDBRANCH   1   2
BRANCH   1  13
ATOM     13  C   UNL     1       9.289  13.997  22.642  1.00  0.00     0.000 C 
BRANCH  13  14
ATOM     14  C   UNL     1       9.935  15.342  22.271  1.00  0.00     0.000 C 
BRANCH  14  15
ATOM     15  C   UNL     1      11.396  15.452  22.744  1.00  0.00     0.000 C 
BRANCH  15  16
ATOM     16  C   UNL     1      11.659  14.967  24.183  1.00  0.00     0.000 C 
BRANCH  16  17
ATOM     17  C   UNL     1      12.422  15.960  25.082  1.00  0.00     0.000 C 
BRANCH  17  18
ATOM     18  C   UNL     1      11.986  17.429  24.938  1.00  0.00     0.000 C 
BRANCH  18  19
ATOM     19  C   UNL     1      13.162  18.412  25.043  1.00  0.00     0.000 C 
BRANCH  19  20
ATOM     20  C   UNL     1      14.310  17.994  24.110  1.00  0.00     0.006 C 
BRANCH  20  21
ATOM     21  C   UNL     1      14.782  19.151  23.219  1.00  0.00     0.053 C 
BRANCH  21  22
ATOM     22  C   UNL     1      13.664  19.704  22.390  1.00  0.00     0.041 C 
ATOM     23  O   UNL     1      13.064  18.968  21.564  1.00  0.00    -0.550 OA
ATOM     24  O   UNL     1      13.256  21.021  22.561  1.00  0.00    -0.550 OA
ENDBRANCH  21  22
ENDBRANCH  20  21
ENDBRANCH  19  20
ENDBRANCH  18  19
ENDBRANCH  17  18
ENDBRANCH  16  17
ENDBRANCH  15  16
ENDBRANCH  14  15
ENDBRANCH  13  14
ENDBRANCH   1  13
TORSDOF 20
ENDMDL
MODEL 6
REMARK VINA RESULT:    -4.546      2.154      4.604
REMARK INTER + INTRA:         -12.471
REMARK INTER:                  -9.263
REMARK INTRA:                  -3.208
REMARK UNBOUND:                -2.610
REMARK SMILES CCCCCCCCCCCCCCCCCCCCCC(=O)[O-]
REMARK SMILES IDX 12 1 11 2 10 3 9 4 8 5 7 6 6 7 5 8 4 9 3 10 2 11 1 12 13 13
REMARK SMILES IDX 14 14 15 15 16 16 17 17 18 18 19 19 20 20 21 21 22 22 23 23
REMARK SMILES IDX 24 24
REMARK H PARENT
REMARK Flexibility Score: inf
ROOT
ATOM      1  C   UNL     1      10.983  18.283  24.290  1.00  0.00     0.000 C 
ENDROOT
BRANCH   1   2
ATOM      2  C   UNL     1      11.883  18.540  25.514  1.00  0.00     0.000 C 
BRANCH   2   3
ATOM      3  C   UNL     1      12.884  17.404  25.773  1.00  0.00     0.000 C 
BRANCH   3   4
ATOM      4  C   UNL     1      12.358  16.068  25.228  1.00  0.00    -0.000 C 
BRANCH   4   5
ATOM      5  C   UNL     1      13.427  15.280  24.451  1.00  0.00    -0.000 C 
BRANCH   5   6
ATOM      6  C   UNL     1      12.825  14.191  23.551  1.00  0.00    -0.000 C 
BRANCH   6   7
ATOM      7  C   UNL     1      11.295  14.083  23.683  1.00  0.00    -0.000 C 
BRANCH   7   8
ATOM      8  C   UNL     1      10.570  13.818  22.347  1.00  0.00    -0.000 C 
BRANCH   8   9
ATOM      9  C   UNL     1       9.321  14.699  22.172  1.00  0.00    -0.000 C 
BRANCH   9  10
ATOM     10  C   UNL     1       8.020  13.953  22.538  1.00  0.00    -0.000 C 
BRANCH  10  11
ATOM     11  C   UNL     1       8.055  12.450  22.214  1.00  0.00    -0.003 C 
ATOM     12  C   UNL     1       7.482  12.118  20.838  1.00  0.00     0.004 C 
ENDBRANCH  10  11
ENDBRANCH   9  10
ENDBRANCH   8   9
ENDBRANCH   7   8
ENDBRANCH   6   7
ENDBRANCH   5   6
ENDBRANCH   4   5
ENDBRANCH   3   4
ENDBRANCH   2   3
ENDBRANCH   1   2
BRANCH   1  13
ATOM     13  C   UNL     1      11.549  18.775  22.946  1.00  0.00     0.000 C 
BRANCH  13  14
ATOM     14  C   UNL     1      11.521  17.694  21.853  1.00  0.00     0.000 C 
BRANCH  14  15
ATOM     15  C   UNL     1      12.927  17.324  21.345  1.00  0.00     0.000 C 
BRANCH  15  16
ATOM     16  C   UNL     1      14.094  18.008  22.084  1.00  0.00     0.000 C 
BRANCH  16  17
ATOM     17  C   UNL     1      14.907  19.010  21.241  1.00  0.00     0.000 C 
BRANCH  17  18
ATOM     18  C   UNL     1      14.322  20.433  21.183  1.00  0.00     0.000 C 
BRANCH  18  19
ATOM     19  C   UNL     1      14.239  20.984  19.752  1.00  0.00     0.000 C 
BRANCH  19  20
ATOM     20  C   UNL     1      12.915  21.732  19.528  1.00  0.00     0.006 C 
BRANCH  20  21
ATOM     21  C   UNL     1      11.707  20.940  20.047  1.00  0.00     0.053 C 
BRANCH  21  22
ATOM     22  C   UNL     1      10.765  20.577  18.940  1.00  0.00     0.041 C 
ATOM     23  O   UNL     1      10.996  20.960  17.763  1.00  0.00    -0.550 OA
ATOM     24  O   UNL     1       9.656  19.783  19.201  1.00  0.00    -0.550 OA
ENDBRANCH  21  22
ENDBRANCH  20  21
ENDBRANCH  19  20
ENDBRANCH  18  19
ENDBRANCH  17  18
ENDBRANCH  16  17
ENDBRANCH  15  16
ENDBRANCH  14  15
ENDBRANCH  13  14
ENDBRANCH   1  13
TORSDOF 20
ENDMDL
MODEL 7
REMARK VINA RESULT:    -4.543      1.474      3.040
REMARK INTER + INTRA:         -12.465
REMARK INTER:                  -9.690
REMARK INTRA:                  -2.775
REMARK UNBOUND:                -2.610
REMARK SMILES CCCCCCCCCCCCCCCCCCCCCC(=O)[O-]
REMARK SMILES IDX 12 1 11 2 10 3 9 4 8 5 7 6 6 7 5 8 4 9 3 10 2 11 1 12 13 13
REMARK SMILES IDX 14 14 15 15 16 16 17 17 18 18 19 19 20 20 21 21 22 22 23 23
REMARK SMILES IDX 24 24
REMARK H PARENT
REMARK Flexibility Score: inf
ROOT
ATOM      1  C   UNL     1       8.820  14.421  22.261  1.00  0.00     0.000 C 
ENDROOT
BRANCH   1   2
ATOM      2  C   UNL     1       7.522  13.652  21.947  1.00  0.00     0.000 C 
BRANCH   2   3
ATOM      3  C   UNL     1       7.019  12.813  23.131  1.00  0.00     0.000 C 
BRANCH   3   4
ATOM      4  C   UNL     1       6.121  11.662  22.651  1.00  0.00    -0.000 C 
BRANCH   4   5
ATOM      5  C   UNL     1       6.833  10.300  22.680  1.00  0.00    -0.000 C 
BRANCH   5   6
ATOM      6  C   UNL     1       8.309  10.409  23.091  1.00  0.00    -0.000 C 
BRANCH   6   7
ATOM      7  C   UNL     1       9.276  10.097  21.935  1.00  0.00    -0.000 C 
BRANCH   7   8
ATOM      8  C   UNL     1       8.577   9.883  20.576  1.00  0.00    -0.000 C 
BRANCH   8   9
ATOM      9  C   UNL     1       8.696  11.109  19.655  1.00  0.00    -0.000 C 
BRANCH   9  10
ATOM     10  C   UNL     1       9.632  10.852  18.454  1.00  0.00    -0.000 C 
BRANCH  10  11
ATOM     11  C   UNL     1      10.871  11.764  18.427  1.00  0.00    -0.003 C 
ATOM     12  C   UNL     1      11.880  11.439  19.525  1.00  0.00     0.004 C 
ENDBRANCH  10  11
ENDBRANCH   9  10
ENDBRANCH   8   9
ENDBRANCH   7   8
ENDBRANCH   6   7
ENDBRANCH   5   6
ENDBRANCH   4   5
ENDBRANCH   3   4
ENDBRANCH   2   3
ENDBRANCH   1   2
BRANCH   1  13
ATOM     13  C   UNL     1      10.121  13.708  21.848  1.00  0.00     0.000 C 
BRANCH  13  14
ATOM     14  C   UNL     1      10.975  13.278  23.052  1.00  0.00     0.000 C 
BRANCH  14  15
ATOM     15  C   UNL     1      11.982  14.359  23.484  1.00  0.00     0.000 C 
BRANCH  15  16
ATOM     16  C   UNL     1      11.479  15.328  24.572  1.00  0.00     0.000 C 
BRANCH  16  17
ATOM     17  C   UNL     1      12.559  16.235  25.193  1.00  0.00     0.000 C 
BRANCH  17  18
ATOM     18  C   UNL     1      13.655  16.701  24.217  1.00  0.00     0.000 C 
BRANCH  18  19
ATOM     19  C   UNL     1      13.983  18.194  24.359  1.00  0.00     0.000 C 
BRANCH  19  20
ATOM     20  C   UNL     1      13.187  19.030  23.343  1.00  0.00     0.006 C 
BRANCH  20  21
ATOM     21  C   UNL     1      13.360  18.517  21.907  1.00  0.00     0.053 C 
BRANCH  21  22
ATOM     22  C   UNL     1      12.041  18.248  21.251  1.00  0.00     0.041 C 
ATOM     23  O   UNL     1      11.123  17.669  21.889  1.00  0.00    -0.550 OA
ATOM     24  O   UNL     1      11.811  18.674  19.949  1.00  0.00    -0.550 OA
ENDBRANCH  21  22
ENDBRANCH  20  21
ENDBRANCH  19  20
ENDBRANCH  18  19
ENDBRANCH  17  18
ENDBRANCH  16  17
ENDBRANCH  15  16
ENDBRANCH  14  15
ENDBRANCH  13  14
ENDBRANCH   1  13
TORSDOF 20
ENDMDL
MODEL 8
REMARK VINA RESULT:    -4.509      1.809      3.003
REMARK INTER + INTRA:         -12.392
REMARK INTER:                 -10.083
REMARK INTRA:                  -2.309
REMARK UNBOUND:                -2.610
REMARK SMILES CCCCCCCCCCCCCCCCCCCCCC(=O)[O-]
REMARK SMILES IDX 12 1 11 2 10 3 9 4 8 5 7 6 6 7 5 8 4 9 3 10 2 11 1 12 13 13
REMARK SMILES IDX 14 14 15 15 16 16 17 17 18 18 19 19 20 20 21 21 22 22 23 23
REMARK SMILES IDX 24 24
REMARK H PARENT
REMARK Flexibility Score: inf
ROOT
ATOM      1  C   UNL     1      13.562  16.553  23.958  1.00  0.00     0.000 C 
ENDROOT
BRANCH   1   2
ATOM      2  C   UNL     1      12.729  15.738  24.966  1.00  0.00     0.000 C 
BRANCH   2   3
ATOM      3  C   UNL     1      11.398  15.240  24.384  1.00  0.00     0.000 C 
BRANCH   3   4
ATOM      4  C   UNL     1      11.013  16.035  23.126  1.00  0.00    -0.000 C 
BRANCH   4   5
ATOM      5  C   UNL     1      10.083  15.249  22.187  1.00  0.00    -0.000 C 
BRANCH   5   6
ATOM      6  C   UNL     1       9.281  14.163  22.918  1.00  0.00    -0.000 C 
BRANCH   6   7
ATOM      7  C   UNL     1       7.886  13.937  22.306  1.00  0.00    -0.000 C 
BRANCH   7   8
ATOM      8  C   UNL     1       7.075  12.820  22.997  1.00  0.00    -0.000 C 
BRANCH   8   9
ATOM      9  C   UNL     1       6.577  11.756  22.004  1.00  0.00    -0.000 C 
BRANCH   9  10
ATOM     10  C   UNL     1       7.493  10.514  21.966  1.00  0.00    -0.000 C 
BRANCH  10  11
ATOM     11  C   UNL     1       8.401  10.375  23.200  1.00  0.00    -0.003 C 
ATOM     12  C   UNL     1       9.889  10.400  22.857  1.00  0.00     0.004 C 
ENDBRANCH  10  11
ENDBRANCH   9  10
ENDBRANCH   8   9
ENDBRANCH   7   8
ENDBRANCH   6   7
ENDBRANCH   5   6
ENDBRANCH   4   5
ENDBRANCH   3   4
ENDBRANCH   2   3
ENDBRANCH   1   2
BRANCH   1  13
ATOM     13  C   UNL     1      13.829  18.015  24.358  1.00  0.00     0.000 C 
BRANCH  13  14
ATOM     14  C   UNL     1      12.859  18.527  25.436  1.00  0.00     0.000 C 
BRANCH  14  15
ATOM     15  C   UNL     1      11.717  19.380  24.853  1.00  0.00     0.000 C 
BRANCH  15  16
ATOM     16  C   UNL     1      11.849  19.717  23.354  1.00  0.00     0.000 C 
BRANCH  16  17
ATOM     17  C   UNL     1      12.155  21.194  23.038  1.00  0.00     0.000 C 
BRANCH  17  18
ATOM     18  C   UNL     1      12.117  21.558  21.543  1.00  0.00     0.000 C 
BRANCH  18  19
ATOM     19  C   UNL     1      12.790  20.500  20.656  1.00  0.00     0.000 C 
BRANCH  19  20
ATOM     20  C   UNL     1      14.314  20.702  20.621  1.00  0.00     0.006 C 
BRANCH  20  21
ATOM     21  C   UNL     1      15.072  19.495  21.189  1.00  0.00     0.053 C 
BRANCH  21  22
ATOM     22  C   UNL     1      14.995  18.311  20.274  1.00  0.00     0.041 C 
ATOM     23  O   UNL     1      14.729  17.171  20.737  1.00  0.00    -0.550 OA
ATOM     24  O   UNL     1      15.175  18.474  18.907  1.00  0.00    -0.550 OA
ENDBRANCH  21  22
ENDBRANCH  20  21
ENDBRANCH  19  20
ENDBRANCH  18  19
ENDBRANCH  17  18
ENDBRANCH  16  17
ENDBRANCH  15  16
ENDBRANCH  14  15
ENDBRANCH  13  14
ENDBRANCH   1  13
TORSDOF 20
ENDMDL
MODEL 9
REMARK VINA RESULT:    -4.496      1.936      3.355
REMARK INTER + INTRA:         -12.362
REMARK INTER:                 -10.367
REMARK INTRA:                  -1.995
REMARK UNBOUND:                -2.610
REMARK SMILES CCCCCCCCCCCCCCCCCCCCCC(=O)[O-]
REMARK SMILES IDX 12 1 11 2 10 3 9 4 8 5 7 6 6 7 5 8 4 9 3 10 2 11 1 12 13 13
REMARK SMILES IDX 14 14 15 15 16 16 17 17 18 18 19 19 20 20 21 21 22 22 23 23
REMARK SMILES IDX 24 24
REMARK H PARENT
REMARK Flexibility Score: inf
ROOT
ATOM      1  C   UNL     1      10.839  15.727  22.627  1.00  0.00     0.000 C 
ENDROOT
BRANCH   1   2
ATOM      2  C   UNL     1      10.955  14.427  23.447  1.00  0.00     0.000 C 
BRANCH   2   3
ATOM      3  C   UNL     1      12.244  13.645  23.154  1.00  0.00     0.000 C 
BRANCH   3   4
ATOM      4  C   UNL     1      12.091  12.779  21.894  1.00  0.00    -0.000 C 
BRANCH   4   5
ATOM      5  C   UNL     1      11.525  11.382  22.198  1.00  0.00    -0.000 C 
BRANCH   5   6
ATOM      6  C   UNL     1      10.313  11.028  21.323  1.00  0.00    -0.000 C 
BRANCH   6   7
ATOM      7  C   UNL     1       9.594  12.270  20.768  1.00  0.00    -0.000 C 
BRANCH   7   8
ATOM      8  C   UNL     1       8.074  12.282  21.035  1.00  0.00    -0.000 C 
BRANCH   8   9
ATOM      9  C   UNL     1       7.662  13.376  22.036  1.00  0.00    -0.000 C 
BRANCH   9  10
ATOM     10  C   UNL     1       6.683  12.852  23.109  1.00  0.00    -0.000 C 
BRANCH  10  11
ATOM     11  C   UNL     1       6.454  11.332  23.050  1.00  0.00    -0.003 C 
ATOM     12  C   UNL     1       5.073  10.953  22.522  1.00  0.00     0.004 C 
ENDBRANCH  10  11
ENDBRANCH   9  10
ENDBRANCH   8   9
ENDBRANCH   7   8
ENDBRANCH   6   7
ENDBRANCH   5   6
ENDBRANCH   4   5
ENDBRANCH   3   4
ENDBRANCH   2   3
ENDBRANCH   1   2
BRANCH   1  13
ATOM     13  C   UNL     1      11.156  17.020  23.400  1.00  0.00     0.000 C 
BRANCH  13  14
ATOM     14  C   UNL     1      11.573  16.759  24.857  1.00  0.00     0.000 C 
BRANCH  14  15
ATOM     15  C   UNL     1      12.918  17.417  25.218  1.00  0.00     0.000 C 
BRANCH  15  16
ATOM     16  C   UNL     1      14.009  17.320  24.134  1.00  0.00     0.000 C 
BRANCH  16  17
ATOM     17  C   UNL     1      14.637  18.663  23.712  1.00  0.00     0.000 C 
BRANCH  17  18
ATOM     18  C   UNL     1      13.710  19.585  22.899  1.00  0.00     0.000 C 
BRANCH  18  19
ATOM     19  C   UNL     1      13.888  19.420  21.382  1.00  0.00     0.000 C 
BRANCH  19  20
ATOM     20  C   UNL     1      14.289  20.752  20.729  1.00  0.00     0.006 C 
BRANCH  20  21
ATOM     21  C   UNL     1      14.250  20.682  19.197  1.00  0.00     0.053 C 
BRANCH  21  22
ATOM     22  C   UNL     1      14.894  21.880  18.570  1.00  0.00     0.041 C 
ATOM     23  O   UNL     1      16.099  21.833  18.206  1.00  0.00    -0.550 OA
ATOM     24  O   UNL     1      14.153  23.034  18.348  1.00  0.00    -0.550 OA
ENDBRANCH  21  22
ENDBRANCH  20  21
ENDBRANCH  19  20
ENDBRANCH  18  19
ENDBRANCH  17  18
ENDBRANCH  16  17
ENDBRANCH  15  16
ENDBRANCH  14  15
ENDBRANCH  13  14
ENDBRANCH   1  13
TORSDOF 20
ENDMDL
