MODEL 1
REMARK VINA RESULT:    -4.309      0.000      0.000
REMARK INTER + INTRA:          -5.354
REMARK INTER:                  -5.191
REMARK INTRA:                  -0.163
REMARK UNBOUND:                -0.163
REMARK SMILES CC[C@@H](C)[C@@H]([NH3+])C(=O)[O-]
REMARK SMILES IDX 3 1 4 2 5 3 6 4 7 8 8 9 9 10 2 11 1 12
REMARK H PARENT 6 5 6 6 6 7
REMARK Flexibility Score: inf
ROOT
ATOM      1  C   UNL     1     128.039 103.629 128.927  1.00  0.00     0.050 C 
ATOM      2  C   UNL     1     128.479 105.091 128.723  1.00  0.00     0.014 C 
ENDROOT
BRANCH   1   3
ATOM      3  C   UNL     1     127.998 103.169 130.423  1.00  0.00     0.230 C 
BRANCH   3   4
ATOM      4  N   UNL     1     129.289 102.595 130.833  1.00  0.00    -0.350 N 
ATOM      5  H   UNL     1     130.085 103.156 130.454  1.00  0.00     0.345 HD
ATOM      6  H   UNL     1     129.353 102.578 131.878  1.00  0.00     0.345 HD
ATOM      7  H   UNL     1     129.368 101.610 130.491  1.00  0.00     0.345 HD
ENDBRANCH   3   4
BRANCH   3   8
ATOM      8  C   UNL     1     127.596 104.259 131.391  1.00  0.00     0.099 C 
ATOM      9  O   UNL     1     126.397 104.639 131.456  1.00  0.00    -0.544 OA
ATOM     10  O   UNL     1     128.531 104.811 132.260  1.00  0.00    -0.544 OA
ENDBRANCH   3   8
ENDBRANCH   1   3
BRANCH   1  11
ATOM     11  C   UNL     1     126.747 103.297 128.138  1.00  0.00     0.006 C 
ATOM     12  C   UNL     1     125.854 104.495 127.812  1.00  0.00     0.004 C 
ENDBRANCH   1  11
TORSDOF 4
ENDMDL
MODEL 2
REMARK VINA RESULT:    -4.215      1.178      2.055
REMARK INTER + INTRA:          -5.240
REMARK INTER:                  -5.087
REMARK INTRA:                  -0.153
REMARK UNBOUND:                -0.163
REMARK SMILES CC[C@@H](C)[C@@H]([NH3+])C(=O)[O-]
REMARK SMILES IDX 3 1 4 2 5 3 6 4 7 8 8 9 9 10 2 11 1 12
REMARK H PARENT 6 5 6 6 6 7
REMARK Flexibility Score: inf
ROOT
ATOM      1  C   UNL     1     127.037 103.426 129.479  1.00  0.00     0.050 C 
ATOM      2  C   UNL     1     126.168 102.494 128.614  1.00  0.00     0.014 C 
ENDROOT
BRANCH   1   3
ATOM      3  C   UNL     1     127.446 102.827 130.867  1.00  0.00     0.230 C 
BRANCH   3   4
ATOM      4  N   UNL     1     128.893 102.575 130.925  1.00  0.00    -0.350 N 
ATOM      5  H   UNL     1     129.363 102.882 130.043  1.00  0.00     0.345 HD
ATOM      6  H   UNL     1     129.311 103.094 131.731  1.00  0.00     0.345 HD
ATOM      7  H   UNL     1     129.073 101.555 131.074  1.00  0.00     0.345 HD
ENDBRANCH   3   4
BRANCH   3   8
ATOM      8  C   UNL     1     127.029 103.675 132.048  1.00  0.00     0.099 C 
ATOM      9  O   UNL     1     127.464 103.414 133.201  1.00  0.00    -0.544 OA
ATOM     10  O   UNL     1     126.213 104.786 131.866  1.00  0.00    -0.544 OA
ENDBRANCH   3   8
ENDBRANCH   1   3
BRANCH   1  11
ATOM     11  C   UNL     1     128.227 104.015 128.679  1.00  0.00     0.006 C 
ATOM     12  C   UNL     1     128.396 105.532 128.780  1.00  0.00     0.004 C 
ENDBRANCH   1  11
TORSDOF 4
ENDMDL
MODEL 3
REMARK VINA RESULT:    -4.202      2.905      3.712
REMARK INTER + INTRA:          -5.225
REMARK INTER:                  -5.082
REMARK INTRA:                  -0.143
REMARK UNBOUND:                -0.163
REMARK SMILES CC[C@@H](C)[C@@H]([NH3+])C(=O)[O-]
REMARK SMILES IDX 3 1 4 2 5 3 6 4 7 8 8 9 9 10 2 11 1 12
REMARK H PARENT 6 5 6 6 6 7
REMARK Flexibility Score: inf
ROOT
ATOM      1  C   UNL     1     126.579 103.411 130.140  1.00  0.00     0.050 C 
ATOM      2  C   UNL     1     127.703 103.012 131.114  1.00  0.00     0.014 C 
ENDROOT
BRANCH   1   3
ATOM      3  C   UNL     1     126.948 103.257 128.626  1.00  0.00     0.230 C 
BRANCH   3   4
ATOM      4  N   UNL     1     126.517 101.950 128.110  1.00  0.00    -0.350 N 
ATOM      5  H   UNL     1     126.055 102.049 127.177  1.00  0.00     0.345 HD
ATOM      6  H   UNL     1     127.345 101.317 128.013  1.00  0.00     0.345 HD
ATOM      7  H   UNL     1     125.849 101.503 128.778  1.00  0.00     0.345 HD
ENDBRANCH   3   4
BRANCH   3   8
ATOM      8  C   UNL     1     126.399 104.357 127.745  1.00  0.00     0.099 C 
ATOM      9  O   UNL     1     127.154 105.277 127.334  1.00  0.00    -0.544 OA
ATOM     10  O   UNL     1     125.072 104.334 127.331  1.00  0.00    -0.544 OA
ENDBRANCH   3   8
ENDBRANCH   1   3
BRANCH   1  11
ATOM     11  C   UNL     1     125.225 102.760 130.520  1.00  0.00     0.006 C 
ATOM     12  C   UNL     1     124.069 103.736 130.746  1.00  0.00     0.004 C 
ENDBRANCH   1  11
TORSDOF 4
ENDMDL
MODEL 4
REMARK VINA RESULT:    -4.157      2.344      3.476
REMARK INTER + INTRA:          -5.171
REMARK INTER:                  -5.045
REMARK INTRA:                  -0.126
REMARK UNBOUND:                -0.163
REMARK SMILES CC[C@@H](C)[C@@H]([NH3+])C(=O)[O-]
REMARK SMILES IDX 3 1 4 2 5 3 6 4 7 8 8 9 9 10 2 11 1 12
REMARK H PARENT 6 5 6 6 6 7
REMARK Flexibility Score: inf
ROOT
ATOM      1  C   UNL     1     127.667 104.323 129.299  1.00  0.00     0.050 C 
ATOM      2  C   UNL     1     128.788 105.297 128.890  1.00  0.00     0.014 C 
ENDROOT
BRANCH   1   3
ATOM      3  C   UNL     1     126.876 103.705 128.099  1.00  0.00     0.230 C 
BRANCH   3   4
ATOM      4  N   UNL     1     126.997 102.240 128.086  1.00  0.00    -0.350 N 
ATOM      5  H   UNL     1     127.628 101.923 127.315  1.00  0.00     0.345 HD
ATOM      6  H   UNL     1     127.384 101.908 129.000  1.00  0.00     0.345 HD
ATOM      7  H   UNL     1     126.055 101.804 127.961  1.00  0.00     0.345 HD
ENDBRANCH   3   4
BRANCH   3   8
ATOM      8  C   UNL     1     125.415 104.095 128.061  1.00  0.00     0.099 C 
ATOM      9  O   UNL     1     124.869 104.410 126.971  1.00  0.00    -0.544 OA
ATOM     10  O   UNL     1     124.643 104.051 129.217  1.00  0.00    -0.544 OA
ENDBRANCH   3   8
ENDBRANCH   1   3
BRANCH   1  11
ATOM     11  C   UNL     1     128.160 103.273 130.327  1.00  0.00     0.006 C 
ATOM     12  C   UNL     1     127.245 103.058 131.534  1.00  0.00     0.004 C 
ENDBRANCH   1  11
TORSDOF 4
ENDMDL
MODEL 5
REMARK VINA RESULT:    -4.148      2.119      3.081
REMARK INTER + INTRA:          -5.160
REMARK INTER:                  -5.039
REMARK INTRA:                  -0.121
REMARK UNBOUND:                -0.163
REMARK SMILES CC[C@@H](C)[C@@H]([NH3+])C(=O)[O-]
REMARK SMILES IDX 3 1 4 2 5 3 6 4 7 8 8 9 9 10 2 11 1 12
REMARK H PARENT 6 5 6 6 6 7
REMARK Flexibility Score: inf
ROOT
ATOM      1  C   UNL     1     127.322 103.883 131.768  1.00  0.00     0.050 C 
ATOM      2  C   UNL     1     127.658 103.655 133.254  1.00  0.00     0.014 C 
ENDROOT
BRANCH   1   3
ATOM      3  C   UNL     1     128.570 103.942 130.824  1.00  0.00     0.230 C 
BRANCH   3   4
ATOM      4  N   UNL     1     129.311 102.673 130.851  1.00  0.00    -0.350 N 
ATOM      5  H   UNL     1     129.665 102.466 131.813  1.00  0.00     0.345 HD
ATOM      6  H   UNL     1     128.688 101.891 130.543  1.00  0.00     0.345 HD
ATOM      7  H   UNL     1     130.120 102.716 130.189  1.00  0.00     0.345 HD
ENDBRANCH   3   4
BRANCH   3   8
ATOM      8  C   UNL     1     128.240 104.307 129.394  1.00  0.00     0.099 C 
ATOM      9  O   UNL     1     128.292 103.434 128.487  1.00  0.00    -0.544 OA
ATOM     10  O   UNL     1     127.818 105.593 129.073  1.00  0.00    -0.544 OA
ENDBRANCH   3   8
ENDBRANCH   1   3
BRANCH   1  11
ATOM     11  C   UNL     1     126.211 102.922 131.272  1.00  0.00     0.006 C 
ATOM     12  C   UNL     1     124.832 103.558 131.087  1.00  0.00     0.004 C 
ENDBRANCH   1  11
TORSDOF 4
ENDMDL
MODEL 6
REMARK VINA RESULT:    -4.145      2.008      3.367
REMARK INTER + INTRA:          -5.156
REMARK INTER:                  -5.019
REMARK INTRA:                  -0.137
REMARK UNBOUND:                -0.163
REMARK SMILES CC[C@@H](C)[C@@H]([NH3+])C(=O)[O-]
REMARK SMILES IDX 3 1 4 2 5 3 6 4 7 8 8 9 9 10 2 11 1 12
REMARK H PARENT 6 5 6 6 6 7
REMARK Flexibility Score: inf
ROOT
ATOM      1  C   UNL     1     127.172 103.208 131.914  1.00  0.00     0.050 C 
ATOM      2  C   UNL     1     125.926 102.806 131.103  1.00  0.00     0.014 C 
ENDROOT
BRANCH   1   3
ATOM      3  C   UNL     1     128.404 103.629 131.044  1.00  0.00     0.230 C 
BRANCH   3   4
ATOM      4  N   UNL     1     129.360 102.521 130.912  1.00  0.00    -0.350 N 
ATOM      5  H   UNL     1     129.489 102.254 129.910  1.00  0.00     0.345 HD
ATOM      6  H   UNL     1     130.286 102.802 131.310  1.00  0.00     0.345 HD
ATOM      7  H   UNL     1     129.021 101.689 131.448  1.00  0.00     0.345 HD
ENDBRANCH   3   4
BRANCH   3   8
ATOM      8  C   UNL     1     128.037 104.149 129.672  1.00  0.00     0.099 C 
ATOM      9  O   UNL     1     127.648 105.339 129.528  1.00  0.00    -0.544 OA
ATOM     10  O   UNL     1     128.181 103.342 128.550  1.00  0.00    -0.544 OA
ENDBRANCH   3   8
ENDBRANCH   1   3
BRANCH   1  11
ATOM     11  C   UNL     1     126.830 104.217 133.040  1.00  0.00     0.006 C 
ATOM     12  C   UNL     1     125.824 105.304 132.659  1.00  0.00     0.004 C 
ENDBRANCH   1  11
TORSDOF 4
ENDMDL
MODEL 7
REMARK VINA RESULT:    -4.082      1.453      2.110
REMARK INTER + INTRA:          -5.079
REMARK INTER:                  -5.000
REMARK INTRA:                  -0.079
REMARK UNBOUND:                -0.163
REMARK SMILES CC[C@@H](C)[C@@H]([NH3+])C(=O)[O-]
REMARK SMILES IDX 3 1 4 2 5 3 6 4 7 8 8 9 9 10 2 11 1 12
REMARK H PARENT 6 5 6 6 6 7
REMARK Flexibility Score: inf
ROOT
ATOM      1  C   UNL     1     126.463 103.431 130.119  1.00  0.00     0.050 C 
ATOM      2  C   UNL     1     125.022 102.894 130.205  1.00  0.00     0.014 C 
ENDROOT
BRANCH   1   3
ATOM      3  C   UNL     1     127.448 102.812 131.166  1.00  0.00     0.230 C 
BRANCH   3   4
ATOM      4  N   UNL     1     128.787 102.631 130.586  1.00  0.00    -0.350 N 
ATOM      5  H   UNL     1     128.750 102.013 129.744  1.00  0.00     0.345 HD
ATOM      6  H   UNL     1     129.183 103.559 130.309  1.00  0.00     0.345 HD
ATOM      7  H   UNL     1     129.430 102.208 131.294  1.00  0.00     0.345 HD
ENDBRANCH   3   4
BRANCH   3   8
ATOM      8  C   UNL     1     127.554 103.603 132.451  1.00  0.00     0.099 C 
ATOM      9  O   UNL     1     128.584 104.286 132.693  1.00  0.00    -0.544 OA
ATOM     10  O   UNL     1     126.493 103.634 133.350  1.00  0.00    -0.544 OA
ENDBRANCH   3   8
ENDBRANCH   1   3
BRANCH   1  11
ATOM     11  C   UNL     1     127.003 103.408 128.666  1.00  0.00     0.006 C 
ATOM     12  C   UNL     1     126.724 104.667 127.844  1.00  0.00     0.004 C 
ENDBRANCH   1  11
TORSDOF 4
ENDMDL
MODEL 8
REMARK VINA RESULT:    -4.037      2.423      3.530
REMARK INTER + INTRA:          -5.026
REMARK INTER:                  -4.872
REMARK INTRA:                  -0.154
REMARK UNBOUND:                -0.163
REMARK SMILES CC[C@@H](C)[C@@H]([NH3+])C(=O)[O-]
REMARK SMILES IDX 3 1 4 2 5 3 6 4 7 8 8 9 9 10 2 11 1 12
REMARK H PARENT 6 5 6 6 6 7
REMARK Flexibility Score: inf
ROOT
ATOM      1  C   UNL     1     126.490 103.016 129.990  1.00  0.00     0.050 C 
ATOM      2  C   UNL     1     125.094 103.651 129.856  1.00  0.00     0.014 C 
ENDROOT
BRANCH   1   3
ATOM      3  C   UNL     1     127.523 103.486 128.912  1.00  0.00     0.230 C 
BRANCH   3   4
ATOM      4  N   UNL     1     127.563 102.552 127.778  1.00  0.00    -0.350 N 
ATOM      5  H   UNL     1     127.248 101.598 128.067  1.00  0.00     0.345 HD
ATOM      6  H   UNL     1     126.940 102.898 127.011  1.00  0.00     0.345 HD
ATOM      7  H   UNL     1     128.535 102.492 127.397  1.00  0.00     0.345 HD
ENDBRANCH   3   4
BRANCH   3   8
ATOM      8  C   UNL     1     127.284 104.891 128.405  1.00  0.00     0.099 C 
ATOM      9  O   UNL     1     127.640 105.883 129.094  1.00  0.00    -0.544 OA
ATOM     10  O   UNL     1     126.725 105.103 127.150  1.00  0.00    -0.544 OA
ENDBRANCH   3   8
ENDBRANCH   1   3
BRANCH   1  11
ATOM     11  C   UNL     1     127.025 103.097 131.443  1.00  0.00     0.006 C 
ATOM     12  C   UNL     1     126.681 104.383 132.196  1.00  0.00     0.004 C 
ENDBRANCH   1  11
TORSDOF 4
ENDMDL
MODEL 9
REMARK VINA RESULT:    -3.988      2.288      2.955
REMARK INTER + INTRA:          -4.967
REMARK INTER:                  -4.931
REMARK INTRA:                  -0.036
REMARK UNBOUND:                -0.163
REMARK SMILES CC[C@@H](C)[C@@H]([NH3+])C(=O)[O-]
REMARK SMILES IDX 3 1 4 2 5 3 6 4 7 8 8 9 9 10 2 11 1 12
REMARK H PARENT 6 5 6 6 6 7
REMARK Flexibility Score: inf
ROOT
ATOM      1  C   UNL     1     125.556 103.398 128.641  1.00  0.00     0.050 C 
ATOM      2  C   UNL     1     125.191 104.248 127.409  1.00  0.00     0.014 C 
ENDROOT
BRANCH   1   3
ATOM      3  C   UNL     1     127.094 103.231 128.882  1.00  0.00     0.230 C 
BRANCH   3   4
ATOM      4  N   UNL     1     127.732 102.544 127.750  1.00  0.00    -0.350 N 
ATOM      5  H   UNL     1     128.761 102.442 127.906  1.00  0.00     0.345 HD
ATOM      6  H   UNL     1     127.311 101.594 127.628  1.00  0.00     0.345 HD
ATOM      7  H   UNL     1     127.571 103.081 126.867  1.00  0.00     0.345 HD
ENDBRANCH   3   4
BRANCH   3   8
ATOM      8  C   UNL     1     127.816 104.531 129.160  1.00  0.00     0.099 C 
ATOM      9  O   UNL     1     128.155 105.284 128.210  1.00  0.00    -0.544 OA
ATOM     10  O   UNL     1     128.059 104.937 130.467  1.00  0.00    -0.544 OA
ENDBRANCH   3   8
ENDBRANCH   1   3
BRANCH   1  11
ATOM     11  C   UNL     1     124.772 103.842 129.903  1.00  0.00     0.006 C 
ATOM     12  C   UNL     1     125.087 103.058 131.178  1.00  0.00     0.004 C 
ENDBRANCH   1  11
TORSDOF 4
ENDMDL
