MODEL 1
REMARK VINA RESULT:    -2.872      0.000      0.000
REMARK INTER + INTRA:          -4.384
REMARK INTER:                  -3.964
REMARK INTRA:                  -0.420
REMARK UNBOUND:                -0.420
REMARK SMILES CCCCCCCCO
REMARK SMILES IDX 5 1 4 2 3 3 2 4 1 5 6 6 7 7 8 8 9 9
REMARK H PARENT 9 10
REMARK Flexibility Score: inf
ROOT
ATOM      1  C   UNL     1     149.569 150.799 145.062  1.00  0.00     0.000 C 
ENDROOT
BRANCH   1   2
ATOM      2  C   UNL     1     150.747 151.324 145.901  1.00  0.00    -0.000 C 
BRANCH   2   3
ATOM      3  C   UNL     1     151.838 150.262 146.125  1.00  0.00    -0.000 C 
BRANCH   3   4
ATOM      4  C   UNL     1     153.258 150.701 145.722  1.00  0.00    -0.003 C 
ATOM      5  C   UNL     1     153.349 152.187 145.378  1.00  0.00     0.004 C 
ENDBRANCH   3   4
ENDBRANCH   2   3
ENDBRANCH   1   2
BRANCH   1   6
ATOM      6  C   UNL     1     150.024 150.154 143.742  1.00  0.00     0.002 C 
BRANCH   6   7
ATOM      7  C   UNL     1     150.678 151.164 142.788  1.00  0.00     0.028 C 
BRANCH   7   8
ATOM      8  C   UNL     1     150.613 150.674 141.342  1.00  0.00     0.156 C 
BRANCH   8   9
ATOM      9  O   UNL     1     149.288 150.366 141.012  1.00  0.00    -0.396 OA
ATOM     10  H   UNL     1     149.213 150.487 140.030  1.00  0.00     0.210 HD
ENDBRANCH   8   9
ENDBRANCH   7   8
ENDBRANCH   6   7
ENDBRANCH   1   6
TORSDOF 7
ENDMDL
MODEL 2
REMARK VINA RESULT:    -2.686      7.332      8.704
REMARK INTER + INTRA:          -4.127
REMARK INTER:                  -3.623
REMARK INTRA:                  -0.504
REMARK UNBOUND:                -0.420
REMARK SMILES CCCCCCCCO
REMARK SMILES IDX 5 1 4 2 3 3 2 4 1 5 6 6 7 7 8 8 9 9
REMARK H PARENT 9 10
REMARK Flexibility Score: inf
ROOT
ATOM      1  C   UNL     1     158.769 152.274 139.417  1.00  0.00     0.000 C 
ENDROOT
BRANCH   1   2
ATOM      2  C   UNL     1     158.643 153.743 138.980  1.00  0.00    -0.000 C 
BRANCH   2   3
ATOM      3  C   UNL     1     157.600 154.522 139.800  1.00  0.00    -0.000 C 
BRANCH   3   4
ATOM      4  C   UNL     1     156.406 155.053 138.987  1.00  0.00    -0.003 C 
ATOM      5  C   UNL     1     156.504 154.726 137.497  1.00  0.00     0.004 C 
ENDBRANCH   3   4
ENDBRANCH   2   3
ENDBRANCH   1   2
BRANCH   1   6
ATOM      6  C   UNL     1     157.738 151.363 138.731  1.00  0.00     0.002 C 
BRANCH   6   7
ATOM      7  C   UNL     1     156.825 150.646 139.737  1.00  0.00     0.028 C 
BRANCH   7   8
ATOM      8  C   UNL     1     155.626 151.517 140.109  1.00  0.00     0.156 C 
BRANCH   8   9
ATOM      9  O   UNL     1     155.618 151.734 141.492  1.00  0.00    -0.396 OA
ATOM     10  H   UNL     1     156.334 151.158 141.866  1.00  0.00     0.210 HD
ENDBRANCH   8   9
ENDBRANCH   7   8
ENDBRANCH   6   7
ENDBRANCH   1   6
TORSDOF 7
ENDMDL
MODEL 3
REMARK VINA RESULT:    -2.644      7.705      9.396
REMARK INTER + INTRA:          -4.068
REMARK INTER:                  -3.515
REMARK INTRA:                  -0.553
REMARK UNBOUND:                -0.420
REMARK SMILES CCCCCCCCO
REMARK SMILES IDX 5 1 4 2 3 3 2 4 1 5 6 6 7 7 8 8 9 9
REMARK H PARENT 9 10
REMARK Flexibility Score: inf
ROOT
ATOM      1  C   UNL     1     152.929 145.428 139.038  1.00  0.00     0.000 C 
ENDROOT
BRANCH   1   2
ATOM      2  C   UNL     1     151.935 145.535 140.207  1.00  0.00    -0.000 C 
BRANCH   2   3
ATOM      3  C   UNL     1     150.743 144.572 140.066  1.00  0.00    -0.000 C 
BRANCH   3   4
ATOM      4  C   UNL     1     150.560 143.975 138.659  1.00  0.00    -0.003 C 
ATOM      5  C   UNL     1     150.623 142.448 138.645  1.00  0.00     0.004 C 
ENDBRANCH   3   4
ENDBRANCH   2   3
ENDBRANCH   1   2
BRANCH   1   6
ATOM      6  C   UNL     1     154.232 144.713 139.432  1.00  0.00     0.002 C 
BRANCH   6   7
ATOM      7  C   UNL     1     154.288 143.267 138.919  1.00  0.00     0.028 C 
BRANCH   7   8
ATOM      8  C   UNL     1     154.148 142.270 140.069  1.00  0.00     0.156 C 
BRANCH   8   9
ATOM      9  O   UNL     1     154.870 142.732 141.176  1.00  0.00    -0.396 OA
ATOM     10  H   UNL     1     155.713 142.209 141.193  1.00  0.00     0.210 HD
ENDBRANCH   8   9
ENDBRANCH   7   8
ENDBRANCH   6   7
ENDBRANCH   1   6
TORSDOF 7
ENDMDL
MODEL 4
REMARK VINA RESULT:    -2.621      2.773      3.282
REMARK INTER + INTRA:          -4.037
REMARK INTER:                  -3.841
REMARK INTRA:                  -0.196
REMARK UNBOUND:                -0.420
REMARK SMILES CCCCCCCCO
REMARK SMILES IDX 5 1 4 2 3 3 2 4 1 5 6 6 7 7 8 8 9 9
REMARK H PARENT 9 10
REMARK Flexibility Score: inf
ROOT
ATOM      1  C   UNL     1     149.375 152.682 145.473  1.00  0.00     0.000 C 
ENDROOT
BRANCH   1   2
ATOM      2  C   UNL     1     150.834 153.158 145.368  1.00  0.00    -0.000 C 
BRANCH   2   3
ATOM      3  C   UNL     1     151.844 152.085 145.814  1.00  0.00    -0.000 C 
BRANCH   3   4
ATOM      4  C   UNL     1     153.149 152.049 144.998  1.00  0.00    -0.003 C 
ATOM      5  C   UNL     1     154.227 151.173 145.633  1.00  0.00     0.004 C 
ENDBRANCH   3   4
ENDBRANCH   2   3
ENDBRANCH   1   2
BRANCH   1   6
ATOM      6  C   UNL     1     149.203 151.208 145.069  1.00  0.00     0.002 C 
BRANCH   6   7
ATOM      7  C   UNL     1     148.212 150.462 145.975  1.00  0.00     0.028 C 
BRANCH   7   8
ATOM      8  C   UNL     1     147.512 149.338 145.214  1.00  0.00     0.156 C 
BRANCH   8   9
ATOM      9  O   UNL     1     147.008 148.401 146.125  1.00  0.00    -0.396 OA
ATOM     10  H   UNL     1     147.757 147.781 146.325  1.00  0.00     0.210 HD
ENDBRANCH   8   9
ENDBRANCH   7   8
ENDBRANCH   6   7
ENDBRANCH   1   6
TORSDOF 7
ENDMDL
MODEL 5
REMARK VINA RESULT:    -2.603      7.489      8.992
REMARK INTER + INTRA:          -4.012
REMARK INTER:                  -3.636
REMARK INTRA:                  -0.376
REMARK UNBOUND:                -0.420
REMARK SMILES CCCCCCCCO
REMARK SMILES IDX 5 1 4 2 3 3 2 4 1 5 6 6 7 7 8 8 9 9
REMARK H PARENT 9 10
REMARK Flexibility Score: inf
ROOT
ATOM      1  C   UNL     1     147.265 155.862 138.782  1.00  0.00     0.000 C 
ENDROOT
BRANCH   1   2
ATOM      2  C   UNL     1     147.006 157.372 138.648  1.00  0.00    -0.000 C 
BRANCH   2   3
ATOM      3  C   UNL     1     146.788 158.062 140.006  1.00  0.00    -0.000 C 
BRANCH   3   4
ATOM      4  C   UNL     1     147.224 159.537 140.057  1.00  0.00    -0.003 C 
ATOM      5  C   UNL     1     148.615 159.770 139.468  1.00  0.00     0.004 C 
ENDBRANCH   3   4
ENDBRANCH   2   3
ENDBRANCH   1   2
BRANCH   1   6
ATOM      6  C   UNL     1     148.760 155.509 138.710  1.00  0.00     0.002 C 
BRANCH   6   7
ATOM      7  C   UNL     1     149.461 155.638 140.070  1.00  0.00     0.028 C 
BRANCH   7   8
ATOM      8  C   UNL     1     150.564 156.694 140.021  1.00  0.00     0.156 C 
BRANCH   8   9
ATOM      9  O   UNL     1     151.029 156.943 141.319  1.00  0.00    -0.396 OA
ATOM     10  H   UNL     1     151.475 157.829 141.286  1.00  0.00     0.210 HD
ENDBRANCH   8   9
ENDBRANCH   7   8
ENDBRANCH   6   7
ENDBRANCH   1   6
TORSDOF 7
ENDMDL
MODEL 6
REMARK VINA RESULT:    -2.583      7.451      8.981
REMARK INTER + INTRA:          -3.984
REMARK INTER:                  -3.425
REMARK INTRA:                  -0.560
REMARK UNBOUND:                -0.420
REMARK SMILES CCCCCCCCO
REMARK SMILES IDX 5 1 4 2 3 3 2 4 1 5 6 6 7 7 8 8 9 9
REMARK H PARENT 9 10
REMARK Flexibility Score: inf
ROOT
ATOM      1  C   UNL     1     152.597 144.741 137.898  1.00  0.00     0.000 C 
ENDROOT
BRANCH   1   2
ATOM      2  C   UNL     1     153.858 143.861 137.889  1.00  0.00    -0.000 C 
BRANCH   2   3
ATOM      3  C   UNL     1     154.758 144.096 139.115  1.00  0.00    -0.000 C 
BRANCH   3   4
ATOM      4  C   UNL     1     154.480 143.162 140.307  1.00  0.00    -0.003 C 
ATOM      5  C   UNL     1     153.977 141.783 139.881  1.00  0.00     0.004 C 
ENDBRANCH   3   4
ENDBRANCH   2   3
ENDBRANCH   1   2
BRANCH   1   6
ATOM      6  C   UNL     1     151.350 143.982 138.381  1.00  0.00     0.002 C 
BRANCH   6   7
ATOM      7  C   UNL     1     150.861 144.465 139.754  1.00  0.00     0.028 C 
BRANCH   7   8
ATOM      8  C   UNL     1     151.606 145.727 140.189  1.00  0.00     0.156 C 
BRANCH   8   9
ATOM      9  O   UNL     1     151.705 145.753 141.586  1.00  0.00    -0.396 OA
ATOM     10  H   UNL     1     152.659 145.582 141.797  1.00  0.00     0.210 HD
ENDBRANCH   8   9
ENDBRANCH   7   8
ENDBRANCH   6   7
ENDBRANCH   1   6
TORSDOF 7
ENDMDL
MODEL 7
REMARK VINA RESULT:    -2.576      6.789      8.117
REMARK INTER + INTRA:          -3.975
REMARK INTER:                  -3.486
REMARK INTRA:                  -0.489
REMARK UNBOUND:                -0.420
REMARK SMILES CCCCCCCCO
REMARK SMILES IDX 5 1 4 2 3 3 2 4 1 5 6 6 7 7 8 8 9 9
REMARK H PARENT 9 10
REMARK Flexibility Score: inf
ROOT
ATOM      1  C   UNL     1     155.497 152.795 137.829  1.00  0.00     0.000 C 
ENDROOT
BRANCH   1   2
ATOM      2  C   UNL     1     155.040 154.215 138.208  1.00  0.00    -0.000 C 
BRANCH   2   3
ATOM      3  C   UNL     1     156.194 155.094 138.722  1.00  0.00    -0.000 C 
BRANCH   3   4
ATOM      4  C   UNL     1     157.579 154.423 138.693  1.00  0.00    -0.003 C 
ATOM      5  C   UNL     1     158.230 154.336 140.073  1.00  0.00     0.004 C 
ENDBRANCH   3   4
ENDBRANCH   2   3
ENDBRANCH   1   2
BRANCH   1   6
ATOM      6  C   UNL     1     154.861 151.713 138.717  1.00  0.00     0.002 C 
BRANCH   6   7
ATOM      7  C   UNL     1     155.508 151.638 140.108  1.00  0.00     0.028 C 
BRANCH   7   8
ATOM      8  C   UNL     1     156.755 150.756 140.086  1.00  0.00     0.156 C 
BRANCH   8   9
ATOM      9  O   UNL     1     156.945 150.184 141.351  1.00  0.00    -0.396 OA
ATOM     10  H   UNL     1     157.600 149.450 141.225  1.00  0.00     0.210 HD
ENDBRANCH   8   9
ENDBRANCH   7   8
ENDBRANCH   6   7
ENDBRANCH   1   6
TORSDOF 7
ENDMDL
MODEL 8
REMARK VINA RESULT:    -2.565      7.759      9.447
REMARK INTER + INTRA:          -3.959
REMARK INTER:                  -3.448
REMARK INTRA:                  -0.512
REMARK UNBOUND:                -0.420
REMARK SMILES CCCCCCCCO
REMARK SMILES IDX 5 1 4 2 3 3 2 4 1 5 6 6 7 7 8 8 9 9
REMARK H PARENT 9 10
REMARK Flexibility Score: inf
ROOT
ATOM      1  C   UNL     1     145.355 148.077 139.163  1.00  0.00     0.000 C 
ENDROOT
BRANCH   1   2
ATOM      2  C   UNL     1     145.368 149.089 140.322  1.00  0.00    -0.000 C 
BRANCH   2   3
ATOM      3  C   UNL     1     144.708 150.429 139.950  1.00  0.00    -0.000 C 
BRANCH   3   4
ATOM      4  C   UNL     1     144.502 150.650 138.441  1.00  0.00    -0.003 C 
ATOM      5  C   UNL     1     143.053 150.966 138.075  1.00  0.00     0.004 C 
ENDBRANCH   3   4
ENDBRANCH   2   3
ENDBRANCH   1   2
BRANCH   1   6
ATOM      6  C   UNL     1     144.393 146.904 139.413  1.00  0.00     0.002 C 
BRANCH   6   7
ATOM      7  C   UNL     1     142.949 147.229 139.004  1.00  0.00     0.028 C 
BRANCH   7   8
ATOM      8  C   UNL     1     141.996 147.086 140.189  1.00  0.00     0.156 C 
BRANCH   8   9
ATOM      9  O   UNL     1     142.648 146.419 141.234  1.00  0.00    -0.396 OA
ATOM     10  H   UNL     1     142.244 146.760 142.073  1.00  0.00     0.210 HD
ENDBRANCH   8   9
ENDBRANCH   7   8
ENDBRANCH   6   7
ENDBRANCH   1   6
TORSDOF 7
ENDMDL
MODEL 9
REMARK VINA RESULT:    -2.541      7.149      9.070
REMARK INTER + INTRA:          -3.927
REMARK INTER:                  -3.467
REMARK INTRA:                  -0.459
REMARK UNBOUND:                -0.420
REMARK SMILES CCCCCCCCO
REMARK SMILES IDX 5 1 4 2 3 3 2 4 1 5 6 6 7 7 8 8 9 9
REMARK H PARENT 9 10
REMARK Flexibility Score: inf
ROOT
ATOM      1  C   UNL     1     143.044 147.912 139.457  1.00  0.00     0.000 C 
ENDROOT
BRANCH   1   2
ATOM      2  C   UNL     1     143.800 146.573 139.437  1.00  0.00    -0.000 C 
BRANCH   2   3
ATOM      3  C   UNL     1     144.598 146.359 138.138  1.00  0.00    -0.000 C 
BRANCH   3   4
ATOM      4  C   UNL     1     146.099 146.086 138.341  1.00  0.00    -0.003 C 
ATOM      5  C   UNL     1     146.990 146.964 137.462  1.00  0.00     0.004 C 
ENDBRANCH   3   4
ENDBRANCH   2   3
ENDBRANCH   1   2
BRANCH   1   6
ATOM      6  C   UNL     1     143.777 149.018 138.679  1.00  0.00     0.002 C 
BRANCH   6   7
ATOM      7  C   UNL     1     144.408 150.068 139.605  1.00  0.00     0.028 C 
BRANCH   7   8
ATOM      8  C   UNL     1     145.742 149.575 140.165  1.00  0.00     0.156 C 
BRANCH   8   9
ATOM      9  O   UNL     1     145.709 149.630 141.564  1.00  0.00    -0.396 OA
ATOM     10  H   UNL     1     146.618 149.906 141.851  1.00  0.00     0.210 HD
ENDBRANCH   8   9
ENDBRANCH   7   8
ENDBRANCH   6   7
ENDBRANCH   1   6
TORSDOF 7
ENDMDL
