MODEL 1
REMARK VINA RESULT:    -4.327      0.000      0.000
REMARK INTER + INTRA:          -4.727
REMARK INTER:                  -4.706
REMARK INTRA:                  -0.021
REMARK UNBOUND:                -0.021
REMARK SMILES OCc1ccco1
REMARK SMILES IDX 2 1 3 2 5 3 6 4 4 5 7 6 1 7
REMARK H PARENT 1 8
REMARK Flexibility Score: inf
ROOT
ATOM      1  C   UNL     1      12.955  37.610  31.395  1.00  0.00     0.231 C 
ENDROOT
BRANCH   1   2
ATOM      2  C   UNL     1      13.301  36.349  32.122  1.00  0.00     0.129 A 
ATOM      3  C   UNL     1      13.332  34.708  33.580  1.00  0.00     0.042 A 
ATOM      4  C   UNL     1      14.336  34.561  32.644  1.00  0.00     0.195 A 
ATOM      5  C   UNL     1      12.663  35.867  33.246  1.00  0.00     0.048 A 
ATOM      6  O   UNL     1      14.293  35.557  31.789  1.00  0.00    -0.467 OA
ENDBRANCH   1   2
BRANCH   1   7
ATOM      7  O   UNL     1      13.697  37.701  30.210  1.00  0.00    -0.388 OA
ATOM      8  H   UNL     1      14.653  37.617  30.466  1.00  0.00     0.211 HD
ENDBRANCH   1   7
TORSDOF 2
ENDMDL
MODEL 2
REMARK VINA RESULT:    -4.282     14.197     14.702
REMARK INTER + INTRA:          -4.678
REMARK INTER:                  -4.666
REMARK INTRA:                  -0.012
REMARK UNBOUND:                -0.021
REMARK SMILES OCc1ccco1
REMARK SMILES IDX 2 1 3 2 5 3 6 4 4 5 7 6 1 7
REMARK H PARENT 1 8
REMARK Flexibility Score: inf
ROOT
ATOM      1  C   UNL     1      24.767  27.621  35.806  1.00  0.00     0.231 C 
ENDROOT
BRANCH   1   2
ATOM      2  C   UNL     1      24.824  27.524  34.314  1.00  0.00     0.129 A 
ATOM      3  C   UNL     1      24.936  28.029  32.180  1.00  0.00     0.042 A 
ATOM      4  C   UNL     1      24.779  26.669  32.362  1.00  0.00     0.195 A 
ATOM      5  C   UNL     1      24.962  28.584  33.442  1.00  0.00     0.048 A 
ATOM      6  O   UNL     1      24.712  26.400  33.646  1.00  0.00    -0.467 OA
ENDBRANCH   1   2
BRANCH   1   7
ATOM      7  O   UNL     1      26.043  27.888  36.319  1.00  0.00    -0.388 OA
ATOM      8  H   UNL     1      25.946  27.946  37.306  1.00  0.00     0.211 HD
ENDBRANCH   1   7
TORSDOF 2
ENDMDL
MODEL 3
REMARK VINA RESULT:    -4.238      4.190      5.508
REMARK INTER + INTRA:          -4.631
REMARK INTER:                  -4.618
REMARK INTRA:                  -0.013
REMARK UNBOUND:                -0.021
REMARK SMILES OCc1ccco1
REMARK SMILES IDX 2 1 3 2 5 3 6 4 4 5 7 6 1 7
REMARK H PARENT 1 8
REMARK Flexibility Score: inf
ROOT
ATOM      1  C   UNL     1      17.206  32.485  35.211  1.00  0.00     0.231 C 
ENDROOT
BRANCH   1   2
ATOM      2  C   UNL     1      16.015  33.268  35.665  1.00  0.00     0.129 A 
ATOM      3  C   UNL     1      14.522  34.281  36.916  1.00  0.00     0.042 A 
ATOM      4  C   UNL     1      14.174  34.339  35.581  1.00  0.00     0.195 A 
ATOM      5  C   UNL     1      15.711  33.586  36.973  1.00  0.00     0.048 A 
ATOM      6  O   UNL     1      15.083  33.723  34.861  1.00  0.00    -0.467 OA
ENDBRANCH   1   2
BRANCH   1   7
ATOM      7  O   UNL     1      18.235  33.356  34.828  1.00  0.00    -0.388 OA
ATOM      8  H   UNL     1      18.865  32.825  34.272  1.00  0.00     0.211 HD
ENDBRANCH   1   7
TORSDOF 2
ENDMDL
MODEL 4
REMARK VINA RESULT:    -4.237      3.445      4.411
REMARK INTER + INTRA:          -4.630
REMARK INTER:                  -4.615
REMARK INTRA:                  -0.015
REMARK UNBOUND:                -0.021
REMARK SMILES OCc1ccco1
REMARK SMILES IDX 2 1 3 2 5 3 6 4 4 5 7 6 1 7
REMARK H PARENT 1 8
REMARK Flexibility Score: inf
ROOT
ATOM      1  C   UNL     1      13.743  34.391  34.261  1.00  0.00     0.231 C 
ENDROOT
BRANCH   1   2
ATOM      2  C   UNL     1      14.777  33.897  35.221  1.00  0.00     0.129 A 
ATOM      3  C   UNL     1      15.926  33.503  37.051  1.00  0.00     0.042 A 
ATOM      4  C   UNL     1      16.553  32.965  35.944  1.00  0.00     0.195 A 
ATOM      5  C   UNL     1      14.778  34.108  36.584  1.00  0.00     0.048 A 
ATOM      6  O   UNL     1      15.845  33.220  34.868  1.00  0.00    -0.467 OA
ENDBRANCH   1   2
BRANCH   1   7
ATOM      7  O   UNL     1      13.242  35.628  34.689  1.00  0.00    -0.388 OA
ATOM      8  H   UNL     1      12.871  35.485  35.599  1.00  0.00     0.211 HD
ENDBRANCH   1   7
TORSDOF 2
ENDMDL
MODEL 5
REMARK VINA RESULT:    -4.235      4.014      4.917
REMARK INTER + INTRA:          -4.628
REMARK INTER:                  -4.613
REMARK INTRA:                  -0.014
REMARK UNBOUND:                -0.021
REMARK SMILES OCc1ccco1
REMARK SMILES IDX 2 1 3 2 5 3 6 4 4 5 7 6 1 7
REMARK H PARENT 1 8
REMARK Flexibility Score: inf
ROOT
ATOM      1  C   UNL     1      16.913  33.455  33.746  1.00  0.00     0.231 C 
ENDROOT
BRANCH   1   2
ATOM      2  C   UNL     1      16.225  33.558  35.071  1.00  0.00     0.129 A 
ATOM      3  C   UNL     1      14.705  33.835  36.631  1.00  0.00     0.042 A 
ATOM      4  C   UNL     1      15.954  33.629  37.184  1.00  0.00     0.195 A 
ATOM      5  C   UNL     1      14.880  33.792  35.264  1.00  0.00     0.048 A 
ATOM      6  O   UNL     1      16.840  33.471  36.228  1.00  0.00    -0.467 OA
ENDBRANCH   1   2
BRANCH   1   7
ATOM      7  O   UNL     1      16.607  34.572  32.958  1.00  0.00    -0.388 OA
ATOM      8  H   UNL     1      17.400  35.170  32.993  1.00  0.00     0.211 HD
ENDBRANCH   1   7
TORSDOF 2
ENDMDL
MODEL 6
REMARK VINA RESULT:    -4.083      6.998      8.307
REMARK INTER + INTRA:          -4.462
REMARK INTER:                  -4.443
REMARK INTRA:                  -0.019
REMARK UNBOUND:                -0.021
REMARK SMILES OCc1ccco1
REMARK SMILES IDX 2 1 3 2 5 3 6 4 4 5 7 6 1 7
REMARK H PARENT 1 8
REMARK Flexibility Score: inf
ROOT
ATOM      1  C   UNL     1      17.068  31.666  35.732  1.00  0.00     0.231 C 
ENDROOT
BRANCH   1   2
ATOM      2  C   UNL     1      17.027  30.312  36.364  1.00  0.00     0.129 A 
ATOM      3  C   UNL     1      17.170  28.146  36.700  1.00  0.00     0.042 A 
ATOM      4  C   UNL     1      16.663  28.790  37.812  1.00  0.00     0.195 A 
ATOM      5  C   UNL     1      17.403  29.129  35.762  1.00  0.00     0.048 A 
ATOM      6  O   UNL     1      16.587  30.080  37.579  1.00  0.00    -0.467 OA
ENDBRANCH   1   2
BRANCH   1   7
ATOM      7  O   UNL     1      15.931  32.401  36.094  1.00  0.00    -0.388 OA
ATOM      8  H   UNL     1      15.738  32.176  37.042  1.00  0.00     0.211 HD
ENDBRANCH   1   7
TORSDOF 2
ENDMDL
MODEL 7
REMARK VINA RESULT:    -3.938      5.427      7.052
REMARK INTER + INTRA:          -4.305
REMARK INTER:                  -4.290
REMARK INTRA:                  -0.014
REMARK UNBOUND:                -0.021
REMARK SMILES OCc1ccco1
REMARK SMILES IDX 2 1 3 2 5 3 6 4 4 5 7 6 1 7
REMARK H PARENT 1 8
REMARK Flexibility Score: inf
ROOT
ATOM      1  C   UNL     1      17.342  30.232  36.030  1.00  0.00     0.231 C 
ENDROOT
BRANCH   1   2
ATOM      2  C   UNL     1      16.890  31.639  35.802  1.00  0.00     0.129 A 
ATOM      3  C   UNL     1      15.994  33.626  36.070  1.00  0.00     0.042 A 
ATOM      4  C   UNL     1      16.507  33.479  34.796  1.00  0.00     0.195 A 
ATOM      5  C   UNL     1      16.237  32.435  36.720  1.00  0.00     0.048 A 
ATOM      6  O   UNL     1      17.032  32.282  34.667  1.00  0.00    -0.467 OA
ENDBRANCH   1   2
BRANCH   1   7
ATOM      7  O   UNL     1      18.742  30.174  36.048  1.00  0.00    -0.388 OA
ATOM      8  H   UNL     1      18.985  29.229  36.234  1.00  0.00     0.211 HD
ENDBRANCH   1   7
TORSDOF 2
ENDMDL
MODEL 8
REMARK VINA RESULT:    -3.899     12.016     12.457
REMARK INTER + INTRA:          -4.263
REMARK INTER:                  -4.245
REMARK INTRA:                  -0.017
REMARK UNBOUND:                -0.021
REMARK SMILES OCc1ccco1
REMARK SMILES IDX 2 1 3 2 5 3 6 4 4 5 7 6 1 7
REMARK H PARENT 1 8
REMARK Flexibility Score: inf
ROOT
ATOM      1  C   UNL     1      26.788  38.892  28.268  1.00  0.00     0.231 C 
ENDROOT
BRANCH   1   2
ATOM      2  C   UNL     1      25.562  38.456  29.005  1.00  0.00     0.129 A 
ATOM      3  C   UNL     1      23.884  38.363  30.419  1.00  0.00     0.042 A 
ATOM      4  C   UNL     1      23.922  37.239  29.617  1.00  0.00     0.195 A 
ATOM      5  C   UNL     1      24.946  39.149  30.026  1.00  0.00     0.048 A 
ATOM      6  O   UNL     1      24.936  37.323  28.786  1.00  0.00    -0.467 OA
ENDBRANCH   1   2
BRANCH   1   7
ATOM      7  O   UNL     1      26.601  38.734  26.888  1.00  0.00    -0.388 OA
ATOM      8  H   UNL     1      25.633  38.874  26.714  1.00  0.00     0.211 HD
ENDBRANCH   1   7
TORSDOF 2
ENDMDL
MODEL 9
REMARK VINA RESULT:    -3.857     10.723     11.336
REMARK INTER + INTRA:          -4.217
REMARK INTER:                  -4.203
REMARK INTRA:                  -0.014
REMARK UNBOUND:                -0.021
REMARK SMILES OCc1ccco1
REMARK SMILES IDX 2 1 3 2 5 3 6 4 4 5 7 6 1 7
REMARK H PARENT 1 8
REMARK Flexibility Score: inf
ROOT
ATOM      1  C   UNL     1      23.574  35.855  28.963  1.00  0.00     0.231 C 
ENDROOT
BRANCH   1   2
ATOM      2  C   UNL     1      24.151  37.185  29.329  1.00  0.00     0.129 A 
ATOM      3  C   UNL     1      24.530  39.107  30.320  1.00  0.00     0.042 A 
ATOM      4  C   UNL     1      25.356  38.940  29.226  1.00  0.00     0.195 A 
ATOM      5  C   UNL     1      23.748  37.974  30.387  1.00  0.00     0.048 A 
ATOM      6  O   UNL     1      25.103  37.785  28.654  1.00  0.00    -0.467 OA
ENDBRANCH   1   2
BRANCH   1   7
ATOM      7  O   UNL     1      22.178  35.945  28.871  1.00  0.00    -0.388 OA
ATOM      8  H   UNL     1      21.897  35.303  28.167  1.00  0.00     0.211 HD
ENDBRANCH   1   7
TORSDOF 2
ENDMDL
