MODEL 1
REMARK VINA RESULT:    -5.827      0.000      0.000
REMARK INTER + INTRA:          -8.736
REMARK INTER:                  -8.211
REMARK INTRA:                  -0.526
REMARK UNBOUND:                -0.526
REMARK SMILES C[C@@H](CO)CCC(=O)[C@H](C)[C@H]1C(=O)C[C@@H]2[C@@H]3CC=C4C[C@H](O)CC[C@@]4(C)[C@@H]3CC[C@@]21C
REMARK SMILES IDX 6 1 5 2 2 3 1 4 3 5 4 6 7 8 8 9 9 10 10 11 11 12 12 13 30 14
REMARK SMILES IDX 13 15 14 16 15 17 29 18 31 19 16 20 28 21 27 22 17 23 25 24
REMARK SMILES IDX 18 25 19 26 24 27 26 28 20 29 23 30 21 31 22 32
REMARK H PARENT 4 7 22 33
REMARK Flexibility Score: inf
ROOT
ATOM      1  C   UNL     1      32.436   9.249 105.445  1.00  0.00     0.076 C 
ENDROOT
BRANCH   1   2
ATOM      2  C   UNL     1      31.749   8.497 106.600  1.00  0.00     0.013 C 
BRANCH   2   3
ATOM      3  C   UNL     1      30.864   7.303 106.161  1.00  0.00     0.012 C 
ATOM      4  C   UNL     1      30.596   7.308 104.649  1.00  0.00     0.010 C 
BRANCH   3   5
ATOM      5  C   UNL     1      31.409   5.941 106.620  1.00  0.00     0.159 C 
BRANCH   5   6
ATOM      6  O   UNL     1      30.971   4.929 105.756  1.00  0.00    -0.396 OA
ATOM      7  H   UNL     1      31.050   4.079 106.262  1.00  0.00     0.210 HD
ENDBRANCH   5   6
ENDBRANCH   3   5
ENDBRANCH   2   3
ENDBRANCH   1   2
BRANCH   1   8
ATOM      8  C   UNL     1      31.934  10.669 105.342  1.00  0.00     0.136 C 
ATOM      9  O   UNL     1      30.746  10.860 105.123  1.00  0.00    -0.299 OA
BRANCH   8  10
ATOM     10  C   UNL     1      32.859  11.844 105.618  1.00  0.00     0.064 C 
ATOM     11  C   UNL     1      32.152  13.113 105.102  1.00  0.00     0.017 C 
BRANCH  10  12
ATOM     12  C   UNL     1      34.288  11.659 104.977  1.00  0.00     0.072 C 
ATOM     13  C   UNL     1      34.735  12.919 104.309  1.00  0.00     0.137 C 
ATOM     14  C   UNL     1      35.493  11.361 105.954  1.00  0.00    -0.019 C 
ATOM     15  O   UNL     1      34.342  13.259 103.205  1.00  0.00    -0.299 OA
ATOM     16  C   UNL     1      35.808  13.652 105.014  1.00  0.00     0.080 C 
ATOM     17  C   UNL     1      36.157  12.758 106.211  1.00  0.00     0.007 C 
ATOM     18  C   UNL     1      36.491  10.354 105.271  1.00  0.00     0.008 C 
ATOM     19  C   UNL     1      35.079  10.748 107.315  1.00  0.00     0.012 C 
ATOM     20  C   UNL     1      37.680  12.674 106.543  1.00  0.00     0.001 C 
ATOM     21  C   UNL     1      37.648  11.035 104.532  1.00  0.00     0.005 C 
ATOM     22  C   UNL     1      38.529  11.817 105.536  1.00  0.00     0.003 C 
ATOM     23  C   UNL     1      38.279  14.053 106.864  1.00  0.00     0.031 C 
ATOM     24  C   UNL     1      39.795  12.532 104.905  1.00  0.00    -0.008 C 
ATOM     25  C   UNL     1      39.779  14.008 106.920  1.00  0.00    -0.027 C 
ATOM     26  C   UNL     1      40.503  13.330 106.008  1.00  0.00    -0.065 C 
ATOM     27  C   UNL     1      40.743  11.427 104.326  1.00  0.00     0.014 C 
ATOM     28  C   UNL     1      39.431  13.509 103.759  1.00  0.00     0.016 C 
ATOM     29  C   UNL     1      41.998  13.573 105.961  1.00  0.00     0.063 C 
ATOM     30  C   UNL     1      42.191  11.883 104.122  1.00  0.00     0.033 C 
ATOM     31  C   UNL     1      42.780  12.364 105.444  1.00  0.00     0.118 C 
BRANCH  31  32
ATOM     32  O   UNL     1      44.124  12.715 105.245  1.00  0.00    -0.393 OA
ATOM     33  H   UNL     1      44.378  12.373 104.348  1.00  0.00     0.210 HD
ENDBRANCH  31  32
ENDBRANCH  10  12
ENDBRANCH   8  10
ENDBRANCH   1   8
TORSDOF 8
ENDMDL
MODEL 2
REMARK VINA RESULT:    -5.141      1.147      1.364
REMARK INTER + INTRA:          -7.770
REMARK INTER:                  -7.856
REMARK INTRA:                   0.086
REMARK UNBOUND:                -0.526
REMARK SMILES C[C@@H](CO)CCC(=O)[C@H](C)[C@H]1C(=O)C[C@@H]2[C@@H]3CC=C4C[C@H](O)CC[C@@]4(C)[C@@H]3CC[C@@]21C
REMARK SMILES IDX 6 1 5 2 2 3 1 4 3 5 4 6 7 8 8 9 9 10 10 11 11 12 12 13 30 14
REMARK SMILES IDX 13 15 14 16 15 17 29 18 31 19 16 20 28 21 27 22 17 23 25 24
REMARK SMILES IDX 18 25 19 26 24 27 26 28 20 29 23 30 21 31 22 32
REMARK H PARENT 4 7 22 33
REMARK Flexibility Score: inf
ROOT
ATOM      1  C   UNL     1      32.367   8.587 106.808  1.00  0.00     0.076 C 
ENDROOT
BRANCH   1   2
ATOM      2  C   UNL     1      31.369   7.433 106.598  1.00  0.00     0.013 C 
BRANCH   2   3
ATOM      3  C   UNL     1      31.602   6.201 107.508  1.00  0.00     0.012 C 
ATOM      4  C   UNL     1      31.676   4.894 106.704  1.00  0.00     0.010 C 
BRANCH   3   5
ATOM      5  C   UNL     1      32.823   6.349 108.431  1.00  0.00     0.159 C 
BRANCH   5   6
ATOM      6  O   UNL     1      32.470   7.046 109.593  1.00  0.00    -0.396 OA
ATOM      7  H   UNL     1      31.488   7.177 109.552  1.00  0.00     0.210 HD
ENDBRANCH   5   6
ENDBRANCH   3   5
ENDBRANCH   2   3
ENDBRANCH   1   2
BRANCH   1   8
ATOM      8  C   UNL     1      32.282   9.594 105.685  1.00  0.00     0.136 C 
ATOM      9  O   UNL     1      31.616   9.321 104.698  1.00  0.00    -0.299 OA
BRANCH   8  10
ATOM     10  C   UNL     1      32.916  10.970 105.824  1.00  0.00     0.064 C 
ATOM     11  C   UNL     1      31.899  11.997 105.289  1.00  0.00     0.017 C 
BRANCH  10  12
ATOM     12  C   UNL     1      34.308  11.076 105.093  1.00  0.00     0.072 C 
ATOM     13  C   UNL     1      34.537  12.466 104.592  1.00  0.00     0.137 C 
ATOM     14  C   UNL     1      35.607  10.821 105.955  1.00  0.00    -0.019 C 
ATOM     15  O   UNL     1      34.027  12.893 103.569  1.00  0.00    -0.299 OA
ATOM     16  C   UNL     1      35.550  13.240 105.340  1.00  0.00     0.080 C 
ATOM     17  C   UNL     1      36.096  12.250 106.377  1.00  0.00     0.007 C 
ATOM     18  C   UNL     1      36.680  10.066 105.085  1.00  0.00     0.008 C 
ATOM     19  C   UNL     1      35.374   9.977 107.233  1.00  0.00     0.012 C 
ATOM     20  C   UNL     1      37.636  12.337 106.616  1.00  0.00     0.001 C 
ATOM     21  C   UNL     1      37.682  10.998 104.394  1.00  0.00     0.005 C 
ATOM     22  C   UNL     1      38.519  11.753 105.455  1.00  0.00     0.003 C 
ATOM     23  C   UNL     1      38.069  13.730 107.102  1.00  0.00     0.031 C 
ATOM     24  C   UNL     1      39.633  12.717 104.871  1.00  0.00    -0.008 C 
ATOM     25  C   UNL     1      39.562  13.889 107.076  1.00  0.00    -0.027 C 
ATOM     26  C   UNL     1      40.304  13.450 106.040  1.00  0.00    -0.065 C 
ATOM     27  C   UNL     1      40.676  11.846 104.092  1.00  0.00     0.014 C 
ATOM     28  C   UNL     1      39.064  13.780 103.898  1.00  0.00     0.016 C 
ATOM     29  C   UNL     1      41.747  13.906 105.954  1.00  0.00     0.063 C 
ATOM     30  C   UNL     1      42.034  12.525 103.883  1.00  0.00     0.033 C 
ATOM     31  C   UNL     1      42.644  12.900 105.230  1.00  0.00     0.118 C 
BRANCH  31  32
ATOM     32  O   UNL     1      43.912  13.461 105.016  1.00  0.00    -0.393 OA
ATOM     33  H   UNL     1      44.533  13.016 105.651  1.00  0.00     0.210 HD
ENDBRANCH  31  32
ENDBRANCH  10  12
ENDBRANCH   8  10
ENDBRANCH   1   8
TORSDOF 8
ENDMDL
MODEL 3
REMARK VINA RESULT:    -3.727      1.850      2.916
REMARK INTER + INTRA:          -5.778
REMARK INTER:                  -5.475
REMARK INTRA:                  -0.303
REMARK UNBOUND:                -0.526
REMARK SMILES C[C@@H](CO)CCC(=O)[C@H](C)[C@H]1C(=O)C[C@@H]2[C@@H]3CC=C4C[C@H](O)CC[C@@]4(C)[C@@H]3CC[C@@]21C
REMARK SMILES IDX 6 1 5 2 2 3 1 4 3 5 4 6 7 8 8 9 9 10 10 11 11 12 12 13 30 14
REMARK SMILES IDX 13 15 14 16 15 17 29 18 31 19 16 20 28 21 27 22 17 23 25 24
REMARK SMILES IDX 18 25 19 26 24 27 26 28 20 29 23 30 21 31 22 32
REMARK H PARENT 4 7 22 33
REMARK Flexibility Score: inf
ROOT
ATOM      1  C   UNL     1      33.181   6.825 108.087  1.00  0.00     0.076 C 
ENDROOT
BRANCH   1   2
ATOM      2  C   UNL     1      32.485   5.510 108.488  1.00  0.00     0.013 C 
BRANCH   2   3
ATOM      3  C   UNL     1      32.199   4.543 107.310  1.00  0.00     0.012 C 
ATOM      4  C   UNL     1      31.319   5.191 106.232  1.00  0.00     0.010 C 
BRANCH   3   5
ATOM      5  C   UNL     1      33.473   3.942 106.694  1.00  0.00     0.159 C 
BRANCH   5   6
ATOM      6  O   UNL     1      33.262   3.640 105.343  1.00  0.00    -0.396 OA
ATOM      7  H   UNL     1      34.161   3.578 104.928  1.00  0.00     0.210 HD
ENDBRANCH   5   6
ENDBRANCH   3   5
ENDBRANCH   2   3
ENDBRANCH   1   2
BRANCH   1   8
ATOM      8  C   UNL     1      32.267   8.009 108.284  1.00  0.00     0.136 C 
ATOM      9  O   UNL     1      31.652   8.112 109.336  1.00  0.00    -0.299 OA
BRANCH   8  10
ATOM     10  C   UNL     1      32.195   9.119 107.245  1.00  0.00     0.064 C 
ATOM     11  C   UNL     1      30.931   8.869 106.397  1.00  0.00     0.017 C 
BRANCH  10  12
ATOM     12  C   UNL     1      33.496   9.209 106.359  1.00  0.00     0.072 C 
ATOM     13  C   UNL     1      33.260  10.070 105.160  1.00  0.00     0.137 C 
ATOM     14  C   UNL     1      34.771   9.885 107.001  1.00  0.00    -0.019 C 
ATOM     15  O   UNL     1      32.674   9.674 104.165  1.00  0.00    -0.299 OA
ATOM     16  C   UNL     1      33.922  11.391 105.200  1.00  0.00     0.080 C 
ATOM     17  C   UNL     1      34.731  11.372 106.503  1.00  0.00     0.007 C 
ATOM     18  C   UNL     1      36.068   9.137 106.515  1.00  0.00     0.008 C 
ATOM     19  C   UNL     1      34.789   9.879 108.550  1.00  0.00     0.012 C 
ATOM     20  C   UNL     1      36.141  12.035 106.407  1.00  0.00     0.001 C 
ATOM     21  C   UNL     1      36.721   9.771 105.281  1.00  0.00     0.005 C 
ATOM     22  C   UNL     1      37.212  11.199 105.618  1.00  0.00     0.003 C 
ATOM     23  C   UNL     1      36.058  13.513 105.991  1.00  0.00     0.031 C 
ATOM     24  C   UNL     1      37.955  11.951 104.438  1.00  0.00    -0.008 C 
ATOM     25  C   UNL     1      37.409  14.069 105.643  1.00  0.00    -0.027 C 
ATOM     26  C   UNL     1      38.294  13.373 104.904  1.00  0.00    -0.065 C 
ATOM     27  C   UNL     1      39.260  11.155 104.094  1.00  0.00     0.014 C 
ATOM     28  C   UNL     1      37.097  12.055 103.152  1.00  0.00     0.016 C 
ATOM     29  C   UNL     1      39.499  14.110 104.356  1.00  0.00     0.063 C 
ATOM     30  C   UNL     1      40.315  11.970 103.339  1.00  0.00     0.033 C 
ATOM     31  C   UNL     1      40.710  13.198 104.154  1.00  0.00     0.118 C 
BRANCH  31  32
ATOM     32  O   UNL     1      41.722  13.891 103.471  1.00  0.00    -0.393 OA
ATOM     33  H   UNL     1      41.633  13.654 102.511  1.00  0.00     0.210 HD
ENDBRANCH  31  32
ENDBRANCH  10  12
ENDBRANCH   8  10
ENDBRANCH   1   8
TORSDOF 8
ENDMDL
MODEL 4
REMARK VINA RESULT:    -3.072      2.273      9.011
REMARK INTER + INTRA:          -4.855
REMARK INTER:                  -4.206
REMARK INTRA:                  -0.649
REMARK UNBOUND:                -0.526
REMARK SMILES C[C@@H](CO)CCC(=O)[C@H](C)[C@H]1C(=O)C[C@@H]2[C@@H]3CC=C4C[C@H](O)CC[C@@]4(C)[C@@H]3CC[C@@]21C
REMARK SMILES IDX 6 1 5 2 2 3 1 4 3 5 4 6 7 8 8 9 9 10 10 11 11 12 12 13 30 14
REMARK SMILES IDX 13 15 14 16 15 17 29 18 31 19 16 20 28 21 27 22 17 23 25 24
REMARK SMILES IDX 18 25 19 26 24 27 26 28 20 29 23 30 21 31 22 32
REMARK H PARENT 4 7 22 33
REMARK Flexibility Score: inf
ROOT
ATOM      1  C   UNL     1      39.789  11.636 106.644  1.00  0.00     0.076 C 
ENDROOT
BRANCH   1   2
ATOM      2  C   UNL     1      40.601  11.500 105.342  1.00  0.00     0.013 C 
BRANCH   2   3
ATOM      3  C   UNL     1      42.116  11.247 105.547  1.00  0.00     0.012 C 
ATOM      4  C   UNL     1      42.957  12.495 105.239  1.00  0.00     0.010 C 
BRANCH   3   5
ATOM      5  C   UNL     1      42.456  10.683 106.936  1.00  0.00     0.159 C 
BRANCH   5   6
ATOM      6  O   UNL     1      43.836  10.475 107.050  1.00  0.00    -0.396 OA
ATOM      7  H   UNL     1      44.171  10.319 106.130  1.00  0.00     0.210 HD
ENDBRANCH   5   6
ENDBRANCH   3   5
ENDBRANCH   2   3
ENDBRANCH   1   2
BRANCH   1   8
ATOM      8  C   UNL     1      39.000  12.923 106.665  1.00  0.00     0.136 C 
ATOM      9  O   UNL     1      39.604  13.985 106.635  1.00  0.00    -0.299 OA
BRANCH   8  10
ATOM     10  C   UNL     1      37.480  12.905 106.607  1.00  0.00     0.064 C 
ATOM     11  C   UNL     1      36.978  14.125 107.406  1.00  0.00     0.017 C 
BRANCH  10  12
ATOM     12  C   UNL     1      36.865  11.554 107.138  1.00  0.00     0.072 C 
ATOM     13  C   UNL     1      35.717  11.821 108.057  1.00  0.00     0.137 C 
ATOM     14  C   UNL     1      36.215  10.580 106.077  1.00  0.00    -0.019 C 
ATOM     15  O   UNL     1      35.865  12.151 109.223  1.00  0.00    -0.299 OA
ATOM     16  C   UNL     1      34.384  11.508 107.499  1.00  0.00     0.080 C 
ATOM     17  C   UNL     1      34.682  10.907 106.119  1.00  0.00     0.007 C 
ATOM     18  C   UNL     1      36.509   9.087 106.479  1.00  0.00     0.008 C 
ATOM     19  C   UNL     1      36.726  10.777 104.628  1.00  0.00     0.012 C 
ATOM     20  C   UNL     1      33.776   9.699 105.723  1.00  0.00     0.001 C 
ATOM     21  C   UNL     1      35.397   8.441 107.312  1.00  0.00     0.005 C 
ATOM     22  C   UNL     1      34.094   8.359 106.480  1.00  0.00     0.003 C 
ATOM     23  C   UNL     1      32.286  10.075 105.701  1.00  0.00     0.031 C 
ATOM     24  C   UNL     1      32.873   7.662 107.211  1.00  0.00    -0.008 C 
ATOM     25  C   UNL     1      31.407   8.863 105.583  1.00  0.00    -0.027 C 
ATOM     26  C   UNL     1      31.646   7.743 106.292  1.00  0.00    -0.065 C 
ATOM     27  C   UNL     1      33.256   6.169 107.492  1.00  0.00     0.014 C 
ATOM     28  C   UNL     1      32.511   8.332 108.560  1.00  0.00     0.016 C 
ATOM     29  C   UNL     1      30.561   6.685 106.340  1.00  0.00     0.063 C 
ATOM     30  C   UNL     1      32.059   5.247 107.742  1.00  0.00     0.033 C 
ATOM     31  C   UNL     1      31.117   5.274 106.542  1.00  0.00     0.118 C 
BRANCH  31  32
ATOM     32  O   UNL     1      30.064   4.375 106.769  1.00  0.00    -0.393 OA
ATOM     33  H   UNL     1      30.464   3.564 107.180  1.00  0.00     0.210 HD
ENDBRANCH  31  32
ENDBRANCH  10  12
ENDBRANCH   8  10
ENDBRANCH   1   8
TORSDOF 8
ENDMDL
MODEL 5
REMARK VINA RESULT:    -2.930      2.228      8.958
REMARK INTER + INTRA:          -4.654
REMARK INTER:                  -3.755
REMARK INTRA:                  -0.899
REMARK UNBOUND:                -0.526
REMARK SMILES C[C@@H](CO)CCC(=O)[C@H](C)[C@H]1C(=O)C[C@@H]2[C@@H]3CC=C4C[C@H](O)CC[C@@]4(C)[C@@H]3CC[C@@]21C
REMARK SMILES IDX 6 1 5 2 2 3 1 4 3 5 4 6 7 8 8 9 9 10 10 11 11 12 12 13 30 14
REMARK SMILES IDX 13 15 14 16 15 17 29 18 31 19 16 20 28 21 27 22 17 23 25 24
REMARK SMILES IDX 18 25 19 26 24 27 26 28 20 29 23 30 21 31 22 32
REMARK H PARENT 4 7 22 33
REMARK Flexibility Score: inf
ROOT
ATOM      1  C   UNL     1      39.964  11.525 106.493  1.00  0.00     0.076 C 
ENDROOT
BRANCH   1   2
ATOM      2  C   UNL     1      41.432  11.727 106.073  1.00  0.00     0.013 C 
BRANCH   2   3
ATOM      3  C   UNL     1      41.669  11.759 104.542  1.00  0.00     0.012 C 
ATOM      4  C   UNL     1      40.516  11.108 103.765  1.00  0.00     0.010 C 
BRANCH   3   5
ATOM      5  C   UNL     1      41.971  13.167 104.003  1.00  0.00     0.159 C 
BRANCH   5   6
ATOM      6  O   UNL     1      42.440  13.991 105.034  1.00  0.00    -0.396 OA
ATOM      7  H   UNL     1      42.403  14.920 104.687  1.00  0.00     0.210 HD
ENDBRANCH   5   6
ENDBRANCH   3   5
ENDBRANCH   2   3
ENDBRANCH   1   2
BRANCH   1   8
ATOM      8  C   UNL     1      39.249  12.847 106.635  1.00  0.00     0.136 C 
ATOM      9  O   UNL     1      39.907  13.876 106.632  1.00  0.00    -0.299 OA
BRANCH   8  10
ATOM     10  C   UNL     1      37.729  12.910 106.665  1.00  0.00     0.064 C 
ATOM     11  C   UNL     1      37.340  14.125 107.532  1.00  0.00     0.017 C 
BRANCH  10  12
ATOM     12  C   UNL     1      37.073  11.575 107.187  1.00  0.00     0.072 C 
ATOM     13  C   UNL     1      35.935  11.870 108.110  1.00  0.00     0.137 C 
ATOM     14  C   UNL     1      36.392  10.631 106.119  1.00  0.00    -0.019 C 
ATOM     15  O   UNL     1      36.095  12.185 109.278  1.00  0.00    -0.299 OA
ATOM     16  C   UNL     1      34.593  11.604 107.552  1.00  0.00     0.080 C 
ATOM     17  C   UNL     1      34.869  11.005 106.166  1.00  0.00     0.007 C 
ATOM     18  C   UNL     1      36.639   9.126 106.508  1.00  0.00     0.008 C 
ATOM     19  C   UNL     1      36.907  10.823 104.671  1.00  0.00     0.012 C 
ATOM     20  C   UNL     1      33.925   9.829 105.762  1.00  0.00     0.001 C 
ATOM     21  C   UNL     1      35.508   8.508 107.338  1.00  0.00     0.005 C 
ATOM     22  C   UNL     1      34.202   8.473 106.508  1.00  0.00     0.003 C 
ATOM     23  C   UNL     1      32.448  10.252 105.746  1.00  0.00     0.031 C 
ATOM     24  C   UNL     1      32.961   7.809 107.235  1.00  0.00    -0.008 C 
ATOM     25  C   UNL     1      31.532   9.069 105.620  1.00  0.00    -0.027 C 
ATOM     26  C   UNL     1      31.736   7.936 106.319  1.00  0.00    -0.065 C 
ATOM     27  C   UNL     1      33.298   6.303 107.503  1.00  0.00     0.014 C 
ATOM     28  C   UNL     1      32.623   8.480 108.590  1.00  0.00     0.016 C 
ATOM     29  C   UNL     1      30.619   6.913 106.360  1.00  0.00     0.063 C 
ATOM     30  C   UNL     1      32.073   5.417 107.747  1.00  0.00     0.033 C 
ATOM     31  C   UNL     1      31.130   5.484 106.550  1.00  0.00     0.118 C 
BRANCH  31  32
ATOM     32  O   UNL     1      30.050   4.616 106.771  1.00  0.00    -0.393 OA
ATOM     33  H   UNL     1      30.436   3.722 106.968  1.00  0.00     0.210 HD
ENDBRANCH  31  32
ENDBRANCH  10  12
ENDBRANCH   8  10
ENDBRANCH   1   8
TORSDOF 8
ENDMDL
