MODEL 1
REMARK VINA RESULT:    -4.153      0.000      0.000
REMARK INTER + INTRA:          -4.939
REMARK INTER:                  -4.759
REMARK INTRA:                  -0.180
REMARK UNBOUND:                -0.180
REMARK SMILES CC=Cc1ccc(O)c(OC)c1
REMARK SMILES IDX 4 1 12 2 9 3 7 4 6 5 5 6 3 7 1 8 2 9 10 10 11 11 8 12
REMARK H PARENT 8 13
REMARK Flexibility Score: inf
ROOT
ATOM      1  C   UNL     1       7.696 -33.383  15.003  1.00  0.00    -0.022 A 
ATOM      2  C   UNL     1       8.065 -32.556  16.074  1.00  0.00     0.058 A 
ATOM      3  C   UNL     1       7.991 -33.025  17.402  1.00  0.00     0.161 A 
ATOM      4  C   UNL     1       7.561 -34.343  17.641  1.00  0.00     0.157 A 
ATOM      5  C   UNL     1       7.222 -35.174  16.570  1.00  0.00     0.051 A 
ATOM      6  C   UNL     1       7.297 -34.704  15.257  1.00  0.00     0.012 A 
ENDROOT
BRANCH   1   7
ATOM      7  C   UNL     1       7.813 -32.868  13.622  1.00  0.00     0.003 C 
ATOM      8  C   UNL     1      10.285 -33.263  13.457  1.00  0.00     0.035 C 
ATOM      9  C   UNL     1       8.961 -32.791  12.936  1.00  0.00    -0.030 C 
ENDBRANCH   1   7
BRANCH   3  10
ATOM     10  O   UNL     1       8.335 -32.215  18.496  1.00  0.00    -0.493 OA
ATOM     11  C   UNL     1       9.552 -31.483  18.610  1.00  0.00     0.278 C 
ENDBRANCH   3  10
BRANCH   4  12
ATOM     12  O   UNL     1       7.469 -34.848  18.939  1.00  0.00    -0.504 OA
ATOM     13  H   UNL     1       7.688 -35.812  19.159  1.00  0.00     0.293 HD
ENDBRANCH   4  12
TORSDOF 3
ENDMDL
MODEL 2
REMARK VINA RESULT:    -4.107     15.307     17.218
REMARK INTER + INTRA:          -4.887
REMARK INTER:                  -4.773
REMARK INTRA:                  -0.114
REMARK UNBOUND:                -0.180
REMARK SMILES CC=Cc1ccc(O)c(OC)c1
REMARK SMILES IDX 4 1 12 2 9 3 7 4 6 5 5 6 3 7 1 8 2 9 10 10 11 11 8 12
REMARK H PARENT 8 13
REMARK Flexibility Score: inf
ROOT
ATOM      1  C   UNL     1      15.312 -37.082  31.649  1.00  0.00    -0.022 A 
ATOM      2  C   UNL     1      15.932 -37.881  30.678  1.00  0.00     0.058 A 
ATOM      3  C   UNL     1      16.759 -37.304  29.693  1.00  0.00     0.161 A 
ATOM      4  C   UNL     1      16.974 -35.913  29.706  1.00  0.00     0.157 A 
ATOM      5  C   UNL     1      16.378 -35.123  30.693  1.00  0.00     0.051 A 
ATOM      6  C   UNL     1      15.559 -35.701  31.665  1.00  0.00     0.012 A 
ENDROOT
BRANCH   1   7
ATOM      7  C   UNL     1      14.474 -37.724  32.683  1.00  0.00     0.003 C 
ATOM      8  C   UNL     1      12.415 -37.828  31.252  1.00  0.00     0.035 C 
ATOM      9  C   UNL     1      13.181 -38.039  32.524  1.00  0.00    -0.030 C 
ENDBRANCH   1   7
BRANCH   3  10
ATOM     10  O   UNL     1      17.378 -38.075  28.697  1.00  0.00    -0.493 OA
ATOM     11  C   UNL     1      16.961 -38.124  27.336  1.00  0.00     0.278 C 
ENDBRANCH   3  10
BRANCH   4  12
ATOM     12  O   UNL     1      17.782 -35.299  28.749  1.00  0.00    -0.504 OA
ATOM     13  H   UNL     1      18.358 -34.494  28.967  1.00  0.00     0.293 HD
ENDBRANCH   4  12
TORSDOF 3
ENDMDL
MODEL 3
REMARK VINA RESULT:    -3.808      1.111      2.879
REMARK INTER + INTRA:          -4.544
REMARK INTER:                  -4.441
REMARK INTRA:                  -0.103
REMARK UNBOUND:                -0.180
REMARK SMILES CC=Cc1ccc(O)c(OC)c1
REMARK SMILES IDX 4 1 12 2 9 3 7 4 6 5 5 6 3 7 1 8 2 9 10 10 11 11 8 12
REMARK H PARENT 8 13
REMARK Flexibility Score: inf
ROOT
ATOM      1  C   UNL     1       8.044 -33.324  14.871  1.00  0.00    -0.022 A 
ATOM      2  C   UNL     1       7.494 -34.592  15.108  1.00  0.00     0.058 A 
ATOM      3  C   UNL     1       7.308 -35.060  16.425  1.00  0.00     0.161 A 
ATOM      4  C   UNL     1       7.662 -34.230  17.504  1.00  0.00     0.157 A 
ATOM      5  C   UNL     1       8.182 -32.955  17.266  1.00  0.00     0.051 A 
ATOM      6  C   UNL     1       8.364 -32.497  15.959  1.00  0.00     0.012 A 
ENDROOT
BRANCH   1   7
ATOM      7  C   UNL     1       8.200 -32.854  13.479  1.00  0.00     0.003 C 
ATOM      8  C   UNL     1      10.707 -32.809  13.549  1.00  0.00     0.035 C 
ATOM      9  C   UNL     1       9.377 -32.602  12.890  1.00  0.00    -0.030 C 
ENDBRANCH   1   7
BRANCH   3  10
ATOM     10  O   UNL     1       6.778 -36.332  16.693  1.00  0.00    -0.493 OA
ATOM     11  C   UNL     1       5.939 -37.062  15.804  1.00  0.00     0.278 C 
ENDBRANCH   3  10
BRANCH   4  12
ATOM     12  O   UNL     1       7.497 -34.653  18.824  1.00  0.00    -0.504 OA
ATOM     13  H   UNL     1       7.677 -34.042  19.612  1.00  0.00     0.293 HD
ENDBRANCH   4  12
TORSDOF 3
ENDMDL
MODEL 4
REMARK VINA RESULT:    -3.737      1.844      3.188
REMARK INTER + INTRA:          -4.463
REMARK INTER:                  -4.215
REMARK INTRA:                  -0.248
REMARK UNBOUND:                -0.180
REMARK SMILES CC=Cc1ccc(O)c(OC)c1
REMARK SMILES IDX 4 1 12 2 9 3 7 4 6 5 5 6 3 7 1 8 2 9 10 10 11 11 8 12
REMARK H PARENT 8 13
REMARK Flexibility Score: inf
ROOT
ATOM      1  C   UNL     1       7.238 -34.246  13.951  1.00  0.00    -0.022 A 
ATOM      2  C   UNL     1       6.767 -33.826  15.203  1.00  0.00     0.058 A 
ATOM      3  C   UNL     1       7.527 -32.944  15.998  1.00  0.00     0.161 A 
ATOM      4  C   UNL     1       8.759 -32.470  15.510  1.00  0.00     0.157 A 
ATOM      5  C   UNL     1       9.212 -32.867  14.249  1.00  0.00     0.051 A 
ATOM      6  C   UNL     1       8.454 -33.742  13.467  1.00  0.00     0.012 A 
ENDROOT
BRANCH   1   7
ATOM      7  C   UNL     1       6.402 -35.150  13.133  1.00  0.00     0.003 C 
ATOM      8  C   UNL     1       7.479 -37.254  13.975  1.00  0.00     0.035 C 
ATOM      9  C   UNL     1       6.516 -36.485  13.120  1.00  0.00    -0.030 C 
ENDBRANCH   1   7
BRANCH   3  10
ATOM     10  O   UNL     1       7.092 -32.521  17.264  1.00  0.00    -0.493 OA
ATOM     11  C   UNL     1       7.382 -33.194  18.485  1.00  0.00     0.278 C 
ENDBRANCH   3  10
BRANCH   4  12
ATOM     12  O   UNL     1       9.546 -31.598  16.263  1.00  0.00    -0.504 OA
ATOM     13  H   UNL     1      10.420 -31.889  16.685  1.00  0.00     0.293 HD
ENDBRANCH   4  12
TORSDOF 3
ENDMDL
MODEL 5
REMARK VINA RESULT:    -3.720      1.415      2.863
REMARK INTER + INTRA:          -4.444
REMARK INTER:                  -4.249
REMARK INTRA:                  -0.194
REMARK UNBOUND:                -0.180
REMARK SMILES CC=Cc1ccc(O)c(OC)c1
REMARK SMILES IDX 4 1 12 2 9 3 7 4 6 5 5 6 3 7 1 8 2 9 10 10 11 11 8 12
REMARK H PARENT 8 13
REMARK Flexibility Score: inf
ROOT
ATOM      1  C   UNL     1       8.502 -33.977  15.608  1.00  0.00    -0.022 A 
ATOM      2  C   UNL     1       8.072 -35.129  16.281  1.00  0.00     0.058 A 
ATOM      3  C   UNL     1       7.666 -35.063  17.630  1.00  0.00     0.161 A 
ATOM      4  C   UNL     1       7.679 -33.821  18.291  1.00  0.00     0.157 A 
ATOM      5  C   UNL     1       8.080 -32.670  17.608  1.00  0.00     0.051 A 
ATOM      6  C   UNL     1       8.481 -32.742  16.273  1.00  0.00     0.012 A 
ENDROOT
BRANCH   1   7
ATOM      7  C   UNL     1       8.894 -34.077  14.187  1.00  0.00     0.003 C 
ATOM      8  C   UNL     1       6.571 -33.739  13.302  1.00  0.00     0.035 C 
ATOM      9  C   UNL     1       8.041 -33.994  13.157  1.00  0.00    -0.030 C 
ENDBRANCH   1   7
BRANCH   3  10
ATOM     10  O   UNL     1       7.248 -36.203  18.337  1.00  0.00    -0.493 OA
ATOM     11  C   UNL     1       8.088 -36.984  19.181  1.00  0.00     0.278 C 
ENDBRANCH   3  10
BRANCH   4  12
ATOM     12  O   UNL     1       7.288 -33.711  19.626  1.00  0.00    -0.504 OA
ATOM     13  H   UNL     1       7.657 -32.991  20.237  1.00  0.00     0.293 HD
ENDBRANCH   4  12
TORSDOF 3
ENDMDL
MODEL 6
REMARK VINA RESULT:    -3.635      1.919      4.044
REMARK INTER + INTRA:          -4.346
REMARK INTER:                  -4.197
REMARK INTRA:                  -0.149
REMARK UNBOUND:                -0.180
REMARK SMILES CC=Cc1ccc(O)c(OC)c1
REMARK SMILES IDX 4 1 12 2 9 3 7 4 6 5 5 6 3 7 1 8 2 9 10 10 11 11 8 12
REMARK H PARENT 8 13
REMARK Flexibility Score: inf
ROOT
ATOM      1  C   UNL     1       6.843 -34.458  15.810  1.00  0.00    -0.022 A 
ATOM      2  C   UNL     1       7.898 -34.222  14.917  1.00  0.00     0.058 A 
ATOM      3  C   UNL     1       8.847 -33.211  15.177  1.00  0.00     0.161 A 
ATOM      4  C   UNL     1       8.734 -32.452  16.356  1.00  0.00     0.157 A 
ATOM      5  C   UNL     1       7.698 -32.709  17.258  1.00  0.00     0.051 A 
ATOM      6  C   UNL     1       6.762 -33.711  16.994  1.00  0.00     0.012 A 
ENDROOT
BRANCH   1   7
ATOM      7  C   UNL     1       5.883 -35.544  15.520  1.00  0.00     0.003 C 
ATOM      8  C   UNL     1       6.812 -37.113  17.243  1.00  0.00     0.035 C 
ATOM      9  C   UNL     1       5.875 -36.734  16.135  1.00  0.00    -0.030 C 
ENDBRANCH   1   7
BRANCH   3  10
ATOM     10  O   UNL     1       9.903 -32.938  14.293  1.00  0.00    -0.493 OA
ATOM     11  C   UNL     1       9.739 -32.463  12.960  1.00  0.00     0.278 C 
ENDBRANCH   3  10
BRANCH   4  12
ATOM     12  O   UNL     1       9.648 -31.440  16.651  1.00  0.00    -0.504 OA
ATOM     13  H   UNL     1      10.634 -31.523  16.432  1.00  0.00     0.293 HD
ENDBRANCH   4  12
TORSDOF 3
ENDMDL
MODEL 7
REMARK VINA RESULT:    -3.360      2.763      4.201
REMARK INTER + INTRA:          -4.031
REMARK INTER:                  -3.946
REMARK INTRA:                  -0.085
REMARK UNBOUND:                -0.180
REMARK SMILES CC=Cc1ccc(O)c(OC)c1
REMARK SMILES IDX 4 1 12 2 9 3 7 4 6 5 5 6 3 7 1 8 2 9 10 10 11 11 8 12
REMARK H PARENT 8 13
REMARK Flexibility Score: inf
ROOT
ATOM      1  C   UNL     1       8.019 -33.500  15.900  1.00  0.00    -0.022 A 
ATOM      2  C   UNL     1       8.837 -32.631  15.164  1.00  0.00     0.058 A 
ATOM      3  C   UNL     1       9.746 -33.135  14.211  1.00  0.00     0.161 A 
ATOM      4  C   UNL     1       9.810 -34.523  13.991  1.00  0.00     0.157 A 
ATOM      5  C   UNL     1       8.972 -35.384  14.705  1.00  0.00     0.051 A 
ATOM      6  C   UNL     1       8.075 -34.879  15.647  1.00  0.00     0.012 A 
ENDROOT
BRANCH   1   7
ATOM      7  C   UNL     1       7.058 -32.935  16.871  1.00  0.00     0.003 C 
ATOM      8  C   UNL     1       8.815 -32.185  18.497  1.00  0.00     0.035 C 
ATOM      9  C   UNL     1       7.400 -32.369  18.036  1.00  0.00    -0.030 C 
ENDBRANCH   1   7
BRANCH   3  10
ATOM     10  O   UNL     1      10.592 -32.291  13.472  1.00  0.00    -0.493 OA
ATOM     11  C   UNL     1      11.789 -31.706  13.975  1.00  0.00     0.278 C 
ENDBRANCH   3  10
BRANCH   4  12
ATOM     12  O   UNL     1      10.697 -35.065  13.060  1.00  0.00    -0.504 OA
ATOM     13  H   UNL     1      10.385 -35.427  12.166  1.00  0.00     0.293 HD
ENDBRANCH   4  12
TORSDOF 3
ENDMDL
MODEL 8
REMARK VINA RESULT:    -3.182      3.137      5.036
REMARK INTER + INTRA:          -3.827
REMARK INTER:                  -3.707
REMARK INTRA:                  -0.120
REMARK UNBOUND:                -0.180
REMARK SMILES CC=Cc1ccc(O)c(OC)c1
REMARK SMILES IDX 4 1 12 2 9 3 7 4 6 5 5 6 3 7 1 8 2 9 10 10 11 11 8 12
REMARK H PARENT 8 13
REMARK Flexibility Score: inf
ROOT
ATOM      1  C   UNL     1       8.224 -33.507  14.754  1.00  0.00    -0.022 A 
ATOM      2  C   UNL     1       8.503 -34.826  14.366  1.00  0.00     0.058 A 
ATOM      3  C   UNL     1       9.720 -35.145  13.729  1.00  0.00     0.161 A 
ATOM      4  C   UNL     1      10.664 -34.126  13.504  1.00  0.00     0.157 A 
ATOM      5  C   UNL     1      10.396 -32.819  13.919  1.00  0.00     0.051 A 
ATOM      6  C   UNL     1       9.188 -32.510  14.548  1.00  0.00     0.012 A 
ENDROOT
BRANCH   1   7
ATOM      7  C   UNL     1       6.950 -33.214  15.444  1.00  0.00     0.003 C 
ATOM      8  C   UNL     1       7.999 -32.909  17.703  1.00  0.00     0.035 C 
ATOM      9  C   UNL     1       6.837 -32.968  16.756  1.00  0.00    -0.030 C 
ENDBRANCH   1   7
BRANCH   3  10
ATOM     10  O   UNL     1      10.020 -36.451  13.312  1.00  0.00    -0.493 OA
ATOM     11  C   UNL     1       9.069 -37.506  13.212  1.00  0.00     0.278 C 
ENDBRANCH   3  10
BRANCH   4  12
ATOM     12  O   UNL     1      11.880 -34.396  12.875  1.00  0.00    -0.504 OA
ATOM     13  H   UNL     1      12.742 -34.512  13.395  1.00  0.00     0.293 HD
ENDBRANCH   4  12
TORSDOF 3
ENDMDL
MODEL 9
REMARK VINA RESULT:    -3.056      2.256      3.999
REMARK INTER + INTRA:          -3.683
REMARK INTER:                  -3.715
REMARK INTRA:                   0.032
REMARK UNBOUND:                -0.180
REMARK SMILES CC=Cc1ccc(O)c(OC)c1
REMARK SMILES IDX 4 1 12 2 9 3 7 4 6 5 5 6 3 7 1 8 2 9 10 10 11 11 8 12
REMARK H PARENT 8 13
REMARK Flexibility Score: inf
ROOT
ATOM      1  C   UNL     1       7.613 -33.404  17.335  1.00  0.00    -0.022 A 
ATOM      2  C   UNL     1       7.434 -32.827  16.070  1.00  0.00     0.058 A 
ATOM      3  C   UNL     1       7.221 -33.636  14.935  1.00  0.00     0.161 A 
ATOM      4  C   UNL     1       7.172 -35.034  15.088  1.00  0.00     0.157 A 
ATOM      5  C   UNL     1       7.322 -35.604  16.355  1.00  0.00     0.051 A 
ATOM      6  C   UNL     1       7.532 -34.797  17.475  1.00  0.00     0.012 A 
ENDROOT
BRANCH   1   7
ATOM      7  C   UNL     1       7.806 -32.524  18.507  1.00  0.00     0.003 C 
ATOM      8  C   UNL     1       9.922 -31.486  17.648  1.00  0.00     0.035 C 
ATOM      9  C   UNL     1       8.839 -31.685  18.665  1.00  0.00    -0.030 C 
ENDBRANCH   1   7
BRANCH   3  10
ATOM     10  O   UNL     1       7.058 -33.089  13.652  1.00  0.00    -0.493 OA
ATOM     11  C   UNL     1       8.107 -32.521  12.875  1.00  0.00     0.278 C 
ENDBRANCH   3  10
BRANCH   4  12
ATOM     12  O   UNL     1       6.967 -35.873  13.993  1.00  0.00    -0.504 OA
ATOM     13  H   UNL     1       6.039 -36.122  13.670  1.00  0.00     0.293 HD
ENDBRANCH   4  12
TORSDOF 3
ENDMDL
