MODEL 1
REMARK VINA RESULT:    -5.063      0.000      0.000
REMARK INTER + INTRA:          -6.111
REMARK INTER:                  -5.803
REMARK INTRA:                  -0.309
REMARK UNBOUND:                -0.309
REMARK SMILES O=C1C[C@H](c2ccc(O)cc2)Oc2cc(O)cc(O)c21
REMARK SMILES IDX 3 1 4 2 12 3 13 4 14 5 15 6 17 7 18 8 20 9 2 10 1 11 5 12
REMARK SMILES IDX 6 13 11 14 7 15 10 16 8 17 9 18 19 20 16 22
REMARK H PARENT 9 19 19 21 16 23
REMARK Flexibility Score: inf
ROOT
ATOM      1  C   UNL     1      41.617 -30.434  12.713  1.00  0.00     0.131 C 
ATOM      2  C   UNL     1      40.968 -31.646  12.033  1.00  0.00     0.211 C 
ATOM      3  O   UNL     1      41.609 -32.847  12.456  1.00  0.00    -0.484 OA
ATOM      4  C   UNL     1      43.003 -32.955  12.521  1.00  0.00     0.138 A 
ATOM      5  C   UNL     1      43.577 -34.223  12.625  1.00  0.00     0.093 A 
ATOM      6  C   UNL     1      44.964 -34.368  12.666  1.00  0.00     0.123 A 
ATOM      7  C   UNL     1      45.780 -33.239  12.584  1.00  0.00     0.093 A 
ATOM      8  C   UNL     1      45.228 -31.957  12.473  1.00  0.00     0.133 A 
ATOM      9  C   UNL     1      43.813 -31.798  12.490  1.00  0.00     0.102 A 
ATOM     10  C   UNL     1      43.113 -30.481  12.562  1.00  0.00     0.174 C 
ATOM     11  O   UNL     1      43.746 -29.395  12.610  1.00  0.00    -0.294 OA
ENDROOT
BRANCH   2  12
ATOM     12  C   UNL     1      39.491 -31.707  12.343  1.00  0.00    -0.007 A 
ATOM     13  C   UNL     1      38.927 -32.882  12.865  1.00  0.00     0.011 A 
ATOM     14  C   UNL     1      38.655 -30.612  12.060  1.00  0.00     0.011 A 
ATOM     15  C   UNL     1      37.555 -32.953  13.125  1.00  0.00     0.046 A 
ATOM     16  C   UNL     1      37.284 -30.685  12.322  1.00  0.00     0.046 A 
ATOM     17  C   UNL     1      36.730 -31.856  12.856  1.00  0.00     0.115 A 
BRANCH  17  18
ATOM     18  O   UNL     1      35.365 -31.941  13.120  1.00  0.00    -0.508 OA
ATOM     19  H   UNL     1      34.675 -31.661  12.433  1.00  0.00     0.293 HD
ENDBRANCH  17  18
ENDBRANCH   2  12
BRANCH   8  20
ATOM     20  O   UNL     1      46.125 -30.895  12.331  1.00  0.00    -0.507 OA
ATOM     21  H   UNL     1      46.945 -30.759  12.903  1.00  0.00     0.293 HD
ENDBRANCH   8  20
BRANCH   6  22
ATOM     22  O   UNL     1      45.545 -35.630  12.775  1.00  0.00    -0.508 OA
ATOM     23  H   UNL     1      44.994 -36.476  12.681  1.00  0.00     0.293 HD
ENDBRANCH   6  22
TORSDOF 4
ENDMDL
MODEL 2
REMARK VINA RESULT:    -4.636      1.606      1.642
REMARK INTER + INTRA:          -5.622
REMARK INTER:                  -5.313
REMARK INTRA:                  -0.309
REMARK UNBOUND:                -0.309
REMARK SMILES O=C1C[C@H](c2ccc(O)cc2)Oc2cc(O)cc(O)c21
REMARK SMILES IDX 3 1 4 2 12 3 13 4 14 5 15 6 17 7 18 8 20 9 2 10 1 11 5 12
REMARK SMILES IDX 6 13 11 14 7 15 10 16 8 17 9 18 19 20 16 22
REMARK H PARENT 9 19 19 21 16 23
REMARK Flexibility Score: inf
ROOT
ATOM      1  C   UNL     1      41.009 -30.511  10.576  1.00  0.00     0.131 C 
ATOM      2  C   UNL     1      40.265 -31.811  10.906  1.00  0.00     0.211 C 
ATOM      3  O   UNL     1      41.030 -32.594  11.821  1.00  0.00    -0.484 OA
ATOM      4  C   UNL     1      42.404 -32.794  11.650  1.00  0.00     0.138 A 
ATOM      5  C   UNL     1      43.032 -33.811  12.372  1.00  0.00     0.093 A 
ATOM      6  C   UNL     1      44.396 -34.054  12.205  1.00  0.00     0.123 A 
ATOM      7  C   UNL     1      45.130 -33.288  11.299  1.00  0.00     0.093 A 
ATOM      8  C   UNL     1      44.521 -32.266  10.559  1.00  0.00     0.133 A 
ATOM      9  C   UNL     1      43.143 -31.974  10.768  1.00  0.00     0.102 A 
ATOM     10  C   UNL     1      42.431 -30.801  10.180  1.00  0.00     0.174 C 
ATOM     11  O   UNL     1      43.018 -29.973   9.438  1.00  0.00    -0.294 OA
ENDROOT
BRANCH   2  12
ATOM     12  C   UNL     1      38.903 -31.516  11.486  1.00  0.00    -0.007 A 
ATOM     13  C   UNL     1      38.417 -32.268  12.568  1.00  0.00     0.011 A 
ATOM     14  C   UNL     1      38.082 -30.527  10.915  1.00  0.00     0.011 A 
ATOM     15  C   UNL     1      37.143 -32.018  13.087  1.00  0.00     0.046 A 
ATOM     16  C   UNL     1      36.809 -30.278  11.438  1.00  0.00     0.046 A 
ATOM     17  C   UNL     1      36.337 -31.023  12.526  1.00  0.00     0.115 A 
BRANCH  17  18
ATOM     18  O   UNL     1      35.070 -30.785  13.055  1.00  0.00    -0.508 OA
ATOM     19  H   UNL     1      34.940 -30.211  13.879  1.00  0.00     0.293 HD
ENDBRANCH  17  18
ENDBRANCH   2  12
BRANCH   8  20
ATOM     20  O   UNL     1      45.323 -31.598   9.631  1.00  0.00    -0.507 OA
ATOM     21  H   UNL     1      45.335 -30.597   9.502  1.00  0.00     0.293 HD
ENDBRANCH   8  20
BRANCH   6  22
ATOM     22  O   UNL     1      45.031 -35.064  12.926  1.00  0.00    -0.508 OA
ATOM     23  H   UNL     1      44.504 -35.757  13.443  1.00  0.00     0.293 HD
ENDBRANCH   6  22
TORSDOF 4
ENDMDL
MODEL 3
REMARK VINA RESULT:    -4.446      2.980      7.544
REMARK INTER + INTRA:          -5.404
REMARK INTER:                  -5.108
REMARK INTRA:                  -0.297
REMARK UNBOUND:                -0.309
REMARK SMILES O=C1C[C@H](c2ccc(O)cc2)Oc2cc(O)cc(O)c21
REMARK SMILES IDX 3 1 4 2 12 3 13 4 14 5 15 6 17 7 18 8 20 9 2 10 1 11 5 12
REMARK SMILES IDX 6 13 11 14 7 15 10 16 8 17 9 18 19 20 16 22
REMARK H PARENT 9 19 19 21 16 23
REMARK Flexibility Score: inf
ROOT
ATOM      1  C   UNL     1      39.544 -30.132  11.905  1.00  0.00     0.131 C 
ATOM      2  C   UNL     1      39.771 -31.478  11.207  1.00  0.00     0.211 C 
ATOM      3  O   UNL     1      39.269 -31.429   9.873  1.00  0.00    -0.484 OA
ATOM      4  C   UNL     1      38.018 -30.878   9.576  1.00  0.00     0.138 A 
ATOM      5  C   UNL     1      37.443 -31.141   8.331  1.00  0.00     0.093 A 
ATOM      6  C   UNL     1      36.185 -30.628   8.013  1.00  0.00     0.123 A 
ATOM      7  C   UNL     1      35.491 -29.864   8.952  1.00  0.00     0.093 A 
ATOM      8  C   UNL     1      36.044 -29.593  10.210  1.00  0.00     0.133 A 
ATOM      9  C   UNL     1      37.352 -30.063  10.519  1.00  0.00     0.102 A 
ATOM     10  C   UNL     1      38.116 -29.687  11.745  1.00  0.00     0.174 C 
ATOM     11  O   UNL     1      37.639 -28.911  12.612  1.00  0.00    -0.294 OA
ENDROOT
BRANCH   2  12
ATOM     12  C   UNL     1      41.237 -31.838  11.198  1.00  0.00    -0.007 A 
ATOM     13  C   UNL     1      42.062 -31.416  10.143  1.00  0.00     0.011 A 
ATOM     14  C   UNL     1      41.781 -32.644  12.213  1.00  0.00     0.011 A 
ATOM     15  C   UNL     1      43.414 -31.772  10.116  1.00  0.00     0.046 A 
ATOM     16  C   UNL     1      43.134 -32.999  12.185  1.00  0.00     0.046 A 
ATOM     17  C   UNL     1      43.954 -32.562  11.136  1.00  0.00     0.115 A 
BRANCH  17  18
ATOM     18  O   UNL     1      45.303 -32.909  11.097  1.00  0.00    -0.508 OA
ATOM     19  H   UNL     1      45.727 -33.289  10.259  1.00  0.00     0.293 HD
ENDBRANCH  17  18
ENDBRANCH   2  12
BRANCH   8  20
ATOM     20  O   UNL     1      35.247 -28.875  11.106  1.00  0.00    -0.507 OA
ATOM     21  H   UNL     1      34.322 -29.152  11.398  1.00  0.00     0.293 HD
ENDBRANCH   8  20
BRANCH   6  22
ATOM     22  O   UNL     1      35.607 -30.881   6.770  1.00  0.00    -0.508 OA
ATOM     23  H   UNL     1      36.103 -31.394   6.051  1.00  0.00     0.293 HD
ENDBRANCH   6  22
TORSDOF 4
ENDMDL
MODEL 4
REMARK VINA RESULT:    -4.316      2.750      4.094
REMARK INTER + INTRA:          -5.255
REMARK INTER:                  -4.951
REMARK INTRA:                  -0.304
REMARK UNBOUND:                -0.309
REMARK SMILES O=C1C[C@H](c2ccc(O)cc2)Oc2cc(O)cc(O)c21
REMARK SMILES IDX 3 1 4 2 12 3 13 4 14 5 15 6 17 7 18 8 20 9 2 10 1 11 5 12
REMARK SMILES IDX 6 13 11 14 7 15 10 16 8 17 9 18 19 20 16 22
REMARK H PARENT 9 19 19 21 16 23
REMARK Flexibility Score: inf
ROOT
ATOM      1  C   UNL     1      39.497 -31.790  11.522  1.00  0.00     0.131 C 
ATOM      2  C   UNL     1      39.174 -30.381  11.009  1.00  0.00     0.211 C 
ATOM      3  O   UNL     1      40.119 -29.995  10.013  1.00  0.00    -0.484 OA
ATOM      4  C   UNL     1      41.492 -30.200  10.180  1.00  0.00     0.138 A 
ATOM      5  C   UNL     1      42.382 -29.525   9.342  1.00  0.00     0.093 A 
ATOM      6  C   UNL     1      43.759 -29.687   9.499  1.00  0.00     0.123 A 
ATOM      7  C   UNL     1      44.248 -30.513  10.512  1.00  0.00     0.093 A 
ATOM      8  C   UNL     1      43.375 -31.196  11.370  1.00  0.00     0.133 A 
ATOM      9  C   UNL     1      41.969 -31.081  11.176  1.00  0.00     0.102 A 
ATOM     10  C   UNL     1      40.949 -31.895  11.902  1.00  0.00     0.174 C 
ATOM     11  O   UNL     1      41.275 -32.757  12.757  1.00  0.00    -0.294 OA
ENDROOT
BRANCH   2  12
ATOM     12  C   UNL     1      37.774 -30.323  10.449  1.00  0.00    -0.007 A 
ATOM     13  C   UNL     1      36.669 -30.263  11.314  1.00  0.00     0.011 A 
ATOM     14  C   UNL     1      37.555 -30.385   9.061  1.00  0.00     0.011 A 
ATOM     15  C   UNL     1      35.369 -30.238  10.800  1.00  0.00     0.046 A 
ATOM     16  C   UNL     1      36.254 -30.360   8.550  1.00  0.00     0.046 A 
ATOM     17  C   UNL     1      35.157 -30.285   9.419  1.00  0.00     0.115 A 
BRANCH  17  18
ATOM     18  O   UNL     1      33.856 -30.260   8.920  1.00  0.00    -0.508 OA
ATOM     19  H   UNL     1      33.095 -29.854   9.450  1.00  0.00     0.293 HD
ENDBRANCH  17  18
ENDBRANCH   2  12
BRANCH   8  20
ATOM     20  O   UNL     1      43.958 -31.948  12.392  1.00  0.00    -0.507 OA
ATOM     21  H   UNL     1      43.644 -31.949  13.351  1.00  0.00     0.293 HD
ENDBRANCH   8  20
BRANCH   6  22
ATOM     22  O   UNL     1      44.654 -29.021   8.663  1.00  0.00    -0.508 OA
ATOM     23  H   UNL     1      44.333 -28.473   7.874  1.00  0.00     0.293 HD
ENDBRANCH   6  22
TORSDOF 4
ENDMDL
MODEL 5
REMARK VINA RESULT:    -4.272      2.685      3.979
REMARK INTER + INTRA:          -5.205
REMARK INTER:                  -4.906
REMARK INTRA:                  -0.300
REMARK UNBOUND:                -0.309
REMARK SMILES O=C1C[C@H](c2ccc(O)cc2)Oc2cc(O)cc(O)c21
REMARK SMILES IDX 3 1 4 2 12 3 13 4 14 5 15 6 17 7 18 8 20 9 2 10 1 11 5 12
REMARK SMILES IDX 6 13 11 14 7 15 10 16 8 17 9 18 19 20 16 22
REMARK H PARENT 9 19 19 21 16 23
REMARK Flexibility Score: inf
ROOT
ATOM      1  C   UNL     1      39.826 -31.935  11.496  1.00  0.00     0.131 C 
ATOM      2  C   UNL     1      39.496 -30.508  11.043  1.00  0.00     0.211 C 
ATOM      3  O   UNL     1      40.421 -30.085  10.044  1.00  0.00    -0.484 OA
ATOM      4  C   UNL     1      41.797 -30.298  10.176  1.00  0.00     0.138 A 
ATOM      5  C   UNL     1      42.671 -29.593   9.346  1.00  0.00     0.093 A 
ATOM      6  C   UNL     1      44.051 -29.763   9.470  1.00  0.00     0.123 A 
ATOM      7  C   UNL     1      44.558 -30.627  10.440  1.00  0.00     0.093 A 
ATOM      8  C   UNL     1      43.701 -31.340  11.289  1.00  0.00     0.133 A 
ATOM      9  C   UNL     1      42.292 -31.217  11.128  1.00  0.00     0.102 A 
ATOM     10  C   UNL     1      41.285 -32.056  11.843  1.00  0.00     0.174 C 
ATOM     11  O   UNL     1      41.626 -32.950  12.659  1.00  0.00    -0.294 OA
ENDROOT
BRANCH   2  12
ATOM     12  C   UNL     1      38.084 -30.427  10.514  1.00  0.00    -0.007 A 
ATOM     13  C   UNL     1      37.839 -30.526   9.134  1.00  0.00     0.011 A 
ATOM     14  C   UNL     1      37.006 -30.194  11.386  1.00  0.00     0.011 A 
ATOM     15  C   UNL     1      36.537 -30.421   8.638  1.00  0.00     0.046 A 
ATOM     16  C   UNL     1      35.704 -30.090  10.887  1.00  0.00     0.046 A 
ATOM     17  C   UNL     1      35.466 -30.205   9.511  1.00  0.00     0.115 A 
BRANCH  17  18
ATOM     18  O   UNL     1      34.173 -30.103   9.002  1.00  0.00    -0.508 OA
ATOM     19  H   UNL     1      33.369 -30.020   9.614  1.00  0.00     0.293 HD
ENDBRANCH  17  18
ENDBRANCH   2  12
BRANCH   8  20
ATOM     20  O   UNL     1      44.303 -32.131  12.271  1.00  0.00    -0.507 OA
ATOM     21  H   UNL     1      43.803 -32.741  12.900  1.00  0.00     0.293 HD
ENDBRANCH   8  20
BRANCH   6  22
ATOM     22  O   UNL     1      44.930 -29.067   8.641  1.00  0.00    -0.508 OA
ATOM     23  H   UNL     1      45.810 -29.472   8.346  1.00  0.00     0.293 HD
ENDBRANCH   6  22
TORSDOF 4
ENDMDL
MODEL 6
REMARK VINA RESULT:    -3.779      1.656      3.132
REMARK INTER + INTRA:          -4.640
REMARK INTER:                  -4.343
REMARK INTRA:                  -0.297
REMARK UNBOUND:                -0.309
REMARK SMILES O=C1C[C@H](c2ccc(O)cc2)Oc2cc(O)cc(O)c21
REMARK SMILES IDX 3 1 4 2 12 3 13 4 14 5 15 6 17 7 18 8 20 9 2 10 1 11 5 12
REMARK SMILES IDX 6 13 11 14 7 15 10 16 8 17 9 18 19 20 16 22
REMARK H PARENT 9 19 19 21 16 23
REMARK Flexibility Score: inf
ROOT
ATOM      1  C   UNL     1      41.498 -33.035  12.819  1.00  0.00     0.131 C 
ATOM      2  C   UNL     1      40.898 -31.625  12.859  1.00  0.00     0.211 C 
ATOM      3  O   UNL     1      41.328 -30.876  11.724  1.00  0.00    -0.484 OA
ATOM      4  C   UNL     1      42.662 -30.877  11.304  1.00  0.00     0.138 A 
ATOM      5  C   UNL     1      43.087 -29.895  10.406  1.00  0.00     0.093 A 
ATOM      6  C   UNL     1      44.417 -29.851   9.987  1.00  0.00     0.123 A 
ATOM      7  C   UNL     1      45.331 -30.781  10.484  1.00  0.00     0.093 A 
ATOM      8  C   UNL     1      44.930 -31.771  11.391  1.00  0.00     0.133 A 
ATOM      9  C   UNL     1      43.562 -31.859  11.776  1.00  0.00     0.102 A 
ATOM     10  C   UNL     1      42.983 -32.971  12.585  1.00  0.00     0.174 C 
ATOM     11  O   UNL     1      43.687 -33.930  12.993  1.00  0.00    -0.294 OA
ENDROOT
BRANCH   2  12
ATOM     12  C   UNL     1      39.390 -31.685  12.902  1.00  0.00    -0.007 A 
ATOM     13  C   UNL     1      38.633 -30.503  12.844  1.00  0.00     0.011 A 
ATOM     14  C   UNL     1      38.727 -32.916  13.056  1.00  0.00     0.011 A 
ATOM     15  C   UNL     1      37.238 -30.553  12.914  1.00  0.00     0.046 A 
ATOM     16  C   UNL     1      37.332 -32.963  13.125  1.00  0.00     0.046 A 
ATOM     17  C   UNL     1      36.583 -31.781  13.052  1.00  0.00     0.115 A 
BRANCH  17  18
ATOM     18  O   UNL     1      35.192 -31.816  13.120  1.00  0.00    -0.508 OA
ATOM     19  H   UNL     1      34.633 -30.991  12.937  1.00  0.00     0.293 HD
ENDBRANCH  17  18
ENDBRANCH   2  12
BRANCH   8  20
ATOM     20  O   UNL     1      45.928 -32.617  11.881  1.00  0.00    -0.507 OA
ATOM     21  H   UNL     1      46.037 -33.585  11.620  1.00  0.00     0.293 HD
ENDBRANCH   8  20
BRANCH   6  22
ATOM     22  O   UNL     1      44.847 -28.878   9.087  1.00  0.00    -0.508 OA
ATOM     23  H   UNL     1      45.797 -28.865   8.735  1.00  0.00     0.293 HD
ENDBRANCH   6  22
TORSDOF 4
ENDMDL
MODEL 7
REMARK VINA RESULT:    -3.721      2.334      7.403
REMARK INTER + INTRA:          -4.574
REMARK INTER:                  -4.265
REMARK INTRA:                  -0.308
REMARK UNBOUND:                -0.309
REMARK SMILES O=C1C[C@H](c2ccc(O)cc2)Oc2cc(O)cc(O)c21
REMARK SMILES IDX 3 1 4 2 12 3 13 4 14 5 15 6 17 7 18 8 20 9 2 10 1 11 5 12
REMARK SMILES IDX 6 13 11 14 7 15 10 16 8 17 9 18 19 20 16 22
REMARK H PARENT 9 19 19 21 16 23
REMARK Flexibility Score: inf
ROOT
ATOM      1  C   UNL     1      39.770 -30.019  10.176  1.00  0.00     0.131 C 
ATOM      2  C   UNL     1      39.978 -30.250  11.677  1.00  0.00     0.211 C 
ATOM      3  O   UNL     1      38.934 -31.071  12.197  1.00  0.00    -0.484 OA
ATOM      4  C   UNL     1      37.592 -30.850  11.872  1.00  0.00     0.138 A 
ATOM      5  C   UNL     1      36.602 -31.461  12.643  1.00  0.00     0.093 A 
ATOM      6  C   UNL     1      35.253 -31.240  12.363  1.00  0.00     0.123 A 
ATOM      7  C   UNL     1      34.893 -30.389  11.317  1.00  0.00     0.093 A 
ATOM      8  C   UNL     1      35.869 -29.759  10.533  1.00  0.00     0.133 A 
ATOM      9  C   UNL     1      37.246 -30.027  10.776  1.00  0.00     0.102 A 
ATOM     10  C   UNL     1      38.363 -29.564   9.901  1.00  0.00     0.174 C 
ATOM     11  O   UNL     1      38.154 -28.886   8.863  1.00  0.00    -0.294 OA
ENDROOT
BRANCH   2  12
ATOM     12  C   UNL     1      41.322 -30.887  11.941  1.00  0.00    -0.007 A 
ATOM     13  C   UNL     1      42.504 -30.162  11.717  1.00  0.00     0.011 A 
ATOM     14  C   UNL     1      41.408 -32.227  12.357  1.00  0.00     0.011 A 
ATOM     15  C   UNL     1      43.750 -30.757  11.931  1.00  0.00     0.046 A 
ATOM     16  C   UNL     1      42.656 -32.821  12.571  1.00  0.00     0.046 A 
ATOM     17  C   UNL     1      43.830 -32.086  12.360  1.00  0.00     0.115 A 
BRANCH  17  18
ATOM     18  O   UNL     1      45.079 -32.667  12.569  1.00  0.00    -0.508 OA
ATOM     19  H   UNL     1      45.312 -33.120  13.445  1.00  0.00     0.293 HD
ENDBRANCH  17  18
ENDBRANCH   2  12
BRANCH   8  20
ATOM     20  O   UNL     1      35.413 -28.875   9.552  1.00  0.00    -0.507 OA
ATOM     21  H   UNL     1      34.610 -29.039   8.963  1.00  0.00     0.293 HD
ENDBRANCH   8  20
BRANCH   6  22
ATOM     22  O   UNL     1      34.259 -31.851  13.125  1.00  0.00    -0.508 OA
ATOM     23  H   UNL     1      34.331 -31.920  14.133  1.00  0.00     0.293 HD
ENDBRANCH   6  22
TORSDOF 4
ENDMDL
MODEL 8
REMARK VINA RESULT:    -3.159      3.266      7.907
REMARK INTER + INTRA:          -3.930
REMARK INTER:                  -3.628
REMARK INTRA:                  -0.301
REMARK UNBOUND:                -0.309
REMARK SMILES O=C1C[C@H](c2ccc(O)cc2)Oc2cc(O)cc(O)c21
REMARK SMILES IDX 3 1 4 2 12 3 13 4 14 5 15 6 17 7 18 8 20 9 2 10 1 11 5 12
REMARK SMILES IDX 6 13 11 14 7 15 10 16 8 17 9 18 19 20 16 22
REMARK H PARENT 9 19 19 21 16 23
REMARK Flexibility Score: inf
ROOT
ATOM      1  C   UNL     1      38.292 -29.266  11.877  1.00  0.00     0.131 C 
ATOM      2  C   UNL     1      39.178 -30.318  11.200  1.00  0.00     0.211 C 
ATOM      3  O   UNL     1      38.829 -30.440   9.823  1.00  0.00    -0.484 OA
ATOM      4  C   UNL     1      37.496 -30.517   9.405  1.00  0.00     0.138 A 
ATOM      5  C   UNL     1      37.221 -30.954   8.108  1.00  0.00     0.093 A 
ATOM      6  C   UNL     1      35.901 -31.067   7.667  1.00  0.00     0.123 A 
ATOM      7  C   UNL     1      34.853 -30.759   8.535  1.00  0.00     0.093 A 
ATOM      8  C   UNL     1      35.104 -30.324   9.843  1.00  0.00     0.133 A 
ATOM      9  C   UNL     1      36.449 -30.150  10.279  1.00  0.00     0.102 A 
ATOM     10  C   UNL     1      36.840 -29.525  11.577  1.00  0.00     0.174 C 
ATOM     11  O   UNL     1      35.983 -29.101  12.394  1.00  0.00    -0.294 OA
ENDROOT
BRANCH   2  12
ATOM     12  C   UNL     1      40.638 -29.957  11.337  1.00  0.00    -0.007 A 
ATOM     13  C   UNL     1      41.343 -30.292  12.504  1.00  0.00     0.011 A 
ATOM     14  C   UNL     1      41.293 -29.232  10.325  1.00  0.00     0.011 A 
ATOM     15  C   UNL     1      42.686 -29.933  12.647  1.00  0.00     0.046 A 
ATOM     16  C   UNL     1      42.637 -28.875  10.471  1.00  0.00     0.046 A 
ATOM     17  C   UNL     1      43.337 -29.226  11.632  1.00  0.00     0.115 A 
BRANCH  17  18
ATOM     18  O   UNL     1      44.677 -28.875  11.788  1.00  0.00    -0.508 OA
ATOM     19  H   UNL     1      45.195 -28.424  11.043  1.00  0.00     0.293 HD
ENDBRANCH  17  18
ENDBRANCH   2  12
BRANCH   8  20
ATOM     20  O   UNL     1      33.991 -30.102  10.657  1.00  0.00    -0.507 OA
ATOM     21  H   UNL     1      33.371 -29.311  10.575  1.00  0.00     0.293 HD
ENDBRANCH   8  20
BRANCH   6  22
ATOM     22  O   UNL     1      35.618 -31.497   6.372  1.00  0.00    -0.508 OA
ATOM     23  H   UNL     1      36.024 -32.345   5.996  1.00  0.00     0.293 HD
ENDBRANCH   6  22
TORSDOF 4
ENDMDL
