MODEL 1
REMARK VINA RESULT:    -2.902      0.000      0.000
REMARK INTER + INTRA:          -3.886
REMARK INTER:                  -3.750
REMARK INTRA:                  -0.136
REMARK UNBOUND:                -0.136
REMARK SMILES CCCCCCC(=O)[O-]
REMARK SMILES IDX 5 1 6 2 7 3 8 4 9 5 4 6 3 7 2 8 1 9
REMARK H PARENT
REMARK Flexibility Score: inf
ROOT
ATOM      1  C   UNL     1       8.918  -2.846  -0.547  1.00  0.00     0.006 C 
ENDROOT
BRANCH   1   2
ATOM      2  C   UNL     1       8.988  -4.104   0.333  1.00  0.00     0.053 C 
BRANCH   2   3
ATOM      3  C   UNL     1       8.502  -3.843   1.726  1.00  0.00     0.041 C 
ATOM      4  O   UNL     1       8.678  -2.714   2.256  1.00  0.00    -0.550 OA
ATOM      5  O   UNL     1       7.826  -4.834   2.425  1.00  0.00    -0.550 OA
ENDBRANCH   2   3
ENDBRANCH   1   2
BRANCH   1   6
ATOM      6  C   UNL     1       8.441  -3.101  -1.992  1.00  0.00     0.000 C 
BRANCH   6   7
ATOM      7  C   UNL     1       7.607  -1.966  -2.613  1.00  0.00    -0.000 C 
BRANCH   7   8
ATOM      8  C   UNL     1       7.920  -0.592  -2.003  1.00  0.00    -0.003 C 
ATOM      9  C   UNL     1       7.137   0.512  -2.707  1.00  0.00     0.004 C 
ENDBRANCH   7   8
ENDBRANCH   6   7
ENDBRANCH   1   6
TORSDOF 5
ENDMDL
MODEL 2
REMARK VINA RESULT:    -2.893      0.169      1.092
REMARK INTER + INTRA:          -3.875
REMARK INTER:                  -3.732
REMARK INTRA:                  -0.142
REMARK UNBOUND:                -0.136
REMARK SMILES CCCCCCC(=O)[O-]
REMARK SMILES IDX 5 1 6 2 7 3 8 4 9 5 4 6 3 7 2 8 1 9
REMARK H PARENT
REMARK Flexibility Score: inf
ROOT
ATOM      1  C   UNL     1       8.914  -3.031  -0.535  1.00  0.00     0.006 C 
ENDROOT
BRANCH   1   2
ATOM      2  C   UNL     1       8.972  -4.266   0.377  1.00  0.00     0.053 C 
BRANCH   2   3
ATOM      3  C   UNL     1       8.452  -3.974   1.751  1.00  0.00     0.041 C 
ATOM      4  O   UNL     1       7.830  -4.860   2.394  1.00  0.00    -0.550 OA
ATOM      5  O   UNL     1       8.684  -2.735   2.334  1.00  0.00    -0.550 OA
ENDBRANCH   2   3
ENDBRANCH   1   2
BRANCH   1   6
ATOM      6  C   UNL     1       8.365  -3.306  -1.951  1.00  0.00     0.000 C 
BRANCH   6   7
ATOM      7  C   UNL     1       7.700  -2.099  -2.638  1.00  0.00    -0.000 C 
BRANCH   7   8
ATOM      8  C   UNL     1       8.020  -0.766  -1.947  1.00  0.00    -0.003 C 
ATOM      9  C   UNL     1       7.217   0.377  -2.560  1.00  0.00     0.004 C 
ENDBRANCH   7   8
ENDBRANCH   6   7
ENDBRANCH   1   6
TORSDOF 5
ENDMDL
MODEL 3
REMARK VINA RESULT:    -2.752      0.959      1.529
REMARK INTER + INTRA:          -3.692
REMARK INTER:                  -3.507
REMARK INTRA:                  -0.185
REMARK UNBOUND:                -0.136
REMARK SMILES CCCCCCC(=O)[O-]
REMARK SMILES IDX 5 1 6 2 7 3 8 4 9 5 4 6 3 7 2 8 1 9
REMARK H PARENT
REMARK Flexibility Score: inf
ROOT
ATOM      1  C   UNL     1       8.966  -3.710  -0.261  1.00  0.00     0.006 C 
ENDROOT
BRANCH   1   2
ATOM      2  C   UNL     1       9.009  -2.908   1.050  1.00  0.00     0.053 C 
BRANCH   2   3
ATOM      3  C   UNL     1       8.710  -3.765   2.241  1.00  0.00     0.041 C 
ATOM      4  O   UNL     1       7.752  -4.580   2.210  1.00  0.00    -0.550 OA
ATOM      5  O   UNL     1       9.511  -3.687   3.373  1.00  0.00    -0.550 OA
ENDBRANCH   2   3
ENDBRANCH   1   2
BRANCH   1   6
ATOM      6  C   UNL     1       8.645  -2.869  -1.515  1.00  0.00     0.000 C 
BRANCH   6   7
ATOM      7  C   UNL     1       8.519  -1.355  -1.269  1.00  0.00    -0.000 C 
BRANCH   7   8
ATOM      8  C   UNL     1       7.657  -0.647  -2.325  1.00  0.00    -0.003 C 
ATOM      9  C   UNL     1       7.095  -1.645  -3.333  1.00  0.00     0.004 C 
ENDBRANCH   7   8
ENDBRANCH   6   7
ENDBRANCH   1   6
TORSDOF 5
ENDMDL
MODEL 4
REMARK VINA RESULT:    -2.711      4.337      5.958
REMARK INTER + INTRA:          -3.639
REMARK INTER:                  -3.569
REMARK INTRA:                  -0.071
REMARK UNBOUND:                -0.136
REMARK SMILES CCCCCCC(=O)[O-]
REMARK SMILES IDX 5 1 6 2 7 3 8 4 9 5 4 6 3 7 2 8 1 9
REMARK H PARENT
REMARK Flexibility Score: inf
ROOT
ATOM      1  C   UNL     1       7.723   2.561  -1.227  1.00  0.00     0.006 C 
ENDROOT
BRANCH   1   2
ATOM      2  C   UNL     1       8.117   3.184   0.122  1.00  0.00     0.053 C 
BRANCH   2   3
ATOM      3  C   UNL     1       6.947   3.817   0.810  1.00  0.00     0.041 C 
ATOM      4  O   UNL     1       6.834   3.744   2.062  1.00  0.00    -0.550 OA
ATOM      5  O   UNL     1       6.001   4.518   0.074  1.00  0.00    -0.550 OA
ENDBRANCH   2   3
ENDBRANCH   1   2
BRANCH   1   6
ATOM      6  C   UNL     1       8.341   1.174  -1.496  1.00  0.00     0.000 C 
BRANCH   6   7
ATOM      7  C   UNL     1       7.475   0.228  -2.347  1.00  0.00    -0.000 C 
BRANCH   7   8
ATOM      8  C   UNL     1       7.846  -1.251  -2.163  1.00  0.00    -0.003 C 
ATOM      9  C   UNL     1       7.227  -2.113  -3.260  1.00  0.00     0.004 C 
ENDBRANCH   7   8
ENDBRANCH   6   7
ENDBRANCH   1   6
TORSDOF 5
ENDMDL
MODEL 5
REMARK VINA RESULT:    -2.649      1.247      1.776
REMARK INTER + INTRA:          -3.559
REMARK INTER:                  -3.429
REMARK INTRA:                  -0.130
REMARK UNBOUND:                -0.136
REMARK SMILES CCCCCCC(=O)[O-]
REMARK SMILES IDX 5 1 6 2 7 3 8 4 9 5 4 6 3 7 2 8 1 9
REMARK H PARENT
REMARK Flexibility Score: inf
ROOT
ATOM      1  C   UNL     1       9.004  -3.566   0.228  1.00  0.00     0.006 C 
ENDROOT
BRANCH   1   2
ATOM      2  C   UNL     1       9.207  -5.071   0.469  1.00  0.00     0.053 C 
BRANCH   2   3
ATOM      3  C   UNL     1       8.444  -5.555   1.663  1.00  0.00     0.041 C 
ATOM      4  O   UNL     1       7.808  -4.740   2.382  1.00  0.00    -0.550 OA
ATOM      5  O   UNL     1       8.408  -6.911   1.963  1.00  0.00    -0.550 OA
ENDBRANCH   2   3
ENDBRANCH   1   2
BRANCH   1   6
ATOM      6  C   UNL     1       8.700  -3.188  -1.237  1.00  0.00     0.000 C 
BRANCH   6   7
ATOM      7  C   UNL     1       8.613  -1.676  -1.515  1.00  0.00    -0.000 C 
BRANCH   7   8
ATOM      8  C   UNL     1       7.534  -1.319  -2.548  1.00  0.00    -0.003 C 
ATOM      9  C   UNL     1       7.256  -2.495  -3.479  1.00  0.00     0.004 C 
ENDBRANCH   7   8
ENDBRANCH   6   7
ENDBRANCH   1   6
TORSDOF 5
ENDMDL
MODEL 6
REMARK VINA RESULT:    -2.584      4.399      5.755
REMARK INTER + INTRA:          -3.475
REMARK INTER:                  -3.328
REMARK INTRA:                  -0.146
REMARK UNBOUND:                -0.136
REMARK SMILES CCCCCCC(=O)[O-]
REMARK SMILES IDX 5 1 6 2 7 3 8 4 9 5 4 6 3 7 2 8 1 9
REMARK H PARENT
REMARK Flexibility Score: inf
ROOT
ATOM      1  C   UNL     1       8.580   1.653   0.818  1.00  0.00     0.006 C 
ENDROOT
BRANCH   1   2
ATOM      2  C   UNL     1       8.642   3.178   0.999  1.00  0.00     0.053 C 
BRANCH   2   3
ATOM      3  C   UNL     1       7.309   3.755   1.367  1.00  0.00     0.041 C 
ATOM      4  O   UNL     1       6.848   3.591   2.526  1.00  0.00    -0.550 OA
ATOM      5  O   UNL     1       6.594   4.501   0.440  1.00  0.00    -0.550 OA
ENDBRANCH   2   3
ENDBRANCH   1   2
BRANCH   1   6
ATOM      6  C   UNL     1       8.587   1.181  -0.651  1.00  0.00     0.000 C 
BRANCH   6   7
ATOM      7  C   UNL     1       8.698  -0.342  -0.845  1.00  0.00    -0.000 C 
BRANCH   7   8
ATOM      8  C   UNL     1       7.886  -0.852  -2.044  1.00  0.00    -0.003 C 
ATOM      9  C   UNL     1       7.116   0.284  -2.710  1.00  0.00     0.004 C 
ENDBRANCH   7   8
ENDBRANCH   6   7
ENDBRANCH   1   6
TORSDOF 5
ENDMDL
MODEL 7
REMARK VINA RESULT:    -2.512      1.415      2.174
REMARK INTER + INTRA:          -3.382
REMARK INTER:                  -3.235
REMARK INTRA:                  -0.147
REMARK UNBOUND:                -0.136
REMARK SMILES CCCCCCC(=O)[O-]
REMARK SMILES IDX 5 1 6 2 7 3 8 4 9 5 4 6 3 7 2 8 1 9
REMARK H PARENT
REMARK Flexibility Score: inf
ROOT
ATOM      1  C   UNL     1       8.392  -2.231  -2.164  1.00  0.00     0.006 C 
ENDROOT
BRANCH   1   2
ATOM      2  C   UNL     1       8.548  -3.698  -1.733  1.00  0.00     0.053 C 
BRANCH   2   3
ATOM      3  C   UNL     1       8.943  -3.821  -0.294  1.00  0.00     0.041 C 
ATOM      4  O   UNL     1       8.976  -4.952   0.259  1.00  0.00    -0.550 OA
ATOM      5  O   UNL     1       9.308  -2.692   0.427  1.00  0.00    -0.550 OA
ENDBRANCH   2   3
ENDBRANCH   1   2
BRANCH   1   6
ATOM      6  C   UNL     1       7.284  -1.985  -3.209  1.00  0.00     0.000 C 
BRANCH   6   7
ATOM      7  C   UNL     1       6.872  -0.512  -3.388  1.00  0.00    -0.000 C 
BRANCH   7   8
ATOM      8  C   UNL     1       7.440   0.405  -2.295  1.00  0.00    -0.003 C 
ATOM      9  C   UNL     1       7.124   1.868  -2.587  1.00  0.00     0.004 C 
ENDBRANCH   7   8
ENDBRANCH   6   7
ENDBRANCH   1   6
TORSDOF 5
ENDMDL
MODEL 8
REMARK VINA RESULT:    -2.451      3.218      4.226
REMARK INTER + INTRA:          -3.303
REMARK INTER:                  -3.142
REMARK INTRA:                  -0.161
REMARK UNBOUND:                -0.136
REMARK SMILES CCCCCCC(=O)[O-]
REMARK SMILES IDX 5 1 6 2 7 3 8 4 9 5 4 6 3 7 2 8 1 9
REMARK H PARENT
REMARK Flexibility Score: inf
ROOT
ATOM      1  C   UNL     1       8.025  -1.950  -2.045  1.00  0.00     0.006 C 
ENDROOT
BRANCH   1   2
ATOM      2  C   UNL     1       7.355  -2.326  -3.376  1.00  0.00     0.053 C 
BRANCH   2   3
ATOM      3  C   UNL     1       7.308  -3.809  -3.582  1.00  0.00     0.041 C 
ATOM      4  O   UNL     1       7.887  -4.578  -2.772  1.00  0.00    -0.550 OA
ATOM      5  O   UNL     1       6.595  -4.341  -4.648  1.00  0.00    -0.550 OA
ENDBRANCH   2   3
ENDBRANCH   1   2
BRANCH   1   6
ATOM      6  C   UNL     1       8.130  -0.432  -1.788  1.00  0.00     0.000 C 
BRANCH   6   7
ATOM      7  C   UNL     1       7.199   0.441  -2.648  1.00  0.00    -0.000 C 
BRANCH   7   8
ATOM      8  C   UNL     1       7.265   1.930  -2.278  1.00  0.00    -0.003 C 
ATOM      9  C   UNL     1       8.111   2.148  -1.028  1.00  0.00     0.004 C 
ENDBRANCH   7   8
ENDBRANCH   6   7
ENDBRANCH   1   6
TORSDOF 5
ENDMDL
MODEL 9
REMARK VINA RESULT:    -2.413      2.989      3.719
REMARK INTER + INTRA:          -3.254
REMARK INTER:                  -3.083
REMARK INTRA:                  -0.171
REMARK UNBOUND:                -0.136
REMARK SMILES CCCCCCC(=O)[O-]
REMARK SMILES IDX 5 1 6 2 7 3 8 4 9 5 4 6 3 7 2 8 1 9
REMARK H PARENT
REMARK Flexibility Score: inf
ROOT
ATOM      1  C   UNL     1       9.220  -0.732   1.032  1.00  0.00     0.006 C 
ENDROOT
BRANCH   1   2
ATOM      2  C   UNL     1       8.867   0.693   1.486  1.00  0.00     0.053 C 
BRANCH   2   3
ATOM      3  C   UNL     1       8.418   0.733   2.915  1.00  0.00     0.041 C 
ATOM      4  O   UNL     1       9.026   0.061   3.788  1.00  0.00    -0.550 OA
ATOM      5  O   UNL     1       7.349   1.537   3.286  1.00  0.00    -0.550 OA
ENDBRANCH   2   3
ENDBRANCH   1   2
BRANCH   1   6
ATOM      6  C   UNL     1       8.763  -1.079  -0.400  1.00  0.00     0.000 C 
BRANCH   6   7
ATOM      7  C   UNL     1       8.498   0.133  -1.311  1.00  0.00    -0.000 C 
BRANCH   7   8
ATOM      8  C   UNL     1       7.486  -0.167  -2.426  1.00  0.00    -0.003 C 
ATOM      9  C   UNL     1       7.456  -1.657  -2.754  1.00  0.00     0.004 C 
ENDBRANCH   7   8
ENDBRANCH   6   7
ENDBRANCH   1   6
TORSDOF 5
ENDMDL
