MODEL 1
REMARK VINA RESULT:    -4.547      0.000      0.000
REMARK INTER + INTRA:          -6.865
REMARK INTER:                  -6.142
REMARK INTRA:                  -0.723
REMARK UNBOUND:                -0.723
REMARK SMILES O=C[C@H](O)[C@H](O)[C@H](O)CO
REMARK SMILES IDX 7 1 9 2 10 3 5 5 3 6 2 7 1 8 4 9 6 11 8 13
REMARK H PARENT 10 4 4 10 6 12 8 14
REMARK Flexibility Score: inf
ROOT
ATOM      1  C   UNL     1      -5.992  -9.303   0.810  1.00  0.00     0.171 C 
ENDROOT
BRANCH   1   2
ATOM      2  C   UNL     1      -7.431  -8.780   0.990  1.00  0.00     0.190 C 
BRANCH   2   3
ATOM      3  O   UNL     1      -7.503  -7.416   0.674  1.00  0.00    -0.394 OA
ATOM      4  H   UNL     1      -8.450  -7.225   0.451  1.00  0.00     0.210 HD
ENDBRANCH   2   3
ENDBRANCH   1   2
BRANCH   1   5
ATOM      5  C   UNL     1      -5.081  -8.921   2.008  1.00  0.00     0.181 C 
BRANCH   5   6
ATOM      6  C   UNL     1      -4.074  -7.802   1.630  1.00  0.00     0.209 C 
BRANCH   6   7
ATOM      7  C   UNL     1      -2.904  -7.761   2.583  1.00  0.00     0.258 C 
ATOM      8  O   UNL     1      -1.965  -8.531   2.446  1.00  0.00    -0.300 OA
ENDBRANCH   6   7
BRANCH   6   9
ATOM      9  O   UNL     1      -4.694  -6.541   1.594  1.00  0.00    -0.383 OA
ATOM     10  H   UNL     1      -3.985  -5.861   1.447  1.00  0.00     0.211 HD
ENDBRANCH   6   9
ENDBRANCH   5   6
BRANCH   5  11
ATOM     11  O   UNL     1      -4.360 -10.056   2.422  1.00  0.00    -0.387 OA
ATOM     12  H   UNL     1      -4.575 -10.791   1.789  1.00  0.00     0.211 HD
ENDBRANCH   5  11
ENDBRANCH   1   5
BRANCH   1  13
ATOM     13  O   UNL     1      -5.462  -8.831  -0.404  1.00  0.00    -0.388 OA
ATOM     14  H   UNL     1      -5.657  -7.858  -0.457  1.00  0.00     0.211 HD
ENDBRANCH   1  13
TORSDOF 8
ENDMDL
MODEL 2
REMARK VINA RESULT:    -4.542      5.377      7.833
REMARK INTER + INTRA:          -6.858
REMARK INTER:                  -6.341
REMARK INTRA:                  -0.517
REMARK UNBOUND:                -0.723
REMARK SMILES O=C[C@H](O)[C@H](O)[C@H](O)CO
REMARK SMILES IDX 7 1 9 2 10 3 5 5 3 6 2 7 1 8 4 9 6 11 8 13
REMARK H PARENT 10 4 4 10 6 12 8 14
REMARK Flexibility Score: inf
ROOT
ATOM      1  C   UNL     1       3.268  -8.969   0.706  1.00  0.00     0.171 C 
ENDROOT
BRANCH   1   2
ATOM      2  C   UNL     1       2.833  -9.536   2.072  1.00  0.00     0.190 C 
BRANCH   2   3
ATOM      3  O   UNL     1       3.064 -10.917   2.128  1.00  0.00    -0.394 OA
ATOM      4  H   UNL     1       3.662 -11.137   1.368  1.00  0.00     0.210 HD
ENDBRANCH   2   3
ENDBRANCH   1   2
BRANCH   1   5
ATOM      5  C   UNL     1       2.138  -9.076  -0.354  1.00  0.00     0.181 C 
BRANCH   5   6
ATOM      6  C   UNL     1       1.096  -7.936  -0.199  1.00  0.00     0.209 C 
BRANCH   6   7
ATOM      7  C   UNL     1      -0.277  -8.476   0.122  1.00  0.00     0.258 C 
ATOM      8  O   UNL     1      -1.023  -8.847  -0.771  1.00  0.00    -0.300 OA
ENDBRANCH   6   7
BRANCH   6   9
ATOM      9  O   UNL     1       1.028  -7.140  -1.355  1.00  0.00    -0.383 OA
ATOM     10  H   UNL     1       1.743  -7.446  -1.974  1.00  0.00     0.211 HD
ENDBRANCH   6   9
ENDBRANCH   5   6
BRANCH   5  11
ATOM     11  O   UNL     1       1.480 -10.311  -0.205  1.00  0.00    -0.387 OA
ATOM     12  H   UNL     1       0.630 -10.258  -0.716  1.00  0.00     0.211 HD
ENDBRANCH   5  11
ENDBRANCH   1   5
BRANCH   1  13
ATOM     13  O   UNL     1       4.437  -9.619   0.271  1.00  0.00    -0.388 OA
ATOM     14  H   UNL     1       4.943  -8.978  -0.294  1.00  0.00     0.211 HD
ENDBRANCH   1  13
TORSDOF 8
ENDMDL
MODEL 3
REMARK VINA RESULT:    -4.490      5.741      8.407
REMARK INTER + INTRA:          -6.788
REMARK INTER:                  -6.358
REMARK INTRA:                  -0.430
REMARK UNBOUND:                -0.723
REMARK SMILES O=C[C@H](O)[C@H](O)[C@H](O)CO
REMARK SMILES IDX 7 1 9 2 10 3 5 5 3 6 2 7 1 8 4 9 6 11 8 13
REMARK H PARENT 10 4 4 10 6 12 8 14
REMARK Flexibility Score: inf
ROOT
ATOM      1  C   UNL     1       3.263  -9.677   1.363  1.00  0.00     0.171 C 
ENDROOT
BRANCH   1   2
ATOM      2  C   UNL     1       4.710  -9.149   1.292  1.00  0.00     0.190 C 
BRANCH   2   3
ATOM      3  O   UNL     1       5.620 -10.164   1.619  1.00  0.00    -0.394 OA
ATOM      4  H   UNL     1       5.345 -10.518   2.505  1.00  0.00     0.210 HD
ENDBRANCH   2   3
ENDBRANCH   1   2
BRANCH   1   5
ATOM      5  C   UNL     1       2.450  -9.314   0.090  1.00  0.00     0.181 C 
BRANCH   5   6
ATOM      6  C   UNL     1       1.517  -8.098   0.331  1.00  0.00     0.209 C 
BRANCH   6   7
ATOM      7  C   UNL     1       0.365  -8.078  -0.643  1.00  0.00     0.258 C 
ATOM      8  O   UNL     1      -0.655  -8.708  -0.412  1.00  0.00    -0.300 OA
ENDBRANCH   6   7
BRANCH   6   9
ATOM      9  O   UNL     1       2.222  -6.884   0.249  1.00  0.00    -0.383 OA
ATOM     10  H   UNL     1       2.865  -6.857   1.006  1.00  0.00     0.211 HD
ENDBRANCH   6   9
ENDBRANCH   5   6
BRANCH   5  11
ATOM     11  O   UNL     1       1.663 -10.418  -0.287  1.00  0.00    -0.387 OA
ATOM     12  H   UNL     1       1.435 -10.916   0.541  1.00  0.00     0.211 HD
ENDBRANCH   5  11
ENDBRANCH   1   5
BRANCH   1  13
ATOM     13  O   UNL     1       2.635  -9.192   2.524  1.00  0.00    -0.388 OA
ATOM     14  H   UNL     1       2.393  -8.243   2.358  1.00  0.00     0.211 HD
ENDBRANCH   1  13
TORSDOF 8
ENDMDL
MODEL 4
REMARK VINA RESULT:    -4.406      6.198      8.090
REMARK INTER + INTRA:          -6.674
REMARK INTER:                  -5.878
REMARK INTRA:                  -0.797
REMARK UNBOUND:                -0.723
REMARK SMILES O=C[C@H](O)[C@H](O)[C@H](O)CO
REMARK SMILES IDX 7 1 9 2 10 3 5 5 3 6 2 7 1 8 4 9 6 11 8 13
REMARK H PARENT 10 4 4 10 6 12 8 14
REMARK Flexibility Score: inf
ROOT
ATOM      1  C   UNL     1       1.307  -8.522   0.437  1.00  0.00     0.171 C 
ENDROOT
BRANCH   1   2
ATOM      2  C   UNL     1       1.626  -7.312  -0.464  1.00  0.00     0.190 C 
BRANCH   2   3
ATOM      3  O   UNL     1       2.687  -6.567   0.070  1.00  0.00    -0.394 OA
ATOM      4  H   UNL     1       2.283  -5.878   0.659  1.00  0.00     0.210 HD
ENDBRANCH   2   3
ENDBRANCH   1   2
BRANCH   1   5
ATOM      5  C   UNL     1       2.392  -9.629   0.327  1.00  0.00     0.181 C 
BRANCH   5   6
ATOM      6  C   UNL     1       3.226  -9.746   1.630  1.00  0.00     0.209 C 
BRANCH   6   7
ATOM      7  C   UNL     1       4.677  -9.402   1.396  1.00  0.00     0.258 C 
ATOM      8  O   UNL     1       5.002  -8.272   1.064  1.00  0.00    -0.300 OA
ENDBRANCH   6   7
BRANCH   6   9
ATOM      9  O   UNL     1       3.134 -11.034   2.187  1.00  0.00    -0.383 OA
ATOM     10  H   UNL     1       3.576 -11.666   1.560  1.00  0.00     0.211 HD
ENDBRANCH   6   9
ENDBRANCH   5   6
BRANCH   5  11
ATOM     11  O   UNL     1       3.260  -9.321  -0.737  1.00  0.00    -0.387 OA
ATOM     12  H   UNL     1       3.370  -8.335  -0.755  1.00  0.00     0.211 HD
ENDBRANCH   5  11
ENDBRANCH   1   5
BRANCH   1  13
ATOM     13  O   UNL     1       0.032  -9.026   0.125  1.00  0.00    -0.388 OA
ATOM     14  H   UNL     1       0.101  -9.491  -0.750  1.00  0.00     0.211 HD
ENDBRANCH   1  13
TORSDOF 8
ENDMDL
MODEL 5
REMARK VINA RESULT:    -4.295      1.601      2.399
REMARK INTER + INTRA:          -6.525
REMARK INTER:                  -5.900
REMARK INTRA:                  -0.625
REMARK UNBOUND:                -0.723
REMARK SMILES O=C[C@H](O)[C@H](O)[C@H](O)CO
REMARK SMILES IDX 7 1 9 2 10 3 5 5 3 6 2 7 1 8 4 9 6 11 8 13
REMARK H PARENT 10 4 4 10 6 12 8 14
REMARK Flexibility Score: inf
ROOT
ATOM      1  C   UNL     1      -7.198  -9.092   0.423  1.00  0.00     0.171 C 
ENDROOT
BRANCH   1   2
ATOM      2  C   UNL     1      -7.499 -10.299  -0.488  1.00  0.00     0.190 C 
BRANCH   2   3
ATOM      3  O   UNL     1      -6.398 -11.165  -0.539  1.00  0.00    -0.394 OA
ATOM      4  H   UNL     1      -5.997 -11.168   0.369  1.00  0.00     0.210 HD
ENDBRANCH   2   3
ENDBRANCH   1   2
BRANCH   1   5
ATOM      5  C   UNL     1      -5.676  -8.924   0.679  1.00  0.00     0.181 C 
BRANCH   5   6
ATOM      6  C   UNL     1      -5.379  -7.717   1.608  1.00  0.00     0.209 C 
BRANCH   6   7
ATOM      7  C   UNL     1      -3.899  -7.440   1.706  1.00  0.00     0.258 C 
ATOM      8  O   UNL     1      -3.086  -8.268   1.326  1.00  0.00    -0.300 OA
ENDBRANCH   6   7
BRANCH   6   9
ATOM      9  O   UNL     1      -5.906  -7.916   2.896  1.00  0.00    -0.383 OA
ATOM     10  H   UNL     1      -6.515  -7.156   3.094  1.00  0.00     0.211 HD
ENDBRANCH   6   9
ENDBRANCH   5   6
BRANCH   5  11
ATOM     11  O   UNL     1      -5.020  -8.719  -0.549  1.00  0.00    -0.387 OA
ATOM     12  H   UNL     1      -4.811  -9.614  -0.927  1.00  0.00     0.211 HD
ENDBRANCH   5  11
ENDBRANCH   1   5
BRANCH   1  13
ATOM     13  O   UNL     1      -7.907  -9.219   1.631  1.00  0.00    -0.388 OA
ATOM     14  H   UNL     1      -8.518  -8.439   1.702  1.00  0.00     0.211 HD
ENDBRANCH   1  13
TORSDOF 8
ENDMDL
MODEL 6
REMARK VINA RESULT:    -4.221      7.329      8.634
REMARK INTER + INTRA:          -6.424
REMARK INTER:                  -5.895
REMARK INTRA:                  -0.529
REMARK UNBOUND:                -0.723
REMARK SMILES O=C[C@H](O)[C@H](O)[C@H](O)CO
REMARK SMILES IDX 7 1 9 2 10 3 5 5 3 6 2 7 1 8 4 9 6 11 8 13
REMARK H PARENT 10 4 4 10 6 12 8 14
REMARK Flexibility Score: inf
ROOT
ATOM      1  C   UNL     1       2.889  -5.725  -1.416  1.00  0.00     0.171 C 
ENDROOT
BRANCH   1   2
ATOM      2  C   UNL     1       3.516  -6.257  -2.720  1.00  0.00     0.190 C 
BRANCH   2   3
ATOM      3  O   UNL     1       2.562  -6.290  -3.747  1.00  0.00    -0.394 OA
ATOM      4  H   UNL     1       2.012  -7.102  -3.597  1.00  0.00     0.210 HD
ENDBRANCH   2   3
ENDBRANCH   1   2
BRANCH   1   5
ATOM      5  C   UNL     1       2.169  -6.847  -0.619  1.00  0.00     0.181 C 
BRANCH   5   6
ATOM      6  C   UNL     1       3.083  -8.085  -0.417  1.00  0.00     0.209 C 
BRANCH   6   7
ATOM      7  C   UNL     1       2.336  -9.229   0.225  1.00  0.00     0.258 C 
ATOM      8  O   UNL     1       1.711 -10.025  -0.460  1.00  0.00    -0.300 OA
ENDBRANCH   6   7
BRANCH   6   9
ATOM      9  O   UNL     1       4.213  -7.770   0.357  1.00  0.00    -0.383 OA
ATOM     10  H   UNL     1       4.698  -7.034  -0.103  1.00  0.00     0.211 HD
ENDBRANCH   6   9
ENDBRANCH   5   6
BRANCH   5  11
ATOM     11  O   UNL     1       1.017  -7.247  -1.321  1.00  0.00    -0.387 OA
ATOM     12  H   UNL     1       0.505  -6.425  -1.544  1.00  0.00     0.211 HD
ENDBRANCH   5  11
ENDBRANCH   1   5
BRANCH   1  13
ATOM     13  O   UNL     1       2.013  -4.663  -1.706  1.00  0.00    -0.388 OA
ATOM     14  H   UNL     1       1.641  -4.339  -0.844  1.00  0.00     0.211 HD
ENDBRANCH   1  13
TORSDOF 8
ENDMDL
MODEL 7
REMARK VINA RESULT:    -4.209      2.550      3.713
REMARK INTER + INTRA:          -6.408
REMARK INTER:                  -5.735
REMARK INTRA:                  -0.674
REMARK UNBOUND:                -0.723
REMARK SMILES O=C[C@H](O)[C@H](O)[C@H](O)CO
REMARK SMILES IDX 7 1 9 2 10 3 5 5 3 6 2 7 1 8 4 9 6 11 8 13
REMARK H PARENT 10 4 4 10 6 12 8 14
REMARK Flexibility Score: inf
ROOT
ATOM      1  C   UNL     1      -5.512  -5.885   3.431  1.00  0.00     0.171 C 
ENDROOT
BRANCH   1   2
ATOM      2  C   UNL     1      -5.349  -4.893   4.600  1.00  0.00     0.190 C 
BRANCH   2   3
ATOM      3  O   UNL     1      -5.087  -5.579   5.794  1.00  0.00    -0.394 OA
ATOM      4  H   UNL     1      -4.976  -6.535   5.555  1.00  0.00     0.210 HD
ENDBRANCH   2   3
ENDBRANCH   1   2
BRANCH   1   5
ATOM      5  C   UNL     1      -4.150  -6.231   2.769  1.00  0.00     0.181 C 
BRANCH   5   6
ATOM      6  C   UNL     1      -4.162  -7.649   2.139  1.00  0.00     0.209 C 
BRANCH   6   7
ATOM      7  C   UNL     1      -2.772  -8.101   1.760  1.00  0.00     0.258 C 
ATOM      8  O   UNL     1      -2.003  -8.523   2.609  1.00  0.00    -0.300 OA
ENDBRANCH   6   7
BRANCH   6   9
ATOM      9  O   UNL     1      -4.998  -7.705   1.011  1.00  0.00    -0.383 OA
ATOM     10  H   UNL     1      -4.840  -8.577   0.561  1.00  0.00     0.211 HD
ENDBRANCH   6   9
ENDBRANCH   5   6
BRANCH   5  11
ATOM     11  O   UNL     1      -3.136  -6.178   3.743  1.00  0.00    -0.387 OA
ATOM     12  H   UNL     1      -3.573  -5.995   4.616  1.00  0.00     0.211 HD
ENDBRANCH   5  11
ENDBRANCH   1   5
BRANCH   1  13
ATOM     13  O   UNL     1      -6.420  -5.367   2.490  1.00  0.00    -0.388 OA
ATOM     14  H   UNL     1      -7.329  -5.668   2.755  1.00  0.00     0.211 HD
ENDBRANCH   1  13
TORSDOF 8
ENDMDL
MODEL 8
REMARK VINA RESULT:    -4.188      2.974      4.333
REMARK INTER + INTRA:          -6.381
REMARK INTER:                  -5.872
REMARK INTRA:                  -0.509
REMARK UNBOUND:                -0.723
REMARK SMILES O=C[C@H](O)[C@H](O)[C@H](O)CO
REMARK SMILES IDX 7 1 9 2 10 3 5 5 3 6 2 7 1 8 4 9 6 11 8 13
REMARK H PARENT 10 4 4 10 6 12 8 14
REMARK Flexibility Score: inf
ROOT
ATOM      1  C   UNL     1      -4.937  -5.179   4.205  1.00  0.00     0.171 C 
ENDROOT
BRANCH   1   2
ATOM      2  C   UNL     1      -5.822  -5.600   5.395  1.00  0.00     0.190 C 
BRANCH   2   3
ATOM      3  O   UNL     1      -5.034  -5.882   6.519  1.00  0.00    -0.394 OA
ATOM      4  H   UNL     1      -4.449  -6.644   6.272  1.00  0.00     0.210 HD
ENDBRANCH   2   3
ENDBRANCH   1   2
BRANCH   1   5
ATOM      5  C   UNL     1      -5.391  -5.848   2.879  1.00  0.00     0.181 C 
BRANCH   5   6
ATOM      6  C   UNL     1      -5.199  -7.388   2.918  1.00  0.00     0.209 C 
BRANCH   6   7
ATOM      7  C   UNL     1      -3.964  -7.814   2.162  1.00  0.00     0.258 C 
ATOM      8  O   UNL     1      -2.857  -7.690   2.662  1.00  0.00    -0.300 OA
ENDBRANCH   6   7
BRANCH   6   9
ATOM      9  O   UNL     1      -6.321  -8.059   2.401  1.00  0.00    -0.383 OA
ATOM     10  H   UNL     1      -6.440  -7.768   1.459  1.00  0.00     0.211 HD
ENDBRANCH   6   9
ENDBRANCH   5   6
BRANCH   5  11
ATOM     11  O   UNL     1      -4.633  -5.326   1.814  1.00  0.00    -0.387 OA
ATOM     12  H   UNL     1      -3.675  -5.412   2.062  1.00  0.00     0.211 HD
ENDBRANCH   5  11
ENDBRANCH   1   5
BRANCH   1  13
ATOM     13  O   UNL     1      -3.590  -5.468   4.487  1.00  0.00    -0.388 OA
ATOM     14  H   UNL     1      -3.278  -4.809   5.162  1.00  0.00     0.211 HD
ENDBRANCH   1  13
TORSDOF 8
ENDMDL
MODEL 9
REMARK VINA RESULT:    -4.166      1.121      3.841
REMARK INTER + INTRA:          -6.350
REMARK INTER:                  -5.815
REMARK INTRA:                  -0.535
REMARK UNBOUND:                -0.723
REMARK SMILES O=C[C@H](O)[C@H](O)[C@H](O)CO
REMARK SMILES IDX 7 1 9 2 10 3 5 5 3 6 2 7 1 8 4 9 6 11 8 13
REMARK H PARENT 10 4 4 10 6 12 8 14
REMARK Flexibility Score: inf
ROOT
ATOM      1  C   UNL     1      -3.962  -8.141   1.371  1.00  0.00     0.171 C 
ENDROOT
BRANCH   1   2
ATOM      2  C   UNL     1      -3.783  -6.885   2.248  1.00  0.00     0.190 C 
BRANCH   2   3
ATOM      3  O   UNL     1      -4.625  -5.855   1.808  1.00  0.00    -0.394 OA
ATOM      4  H   UNL     1      -4.134  -5.005   1.955  1.00  0.00     0.210 HD
ENDBRANCH   2   3
ENDBRANCH   1   2
BRANCH   1   5
ATOM      5  C   UNL     1      -5.325  -8.840   1.630  1.00  0.00     0.181 C 
BRANCH   5   6
ATOM      6  C   UNL     1      -6.191  -8.902   0.343  1.00  0.00     0.209 C 
BRANCH   6   7
ATOM      7  C   UNL     1      -7.632  -8.553   0.625  1.00  0.00     0.258 C 
ATOM      8  O   UNL     1      -8.000  -7.388   0.625  1.00  0.00    -0.300 OA
ENDBRANCH   6   7
BRANCH   6   9
ATOM      9  O   UNL     1      -6.125 -10.169  -0.261  1.00  0.00    -0.383 OA
ATOM     10  H   UNL     1      -5.174 -10.459  -0.252  1.00  0.00     0.211 HD
ENDBRANCH   6   9
ENDBRANCH   5   6
BRANCH   5  11
ATOM     11  O   UNL     1      -6.031  -8.125   2.615  1.00  0.00    -0.387 OA
ATOM     12  H   UNL     1      -6.720  -7.581   2.150  1.00  0.00     0.211 HD
ENDBRANCH   5  11
ENDBRANCH   1   5
BRANCH   1  13
ATOM     13  O   UNL     1      -2.888  -9.025   1.581  1.00  0.00    -0.388 OA
ATOM     14  H   UNL     1      -3.210  -9.749   2.180  1.00  0.00     0.211 HD
ENDBRANCH   1  13
TORSDOF 8
ENDMDL
