MODEL 1
REMARK VINA RESULT:    -3.701      0.000      0.000
REMARK INTER + INTRA:          -4.412
REMARK INTER:                  -4.351
REMARK INTRA:                  -0.062
REMARK UNBOUND:                -0.062
REMARK SMILES CCCCC(=O)[O-]
REMARK SMILES IDX 4 1 5 2 6 3 7 4 3 5 2 6 1 7
REMARK H PARENT
REMARK Flexibility Score: inf
ROOT
ATOM      1  C   UNL     1      10.007 -14.749 -20.845  1.00  0.00     0.053 C 
ENDROOT
BRANCH   1   2
ATOM      2  C   UNL     1      10.699 -14.458 -19.551  1.00  0.00     0.041 C 
ATOM      3  O   UNL     1      10.798 -13.272 -19.140  1.00  0.00    -0.550 OA
ATOM      4  O   UNL     1      11.191 -15.499 -18.777  1.00  0.00    -0.550 OA
ENDBRANCH   1   2
BRANCH   1   5
ATOM      5  C   UNL     1      10.081 -13.537 -21.778  1.00  0.00     0.006 C 
BRANCH   5   6
ATOM      6  C   UNL     1      11.006 -13.815 -22.968  1.00  0.00    -0.003 C 
ATOM      7  C   UNL     1      10.737 -15.192 -23.567  1.00  0.00     0.004 C 
ENDBRANCH   5   6
ENDBRANCH   1   5
TORSDOF 3
ENDMDL
MODEL 2
REMARK VINA RESULT:    -3.684      0.386      1.284
REMARK INTER + INTRA:          -4.392
REMARK INTER:                  -4.324
REMARK INTRA:                  -0.067
REMARK UNBOUND:                -0.062
REMARK SMILES CCCCC(=O)[O-]
REMARK SMILES IDX 4 1 5 2 6 3 7 4 3 5 2 6 1 7
REMARK H PARENT
REMARK Flexibility Score: inf
ROOT
ATOM      1  C   UNL     1      10.006 -15.013 -20.786  1.00  0.00     0.053 C 
ENDROOT
BRANCH   1   2
ATOM      2  C   UNL     1      10.675 -14.614 -19.508  1.00  0.00     0.041 C 
ATOM      3  O   UNL     1      11.196 -15.490 -18.766  1.00  0.00    -0.550 OA
ATOM      4  O   UNL     1      10.767 -13.274 -19.159  1.00  0.00    -0.550 OA
ENDBRANCH   1   2
BRANCH   1   5
ATOM      5  C   UNL     1      10.107 -13.886 -21.817  1.00  0.00     0.006 C 
BRANCH   5   6
ATOM      6  C   UNL     1      11.011 -14.290 -22.987  1.00  0.00    -0.003 C 
ATOM      7  C   UNL     1      11.011 -15.803 -23.189  1.00  0.00     0.004 C 
ENDBRANCH   5   6
ENDBRANCH   1   5
TORSDOF 3
ENDMDL
MODEL 3
REMARK VINA RESULT:    -3.623      1.139      1.810
REMARK INTER + INTRA:          -4.321
REMARK INTER:                  -4.192
REMARK INTRA:                  -0.129
REMARK UNBOUND:                -0.062
REMARK SMILES CCCCC(=O)[O-]
REMARK SMILES IDX 4 1 5 2 6 3 7 4 3 5 2 6 1 7
REMARK H PARENT
REMARK Flexibility Score: inf
ROOT
ATOM      1  C   UNL     1       9.556 -14.650 -20.956  1.00  0.00     0.053 C 
ENDROOT
BRANCH   1   2
ATOM      2  C   UNL     1      10.163 -13.574 -20.110  1.00  0.00     0.041 C 
ATOM      3  O   UNL     1      10.823 -13.875 -19.081  1.00  0.00    -0.550 OA
ATOM      4  O   UNL     1      10.040 -12.243 -20.485  1.00  0.00    -0.550 OA
ENDBRANCH   1   2
BRANCH   1   5
ATOM      5  C   UNL     1      10.649 -15.465 -21.651  1.00  0.00     0.006 C 
BRANCH   5   6
ATOM      6  C   UNL     1      11.328 -14.646 -22.755  1.00  0.00    -0.003 C 
ATOM      7  C   UNL     1      10.322 -14.204 -23.813  1.00  0.00     0.004 C 
ENDBRANCH   5   6
ENDBRANCH   1   5
TORSDOF 3
ENDMDL
MODEL 4
REMARK VINA RESULT:    -3.544      0.705      1.134
REMARK INTER + INTRA:          -4.227
REMARK INTER:                  -4.168
REMARK INTRA:                  -0.059
REMARK UNBOUND:                -0.062
REMARK SMILES CCCCC(=O)[O-]
REMARK SMILES IDX 4 1 5 2 6 3 7 4 3 5 2 6 1 7
REMARK H PARENT
REMARK Flexibility Score: inf
ROOT
ATOM      1  C   UNL     1       9.770 -14.731 -20.660  1.00  0.00     0.053 C 
ENDROOT
BRANCH   1   2
ATOM      2  C   UNL     1      10.670 -14.450 -19.498  1.00  0.00     0.041 C 
ATOM      3  O   UNL     1      10.875 -13.264 -19.129  1.00  0.00    -0.550 OA
ATOM      4  O   UNL     1      11.243 -15.500 -18.793  1.00  0.00    -0.550 OA
ENDBRANCH   1   2
BRANCH   1   5
ATOM      5  C   UNL     1      10.505 -15.557 -21.720  1.00  0.00     0.006 C 
BRANCH   5   6
ATOM      6  C   UNL     1      10.279 -14.978 -23.121  1.00  0.00    -0.003 C 
ATOM      7  C   UNL     1      10.873 -13.578 -23.243  1.00  0.00     0.004 C 
ENDBRANCH   5   6
ENDBRANCH   1   5
TORSDOF 3
ENDMDL
MODEL 5
REMARK VINA RESULT:    -3.250      2.676      3.698
REMARK INTER + INTRA:          -3.881
REMARK INTER:                  -3.796
REMARK INTRA:                  -0.086
REMARK UNBOUND:                -0.062
REMARK SMILES CCCCC(=O)[O-]
REMARK SMILES IDX 4 1 5 2 6 3 7 4 3 5 2 6 1 7
REMARK H PARENT
REMARK Flexibility Score: inf
ROOT
ATOM      1  C   UNL     1      10.826 -13.700 -22.908  1.00  0.00     0.053 C 
ENDROOT
BRANCH   1   2
ATOM      2  C   UNL     1      10.157 -12.364 -22.831  1.00  0.00     0.041 C 
ATOM      3  O   UNL     1      10.800 -11.357 -22.433  1.00  0.00    -0.550 OA
ATOM      4  O   UNL     1       8.840 -12.220 -23.244  1.00  0.00    -0.550 OA
ENDBRANCH   1   2
BRANCH   1   5
ATOM      5  C   UNL     1      10.084 -14.722 -22.042  1.00  0.00     0.006 C 
BRANCH   5   6
ATOM      6  C   UNL     1       9.991 -14.245 -20.588  1.00  0.00    -0.003 C 
ATOM      7  C   UNL     1      10.906 -15.060 -19.679  1.00  0.00     0.004 C 
ENDBRANCH   5   6
ENDBRANCH   1   5
TORSDOF 3
ENDMDL
MODEL 6
REMARK VINA RESULT:    -3.198     15.724     16.227
REMARK INTER + INTRA:          -3.820
REMARK INTER:                  -3.734
REMARK INTRA:                  -0.086
REMARK UNBOUND:                -0.062
REMARK SMILES CCCCC(=O)[O-]
REMARK SMILES IDX 4 1 5 2 6 3 7 4 3 5 2 6 1 7
REMARK H PARENT
REMARK Flexibility Score: inf
ROOT
ATOM      1  C   UNL     1      23.238  -5.771 -27.414  1.00  0.00     0.053 C 
ENDROOT
BRANCH   1   2
ATOM      2  C   UNL     1      23.396  -6.839 -26.379  1.00  0.00     0.041 C 
ATOM      3  O   UNL     1      23.148  -8.040 -26.667  1.00  0.00    -0.550 OA
ATOM      4  O   UNL     1      23.862  -6.517 -25.112  1.00  0.00    -0.550 OA
ENDBRANCH   1   2
BRANCH   1   5
ATOM      5  C   UNL     1      23.678  -6.285 -28.788  1.00  0.00     0.006 C 
BRANCH   5   6
ATOM      6  C   UNL     1      22.512  -6.262 -29.783  1.00  0.00    -0.003 C 
ATOM      7  C   UNL     1      22.306  -7.631 -30.424  1.00  0.00     0.004 C 
ENDBRANCH   5   6
ENDBRANCH   1   5
TORSDOF 3
ENDMDL
MODEL 7
REMARK VINA RESULT:    -3.127      2.378      3.296
REMARK INTER + INTRA:          -3.738
REMARK INTER:                  -3.708
REMARK INTRA:                  -0.029
REMARK UNBOUND:                -0.062
REMARK SMILES CCCCC(=O)[O-]
REMARK SMILES IDX 4 1 5 2 6 3 7 4 3 5 2 6 1 7
REMARK H PARENT
REMARK Flexibility Score: inf
ROOT
ATOM      1  C   UNL     1      10.492 -13.652 -23.419  1.00  0.00     0.053 C 
ENDROOT
BRANCH   1   2
ATOM      2  C   UNL     1      10.074 -12.427 -22.669  1.00  0.00     0.041 C 
ATOM      3  O   UNL     1       9.735 -11.387 -23.294  1.00  0.00    -0.550 OA
ATOM      4  O   UNL     1      10.010 -12.448 -21.282  1.00  0.00    -0.550 OA
ENDBRANCH   1   2
BRANCH   1   5
ATOM      5  C   UNL     1      11.182 -14.646 -22.481  1.00  0.00     0.006 C 
BRANCH   5   6
ATOM      6  C   UNL     1      10.871 -16.091 -22.886  1.00  0.00    -0.003 C 
ATOM      7  C   UNL     1      10.490 -16.935 -21.673  1.00  0.00     0.004 C 
ENDBRANCH   5   6
ENDBRANCH   1   5
TORSDOF 3
ENDMDL
MODEL 8
REMARK VINA RESULT:    -3.099     15.713     16.423
REMARK INTER + INTRA:          -3.705
REMARK INTER:                  -3.667
REMARK INTRA:                  -0.038
REMARK UNBOUND:                -0.062
REMARK SMILES CCCCC(=O)[O-]
REMARK SMILES IDX 4 1 5 2 6 3 7 4 3 5 2 6 1 7
REMARK H PARENT
REMARK Flexibility Score: inf
ROOT
ATOM      1  C   UNL     1      23.466  -8.037 -26.970  1.00  0.00     0.053 C 
ENDROOT
BRANCH   1   2
ATOM      2  C   UNL     1      23.448  -6.629 -26.462  1.00  0.00     0.041 C 
ATOM      3  O   UNL     1      23.023  -5.698 -27.195  1.00  0.00    -0.550 OA
ATOM      4  O   UNL     1      23.856  -6.353 -25.164  1.00  0.00    -0.550 OA
ENDBRANCH   1   2
BRANCH   1   5
ATOM      5  C   UNL     1      24.058  -8.091 -28.381  1.00  0.00     0.006 C 
BRANCH   5   6
ATOM      6  C   UNL     1      24.803  -9.410 -28.615  1.00  0.00    -0.003 C 
ATOM      7  C   UNL     1      26.082  -9.476 -27.786  1.00  0.00     0.004 C 
ENDBRANCH   5   6
ENDBRANCH   1   5
TORSDOF 3
ENDMDL
MODEL 9
REMARK VINA RESULT:    -2.994     15.888     16.799
REMARK INTER + INTRA:          -3.581
REMARK INTER:                  -3.522
REMARK INTRA:                  -0.060
REMARK UNBOUND:                -0.062
REMARK SMILES CCCCC(=O)[O-]
REMARK SMILES IDX 4 1 5 2 6 3 7 4 3 5 2 6 1 7
REMARK H PARENT
REMARK Flexibility Score: inf
ROOT
ATOM      1  C   UNL     1      23.243  -5.751 -27.398  1.00  0.00     0.053 C 
ENDROOT
BRANCH   1   2
ATOM      2  C   UNL     1      23.419  -6.780 -26.326  1.00  0.00     0.041 C 
ATOM      3  O   UNL     1      23.183  -7.993 -26.568  1.00  0.00    -0.550 OA
ATOM      4  O   UNL     1      23.889  -6.406 -25.075  1.00  0.00    -0.550 OA
ENDBRANCH   1   2
BRANCH   1   5
ATOM      5  C   UNL     1      23.099  -6.423 -28.767  1.00  0.00     0.006 C 
BRANCH   5   6
ATOM      6  C   UNL     1      24.032  -5.776 -29.797  1.00  0.00    -0.003 C 
ATOM      7  C   UNL     1      24.595  -4.456 -29.280  1.00  0.00     0.004 C 
ENDBRANCH   5   6
ENDBRANCH   1   5
TORSDOF 3
ENDMDL
