MODEL 1
REMARK VINA RESULT:    -3.207      0.000      0.000
REMARK INTER + INTRA:          -3.488
REMARK INTER:                  -3.488
REMARK INTRA:                   0.000
REMARK UNBOUND:                 0.000
REMARK SMILES [NH3+]CC(=O)[O-]
REMARK SMILES IDX 2 1 1 2 3 6 4 7 5 8
REMARK H PARENT 1 3 1 4 1 5
REMARK Flexibility Score: inf
ROOT
ATOM      1  C   UNL     1      24.595   5.650  15.862  1.00  0.00     0.312 C 
ENDROOT
BRANCH   1   2
ATOM      2  N   UNL     1      24.327   4.217  15.958  1.00  0.00    -0.353 N 
ATOM      3  H   UNL     1      23.883   4.013  16.882  1.00  0.00     0.344 HD
ATOM      4  H   UNL     1      23.675   3.921  15.195  1.00  0.00     0.344 HD
ATOM      5  H   UNL     1      25.222   3.679  15.887  1.00  0.00     0.344 HD
ENDBRANCH   1   2
BRANCH   1   6
ATOM      6  C   UNL     1      23.543   6.330  15.041  1.00  0.00     0.096 C 
ATOM      7  O   UNL     1      23.842   6.849  13.932  1.00  0.00    -0.544 OA
ATOM      8  O   UNL     1      22.246   6.435  15.523  1.00  0.00    -0.544 OA
ENDBRANCH   1   6
TORSDOF 2
ENDMDL
MODEL 2
REMARK VINA RESULT:    -3.144      2.324      2.450
REMARK INTER + INTRA:          -3.419
REMARK INTER:                  -3.419
REMARK INTRA:                   0.000
REMARK UNBOUND:                 0.000
REMARK SMILES [NH3+]CC(=O)[O-]
REMARK SMILES IDX 2 1 1 2 3 6 4 7 5 8
REMARK H PARENT 1 3 1 4 1 5
REMARK Flexibility Score: inf
ROOT
ATOM      1  C   UNL     1      23.965   6.798  14.152  1.00  0.00     0.312 C 
ENDROOT
BRANCH   1   2
ATOM      2  N   UNL     1      24.196   8.213  14.434  1.00  0.00    -0.353 N 
ATOM      3  H   UNL     1      24.206   8.744  13.533  1.00  0.00     0.344 HD
ATOM      4  H   UNL     1      23.431   8.589  15.041  1.00  0.00     0.344 HD
ATOM      5  H   UNL     1      25.119   8.338  14.910  1.00  0.00     0.344 HD
ENDBRANCH   1   2
BRANCH   1   6
ATOM      6  C   UNL     1      23.454   6.093  15.371  1.00  0.00     0.096 C 
ATOM      7  O   UNL     1      24.154   5.210  15.933  1.00  0.00    -0.544 OA
ATOM      8  O   UNL     1      22.184   6.377  15.856  1.00  0.00    -0.544 OA
ENDBRANCH   1   6
TORSDOF 2
ENDMDL
MODEL 3
REMARK VINA RESULT:    -3.113      2.471      2.684
REMARK INTER + INTRA:          -3.386
REMARK INTER:                  -3.386
REMARK INTRA:                   0.000
REMARK UNBOUND:                 0.000
REMARK SMILES [NH3+]CC(=O)[O-]
REMARK SMILES IDX 2 1 1 2 3 6 4 7 5 8
REMARK H PARENT 1 3 1 4 1 5
REMARK Flexibility Score: inf
ROOT
ATOM      1  C   UNL     1      21.936   6.829  15.537  1.00  0.00     0.312 C 
ENDROOT
BRANCH   1   2
ATOM      2  N   UNL     1      21.788   8.277  15.416  1.00  0.00    -0.353 N 
ATOM      3  H   UNL     1      22.228   8.737  16.247  1.00  0.00     0.344 HD
ATOM      4  H   UNL     1      22.265   8.617  14.549  1.00  0.00     0.344 HD
ATOM      5  H   UNL     1      20.774   8.534  15.386  1.00  0.00     0.344 HD
ENDBRANCH   1   2
BRANCH   1   6
ATOM      6  C   UNL     1      23.297   6.397  15.084  1.00  0.00     0.096 C 
ATOM      7  O   UNL     1      23.794   6.874  14.029  1.00  0.00    -0.544 OA
ATOM      8  O   UNL     1      23.993   5.432  15.798  1.00  0.00    -0.544 OA
ENDBRANCH   1   6
TORSDOF 2
ENDMDL
MODEL 4
REMARK VINA RESULT:    -3.101      2.456      2.930
REMARK INTER + INTRA:          -3.372
REMARK INTER:                  -3.372
REMARK INTRA:                   0.000
REMARK UNBOUND:                 0.000
REMARK SMILES [NH3+]CC(=O)[O-]
REMARK SMILES IDX 2 1 1 2 3 6 4 7 5 8
REMARK H PARENT 1 3 1 4 1 5
REMARK Flexibility Score: inf
ROOT
ATOM      1  C   UNL     1      23.455   6.743  14.770  1.00  0.00     0.312 C 
ENDROOT
BRANCH   1   2
ATOM      2  N   UNL     1      23.914   7.424  13.562  1.00  0.00    -0.353 N 
ATOM      3  H   UNL     1      24.510   8.239  13.833  1.00  0.00     0.344 HD
ATOM      4  H   UNL     1      24.481   6.770  12.974  1.00  0.00     0.344 HD
ATOM      5  H   UNL     1      23.094   7.772  13.013  1.00  0.00     0.344 HD
ENDBRANCH   1   2
BRANCH   1   6
ATOM      6  C   UNL     1      24.599   6.071  15.465  1.00  0.00     0.096 C 
ATOM      7  O   UNL     1      24.405   5.022  16.135  1.00  0.00    -0.544 OA
ATOM      8  O   UNL     1      25.868   6.632  15.414  1.00  0.00    -0.544 OA
ENDBRANCH   1   6
TORSDOF 2
ENDMDL
MODEL 5
REMARK VINA RESULT:    -3.098      2.432      2.775
REMARK INTER + INTRA:          -3.370
REMARK INTER:                  -3.370
REMARK INTRA:                   0.000
REMARK UNBOUND:                 0.000
REMARK SMILES [NH3+]CC(=O)[O-]
REMARK SMILES IDX 2 1 1 2 3 6 4 7 5 8
REMARK H PARENT 1 3 1 4 1 5
REMARK Flexibility Score: inf
ROOT
ATOM      1  C   UNL     1      23.287   6.627  14.849  1.00  0.00     0.312 C 
ENDROOT
BRANCH   1   2
ATOM      2  N   UNL     1      23.961   7.502  13.891  1.00  0.00    -0.353 N 
ATOM      3  H   UNL     1      24.977   7.257  13.860  1.00  0.00     0.344 HD
ATOM      4  H   UNL     1      23.552   7.374  12.937  1.00  0.00     0.344 HD
ATOM      5  H   UNL     1      23.863   8.501  14.187  1.00  0.00     0.344 HD
ENDBRANCH   1   2
BRANCH   1   6
ATOM      6  C   UNL     1      22.106   7.319  15.456  1.00  0.00     0.096 C 
ATOM      7  O   UNL     1      21.133   6.648  15.890  1.00  0.00    -0.544 OA
ATOM      8  O   UNL     1      22.058   8.706  15.496  1.00  0.00    -0.544 OA
ENDBRANCH   1   6
TORSDOF 2
ENDMDL
MODEL 6
REMARK VINA RESULT:    -3.073      1.529      1.978
REMARK INTER + INTRA:          -3.343
REMARK INTER:                  -3.343
REMARK INTRA:                   0.000
REMARK UNBOUND:                 0.000
REMARK SMILES [NH3+]CC(=O)[O-]
REMARK SMILES IDX 2 1 1 2 3 6 4 7 5 8
REMARK H PARENT 1 3 1 4 1 5
REMARK Flexibility Score: inf
ROOT
ATOM      1  C   UNL     1      23.763   5.697  15.379  1.00  0.00     0.312 C 
ENDROOT
BRANCH   1   2
ATOM      2  N   UNL     1      24.423   4.503  15.904  1.00  0.00    -0.353 N 
ATOM      3  H   UNL     1      23.985   4.244  16.818  1.00  0.00     0.344 HD
ATOM      4  H   UNL     1      24.309   3.706  15.236  1.00  0.00     0.344 HD
ATOM      5  H   UNL     1      25.440   4.693  16.058  1.00  0.00     0.344 HD
ENDBRANCH   1   2
BRANCH   1   6
ATOM      6  C   UNL     1      24.758   6.792  15.150  1.00  0.00     0.096 C 
ATOM      7  O   UNL     1      24.385   7.896  14.672  1.00  0.00    -0.544 OA
ATOM      8  O   UNL     1      26.103   6.577  15.418  1.00  0.00    -0.544 OA
ENDBRANCH   1   6
TORSDOF 2
ENDMDL
MODEL 7
REMARK VINA RESULT:    -2.854      2.698      2.925
REMARK INTER + INTRA:          -3.104
REMARK INTER:                  -3.104
REMARK INTRA:                   0.000
REMARK UNBOUND:                 0.000
REMARK SMILES [NH3+]CC(=O)[O-]
REMARK SMILES IDX 2 1 1 2 3 6 4 7 5 8
REMARK H PARENT 1 3 1 4 1 5
REMARK Flexibility Score: inf
ROOT
ATOM      1  C   UNL     1      24.358   7.988  14.744  1.00  0.00     0.312 C 
ENDROOT
BRANCH   1   2
ATOM      2  N   UNL     1      23.846   9.351  14.869  1.00  0.00    -0.353 N 
ATOM      3  H   UNL     1      23.501   9.674  13.936  1.00  0.00     0.344 HD
ATOM      4  H   UNL     1      23.053   9.377  15.551  1.00  0.00     0.344 HD
ATOM      5  H   UNL     1      24.608   9.993  15.188  1.00  0.00     0.344 HD
ENDBRANCH   1   2
BRANCH   1   6
ATOM      6  C   UNL     1      23.288   6.991  15.065  1.00  0.00     0.096 C 
ATOM      7  O   UNL     1      22.112   7.377  15.297  1.00  0.00    -0.544 OA
ATOM      8  O   UNL     1      23.601   5.642  15.156  1.00  0.00    -0.544 OA
ENDBRANCH   1   6
TORSDOF 2
ENDMDL
MODEL 8
REMARK VINA RESULT:    -2.411      2.158      2.294
REMARK INTER + INTRA:          -2.622
REMARK INTER:                  -2.622
REMARK INTRA:                   0.000
REMARK UNBOUND:                 0.000
REMARK SMILES [NH3+]CC(=O)[O-]
REMARK SMILES IDX 2 1 1 2 3 6 4 7 5 8
REMARK H PARENT 1 3 1 4 1 5
REMARK Flexibility Score: inf
ROOT
ATOM      1  C   UNL     1      22.137   6.850  15.485  1.00  0.00     0.312 C 
ENDROOT
BRANCH   1   2
ATOM      2  N   UNL     1      22.943   5.666  15.199  1.00  0.00    -0.353 N 
ATOM      3  H   UNL     1      22.476   5.106  14.449  1.00  0.00     0.344 HD
ATOM      4  H   UNL     1      23.894   5.950  14.867  1.00  0.00     0.344 HD
ATOM      5  H   UNL     1      23.030   5.074  16.057  1.00  0.00     0.344 HD
ENDBRANCH   1   2
BRANCH   1   6
ATOM      6  C   UNL     1      22.918   8.099  15.216  1.00  0.00     0.096 C 
ATOM      7  O   UNL     1      24.084   8.028  14.744  1.00  0.00    -0.544 OA
ATOM      8  O   UNL     1      22.379   9.338  15.534  1.00  0.00    -0.544 OA
ENDBRANCH   1   6
TORSDOF 2
ENDMDL
