MODEL 1
REMARK VINA RESULT:    -5.018      0.000      0.000
REMARK INTER + INTRA:          -3.966
REMARK INTER:                  -6.191
REMARK INTRA:                   2.225
REMARK UNBOUND:                 2.225
REMARK SMILES C=C1CC[C@@H]2[C@H]([C@@H]3[C@H](C)CC[C@@H]13)C2(C)C
REMARK SMILES IDX 3 1 2 2 1 3 12 4 9 5 8 6 10 7 7 8 11 9 4 11 5 12 6 13 13 14
REMARK SMILES IDX 14 16 15 17
REMARK H PARENT
REMARK Flexibility Score: 80.00
ROOT
ATOM      1  C   UNL     1       9.309  34.310  24.608  1.00  0.00     0.031 C 
ENDROOT
BRANCH   1   2
ATOM      2  C   UNL     1       8.952  32.948  25.183  1.00  0.00    -0.074 C 
ATOM      3  C   UNL     1       9.553  32.559  26.327  1.00  0.00     0.008 C 
BRANCH   2   4
ATOM      4  C   UNL     1       7.808  32.151  24.544  1.00  0.00     0.018 C 
ATOM      5  C   UNL     1       6.274  30.502  21.675  1.00  0.00     0.008 C 
ATOM      6  C   UNL     1       7.313  30.465  22.808  1.00  0.00    -0.010 C 
ATOM      7  C   UNL     1       6.674  30.067  24.140  1.00  0.00     0.004 C 
ATOM      8  C   UNL     1       8.091  31.785  23.077  1.00  0.00     0.003 CG0
ATOM      9  C   UNL     1       7.464  30.811  25.198  1.00  0.00     0.008 C 
ATOM     10  G   UNL     1       7.705  32.964  22.144  1.00  0.00     0.000 G0
ENDBRANCH   2   4
ENDBRANCH   1   2
BRANCH   1  11
ATOM     11  C   UNL     1       9.788  34.233  23.152  1.00  0.00     0.009 C 
BRANCH  11  12
ATOM     12  C   UNL     1       8.591  34.229  22.178  1.00  0.00    -0.001 C 
ATOM     13  C   UNL     1       7.700  32.974  22.158  1.00  0.00     0.002 CG0
ATOM     14  C   UNL     1       8.548  33.336  20.925  1.00  0.00    -0.029 C 
ATOM     15  G   UNL     1       8.116  31.794  23.076  1.00  0.00     0.000 G0
ATOM     16  C   UNL     1       7.725  33.891  19.757  1.00  0.00     0.011 C 
ATOM     17  C   UNL     1       9.722  32.422  20.523  1.00  0.00     0.011 C 
ENDBRANCH  11  12
ENDBRANCH   1  11
TORSDOF 0
ENDMDL
MODEL 2
REMARK VINA RESULT:    -4.708      1.865      3.272
REMARK INTER + INTRA:          -3.584
REMARK INTER:                  -5.828
REMARK INTRA:                   2.243
REMARK UNBOUND:                 2.225
REMARK SMILES C=C1CC[C@@H]2[C@H]([C@@H]3[C@H](C)CC[C@@H]13)C2(C)C
REMARK SMILES IDX 3 1 2 2 1 3 12 4 9 5 8 6 10 7 7 8 11 9 4 11 5 12 6 13 13 14
REMARK SMILES IDX 14 16 15 17
REMARK H PARENT
REMARK Flexibility Score: 80.00
ROOT
ATOM      1  C   UNL     1       9.830  33.468  24.726  1.00  0.00     0.031 C 
ENDROOT
BRANCH   1   2
ATOM      2  C   UNL     1       8.475  33.235  24.075  1.00  0.00    -0.074 C 
ATOM      3  C   UNL     1       7.441  32.871  24.861  1.00  0.00     0.008 C 
BRANCH   2   4
ATOM      4  C   UNL     1       8.295  33.588  22.593  1.00  0.00     0.018 C 
ATOM      5  C   UNL     1       9.225  33.225  19.085  1.00  0.00     0.008 C 
ATOM      6  C   UNL     1       8.488  32.661  20.311  1.00  0.00    -0.010 C 
ATOM      7  C   UNL     1       7.127  33.335  20.504  1.00  0.00     0.004 C 
ATOM      8  C   UNL     1       9.226  32.777  21.676  1.00  0.00     0.003 CG0
ATOM      9  C   UNL     1       6.903  33.356  22.002  1.00  0.00     0.008 C 
ATOM     10  G   UNL     1      10.624  33.447  21.599  1.00  0.00     0.000 G0
ENDBRANCH   2   4
ENDBRANCH   1   2
BRANCH   1  11
ATOM     11  C   UNL     1      10.948  32.633  24.086  1.00  0.00     0.009 C 
BRANCH  11  12
ATOM     12  C   UNL     1      11.531  33.350  22.850  1.00  0.00    -0.001 C 
ATOM     13  C   UNL     1      10.634  33.455  21.604  1.00  0.00     0.002 CG0
ATOM     14  C   UNL     1      11.913  32.598  21.562  1.00  0.00    -0.029 C 
ATOM     15  G   UNL     1       9.239  32.778  21.675  1.00  0.00     0.000 G0
ATOM     16  C   UNL     1      13.048  33.231  20.750  1.00  0.00     0.011 C 
ATOM     17  C   UNL     1      11.791  31.067  21.434  1.00  0.00     0.011 C 
ENDBRANCH  11  12
ENDBRANCH   1  11
TORSDOF 0
ENDMDL
MODEL 3
REMARK VINA RESULT:    -4.674      1.722      4.369
REMARK INTER + INTRA:          -3.542
REMARK INTER:                  -5.761
REMARK INTRA:                   2.219
REMARK UNBOUND:                 2.225
REMARK SMILES C=C1CC[C@@H]2[C@H]([C@@H]3[C@H](C)CC[C@@H]13)C2(C)C
REMARK SMILES IDX 3 1 2 2 1 3 12 4 9 5 8 6 10 7 7 8 11 9 4 11 5 12 6 13 13 14
REMARK SMILES IDX 14 16 15 17
REMARK H PARENT
REMARK Flexibility Score: 80.00
ROOT
ATOM      1  C   UNL     1      12.380  32.519  22.265  1.00  0.00     0.031 C 
ENDROOT
BRANCH   1   2
ATOM      2  C   UNL     1      11.802  33.106  20.986  1.00  0.00    -0.074 C 
ATOM      3  C   UNL     1      12.652  33.652  20.092  1.00  0.00     0.008 C 
BRANCH   2   4
ATOM      4  C   UNL     1      10.312  32.901  20.685  1.00  0.00     0.018 C 
ATOM      5  C   UNL     1       6.793  33.269  21.571  1.00  0.00     0.008 C 
ATOM      6  C   UNL     1       8.080  33.906  21.022  1.00  0.00    -0.010 C 
ATOM      7  C   UNL     1       8.294  33.554  19.548  1.00  0.00     0.004 C 
ATOM      8  C   UNL     1       9.402  33.534  21.752  1.00  0.00     0.003 CG0
ATOM      9  C   UNL     1       9.797  33.488  19.369  1.00  0.00     0.008 C 
ATOM     10  G   UNL     1       9.227  32.565  22.953  1.00  0.00     0.000 G0
ENDBRANCH   2   4
ENDBRANCH   1   2
BRANCH   1  11
ATOM     11  C   UNL     1      11.749  33.115  23.530  1.00  0.00     0.009 C 
BRANCH  11  12
ATOM     12  C   UNL     1      10.446  32.375  23.897  1.00  0.00    -0.001 C 
ATOM     13  C   UNL     1       9.237  32.570  22.965  1.00  0.00     0.002 CG0
ATOM     14  C   UNL     1       9.193  33.111  24.407  1.00  0.00    -0.029 C 
ATOM     15  G   UNL     1       9.412  33.542  21.768  1.00  0.00     0.000 G0
ATOM     16  C   UNL     1       8.293  32.295  25.341  1.00  0.00     0.011 C 
ATOM     17  C   UNL     1       9.170  34.635  24.639  1.00  0.00     0.011 C 
ENDBRANCH  11  12
ENDBRANCH   1  11
TORSDOF 0
ENDMDL
MODEL 4
REMARK VINA RESULT:    -4.577      1.429      3.366
REMARK INTER + INTRA:          -3.423
REMARK INTER:                  -5.660
REMARK INTRA:                   2.238
REMARK UNBOUND:                 2.225
REMARK SMILES C=C1CC[C@@H]2[C@H]([C@@H]3[C@H](C)CC[C@@H]13)C2(C)C
REMARK SMILES IDX 3 1 2 2 1 3 12 4 9 5 8 6 10 7 7 8 11 9 4 11 5 12 6 13 13 14
REMARK SMILES IDX 14 16 15 17
REMARK H PARENT
REMARK Flexibility Score: 80.00
ROOT
ATOM      1  C   UNL     1       8.745  32.388  25.185  1.00  0.00     0.031 C 
ENDROOT
BRANCH   1   2
ATOM      2  C   UNL     1      10.010  32.999  24.602  1.00  0.00    -0.074 C 
ATOM      3  C   UNL     1      10.717  33.857  25.365  1.00  0.00     0.008 C 
BRANCH   2   4
ATOM      4  C   UNL     1      10.522  32.490  23.248  1.00  0.00     0.018 C 
ATOM      5  C   UNL     1      10.054  31.853  19.688  1.00  0.00     0.008 C 
ATOM      6  C   UNL     1      10.347  32.860  20.812  1.00  0.00    -0.010 C 
ATOM      7  C   UNL     1      11.815  32.804  21.243  1.00  0.00     0.004 C 
ATOM      8  C   UNL     1       9.508  32.709  22.113  1.00  0.00     0.003 CG0
ATOM      9  C   UNL     1      11.808  33.132  22.722  1.00  0.00     0.008 C 
ATOM     10  G   UNL     1       8.474  31.552  22.084  1.00  0.00     0.000 G0
ENDBRANCH   2   4
ENDBRANCH   1   2
BRANCH   1  11
ATOM     11  C   UNL     1       7.511  32.620  24.302  1.00  0.00     0.009 C 
BRANCH  11  12
ATOM     12  C   UNL     1       7.401  31.533  23.213  1.00  0.00    -0.001 C 
ATOM     13  C   UNL     1       8.453  31.547  22.091  1.00  0.00     0.002 CG0
ATOM     14  C   UNL     1       6.979  31.851  21.767  1.00  0.00    -0.029 C 
ATOM     15  G   UNL     1       9.502  32.691  22.116  1.00  0.00     0.000 G0
ATOM     16  C   UNL     1       6.265  30.712  21.030  1.00  0.00     0.011 C 
ATOM     17  C   UNL     1       6.583  33.272  21.318  1.00  0.00     0.011 C 
ENDBRANCH  11  12
ENDBRANCH   1  11
TORSDOF 0
ENDMDL
MODEL 5
REMARK VINA RESULT:    -4.521      2.516      4.488
REMARK INTER + INTRA:          -3.354
REMARK INTER:                  -5.590
REMARK INTRA:                   2.237
REMARK UNBOUND:                 2.225
REMARK SMILES C=C1CC[C@@H]2[C@H]([C@@H]3[C@H](C)CC[C@@H]13)C2(C)C
REMARK SMILES IDX 3 1 2 2 1 3 12 4 9 5 8 6 10 7 7 8 11 9 4 11 5 12 6 13 13 14
REMARK SMILES IDX 14 16 15 17
REMARK H PARENT
REMARK Flexibility Score: 80.00
ROOT
ATOM      1  C   UNL     1      10.162  33.392  23.931  1.00  0.00     0.031 C 
ENDROOT
BRANCH   1   2
ATOM      2  C   UNL     1       9.016  33.492  22.935  1.00  0.00    -0.074 C 
ATOM      3  C   UNL     1       7.764  33.250  23.374  1.00  0.00     0.008 C 
BRANCH   2   4
ATOM      4  C   UNL     1       9.304  34.027  21.526  1.00  0.00     0.018 C 
ATOM      5  C   UNL     1      11.092  33.869  18.351  1.00  0.00     0.008 C 
ATOM      6  C   UNL     1       9.972  33.326  19.253  1.00  0.00    -0.010 C 
ATOM      7  C   UNL     1       8.728  34.217  19.198  1.00  0.00     0.004 C 
ATOM      8  C   UNL     1      10.317  33.158  20.761  1.00  0.00     0.003 CG0
ATOM      9  C   UNL     1       8.108  34.121  20.577  1.00  0.00     0.008 C 
ATOM     10  G   UNL     1      11.767  33.560  21.140  1.00  0.00     0.000 G0
ENDBRANCH   2   4
ENDBRANCH   1   2
BRANCH   1  11
ATOM     11  C   UNL     1      11.273  32.441  23.466  1.00  0.00     0.009 C 
BRANCH  11  12
ATOM     12  C   UNL     1      12.275  33.172  22.548  1.00  0.00    -0.001 C 
ATOM     13  C   UNL     1      11.784  33.577  21.147  1.00  0.00     0.002 CG0
ATOM     14  C   UNL     1      12.885  32.510  21.299  1.00  0.00    -0.029 C 
ATOM     15  G   UNL     1      10.341  33.163  20.753  1.00  0.00     0.000 G0
ATOM     16  C   UNL     1      14.281  33.011  20.912  1.00  0.00     0.011 C 
ATOM     17  C   UNL     1      12.580  31.051  20.906  1.00  0.00     0.011 C 
ENDBRANCH  11  12
ENDBRANCH   1  11
TORSDOF 0
ENDMDL
MODEL 6
REMARK VINA RESULT:    -4.442      1.119      3.507
REMARK INTER + INTRA:          -3.256
REMARK INTER:                  -5.496
REMARK INTRA:                   2.239
REMARK UNBOUND:                 2.225
REMARK SMILES C=C1CC[C@@H]2[C@H]([C@@H]3[C@H](C)CC[C@@H]13)C2(C)C
REMARK SMILES IDX 3 1 2 2 1 3 12 4 9 5 8 6 10 7 7 8 11 9 4 11 5 12 6 13 13 14
REMARK SMILES IDX 14 16 15 17
REMARK H PARENT
REMARK Flexibility Score: 80.00
ROOT
ATOM      1  C   UNL     1       6.994  30.804  25.152  1.00  0.00     0.031 C 
ENDROOT
BRANCH   1   2
ATOM      2  C   UNL     1       7.051  30.186  23.763  1.00  0.00    -0.074 C 
ATOM      3  C   UNL     1       6.864  28.855  23.646  1.00  0.00     0.008 C 
BRANCH   2   4
ATOM      4  C   UNL     1       7.143  31.112  22.543  1.00  0.00     0.018 C 
ATOM      5  C   UNL     1       8.819  33.737  20.644  1.00  0.00     0.008 C 
ATOM      6  C   UNL     1       8.753  32.258  21.060  1.00  0.00    -0.010 C 
ATOM      7  C   UNL     1       7.715  31.491  20.237  1.00  0.00     0.004 C 
ATOM      8  C   UNL     1       8.418  31.973  22.552  1.00  0.00     0.003 CG0
ATOM      9  C   UNL     1       7.168  30.433  21.173  1.00  0.00     0.008 C 
ATOM     10  G   UNL     1       8.204  33.243  23.420  1.00  0.00     0.000 G0
ENDBRANCH   2   4
ENDBRANCH   1   2
BRANCH   1  11
ATOM     11  C   UNL     1       8.253  31.612  25.494  1.00  0.00     0.009 C 
BRANCH  11  12
ATOM     12  C   UNL     1       8.143  33.055  24.958  1.00  0.00    -0.001 C 
ATOM     13  C   UNL     1       8.196  33.248  23.432  1.00  0.00     0.002 CG0
ATOM     14  C   UNL     1       9.334  33.791  24.317  1.00  0.00    -0.029 C 
ATOM     15  G   UNL     1       8.415  31.980  22.564  1.00  0.00     0.000 G0
ATOM     16  C   UNL     1       9.317  35.316  24.470  1.00  0.00     0.011 C 
ATOM     17  C   UNL     1      10.735  33.158  24.214  1.00  0.00     0.011 C 
ENDBRANCH  11  12
ENDBRANCH   1  11
TORSDOF 0
ENDMDL
MODEL 7
REMARK VINA RESULT:    -4.342      2.091      3.669
REMARK INTER + INTRA:          -3.133
REMARK INTER:                  -5.342
REMARK INTRA:                   2.209
REMARK UNBOUND:                 2.225
REMARK SMILES C=C1CC[C@@H]2[C@H]([C@@H]3[C@H](C)CC[C@@H]13)C2(C)C
REMARK SMILES IDX 3 1 2 2 1 3 12 4 9 5 8 6 10 7 7 8 11 9 4 11 5 12 6 13 13 14
REMARK SMILES IDX 14 16 15 17
REMARK H PARENT
REMARK Flexibility Score: 80.00
ROOT
ATOM      1  C   UNL     1      12.373  33.732  19.915  1.00  0.00     0.031 C 
ENDROOT
BRANCH   1   2
ATOM      2  C   UNL     1      12.349  33.172  21.329  1.00  0.00    -0.074 C 
ATOM      3  C   UNL     1      13.474  32.606  21.812  1.00  0.00     0.008 C 
BRANCH   2   4
ATOM      4  C   UNL     1      11.115  33.425  22.205  1.00  0.00     0.018 C 
ATOM      5  C   UNL     1       7.532  33.158  22.833  1.00  0.00     0.008 C 
ATOM      6  C   UNL     1       8.915  32.486  22.825  1.00  0.00    -0.010 C 
ATOM      7  C   UNL     1       9.719  32.846  24.078  1.00  0.00     0.004 C 
ATOM      8  C   UNL     1       9.835  32.811  21.613  1.00  0.00     0.003 CG0
ATOM      9  C   UNL     1      11.166  32.867  23.629  1.00  0.00     0.008 C 
ATOM     10  G   UNL     1       9.210  33.773  20.568  1.00  0.00     0.000 G0
ENDBRANCH   2   4
ENDBRANCH   1   2
BRANCH   1  11
ATOM     11  C   UNL     1      11.272  33.141  19.023  1.00  0.00     0.009 C 
BRANCH  11  12
ATOM     12  C   UNL     1       9.948  33.913  19.198  1.00  0.00    -0.001 C 
ATOM     13  C   UNL     1       9.218  33.771  20.545  1.00  0.00     0.002 CG0
ATOM     14  C   UNL     1       8.582  33.207  19.262  1.00  0.00    -0.029 C 
ATOM     15  G   UNL     1       9.846  32.815  21.594  1.00  0.00     0.000 G0
ATOM     16  C   UNL     1       7.396  34.033  18.752  1.00  0.00     0.011 C 
ATOM     17  C   UNL     1       8.434  31.681  19.102  1.00  0.00     0.011 C 
ENDBRANCH  11  12
ENDBRANCH   1  11
TORSDOF 0
ENDMDL
MODEL 8
REMARK VINA RESULT:    -3.913      2.373      3.982
REMARK INTER + INTRA:          -2.603
REMARK INTER:                  -4.829
REMARK INTRA:                   2.226
REMARK UNBOUND:                 2.225
REMARK SMILES C=C1CC[C@@H]2[C@H]([C@@H]3[C@H](C)CC[C@@H]13)C2(C)C
REMARK SMILES IDX 3 1 2 2 1 3 12 4 9 5 8 6 10 7 7 8 11 9 4 11 5 12 6 13 13 14
REMARK SMILES IDX 14 16 15 17
REMARK H PARENT
REMARK Flexibility Score: 80.00
ROOT
ATOM      1  C   UNL     1      12.815  32.350  22.075  1.00  0.00     0.031 C 
ENDROOT
BRANCH   1   2
ATOM      2  C   UNL     1      12.446  31.295  21.043  1.00  0.00    -0.074 C 
ATOM      3  C   UNL     1      13.329  31.026  20.059  1.00  0.00     0.008 C 
BRANCH   2   4
ATOM      4  C   UNL     1      11.175  30.462  21.257  1.00  0.00     0.018 C 
ATOM      5  C   UNL     1       7.567  30.199  21.716  1.00  0.00     0.008 C 
ATOM      6  C   UNL     1       8.756  30.403  20.762  1.00  0.00    -0.010 C 
ATOM      7  C   UNL     1       9.412  29.069  20.396  1.00  0.00     0.004 C 
ATOM      8  C   UNL     1       9.901  31.324  21.271  1.00  0.00     0.003 CG0
ATOM      9  C   UNL     1      10.882  29.388  20.208  1.00  0.00     0.008 C 
ATOM     10  G   UNL     1       9.670  31.921  22.685  1.00  0.00     0.000 G0
ENDBRANCH   2   4
ENDBRANCH   1   2
BRANCH   1  11
ATOM     11  C   UNL     1      11.760  33.458  22.195  1.00  0.00     0.009 C 
BRANCH  11  12
ATOM     12  C   UNL     1      10.630  33.041  23.159  1.00  0.00    -0.001 C 
ATOM     13  C   UNL     1       9.683  31.920  22.695  1.00  0.00     0.002 CG0
ATOM     14  C   UNL     1       9.148  33.353  22.880  1.00  0.00    -0.029 C 
ATOM     15  G   UNL     1       9.908  31.346  21.270  1.00  0.00     0.000 G0
ATOM     16  C   UNL     1       8.272  33.524  24.125  1.00  0.00     0.011 C 
ATOM     17  C   UNL     1       8.693  34.153  21.643  1.00  0.00     0.011 C 
ENDBRANCH  11  12
ENDBRANCH   1  11
TORSDOF 0
ENDMDL
MODEL 9
REMARK VINA RESULT:    -3.842      3.777      5.252
REMARK INTER + INTRA:          -2.515
REMARK INTER:                  -4.807
REMARK INTRA:                   2.291
REMARK UNBOUND:                 2.225
REMARK SMILES C=C1CC[C@@H]2[C@H]([C@@H]3[C@H](C)CC[C@@H]13)C2(C)C
REMARK SMILES IDX 3 1 2 2 1 3 12 4 9 5 8 6 10 7 7 8 11 9 4 11 5 12 6 13 13 14
REMARK SMILES IDX 14 16 15 17
REMARK H PARENT
REMARK Flexibility Score: 80.00
ROOT
ATOM      1  C   UNL     1      13.087  33.171  21.865  1.00  0.00     0.031 C 
ENDROOT
BRANCH   1   2
ATOM      2  C   UNL     1      13.941  32.036  21.321  1.00  0.00    -0.074 C 
ATOM      3  C   UNL     1      15.185  32.323  20.885  1.00  0.00     0.008 C 
BRANCH   2   4
ATOM      4  C   UNL     1      13.427  30.596  21.448  1.00  0.00     0.018 C 
ATOM      5  C   UNL     1      10.912  28.032  20.810  1.00  0.00     0.008 C 
ATOM      6  C   UNL     1      12.088  28.874  20.288  1.00  0.00    -0.010 C 
ATOM      7  C   UNL     1      13.432  28.297  20.737  1.00  0.00     0.004 C 
ATOM      8  C   UNL     1      12.102  30.374  20.700  1.00  0.00     0.003 CG0
ATOM      9  C   UNL     1      14.343  29.496  20.907  1.00  0.00     0.008 C 
ATOM     10  G   UNL     1      10.904  30.812  21.585  1.00  0.00     0.000 G0
ENDBRANCH   2   4
ENDBRANCH   1   2
BRANCH   1  11
ATOM     11  C   UNL     1      11.726  33.278  21.165  1.00  0.00     0.009 C 
BRANCH  11  12
ATOM     12  C   UNL     1      10.699  32.323  21.808  1.00  0.00    -0.001 C 
ATOM     13  C   UNL     1      10.908  30.813  21.595  1.00  0.00     0.002 CG0
ATOM     14  C   UNL     1       9.686  31.517  20.975  1.00  0.00    -0.029 C 
ATOM     15  G   UNL     1      12.101  30.381  20.700  1.00  0.00     0.000 G0
ATOM     16  C   UNL     1       8.367  31.194  21.687  1.00  0.00     0.011 C 
ATOM     17  C   UNL     1       9.589  31.648  19.443  1.00  0.00     0.011 C 
ENDBRANCH  11  12
ENDBRANCH   1  11
TORSDOF 0
ENDMDL
