MODEL 1
REMARK VINA RESULT:    -5.419      0.000      0.000
REMARK INTER + INTRA:          -6.259
REMARK INTER:                  -6.211
REMARK INTRA:                  -0.047
REMARK UNBOUND:                -0.047
REMARK SMILES O=C([O-])c1cc(O)c(O)c(O)c1
REMARK SMILES IDX 4 1 5 2 12 3 6 4 10 5 8 6 2 7 1 8 3 9 7 10 11 12 9 14
REMARK H PARENT 7 11 11 13 9 15
REMARK Flexibility Score: inf
ROOT
ATOM      1  C   UNL     1    -120.651  -3.208  75.780  1.00  0.00     0.005 A 
ATOM      2  C   UNL     1    -120.352  -3.652  77.081  1.00  0.00     0.060 A 
ATOM      3  C   UNL     1    -120.550  -1.838  75.489  1.00  0.00     0.060 A 
ATOM      4  C   UNL     1    -119.961  -2.744  78.073  1.00  0.00     0.162 A 
ATOM      5  C   UNL     1    -120.161  -0.924  76.474  1.00  0.00     0.162 A 
ATOM      6  C   UNL     1    -119.863  -1.374  77.771  1.00  0.00     0.200 A 
ENDROOT
BRANCH   1   7
ATOM      7  C   UNL     1    -121.064  -4.167  74.731  1.00  0.00     0.072 C 
ATOM      8  O   UNL     1    -120.451  -4.216  73.632  1.00  0.00    -0.545 OA
ATOM      9  O   UNL     1    -122.133  -5.028  74.946  1.00  0.00    -0.545 OA
ENDBRANCH   1   7
BRANCH   4  10
ATOM     10  O   UNL     1    -119.667  -3.197  79.359  1.00  0.00    -0.504 OA
ATOM     11  H   UNL     1    -118.809  -2.937  79.831  1.00  0.00     0.293 HD
ENDBRANCH   4  10
BRANCH   5  12
ATOM     12  O   UNL     1    -120.074   0.428  76.143  1.00  0.00    -0.504 OA
ATOM     13  H   UNL     1    -120.515   1.149  76.702  1.00  0.00     0.293 HD
ENDBRANCH   5  12
BRANCH   6  14
ATOM     14  O   UNL     1    -119.476  -0.456  78.748  1.00  0.00    -0.502 OA
ATOM     15  H   UNL     1    -118.522  -0.124  78.829  1.00  0.00     0.293 HD
ENDBRANCH   6  14
TORSDOF 4
ENDMDL
MODEL 2
REMARK VINA RESULT:    -5.387      0.143      2.432
REMARK INTER + INTRA:          -6.221
REMARK INTER:                  -6.175
REMARK INTRA:                  -0.046
REMARK UNBOUND:                -0.047
REMARK SMILES O=C([O-])c1cc(O)c(O)c(O)c1
REMARK SMILES IDX 4 1 5 2 12 3 6 4 10 5 8 6 2 7 1 8 3 9 7 10 11 12 9 14
REMARK H PARENT 7 11 11 13 9 15
REMARK Flexibility Score: inf
ROOT
ATOM      1  C   UNL     1    -120.661  -3.185  75.671  1.00  0.00     0.005 A 
ATOM      2  C   UNL     1    -120.546  -1.804  75.432  1.00  0.00     0.060 A 
ATOM      3  C   UNL     1    -120.380  -3.680  76.955  1.00  0.00     0.060 A 
ATOM      4  C   UNL     1    -120.156  -0.933  76.457  1.00  0.00     0.162 A 
ATOM      5  C   UNL     1    -119.989  -2.816  77.984  1.00  0.00     0.162 A 
ATOM      6  C   UNL     1    -119.877  -1.437  77.739  1.00  0.00     0.200 A 
ENDROOT
BRANCH   1   7
ATOM      7  C   UNL     1    -121.073  -4.107  74.589  1.00  0.00     0.072 C 
ATOM      8  O   UNL     1    -120.376  -4.222  73.546  1.00  0.00    -0.545 OA
ATOM      9  O   UNL     1    -122.234  -4.860  74.710  1.00  0.00    -0.545 OA
ENDBRANCH   1   7
BRANCH   4  10
ATOM     10  O   UNL     1    -120.045   0.435  76.207  1.00  0.00    -0.504 OA
ATOM     11  H   UNL     1    -120.425   1.124  76.845  1.00  0.00     0.293 HD
ENDBRANCH   4  10
BRANCH   5  12
ATOM     12  O   UNL     1    -119.719  -3.347  79.245  1.00  0.00    -0.504 OA
ATOM     13  H   UNL     1    -120.455  -3.586  79.899  1.00  0.00     0.293 HD
ENDBRANCH   5  12
BRANCH   6  14
ATOM     14  O   UNL     1    -119.487  -0.583  78.771  1.00  0.00    -0.502 OA
ATOM     15  H   UNL     1    -120.022   0.240  79.023  1.00  0.00     0.293 HD
ENDBRANCH   6  14
TORSDOF 4
ENDMDL
MODEL 3
REMARK VINA RESULT:    -4.710      1.692      4.688
REMARK INTER + INTRA:          -5.446
REMARK INTER:                  -5.401
REMARK INTRA:                  -0.045
REMARK UNBOUND:                -0.047
REMARK SMILES O=C([O-])c1cc(O)c(O)c(O)c1
REMARK SMILES IDX 4 1 5 2 12 3 6 4 10 5 8 6 2 7 1 8 3 9 7 10 11 12 9 14
REMARK H PARENT 7 11 11 13 9 15
REMARK Flexibility Score: inf
ROOT
ATOM      1  C   UNL     1    -118.633  -2.156  77.292  1.00  0.00     0.005 A 
ATOM      2  C   UNL     1    -118.906  -2.325  75.923  1.00  0.00     0.060 A 
ATOM      3  C   UNL     1    -119.371  -2.896  78.230  1.00  0.00     0.060 A 
ATOM      4  C   UNL     1    -119.902  -3.215  75.498  1.00  0.00     0.162 A 
ATOM      5  C   UNL     1    -120.367  -3.786  77.815  1.00  0.00     0.162 A 
ATOM      6  C   UNL     1    -120.636  -3.950  76.445  1.00  0.00     0.200 A 
ENDROOT
BRANCH   1   7
ATOM      7  C   UNL     1    -117.582  -1.216  77.741  1.00  0.00     0.072 C 
ATOM      8  O   UNL     1    -116.364  -1.526  77.648  1.00  0.00    -0.545 OA
ATOM      9  O   UNL     1    -117.924   0.021  78.272  1.00  0.00    -0.545 OA
ENDBRANCH   1   7
BRANCH   4  10
ATOM     10  O   UNL     1    -120.164  -3.373  74.138  1.00  0.00    -0.504 OA
ATOM     11  H   UNL     1    -119.716  -2.791  73.439  1.00  0.00     0.293 HD
ENDBRANCH   4  10
BRANCH   5  12
ATOM     12  O   UNL     1    -121.077  -4.501  78.778  1.00  0.00    -0.504 OA
ATOM     13  H   UNL     1    -120.958  -5.499  78.906  1.00  0.00     0.293 HD
ENDBRANCH   5  12
BRANCH   6  14
ATOM     14  O   UNL     1    -121.630  -4.841  76.040  1.00  0.00    -0.502 OA
ATOM     15  H   UNL     1    -122.281  -5.258  76.694  1.00  0.00     0.293 HD
ENDBRANCH   6  14
TORSDOF 4
ENDMDL
MODEL 4
REMARK VINA RESULT:    -4.684      1.659      4.189
REMARK INTER + INTRA:          -5.416
REMARK INTER:                  -5.371
REMARK INTRA:                  -0.045
REMARK UNBOUND:                -0.047
REMARK SMILES O=C([O-])c1cc(O)c(O)c(O)c1
REMARK SMILES IDX 4 1 5 2 12 3 6 4 10 5 8 6 2 7 1 8 3 9 7 10 11 12 9 14
REMARK H PARENT 7 11 11 13 9 15
REMARK Flexibility Score: inf
ROOT
ATOM      1  C   UNL     1    -118.721  -2.123  77.248  1.00  0.00     0.005 A 
ATOM      2  C   UNL     1    -119.424  -2.896  78.190  1.00  0.00     0.060 A 
ATOM      3  C   UNL     1    -119.001  -2.293  75.883  1.00  0.00     0.060 A 
ATOM      4  C   UNL     1    -120.388  -3.824  77.774  1.00  0.00     0.162 A 
ATOM      5  C   UNL     1    -119.962  -3.217  75.459  1.00  0.00     0.162 A 
ATOM      6  C   UNL     1    -120.661  -3.987  76.405  1.00  0.00     0.200 A 
ENDROOT
BRANCH   1   7
ATOM      7  C   UNL     1    -117.703  -1.143  77.686  1.00  0.00     0.072 C 
ATOM      8  O   UNL     1    -118.047  -0.004  78.101  1.00  0.00    -0.545 OA
ATOM      9  O   UNL     1    -116.352  -1.466  77.646  1.00  0.00    -0.545 OA
ENDBRANCH   1   7
BRANCH   4  10
ATOM     10  O   UNL     1    -121.078  -4.585  78.718  1.00  0.00    -0.504 OA
ATOM     11  H   UNL     1    -120.591  -5.169  79.388  1.00  0.00     0.293 HD
ENDBRANCH   4  10
BRANCH   5  12
ATOM     12  O   UNL     1    -120.210  -3.355  74.094  1.00  0.00    -0.504 OA
ATOM     13  H   UNL     1    -120.984  -2.888  73.636  1.00  0.00     0.293 HD
ENDBRANCH   5  12
BRANCH   6  14
ATOM     14  O   UNL     1    -121.618  -4.906  75.974  1.00  0.00    -0.502 OA
ATOM     15  H   UNL     1    -122.517  -4.618  75.605  1.00  0.00     0.293 HD
ENDBRANCH   6  14
TORSDOF 4
ENDMDL
MODEL 5
REMARK VINA RESULT:    -4.663      9.665     11.225
REMARK INTER + INTRA:          -5.391
REMARK INTER:                  -5.346
REMARK INTRA:                  -0.045
REMARK UNBOUND:                -0.047
REMARK SMILES O=C([O-])c1cc(O)c(O)c(O)c1
REMARK SMILES IDX 4 1 5 2 12 3 6 4 10 5 8 6 2 7 1 8 3 9 7 10 11 12 9 14
REMARK H PARENT 7 11 11 13 9 15
REMARK Flexibility Score: inf
ROOT
ATOM      1  C   UNL     1    -112.354  -9.740  77.838  1.00  0.00     0.005 A 
ATOM      2  C   UNL     1    -112.420 -10.070  76.473  1.00  0.00     0.060 A 
ATOM      3  C   UNL     1    -113.530  -9.781  78.606  1.00  0.00     0.060 A 
ATOM      4  C   UNL     1    -113.638 -10.433  75.884  1.00  0.00     0.162 A 
ATOM      5  C   UNL     1    -114.751 -10.143  78.025  1.00  0.00     0.162 A 
ATOM      6  C   UNL     1    -114.809 -10.472  76.660  1.00  0.00     0.200 A 
ENDROOT
BRANCH   1   7
ATOM      7  C   UNL     1    -111.068  -9.355  78.461  1.00  0.00     0.072 C 
ATOM      8  O   UNL     1    -110.187 -10.224  78.697  1.00  0.00    -0.545 OA
ATOM      9  O   UNL     1    -110.815  -8.030  78.794  1.00  0.00    -0.545 OA
ENDBRANCH   1   7
BRANCH   4  10
ATOM     10  O   UNL     1    -113.689 -10.758  74.528  1.00  0.00    -0.504 OA
ATOM     11  H   UNL     1    -114.279 -10.248  73.882  1.00  0.00     0.293 HD
ENDBRANCH   4  10
BRANCH   5  12
ATOM     12  O   UNL     1    -115.894 -10.172  78.822  1.00  0.00    -0.504 OA
ATOM     13  H   UNL     1    -115.847 -10.235  79.832  1.00  0.00     0.293 HD
ENDBRANCH   5  12
BRANCH   6  14
ATOM     14  O   UNL     1    -116.030 -10.832  76.090  1.00  0.00    -0.502 OA
ATOM     15  H   UNL     1    -116.194 -11.753  75.700  1.00  0.00     0.293 HD
ENDBRANCH   6  14
TORSDOF 4
ENDMDL
MODEL 6
REMARK VINA RESULT:    -4.658      9.699     11.132
REMARK INTER + INTRA:          -5.386
REMARK INTER:                  -5.341
REMARK INTRA:                  -0.045
REMARK UNBOUND:                -0.047
REMARK SMILES O=C([O-])c1cc(O)c(O)c(O)c1
REMARK SMILES IDX 4 1 5 2 12 3 6 4 10 5 8 6 2 7 1 8 3 9 7 10 11 12 9 14
REMARK H PARENT 7 11 11 13 9 15
REMARK Flexibility Score: inf
ROOT
ATOM      1  C   UNL     1    -112.319  -9.747  77.796  1.00  0.00     0.005 A 
ATOM      2  C   UNL     1    -113.484  -9.797  78.581  1.00  0.00     0.060 A 
ATOM      3  C   UNL     1    -112.403 -10.071  76.432  1.00  0.00     0.060 A 
ATOM      4  C   UNL     1    -114.712 -10.165  78.015  1.00  0.00     0.162 A 
ATOM      5  C   UNL     1    -113.624 -10.440  75.858  1.00  0.00     0.162 A 
ATOM      6  C   UNL     1    -114.786 -10.487  76.648  1.00  0.00     0.200 A 
ENDROOT
BRANCH   1   7
ATOM      7  C   UNL     1    -111.022  -9.359  78.393  1.00  0.00     0.072 C 
ATOM      8  O   UNL     1    -110.230 -10.235  78.830  1.00  0.00    -0.545 OA
ATOM      9  O   UNL     1    -110.659  -8.020  78.479  1.00  0.00    -0.545 OA
ENDBRANCH   1   7
BRANCH   4  10
ATOM     10  O   UNL     1    -115.860 -10.210  78.804  1.00  0.00    -0.504 OA
ATOM     11  H   UNL     1    -116.755  -9.880  78.461  1.00  0.00     0.293 HD
ENDBRANCH   4  10
BRANCH   5  12
ATOM     12  O   UNL     1    -113.665 -10.754  74.501  1.00  0.00    -0.504 OA
ATOM     13  H   UNL     1    -114.266 -11.482  74.133  1.00  0.00     0.293 HD
ENDBRANCH   5  12
BRANCH   6  14
ATOM     14  O   UNL     1    -116.000 -10.856  76.068  1.00  0.00    -0.502 OA
ATOM     15  H   UNL     1    -116.597 -10.189  75.594  1.00  0.00     0.293 HD
ENDBRANCH   6  14
TORSDOF 4
ENDMDL
MODEL 7
REMARK VINA RESULT:    -4.414     16.552     17.927
REMARK INTER + INTRA:          -5.106
REMARK INTER:                  -5.059
REMARK INTRA:                  -0.048
REMARK UNBOUND:                -0.047
REMARK SMILES O=C([O-])c1cc(O)c(O)c(O)c1
REMARK SMILES IDX 4 1 5 2 12 3 6 4 10 5 8 6 2 7 1 8 3 9 7 10 11 12 9 14
REMARK H PARENT 7 11 11 13 9 15
REMARK Flexibility Score: inf
ROOT
ATOM      1  C   UNL     1    -113.956 -18.288  78.417  1.00  0.00     0.005 A 
ATOM      2  C   UNL     1    -113.835 -18.436  77.024  1.00  0.00     0.060 A 
ATOM      3  C   UNL     1    -112.792 -18.258  79.202  1.00  0.00     0.060 A 
ATOM      4  C   UNL     1    -112.573 -18.555  76.426  1.00  0.00     0.162 A 
ATOM      5  C   UNL     1    -111.528 -18.376  78.613  1.00  0.00     0.162 A 
ATOM      6  C   UNL     1    -111.414 -18.524  77.220  1.00  0.00     0.200 A 
ENDROOT
BRANCH   1   7
ATOM      7  C   UNL     1    -115.288 -18.163  79.050  1.00  0.00     0.072 C 
ATOM      8  O   UNL     1    -115.534 -17.213  79.840  1.00  0.00    -0.545 OA
ATOM      9  O   UNL     1    -116.286 -19.091  78.779  1.00  0.00    -0.545 OA
ENDBRANCH   1   7
BRANCH   4  10
ATOM     10  O   UNL     1    -112.466 -18.702  75.043  1.00  0.00    -0.504 OA
ATOM     11  H   UNL     1    -112.006 -19.503  74.628  1.00  0.00     0.293 HD
ENDBRANCH   4  10
BRANCH   5  12
ATOM     12  O   UNL     1    -110.398 -18.342  79.428  1.00  0.00    -0.504 OA
ATOM     13  H   UNL     1    -109.667 -17.650  79.309  1.00  0.00     0.293 HD
ENDBRANCH   5  12
BRANCH   6  14
ATOM     14  O   UNL     1    -110.150 -18.640  76.641  1.00  0.00    -0.502 OA
ATOM     15  H   UNL     1    -109.303 -18.678  77.195  1.00  0.00     0.293 HD
ENDBRANCH   6  14
TORSDOF 4
ENDMDL
MODEL 8
REMARK VINA RESULT:    -4.412     12.129     12.789
REMARK INTER + INTRA:          -5.104
REMARK INTER:                  -5.057
REMARK INTRA:                  -0.047
REMARK UNBOUND:                -0.047
REMARK SMILES O=C([O-])c1cc(O)c(O)c(O)c1
REMARK SMILES IDX 4 1 5 2 12 3 6 4 10 5 8 6 2 7 1 8 3 9 7 10 11 12 9 14
REMARK H PARENT 7 11 11 13 9 15
REMARK Flexibility Score: inf
ROOT
ATOM      1  C   UNL     1    -109.099  -2.126  73.869  1.00  0.00     0.005 A 
ATOM      2  C   UNL     1    -107.912  -2.272  74.608  1.00  0.00     0.060 A 
ATOM      3  C   UNL     1    -109.483  -3.150  72.988  1.00  0.00     0.060 A 
ATOM      4  C   UNL     1    -107.121  -3.420  74.469  1.00  0.00     0.162 A 
ATOM      5  C   UNL     1    -108.699  -4.300  72.842  1.00  0.00     0.162 A 
ATOM      6  C   UNL     1    -107.514  -4.440  73.584  1.00  0.00     0.200 A 
ENDROOT
BRANCH   1   7
ATOM      7  C   UNL     1    -109.936  -0.914  74.016  1.00  0.00     0.072 C 
ATOM      8  O   UNL     1    -111.165  -1.012  74.272  1.00  0.00    -0.545 OA
ATOM      9  O   UNL     1    -109.375   0.349  73.874  1.00  0.00    -0.545 OA
ENDBRANCH   1   7
BRANCH   4  10
ATOM     10  O   UNL     1    -105.946  -3.553  75.207  1.00  0.00    -0.504 OA
ATOM     11  H   UNL     1    -105.267  -4.277  75.001  1.00  0.00     0.293 HD
ENDBRANCH   4  10
BRANCH   5  12
ATOM     12  O   UNL     1    -109.115  -5.293  71.957  1.00  0.00    -0.504 OA
ATOM     13  H   UNL     1    -109.670  -5.085  71.135  1.00  0.00     0.293 HD
ENDBRANCH   5  12
BRANCH   6  14
ATOM     14  O   UNL     1    -106.737  -5.589  73.433  1.00  0.00    -0.502 OA
ATOM     15  H   UNL     1    -107.003  -6.342  72.809  1.00  0.00     0.293 HD
ENDBRANCH   6  14
TORSDOF 4
ENDMDL
MODEL 9
REMARK VINA RESULT:    -4.408     12.103     12.824
REMARK INTER + INTRA:          -5.099
REMARK INTER:                  -5.053
REMARK INTRA:                  -0.047
REMARK UNBOUND:                -0.047
REMARK SMILES O=C([O-])c1cc(O)c(O)c(O)c1
REMARK SMILES IDX 4 1 5 2 12 3 6 4 10 5 8 6 2 7 1 8 3 9 7 10 11 12 9 14
REMARK H PARENT 7 11 11 13 9 15
REMARK Flexibility Score: inf
ROOT
ATOM      1  C   UNL     1    -109.124  -2.169  73.890  1.00  0.00     0.005 A 
ATOM      2  C   UNL     1    -109.516  -3.165  72.979  1.00  0.00     0.060 A 
ATOM      3  C   UNL     1    -107.943  -2.348  74.629  1.00  0.00     0.060 A 
ATOM      4  C   UNL     1    -108.744  -4.322  72.809  1.00  0.00     0.162 A 
ATOM      5  C   UNL     1    -107.166  -3.500  74.466  1.00  0.00     0.162 A 
ATOM      6  C   UNL     1    -107.564  -4.493  73.554  1.00  0.00     0.200 A 
ENDROOT
BRANCH   1   7
ATOM      7  C   UNL     1    -109.939  -0.946  74.069  1.00  0.00     0.072 C 
ATOM      8  O   UNL     1    -111.150  -1.028  74.405  1.00  0.00    -0.545 OA
ATOM      9  O   UNL     1    -109.378   0.309  73.871  1.00  0.00    -0.545 OA
ENDBRANCH   1   7
BRANCH   4  10
ATOM     10  O   UNL     1    -109.144  -5.303  71.903  1.00  0.00    -0.504 OA
ATOM     11  H   UNL     1    -108.898  -6.278  72.031  1.00  0.00     0.293 HD
ENDBRANCH   4  10
BRANCH   5  12
ATOM     12  O   UNL     1    -106.001  -3.640  75.219  1.00  0.00    -0.504 OA
ATOM     13  H   UNL     1    -105.196  -3.040  75.084  1.00  0.00     0.293 HD
ENDBRANCH   5  12
BRANCH   6  14
ATOM     14  O   UNL     1    -106.783  -5.638  73.398  1.00  0.00    -0.502 OA
ATOM     15  H   UNL     1    -107.188  -6.565  73.339  1.00  0.00     0.293 HD
ENDBRANCH   6  14
TORSDOF 4
ENDMDL
