MODEL 1
REMARK VINA RESULT:    -4.196      0.000      0.000
REMARK INTER + INTRA:          -4.196
REMARK INTER:                  -4.196
REMARK INTRA:                   0.000
REMARK UNBOUND:                 0.000
REMARK SMILES CC1=CC[C@H]2[C@@H](C1)C2(C)C
REMARK SMILES IDX 1 1 2 2 3 3 4 4 5 5 6 6 7 7 8 8 9 9 10 10
REMARK H PARENT
REMARK Flexibility Score: inf
ROOT
ATOM      1  C   UNL     1     134.928 140.717 136.292  1.00  0.00     0.039 C 
ATOM      2  C   UNL     1     136.240 140.135 135.842  1.00  0.00    -0.077 C 
ATOM      3  C   UNL     1     136.826 140.610 134.729  1.00  0.00    -0.028 C 
ATOM      4  C   UNL     1     138.134 140.060 134.232  1.00  0.00     0.031 C 
ATOM      5  C   UNL     1     139.092 139.718 135.393  1.00  0.00     0.003 C 
ATOM      6  C   UNL     1     138.428 139.165 136.674  1.00  0.00     0.003 C 
ATOM      7  C   UNL     1     136.890 139.023 136.632  1.00  0.00     0.034 C 
ATOM      8  C   UNL     1     139.319 138.257 135.813  1.00  0.00    -0.029 C 
ATOM      9  C   UNL     1     138.699 137.108 134.994  1.00  0.00     0.012 C 
ATOM     10  C   UNL     1     140.703 137.971 136.406  1.00  0.00     0.012 C 
ENDROOT
TORSDOF 0
ENDMDL
MODEL 2
REMARK VINA RESULT:    -4.164      5.831      7.791
REMARK INTER + INTRA:          -4.164
REMARK INTER:                  -4.164
REMARK INTRA:                   0.000
REMARK UNBOUND:                 0.000
REMARK SMILES CC1=CC[C@H]2[C@@H](C1)C2(C)C
REMARK SMILES IDX 1 1 2 2 3 3 4 4 5 5 6 6 7 7 8 8 9 9 10 10
REMARK H PARENT
REMARK Flexibility Score: inf
ROOT
ATOM      1  C   UNL     1     137.683 132.061 136.302  1.00  0.00     0.039 C 
ATOM      2  C   UNL     1     136.360 132.602 135.836  1.00  0.00    -0.077 C 
ATOM      3  C   UNL     1     135.797 132.102 134.722  1.00  0.00    -0.028 C 
ATOM      4  C   UNL     1     134.479 132.611 134.208  1.00  0.00     0.031 C 
ATOM      5  C   UNL     1     133.501 132.934 135.357  1.00  0.00     0.003 C 
ATOM      6  C   UNL     1     134.137 133.515 136.641  1.00  0.00     0.003 C 
ATOM      7  C   UNL     1     135.672 133.701 136.611  1.00  0.00     0.034 C 
ATOM      8  C   UNL     1     133.229 134.392 135.764  1.00  0.00    -0.029 C 
ATOM      9  C   UNL     1     133.824 135.551 134.942  1.00  0.00     0.012 C 
ATOM     10  C   UNL     1     131.832 134.643 136.343  1.00  0.00     0.012 C 
ENDROOT
TORSDOF 0
ENDMDL
MODEL 3
REMARK VINA RESULT:    -4.156      3.739      5.540
REMARK INTER + INTRA:          -4.156
REMARK INTER:                  -4.156
REMARK INTRA:                   0.000
REMARK UNBOUND:                 0.000
REMARK SMILES CC1=CC[C@H]2[C@@H](C1)C2(C)C
REMARK SMILES IDX 1 1 2 2 3 3 4 4 5 5 6 6 7 7 8 8 9 9 10 10
REMARK H PARENT
REMARK Flexibility Score: inf
ROOT
ATOM      1  C   UNL     1     140.523 137.695 136.369  1.00  0.00     0.039 C 
ATOM      2  C   UNL     1     140.021 136.361 135.890  1.00  0.00    -0.077 C 
ATOM      3  C   UNL     1     140.567 135.804 134.796  1.00  0.00    -0.028 C 
ATOM      4  C   UNL     1     140.099 134.475 134.271  1.00  0.00     0.031 C 
ATOM      5  C   UNL     1     139.754 133.495 135.412  1.00  0.00     0.003 C 
ATOM      6  C   UNL     1     139.119 134.126 136.673  1.00  0.00     0.003 C 
ATOM      7  C   UNL     1     138.909 135.657 136.632  1.00  0.00     0.034 C 
ATOM      8  C   UNL     1     138.288 133.200 135.772  1.00  0.00    -0.029 C 
ATOM      9  C   UNL     1     137.147 133.772 134.909  1.00  0.00     0.012 C 
ATOM     10  C   UNL     1     138.042 131.801 136.347  1.00  0.00     0.012 C 
ENDROOT
TORSDOF 0
ENDMDL
MODEL 4
REMARK VINA RESULT:    -4.125      3.854      5.536
REMARK INTER + INTRA:          -4.125
REMARK INTER:                  -4.125
REMARK INTRA:                   0.000
REMARK UNBOUND:                 0.000
REMARK SMILES CC1=CC[C@H]2[C@@H](C1)C2(C)C
REMARK SMILES IDX 1 1 2 2 3 3 4 4 5 5 6 6 7 7 8 8 9 9 10 10
REMARK H PARENT
REMARK Flexibility Score: inf
ROOT
ATOM      1  C   UNL     1     131.889 134.878 136.247  1.00  0.00     0.039 C 
ATOM      2  C   UNL     1     132.477 136.199 135.835  1.00  0.00    -0.077 C 
ATOM      3  C   UNL     1     131.999 136.824 134.744  1.00  0.00    -0.028 C 
ATOM      4  C   UNL     1     132.555 138.143 134.285  1.00  0.00     0.031 C 
ATOM      5  C   UNL     1     132.911 139.062 135.473  1.00  0.00     0.003 C 
ATOM      6  C   UNL     1     133.468 138.353 136.729  1.00  0.00     0.003 C 
ATOM      7  C   UNL     1     133.599 136.816 136.637  1.00  0.00     0.034 C 
ATOM      8  C   UNL     1     134.377 139.265 135.890  1.00  0.00    -0.029 C 
ATOM      9  C   UNL     1     135.516 138.663 135.044  1.00  0.00     0.012 C 
ATOM     10  C   UNL     1     134.676 140.627 136.525  1.00  0.00     0.012 C 
ENDROOT
TORSDOF 0
ENDMDL
MODEL 5
REMARK VINA RESULT:    -4.049      5.870      7.010
REMARK INTER + INTRA:          -4.049
REMARK INTER:                  -4.049
REMARK INTRA:                   0.000
REMARK UNBOUND:                 0.000
REMARK SMILES CC1=CC[C@H]2[C@@H](C1)C2(C)C
REMARK SMILES IDX 1 1 2 2 3 3 4 4 5 5 6 6 7 7 8 8 9 9 10 10
REMARK H PARENT
REMARK Flexibility Score: inf
ROOT
ATOM      1  C   UNL     1     131.658 137.130 134.344  1.00  0.00     0.039 C 
ATOM      2  C   UNL     1     132.394 135.914 134.834  1.00  0.00    -0.077 C 
ATOM      3  C   UNL     1     131.947 135.265 135.923  1.00  0.00    -0.028 C 
ATOM      4  C   UNL     1     132.649 134.049 136.459  1.00  0.00     0.031 C 
ATOM      5  C   UNL     1     133.188 133.150 135.325  1.00  0.00     0.003 C 
ATOM      6  C   UNL     1     133.711 133.888 134.072  1.00  0.00     0.003 C 
ATOM      7  C   UNL     1     133.630 135.431 134.111  1.00  0.00     0.034 C 
ATOM      8  C   UNL     1     134.688 133.135 134.988  1.00  0.00    -0.029 C 
ATOM      9  C   UNL     1     135.689 133.912 135.864  1.00  0.00     0.012 C 
ATOM     10  C   UNL     1     135.201 131.807 134.420  1.00  0.00     0.012 C 
ENDROOT
TORSDOF 0
ENDMDL
MODEL 6
REMARK VINA RESULT:    -4.022      4.292      6.494
REMARK INTER + INTRA:          -4.022
REMARK INTER:                  -4.022
REMARK INTRA:                   0.000
REMARK UNBOUND:                 0.000
REMARK SMILES CC1=CC[C@H]2[C@@H](C1)C2(C)C
REMARK SMILES IDX 1 1 2 2 3 3 4 4 5 5 6 6 7 7 8 8 9 9 10 10
REMARK H PARENT
REMARK Flexibility Score: inf
ROOT
ATOM      1  C   UNL     1     135.414 131.811 134.408  1.00  0.00     0.039 C 
ATOM      2  C   UNL     1     136.683 132.488 134.849  1.00  0.00    -0.077 C 
ATOM      3  C   UNL     1     137.381 131.978 135.878  1.00  0.00    -0.028 C 
ATOM      4  C   UNL     1     138.652 132.618 136.362  1.00  0.00     0.031 C 
ATOM      5  C   UNL     1     139.499 133.170 135.195  1.00  0.00     0.003 C 
ATOM      6  C   UNL     1     138.705 133.764 134.009  1.00  0.00     0.003 C 
ATOM      7  C   UNL     1     137.165 133.733 134.141  1.00  0.00     0.034 C 
ATOM      8  C   UNL     1     139.546 134.680 134.912  1.00  0.00    -0.029 C 
ATOM      9  C   UNL     1     138.860 135.673 135.870  1.00  0.00     0.012 C 
ATOM     10  C   UNL     1     140.855 135.170 134.282  1.00  0.00     0.012 C 
ENDROOT
TORSDOF 0
ENDMDL
MODEL 7
REMARK VINA RESULT:    -4.022      2.728      5.007
REMARK INTER + INTRA:          -4.022
REMARK INTER:                  -4.022
REMARK INTRA:                   0.000
REMARK UNBOUND:                 0.000
REMARK SMILES CC1=CC[C@H]2[C@@H](C1)C2(C)C
REMARK SMILES IDX 1 1 2 2 3 3 4 4 5 5 6 6 7 7 8 8 9 9 10 10
REMARK H PARENT
REMARK Flexibility Score: inf
ROOT
ATOM      1  C   UNL     1     137.292 140.866 134.399  1.00  0.00     0.039 C 
ATOM      2  C   UNL     1     136.025 140.194 134.853  1.00  0.00    -0.077 C 
ATOM      3  C   UNL     1     135.342 140.705 135.892  1.00  0.00    -0.028 C 
ATOM      4  C   UNL     1     134.074 140.070 136.390  1.00  0.00     0.031 C 
ATOM      5  C   UNL     1     133.211 139.524 135.233  1.00  0.00     0.003 C 
ATOM      6  C   UNL     1     133.988 138.928 134.036  1.00  0.00     0.003 C 
ATOM      7  C   UNL     1     135.529 138.952 134.150  1.00  0.00     0.034 C 
ATOM      8  C   UNL     1     133.153 138.015 134.947  1.00  0.00    -0.029 C 
ATOM      9  C   UNL     1     133.846 137.017 135.895  1.00  0.00     0.012 C 
ATOM     10  C   UNL     1     131.835 137.532 134.332  1.00  0.00     0.012 C 
ENDROOT
TORSDOF 0
ENDMDL
MODEL 8
REMARK VINA RESULT:    -4.003      1.788      3.425
REMARK INTER + INTRA:          -4.003
REMARK INTER:                  -4.003
REMARK INTRA:                   0.000
REMARK UNBOUND:                 0.000
REMARK SMILES CC1=CC[C@H]2[C@@H](C1)C2(C)C
REMARK SMILES IDX 1 1 2 2 3 3 4 4 5 5 6 6 7 7 8 8 9 9 10 10
REMARK H PARENT
REMARK Flexibility Score: inf
ROOT
ATOM      1  C   UNL     1     138.082 140.120 134.676  1.00  0.00     0.039 C 
ATOM      2  C   UNL     1     138.911 138.900 134.971  1.00  0.00    -0.077 C 
ATOM      3  C   UNL     1     139.973 139.005 135.787  1.00  0.00    -0.028 C 
ATOM      4  C   UNL     1     140.839 137.819 136.110  1.00  0.00     0.031 C 
ATOM      5  C   UNL     1     140.009 136.527 136.263  1.00  0.00     0.003 C 
ATOM      6  C   UNL     1     138.789 136.394 135.323  1.00  0.00     0.003 C 
ATOM      7  C   UNL     1     138.554 137.570 134.349  1.00  0.00     0.034 C 
ATOM      8  C   UNL     1     140.002 135.467 135.149  1.00  0.00    -0.029 C 
ATOM      9  C   UNL     1     140.928 135.619 133.926  1.00  0.00     0.012 C 
ATOM     10  C   UNL     1     139.783 134.031 135.636  1.00  0.00     0.012 C 
ENDROOT
TORSDOF 0
ENDMDL
MODEL 9
REMARK VINA RESULT:    -4.001      1.801      3.278
REMARK INTER + INTRA:          -4.001
REMARK INTER:                  -4.001
REMARK INTRA:                   0.000
REMARK UNBOUND:                 0.000
REMARK SMILES CC1=CC[C@H]2[C@@H](C1)C2(C)C
REMARK SMILES IDX 1 1 2 2 3 3 4 4 5 5 6 6 7 7 8 8 9 9 10 10
REMARK H PARENT
REMARK Flexibility Score: inf
ROOT
ATOM      1  C   UNL     1     132.529 138.195 134.724  1.00  0.00     0.039 C 
ATOM      2  C   UNL     1     133.769 138.987 135.038  1.00  0.00    -0.077 C 
ATOM      3  C   UNL     1     133.693 140.025 135.888  1.00  0.00    -0.028 C 
ATOM      4  C   UNL     1     134.900 140.853 136.230  1.00  0.00     0.031 C 
ATOM      5  C   UNL     1     136.174 139.990 136.349  1.00  0.00     0.003 C 
ATOM      6  C   UNL     1     136.274 138.797 135.371  1.00  0.00     0.003 C 
ATOM      7  C   UNL     1     135.087 138.620 134.397  1.00  0.00     0.034 C 
ATOM      8  C   UNL     1     137.227 139.994 135.229  1.00  0.00    -0.029 C 
ATOM      9  C   UNL     1     137.090 140.962 134.037  1.00  0.00     0.012 C 
ATOM     10  C   UNL     1     138.661 139.728 135.700  1.00  0.00     0.012 C 
ENDROOT
TORSDOF 0
ENDMDL
