MODEL 1
REMARK VINA RESULT:    -3.662      0.000      0.000
REMARK INTER + INTRA:          -4.589
REMARK INTER:                  -4.518
REMARK INTRA:                  -0.071
REMARK UNBOUND:                -0.071
REMARK SMILES CCCCCC(=O)[O-]
REMARK SMILES IDX 4 1 5 2 6 3 7 4 8 5 3 6 2 7 1 8
REMARK H PARENT
REMARK Flexibility Score: inf
ROOT
ATOM      1  C   UNL     1      36.696  57.381  17.155  1.00  0.00     0.006 C 
ENDROOT
BRANCH   1   2
ATOM      2  C   UNL     1      36.032  57.838  15.850  1.00  0.00     0.053 C 
BRANCH   2   3
ATOM      3  C   UNL     1      34.864  56.973  15.486  1.00  0.00     0.041 C 
ATOM      4  O   UNL     1      34.400  56.996  14.316  1.00  0.00    -0.550 OA
ATOM      5  O   UNL     1      34.267  56.170  16.448  1.00  0.00    -0.550 OA
ENDBRANCH   2   3
ENDBRANCH   1   2
BRANCH   1   6
ATOM      6  C   UNL     1      38.018  56.641  16.906  1.00  0.00     0.000 C 
BRANCH   6   7
ATOM      7  C   UNL     1      39.022  56.918  18.031  1.00  0.00    -0.003 C 
ATOM      8  C   UNL     1      40.338  56.183  17.790  1.00  0.00     0.004 C 
ENDBRANCH   6   7
ENDBRANCH   1   6
TORSDOF 4
ENDMDL
MODEL 2
REMARK VINA RESULT:    -3.590      5.509      7.145
REMARK INTER + INTRA:          -4.500
REMARK INTER:                  -4.430
REMARK INTRA:                  -0.070
REMARK UNBOUND:                -0.071
REMARK SMILES CCCCCC(=O)[O-]
REMARK SMILES IDX 4 1 5 2 6 3 7 4 8 5 3 6 2 7 1 8
REMARK H PARENT
REMARK Flexibility Score: inf
ROOT
ATOM      1  C   UNL     1      42.008  55.247  17.950  1.00  0.00     0.006 C 
ENDROOT
BRANCH   1   2
ATOM      2  C   UNL     1      42.774  54.271  17.048  1.00  0.00     0.053 C 
BRANCH   2   3
ATOM      3  C   UNL     1      43.919  54.940  16.348  1.00  0.00     0.041 C 
ATOM      4  O   UNL     1      44.369  56.035  16.776  1.00  0.00    -0.550 OA
ATOM      5  O   UNL     1      44.463  54.370  15.205  1.00  0.00    -0.550 OA
ENDBRANCH   2   3
ENDBRANCH   1   2
BRANCH   1   6
ATOM      6  C   UNL     1      40.886  55.976  17.197  1.00  0.00     0.000 C 
BRANCH   6   7
ATOM      7  C   UNL     1      39.758  56.382  18.153  1.00  0.00    -0.003 C 
ATOM      8  C   UNL     1      38.466  56.668  17.391  1.00  0.00     0.004 C 
ENDBRANCH   6   7
ENDBRANCH   1   6
TORSDOF 4
ENDMDL
MODEL 3
REMARK VINA RESULT:    -3.548      1.286      1.882
REMARK INTER + INTRA:          -4.448
REMARK INTER:                  -4.358
REMARK INTRA:                  -0.090
REMARK UNBOUND:                -0.071
REMARK SMILES CCCCCC(=O)[O-]
REMARK SMILES IDX 4 1 5 2 6 3 7 4 8 5 3 6 2 7 1 8
REMARK H PARENT
REMARK Flexibility Score: inf
ROOT
ATOM      1  C   UNL     1      38.272  57.323  17.932  1.00  0.00     0.006 C 
ENDROOT
BRANCH   1   2
ATOM      2  C   UNL     1      37.707  56.740  16.630  1.00  0.00     0.053 C 
BRANCH   2   3
ATOM      3  C   UNL     1      36.310  57.214  16.367  1.00  0.00     0.041 C 
ATOM      4  O   UNL     1      36.112  58.264  15.701  1.00  0.00    -0.550 OA
ATOM      5  O   UNL     1      35.229  56.515  16.888  1.00  0.00    -0.550 OA
ENDBRANCH   2   3
ENDBRANCH   1   2
BRANCH   1   6
ATOM      6  C   UNL     1      39.550  56.602  18.384  1.00  0.00     0.000 C 
BRANCH   6   7
ATOM      7  C   UNL     1      40.341  56.079  17.179  1.00  0.00    -0.003 C 
ATOM      8  C   UNL     1      41.755  55.673  17.583  1.00  0.00     0.004 C 
ENDBRANCH   6   7
ENDBRANCH   1   6
TORSDOF 4
ENDMDL
MODEL 4
REMARK VINA RESULT:    -3.508      5.643      7.303
REMARK INTER + INTRA:          -4.399
REMARK INTER:                  -4.303
REMARK INTRA:                  -0.096
REMARK UNBOUND:                -0.071
REMARK SMILES CCCCCC(=O)[O-]
REMARK SMILES IDX 4 1 5 2 6 3 7 4 8 5 3 6 2 7 1 8
REMARK H PARENT
REMARK Flexibility Score: inf
ROOT
ATOM      1  C   UNL     1      43.079  55.228  17.273  1.00  0.00     0.006 C 
ENDROOT
BRANCH   1   2
ATOM      2  C   UNL     1      43.063  53.823  16.655  1.00  0.00     0.053 C 
BRANCH   2   3
ATOM      3  C   UNL     1      43.672  53.810  15.286  1.00  0.00     0.041 C 
ATOM      4  O   UNL     1      43.316  54.658  14.427  1.00  0.00    -0.550 OA
ATOM      5  O   UNL     1      44.605  52.838  14.950  1.00  0.00    -0.550 OA
ENDBRANCH   2   3
ENDBRANCH   1   2
BRANCH   1   6
ATOM      6  C   UNL     1      41.819  55.511  18.103  1.00  0.00     0.000 C 
BRANCH   6   7
ATOM      7  C   UNL     1      40.686  56.042  17.217  1.00  0.00    -0.003 C 
ATOM      8  C   UNL     1      39.504  56.516  18.058  1.00  0.00     0.004 C 
ENDBRANCH   6   7
ENDBRANCH   1   6
TORSDOF 4
ENDMDL
MODEL 5
REMARK VINA RESULT:    -3.484      2.228      3.491
REMARK INTER + INTRA:          -4.370
REMARK INTER:                  -4.289
REMARK INTRA:                  -0.080
REMARK UNBOUND:                -0.071
REMARK SMILES CCCCCC(=O)[O-]
REMARK SMILES IDX 4 1 5 2 6 3 7 4 8 5 3 6 2 7 1 8
REMARK H PARENT
REMARK Flexibility Score: inf
ROOT
ATOM      1  C   UNL     1      40.217  56.260  17.253  1.00  0.00     0.006 C 
ENDROOT
BRANCH   1   2
ATOM      2  C   UNL     1      38.922  56.731  17.928  1.00  0.00     0.053 C 
BRANCH   2   3
ATOM      3  C   UNL     1      37.782  56.803  16.959  1.00  0.00     0.041 C 
ATOM      4  O   UNL     1      37.925  56.382  15.781  1.00  0.00    -0.550 OA
ATOM      5  O   UNL     1      36.575  57.368  17.347  1.00  0.00    -0.550 OA
ENDBRANCH   2   3
ENDBRANCH   1   2
BRANCH   1   6
ATOM      6  C   UNL     1      41.207  55.651  18.256  1.00  0.00     0.000 C 
BRANCH   6   7
ATOM      7  C   UNL     1      42.567  55.393  17.596  1.00  0.00    -0.003 C 
ATOM      8  C   UNL     1      42.400  54.818  16.193  1.00  0.00     0.004 C 
ENDBRANCH   6   7
ENDBRANCH   1   6
TORSDOF 4
ENDMDL
MODEL 6
REMARK VINA RESULT:    -3.476      4.718      6.228
REMARK INTER + INTRA:          -4.360
REMARK INTER:                  -4.318
REMARK INTRA:                  -0.041
REMARK UNBOUND:                -0.071
REMARK SMILES CCCCCC(=O)[O-]
REMARK SMILES IDX 4 1 5 2 6 3 7 4 8 5 3 6 2 7 1 8
REMARK H PARENT
REMARK Flexibility Score: inf
ROOT
ATOM      1  C   UNL     1      40.381  56.333  17.252  1.00  0.00     0.006 C 
ENDROOT
BRANCH   1   2
ATOM      2  C   UNL     1      41.346  55.609  18.200  1.00  0.00     0.053 C 
BRANCH   2   3
ATOM      3  C   UNL     1      42.604  55.189  17.502  1.00  0.00     0.041 C 
ATOM      4  O   UNL     1      43.469  56.048  17.186  1.00  0.00    -0.550 OA
ATOM      5  O   UNL     1      42.803  53.856  17.170  1.00  0.00    -0.550 OA
ENDBRANCH   2   3
ENDBRANCH   1   2
BRANCH   1   6
ATOM      6  C   UNL     1      39.048  56.676  17.931  1.00  0.00     0.000 C 
BRANCH   6   7
ATOM      7  C   UNL     1      37.891  56.629  16.926  1.00  0.00    -0.003 C 
ATOM      8  C   UNL     1      36.762  57.569  17.339  1.00  0.00     0.004 C 
ENDBRANCH   6   7
ENDBRANCH   1   6
TORSDOF 4
ENDMDL
MODEL 7
REMARK VINA RESULT:    -3.374      3.584      5.353
REMARK INTER + INTRA:          -4.233
REMARK INTER:                  -4.138
REMARK INTRA:                  -0.096
REMARK UNBOUND:                -0.071
REMARK SMILES CCCCCC(=O)[O-]
REMARK SMILES IDX 4 1 5 2 6 3 7 4 8 5 3 6 2 7 1 8
REMARK H PARENT
REMARK Flexibility Score: inf
ROOT
ATOM      1  C   UNL     1      41.853  55.586  17.959  1.00  0.00     0.006 C 
ENDROOT
BRANCH   1   2
ATOM      2  C   UNL     1      40.716  55.978  17.006  1.00  0.00     0.053 C 
BRANCH   2   3
ATOM      3  C   UNL     1      39.510  56.466  17.749  1.00  0.00     0.041 C 
ATOM      4  O   UNL     1      39.592  56.754  18.972  1.00  0.00    -0.550 OA
ATOM      5  O   UNL     1      38.288  56.570  17.098  1.00  0.00    -0.550 OA
ENDBRANCH   2   3
ENDBRANCH   1   2
BRANCH   1   6
ATOM      6  C   UNL     1      43.107  55.119  17.207  1.00  0.00     0.000 C 
BRANCH   6   7
ATOM      7  C   UNL     1      42.988  53.644  16.805  1.00  0.00    -0.003 C 
ATOM      8  C   UNL     1      43.483  53.419  15.379  1.00  0.00     0.004 C 
ENDBRANCH   6   7
ENDBRANCH   1   6
TORSDOF 4
ENDMDL
MODEL 8
REMARK VINA RESULT:    -3.322      6.175      7.790
REMARK INTER + INTRA:          -4.170
REMARK INTER:                  -4.051
REMARK INTRA:                  -0.119
REMARK UNBOUND:                -0.071
REMARK SMILES CCCCCC(=O)[O-]
REMARK SMILES IDX 4 1 5 2 6 3 7 4 8 5 3 6 2 7 1 8
REMARK H PARENT
REMARK Flexibility Score: inf
ROOT
ATOM      1  C   UNL     1      42.746  54.238  17.187  1.00  0.00     0.006 C 
ENDROOT
BRANCH   1   2
ATOM      2  C   UNL     1      43.206  54.667  15.787  1.00  0.00     0.053 C 
BRANCH   2   3
ATOM      3  C   UNL     1      44.671  54.977  15.752  1.00  0.00     0.041 C 
ATOM      4  O   UNL     1      45.101  56.061  16.227  1.00  0.00    -0.550 OA
ATOM      5  O   UNL     1      45.557  54.084  15.163  1.00  0.00    -0.550 OA
ENDBRANCH   2   3
ENDBRANCH   1   2
BRANCH   1   6
ATOM      6  C   UNL     1      42.072  55.385  17.953  1.00  0.00     0.000 C 
BRANCH   6   7
ATOM      7  C   UNL     1      40.910  55.976  17.145  1.00  0.00    -0.003 C 
ATOM      8  C   UNL     1      39.755  56.381  18.057  1.00  0.00     0.004 C 
ENDBRANCH   6   7
ENDBRANCH   1   6
TORSDOF 4
ENDMDL
MODEL 9
REMARK VINA RESULT:    -3.084      2.629      3.739
REMARK INTER + INTRA:          -3.876
REMARK INTER:                  -3.809
REMARK INTRA:                  -0.067
REMARK UNBOUND:                -0.071
REMARK SMILES CCCCCC(=O)[O-]
REMARK SMILES IDX 4 1 5 2 6 3 7 4 8 5 3 6 2 7 1 8
REMARK H PARENT
REMARK Flexibility Score: inf
ROOT
ATOM      1  C   UNL     1      33.993  56.387  16.230  1.00  0.00     0.006 C 
ENDROOT
BRANCH   1   2
ATOM      2  C   UNL     1      32.523  56.322  15.795  1.00  0.00     0.053 C 
BRANCH   2   3
ATOM      3  C   UNL     1      31.592  56.369  16.969  1.00  0.00     0.041 C 
ATOM      4  O   UNL     1      30.873  57.383  17.166  1.00  0.00    -0.550 OA
ATOM      5  O   UNL     1      31.545  55.307  17.862  1.00  0.00    -0.550 OA
ENDBRANCH   2   3
ENDBRANCH   1   2
BRANCH   1   6
ATOM      6  C   UNL     1      34.891  57.002  15.147  1.00  0.00     0.000 C 
BRANCH   6   7
ATOM      7  C   UNL     1      35.938  57.935  15.768  1.00  0.00    -0.003 C 
ATOM      8  C   UNL     1      36.689  57.244  16.903  1.00  0.00     0.004 C 
ENDBRANCH   6   7
ENDBRANCH   1   6
TORSDOF 4
ENDMDL
