MODEL 1
REMARK VINA RESULT:    -2.357      0.000      0.000
REMARK INTER + INTRA:          -2.357
REMARK INTER:                  -2.357
REMARK INTRA:                   0.000
REMARK UNBOUND:                 0.000
REMARK SMILES CC(=O)[O-]
REMARK SMILES IDX 1 1 2 2 3 3 4 4
REMARK H PARENT
REMARK Flexibility Score: inf
ROOT
ATOM      1  C   UNL     1      -7.170   1.455 -19.939  1.00  0.00     0.063 C 
ATOM      2  C   UNL     1      -8.523   1.960 -20.311  1.00  0.00     0.038 C 
ATOM      3  O   UNL     1      -9.254   2.504 -19.444  1.00  0.00    -0.550 OA
ATOM      4  O   UNL     1      -9.000   1.783 -21.603  1.00  0.00    -0.550 OA
ENDROOT
TORSDOF 0
ENDMDL
MODEL 2
REMARK VINA RESULT:    -2.343      7.758      8.310
REMARK INTER + INTRA:          -2.343
REMARK INTER:                  -2.343
REMARK INTRA:                   0.000
REMARK UNBOUND:                 0.000
REMARK SMILES CC(=O)[O-]
REMARK SMILES IDX 1 1 2 2 3 3 4 4
REMARK H PARENT
REMARK Flexibility Score: inf
ROOT
ATOM      1  C   UNL     1     -15.756   5.923 -24.888  1.00  0.00     0.063 C 
ATOM      2  C   UNL     1     -14.685   5.160 -24.184  1.00  0.00     0.038 C 
ATOM      3  O   UNL     1     -14.843   3.937 -23.932  1.00  0.00    -0.550 OA
ATOM      4  O   UNL     1     -13.534   5.809 -23.758  1.00  0.00    -0.550 OA
ENDROOT
TORSDOF 0
ENDMDL
MODEL 3
REMARK VINA RESULT:    -2.340      7.803      8.288
REMARK INTER + INTRA:          -2.340
REMARK INTER:                  -2.340
REMARK INTRA:                   0.000
REMARK UNBOUND:                 0.000
REMARK SMILES CC(=O)[O-]
REMARK SMILES IDX 1 1 2 2 3 3 4 4
REMARK H PARENT
REMARK Flexibility Score: inf
ROOT
ATOM      1  C   UNL     1     -15.703   6.019 -24.923  1.00  0.00     0.063 C 
ATOM      2  C   UNL     1     -14.649   5.258 -24.192  1.00  0.00     0.038 C 
ATOM      3  O   UNL     1     -13.601   5.840 -23.808  1.00  0.00    -0.550 OA
ATOM      4  O   UNL     1     -14.796   3.893 -23.982  1.00  0.00    -0.550 OA
ENDROOT
TORSDOF 0
ENDMDL
MODEL 4
REMARK VINA RESULT:    -2.308      1.386      1.708
REMARK INTER + INTRA:          -2.308
REMARK INTER:                  -2.308
REMARK INTRA:                   0.000
REMARK UNBOUND:                 0.000
REMARK SMILES CC(=O)[O-]
REMARK SMILES IDX 1 1 2 2 3 3 4 4
REMARK H PARENT
REMARK Flexibility Score: inf
ROOT
ATOM      1  C   UNL     1      -9.332   2.259 -19.440  1.00  0.00     0.063 C 
ATOM      2  C   UNL     1      -8.306   1.749 -20.395  1.00  0.00     0.038 C 
ATOM      3  O   UNL     1      -7.146   1.475 -19.989  1.00  0.00    -0.550 OA
ATOM      4  O   UNL     1      -8.611   1.627 -21.744  1.00  0.00    -0.550 OA
ENDROOT
TORSDOF 0
ENDMDL
MODEL 5
REMARK VINA RESULT:    -2.254     13.296     13.716
REMARK INTER + INTRA:          -2.254
REMARK INTER:                  -2.254
REMARK INTRA:                   0.000
REMARK UNBOUND:                 0.000
REMARK SMILES CC(=O)[O-]
REMARK SMILES IDX 1 1 2 2 3 3 4 4
REMARK H PARENT
REMARK Flexibility Score: inf
ROOT
ATOM      1  C   UNL     1      -7.632   5.878 -32.663  1.00  0.00     0.063 C 
ATOM      2  C   UNL     1      -8.217   4.934 -33.659  1.00  0.00     0.038 C 
ATOM      3  O   UNL     1      -9.118   5.325 -34.446  1.00  0.00    -0.550 OA
ATOM      4  O   UNL     1      -7.806   3.608 -33.684  1.00  0.00    -0.550 OA
ENDROOT
TORSDOF 0
ENDMDL
MODEL 6
REMARK VINA RESULT:    -2.246     15.858     16.318
REMARK INTER + INTRA:          -2.246
REMARK INTER:                  -2.246
REMARK INTRA:                   0.000
REMARK UNBOUND:                 0.000
REMARK SMILES CC(=O)[O-]
REMARK SMILES IDX 1 1 2 2 3 3 4 4
REMARK H PARENT
REMARK Flexibility Score: inf
ROOT
ATOM      1  C   UNL     1     -13.256   2.497 -37.244  1.00  0.00     0.063 C 
ATOM      2  C   UNL     1     -12.606   2.106 -35.960  1.00  0.00     0.038 C 
ATOM      3  O   UNL     1     -13.301   1.657 -35.011  1.00  0.00    -0.550 OA
ATOM      4  O   UNL     1     -11.239   2.286 -35.789  1.00  0.00    -0.550 OA
ENDROOT
TORSDOF 0
ENDMDL
MODEL 7
REMARK VINA RESULT:    -2.158     13.396     13.801
REMARK INTER + INTRA:          -2.158
REMARK INTER:                  -2.158
REMARK INTRA:                   0.000
REMARK UNBOUND:                 0.000
REMARK SMILES CC(=O)[O-]
REMARK SMILES IDX 1 1 2 2 3 3 4 4
REMARK H PARENT
REMARK Flexibility Score: inf
ROOT
ATOM      1  C   UNL     1      -7.707   3.504 -34.199  1.00  0.00     0.063 C 
ATOM      2  C   UNL     1      -8.165   4.848 -33.745  1.00  0.00     0.038 C 
ATOM      3  O   UNL     1      -7.651   5.380 -32.726  1.00  0.00    -0.550 OA
ATOM      4  O   UNL     1      -9.198   5.493 -34.412  1.00  0.00    -0.550 OA
ENDROOT
TORSDOF 0
ENDMDL
MODEL 8
REMARK VINA RESULT:    -2.080     14.396     14.530
REMARK INTER + INTRA:          -2.080
REMARK INTER:                  -2.080
REMARK INTRA:                   0.000
REMARK UNBOUND:                 0.000
REMARK SMILES CC(=O)[O-]
REMARK SMILES IDX 1 1 2 2 3 3 4 4
REMARK H PARENT
REMARK Flexibility Score: inf
ROOT
ATOM      1  C   UNL     1     -16.499  -4.508 -29.757  1.00  0.00     0.063 C 
ATOM      2  C   UNL     1     -17.924  -4.138 -29.515  1.00  0.00     0.038 C 
ATOM      3  O   UNL     1     -18.634  -4.832 -28.742  1.00  0.00    -0.550 OA
ATOM      4  O   UNL     1     -18.485  -3.057 -30.183  1.00  0.00    -0.550 OA
ENDROOT
TORSDOF 0
ENDMDL
MODEL 9
REMARK VINA RESULT:    -2.042     13.881     14.379
REMARK INTER + INTRA:          -2.042
REMARK INTER:                  -2.042
REMARK INTRA:                   0.000
REMARK UNBOUND:                 0.000
REMARK SMILES CC(=O)[O-]
REMARK SMILES IDX 1 1 2 2 3 3 4 4
REMARK H PARENT
REMARK Flexibility Score: inf
ROOT
ATOM      1  C   UNL     1      -6.724   3.333 -35.361  1.00  0.00     0.063 C 
ATOM      2  C   UNL     1      -7.956   3.513 -34.541  1.00  0.00     0.038 C 
ATOM      3  O   UNL     1      -7.901   4.129 -33.445  1.00  0.00    -0.550 OA
ATOM      4  O   UNL     1      -9.157   2.954 -34.958  1.00  0.00    -0.550 OA
ENDROOT
TORSDOF 0
ENDMDL
