MODEL 1
REMARK VINA RESULT:    -4.651      0.000      0.000
REMARK INTER + INTRA:          -5.143
REMARK INTER:                  -4.923
REMARK INTRA:                  -0.220
REMARK UNBOUND:                -0.220
REMARK SMILES C=C(C)[C@@H]1CC=C(C)C(=O)C1
REMARK SMILES IDX 8 1 7 2 6 3 5 4 4 5 11 6 9 7 10 8 2 9 1 10 3 11
REMARK H PARENT
REMARK Flexibility Score: inf
ROOT
ATOM      1  C   UNL     1       6.914  -4.796  43.451  1.00  0.00     0.048 C 
ATOM      2  C   UNL     1       7.702  -6.045  43.169  1.00  0.00    -0.012 C 
ATOM      3  C   UNL     1       7.921  -6.930  44.154  1.00  0.00    -0.019 C 
ATOM      4  C   UNL     1       8.727  -8.184  43.951  1.00  0.00     0.036 C 
ATOM      5  C   UNL     1       8.664  -8.731  42.509  1.00  0.00     0.025 C 
ATOM      6  C   UNL     1       8.874  -7.616  41.464  1.00  0.00     0.089 C 
ATOM      7  C   UNL     1       8.098  -6.368  41.778  1.00  0.00     0.158 C 
ATOM      8  O   UNL     1       7.819  -5.572  40.842  1.00  0.00    -0.295 OA
ENDROOT
BRANCH   5   9
ATOM      9  C   UNL     1       7.412  -9.571  42.248  1.00  0.00    -0.077 C 
ATOM     10  C   UNL     1       6.830  -9.634  41.038  1.00  0.00     0.008 C 
ATOM     11  C   UNL     1       6.794 -10.365  43.371  1.00  0.00     0.039 C 
ENDBRANCH   5   9
TORSDOF 1
ENDMDL
MODEL 2
REMARK VINA RESULT:    -4.571      2.001      4.183
REMARK INTER + INTRA:          -5.059
REMARK INTER:                  -4.838
REMARK INTRA:                  -0.220
REMARK UNBOUND:                -0.220
REMARK SMILES C=C(C)[C@@H]1CC=C(C)C(=O)C1
REMARK SMILES IDX 8 1 7 2 6 3 5 4 4 5 11 6 9 7 10 8 2 9 1 10 3 11
REMARK H PARENT
REMARK Flexibility Score: inf
ROOT
ATOM      1  C   UNL     1       6.314 -10.894  42.209  1.00  0.00     0.048 C 
ATOM      2  C   UNL     1       7.393  -9.864  42.403  1.00  0.00    -0.012 C 
ATOM      3  C   UNL     1       7.942  -9.267  41.335  1.00  0.00    -0.019 C 
ATOM      4  C   UNL     1       9.046  -8.253  41.454  1.00  0.00     0.036 C 
ATOM      5  C   UNL     1       9.008  -7.451  42.772  1.00  0.00     0.025 C 
ATOM      6  C   UNL     1       8.798  -8.368  43.995  1.00  0.00     0.089 C 
ATOM      7  C   UNL     1       7.734  -9.405  43.770  1.00  0.00     0.158 C 
ATOM      8  O   UNL     1       7.157  -9.911  44.769  1.00  0.00    -0.295 OA
ENDROOT
BRANCH   5   9
ATOM      9  C   UNL     1       8.026  -6.279  42.724  1.00  0.00    -0.077 C 
ATOM     10  C   UNL     1       7.375  -5.843  43.817  1.00  0.00     0.008 C 
ATOM     11  C   UNL     1       7.765  -5.571  41.418  1.00  0.00     0.039 C 
ENDBRANCH   5   9
TORSDOF 1
ENDMDL
MODEL 3
REMARK VINA RESULT:    -4.467      6.991      8.648
REMARK INTER + INTRA:          -4.948
REMARK INTER:                  -4.735
REMARK INTRA:                  -0.212
REMARK UNBOUND:                -0.220
REMARK SMILES C=C(C)[C@@H]1CC=C(C)C(=O)C1
REMARK SMILES IDX 8 1 7 2 6 3 5 4 4 5 11 6 9 7 10 8 2 9 1 10 3 11
REMARK H PARENT
REMARK Flexibility Score: inf
ROOT
ATOM      1  C   UNL     1       6.716   0.174  34.568  1.00  0.00     0.048 C 
ATOM      2  C   UNL     1       6.468  -0.982  35.498  1.00  0.00    -0.012 C 
ATOM      3  C   UNL     1       7.016  -2.178  35.232  1.00  0.00    -0.019 C 
ATOM      4  C   UNL     1       6.784  -3.384  36.100  1.00  0.00     0.036 C 
ATOM      5  C   UNL     1       6.525  -3.038  37.582  1.00  0.00     0.025 C 
ATOM      6  C   UNL     1       5.503  -1.892  37.731  1.00  0.00     0.089 C 
ATOM      7  C   UNL     1       5.753  -0.759  36.776  1.00  0.00     0.158 C 
ATOM      8  O   UNL     1       5.311   0.386  37.059  1.00  0.00    -0.295 OA
ENDROOT
BRANCH   5   9
ATOM      9  C   UNL     1       7.814  -2.799  38.370  1.00  0.00    -0.077 C 
ATOM     10  C   UNL     1       7.893  -1.893  39.359  1.00  0.00     0.008 C 
ATOM     11  C   UNL     1       9.051  -3.598  38.043  1.00  0.00     0.039 C 
ENDBRANCH   5   9
TORSDOF 1
ENDMDL
MODEL 4
REMARK VINA RESULT:    -4.414      2.071      4.503
REMARK INTER + INTRA:          -4.892
REMARK INTER:                  -4.799
REMARK INTRA:                  -0.093
REMARK UNBOUND:                -0.220
REMARK SMILES C=C(C)[C@@H]1CC=C(C)C(=O)C1
REMARK SMILES IDX 8 1 7 2 6 3 5 4 4 5 11 6 9 7 10 8 2 9 1 10 3 11
REMARK H PARENT
REMARK Flexibility Score: inf
ROOT
ATOM      1  C   UNL     1       8.815  -8.251  43.876  1.00  0.00     0.048 C 
ATOM      2  C   UNL     1       8.395  -7.038  43.094  1.00  0.00    -0.012 C 
ATOM      3  C   UNL     1       7.624  -6.106  43.676  1.00  0.00    -0.019 C 
ATOM      4  C   UNL     1       7.140  -4.884  42.944  1.00  0.00     0.036 C 
ATOM      5  C   UNL     1       8.097  -4.415  41.828  1.00  0.00     0.025 C 
ATOM      6  C   UNL     1       8.566  -5.590  40.945  1.00  0.00     0.089 C 
ATOM      7  C   UNL     1       8.956  -6.801  41.744  1.00  0.00     0.158 C 
ATOM      8  O   UNL     1       9.745  -7.640  41.233  1.00  0.00    -0.295 OA
ENDROOT
BRANCH   5   9
ATOM      9  C   UNL     1       9.252  -3.562  42.355  1.00  0.00    -0.077 C 
ATOM     10  C   UNL     1      10.538  -3.910  42.183  1.00  0.00     0.008 C 
ATOM     11  C   UNL     1       8.960  -2.281  43.096  1.00  0.00     0.039 C 
ENDBRANCH   5   9
TORSDOF 1
ENDMDL
MODEL 5
REMARK VINA RESULT:    -4.325      2.590      4.019
REMARK INTER + INTRA:          -4.797
REMARK INTER:                  -4.611
REMARK INTRA:                  -0.187
REMARK UNBOUND:                -0.220
REMARK SMILES C=C(C)[C@@H]1CC=C(C)C(=O)C1
REMARK SMILES IDX 8 1 7 2 6 3 5 4 4 5 11 6 9 7 10 8 2 9 1 10 3 11
REMARK H PARENT
REMARK Flexibility Score: inf
ROOT
ATOM      1  C   UNL     1       8.877  -8.139  43.687  1.00  0.00     0.048 C 
ATOM      2  C   UNL     1       7.879  -9.000  42.964  1.00  0.00    -0.012 C 
ATOM      3  C   UNL     1       7.781  -8.926  41.628  1.00  0.00    -0.019 C 
ATOM      4  C   UNL     1       6.783  -9.734  40.844  1.00  0.00     0.036 C 
ATOM      5  C   UNL     1       6.423 -11.080  41.506  1.00  0.00     0.025 C 
ATOM      6  C   UNL     1       6.126 -10.917  43.011  1.00  0.00     0.089 C 
ATOM      7  C   UNL     1       7.121 -10.033  43.709  1.00  0.00     0.158 C 
ATOM      8  O   UNL     1       7.276 -10.154  44.954  1.00  0.00    -0.295 OA
ENDROOT
BRANCH   5   9
ATOM      9  C   UNL     1       7.447 -12.179  41.212  1.00  0.00    -0.077 C 
ATOM     10  C   UNL     1       7.519 -13.306  41.940  1.00  0.00     0.008 C 
ATOM     11  C   UNL     1       8.416 -12.013  40.068  1.00  0.00     0.039 C 
ENDBRANCH   5   9
TORSDOF 1
ENDMDL
MODEL 6
REMARK VINA RESULT:    -4.314      2.919      4.264
REMARK INTER + INTRA:          -4.786
REMARK INTER:                  -4.634
REMARK INTRA:                  -0.152
REMARK UNBOUND:                -0.220
REMARK SMILES C=C(C)[C@@H]1CC=C(C)C(=O)C1
REMARK SMILES IDX 8 1 7 2 6 3 5 4 4 5 11 6 9 7 10 8 2 9 1 10 3 11
REMARK H PARENT
REMARK Flexibility Score: inf
ROOT
ATOM      1  C   UNL     1       7.705  -1.667  39.385  1.00  0.00     0.048 C 
ATOM      2  C   UNL     1       8.422  -2.657  40.259  1.00  0.00    -0.012 C 
ATOM      3  C   UNL     1       8.483  -2.453  41.584  1.00  0.00    -0.019 C 
ATOM      4  C   UNL     1       9.211  -3.385  42.513  1.00  0.00     0.036 C 
ATOM      5  C   UNL     1       9.244  -4.847  42.020  1.00  0.00     0.025 C 
ATOM      6  C   UNL     1       9.632  -4.940  40.530  1.00  0.00     0.089 C 
ATOM      7  C   UNL     1       8.922  -3.925  39.679  1.00  0.00     0.158 C 
ATOM      8  O   UNL     1       8.791  -4.150  38.446  1.00  0.00    -0.295 OA
ENDROOT
BRANCH   5   9
ATOM      9  C   UNL     1       7.964  -5.615  42.358  1.00  0.00    -0.077 C 
ATOM     10  C   UNL     1       7.049  -5.142  43.220  1.00  0.00     0.008 C 
ATOM     11  C   UNL     1       7.699  -6.951  41.709  1.00  0.00     0.039 C 
ENDBRANCH   5   9
TORSDOF 1
ENDMDL
MODEL 7
REMARK VINA RESULT:    -4.252      3.089      4.616
REMARK INTER + INTRA:          -4.721
REMARK INTER:                  -4.509
REMARK INTRA:                  -0.212
REMARK UNBOUND:                -0.220
REMARK SMILES C=C(C)[C@@H]1CC=C(C)C(=O)C1
REMARK SMILES IDX 8 1 7 2 6 3 5 4 4 5 11 6 9 7 10 8 2 9 1 10 3 11
REMARK H PARENT
REMARK Flexibility Score: inf
ROOT
ATOM      1  C   UNL     1      12.070  -3.380  42.358  1.00  0.00     0.048 C 
ATOM      2  C   UNL     1      10.717  -3.587  41.735  1.00  0.00    -0.012 C 
ATOM      3  C   UNL     1      10.539  -4.574  40.843  1.00  0.00    -0.019 C 
ATOM      4  C   UNL     1       9.223  -4.817  40.157  1.00  0.00     0.036 C 
ATOM      5  C   UNL     1       8.001  -4.396  41.000  1.00  0.00     0.025 C 
ATOM      6  C   UNL     1       8.190  -2.997  41.624  1.00  0.00     0.089 C 
ATOM      7  C   UNL     1       9.556  -2.804  42.218  1.00  0.00     0.158 C 
ATOM      8  O   UNL     1       9.712  -1.932  43.115  1.00  0.00    -0.295 OA
ENDROOT
BRANCH   5   9
ATOM      9  C   UNL     1       7.590  -5.458  42.022  1.00  0.00    -0.077 C 
ATOM     10  C   UNL     1       7.090  -5.139  43.228  1.00  0.00     0.008 C 
ATOM     11  C   UNL     1       7.741  -6.921  41.685  1.00  0.00     0.039 C 
ENDBRANCH   5   9
TORSDOF 1
ENDMDL
MODEL 8
REMARK VINA RESULT:    -4.242     16.025     17.368
REMARK INTER + INTRA:          -4.709
REMARK INTER:                  -4.494
REMARK INTRA:                  -0.216
REMARK UNBOUND:                -0.220
REMARK SMILES C=C(C)[C@@H]1CC=C(C)C(=O)C1
REMARK SMILES IDX 8 1 7 2 6 3 5 4 4 5 11 6 9 7 10 8 2 9 1 10 3 11
REMARK H PARENT
REMARK Flexibility Score: inf
ROOT
ATOM      1  C   UNL     1      23.868 -15.615  46.496  1.00  0.00     0.048 C 
ATOM      2  C   UNL     1      23.776 -14.162  46.870  1.00  0.00    -0.012 C 
ATOM      3  C   UNL     1      24.898 -13.459  47.089  1.00  0.00    -0.019 C 
ATOM      4  C   UNL     1      24.879 -12.012  47.497  1.00  0.00     0.036 C 
ATOM      5  C   UNL     1      23.651 -11.238  46.972  1.00  0.00     0.025 C 
ATOM      6  C   UNL     1      22.342 -12.021  47.200  1.00  0.00     0.089 C 
ATOM      7  C   UNL     1      22.463 -13.476  46.844  1.00  0.00     0.158 C 
ATOM      8  O   UNL     1      21.419 -14.122  46.558  1.00  0.00    -0.295 OA
ENDROOT
BRANCH   5   9
ATOM      9  C   UNL     1      23.823 -10.762  45.529  1.00  0.00    -0.077 C 
ATOM     10  C   UNL     1      25.031 -10.514  44.994  1.00  0.00     0.008 C 
ATOM     11  C   UNL     1      22.609 -10.557  44.657  1.00  0.00     0.039 C 
ENDBRANCH   5   9
TORSDOF 1
ENDMDL
MODEL 9
REMARK VINA RESULT:    -4.167      7.432      9.317
REMARK INTER + INTRA:          -4.630
REMARK INTER:                  -4.426
REMARK INTRA:                  -0.204
REMARK UNBOUND:                -0.220
REMARK SMILES C=C(C)[C@@H]1CC=C(C)C(=O)C1
REMARK SMILES IDX 8 1 7 2 6 3 5 4 4 5 11 6 9 7 10 8 2 9 1 10 3 11
REMARK H PARENT
REMARK Flexibility Score: inf
ROOT
ATOM      1  C   UNL     1       8.759  -3.390  38.043  1.00  0.00     0.048 C 
ATOM      2  C   UNL     1       7.531  -2.841  37.372  1.00  0.00    -0.012 C 
ATOM      3  C   UNL     1       6.588  -2.232  38.107  1.00  0.00    -0.019 C 
ATOM      4  C   UNL     1       5.320  -1.689  37.507  1.00  0.00     0.036 C 
ATOM      5  C   UNL     1       5.476  -1.236  36.040  1.00  0.00     0.025 C 
ATOM      6  C   UNL     1       6.230  -2.283  35.194  1.00  0.00     0.089 C 
ATOM      7  C   UNL     1       7.439  -2.837  35.894  1.00  0.00     0.158 C 
ATOM      8  O   UNL     1       8.366  -3.338  35.202  1.00  0.00    -0.295 OA
ENDROOT
BRANCH   5   9
ATOM      9  C   UNL     1       6.062   0.172  35.914  1.00  0.00    -0.077 C 
ATOM     10  C   UNL     1       6.650   0.606  34.786  1.00  0.00     0.008 C 
ATOM     11  C   UNL     1       5.987   1.123  37.082  1.00  0.00     0.039 C 
ENDBRANCH   5   9
TORSDOF 1
ENDMDL
