MODEL 1
REMARK VINA RESULT:    10.396      0.000      0.000
REMARK INTER + INTRA:          11.775
REMARK INTER:                  11.308
REMARK INTRA:                   0.467
REMARK UNBOUND:                 0.467
REMARK SMILES C[C@@H]1[C@H]2C3=CC[C@@H]4[C@@]5(C)CC[C@H](O)C(C)(C)[C@H]5CC[C@@]4(C)[C@@]3(C)CC[C@@]2(C(=O)[O-])CC[C@@H]1C
REMARK SMILES IDX 26 1 30 2 25 3 3 4 31 5 24 6 4 7 2 8 32 9 22 10 5 11 1 12
REMARK SMILES IDX 33 13 23 14 20 15 6 16 7 17 19 18 21 19 8 20 18 21 17 22
REMARK SMILES IDX 10 23 9 24 14 25 11 26 12 27 15 28 16 29 27 30 28 31 29 32
REMARK SMILES IDX 13 33
REMARK H PARENT 13 34
REMARK Flexibility Score: inf
ROOT
ATOM      1  C   UNL     1      -6.328  -8.591   7.088  1.00  0.00     0.017 C 
ATOM      2  C   UNL     1      -6.725  -8.394   8.581  1.00  0.00     0.014 C 
ATOM      3  C   UNL     1      -5.344  -7.453   6.672  1.00  0.00     0.014 C 
ATOM      4  C   UNL     1      -7.638  -8.620   6.201  1.00  0.00     0.030 C 
ATOM      5  C   UNL     1      -7.678  -9.485   9.089  1.00  0.00     0.004 C 
ATOM      6  C   UNL     1      -5.995  -6.090   6.386  1.00  0.00     0.013 C 
ATOM      7  C   UNL     1      -8.183  -7.183   5.975  1.00  0.00    -0.063 C 
ATOM      8  C   UNL     1      -8.691  -9.671   6.732  1.00  0.00    -0.003 C 
ATOM      9  C   UNL     1      -8.970  -9.504   8.263  1.00  0.00    -0.011 C 
ATOM     10  C   UNL     1      -7.190  -6.151   5.381  1.00  0.00    -0.006 C 
ATOM     11  C   UNL     1      -9.432  -6.808   6.386  1.00  0.00    -0.027 C 
ATOM     12  C   UNL     1      -8.318 -11.125   6.356  1.00  0.00     0.008 C 
ATOM     13  C   UNL     1      -9.954 -10.549   8.809  1.00  0.00     0.008 C 
ATOM     14  C   UNL     1      -6.658  -6.689   4.008  1.00  0.00     0.017 C 
ATOM     15  C   UNL     1      -7.888  -4.709   5.156  1.00  0.00    -0.020 C 
ATOM     16  C   UNL     1      -9.926  -5.388   6.506  1.00  0.00     0.032 C 
ATOM     17  C   UNL     1      -8.762  -4.384   6.425  1.00  0.00     0.006 C 
ATOM     18  C   UNL     1      -6.856  -3.557   4.918  1.00  0.00     0.008 C 
ATOM     19  C   UNL     1      -8.789  -4.785   3.871  1.00  0.00     0.012 C 
ATOM     20  C   UNL     1      -9.110  -2.855   6.715  1.00  0.00    -0.025 C 
ATOM     21  C   UNL     1      -6.531  -2.752   6.180  1.00  0.00     0.005 C 
ATOM     22  C   UNL     1      -7.773  -1.971   6.680  1.00  0.00     0.003 C 
ATOM     23  C   UNL     1      -9.829  -2.790   8.108  1.00  0.00     0.010 C 
ATOM     24  C   UNL     1     -10.117  -2.282   5.679  1.00  0.00     0.012 C 
ATOM     25  C   UNL     1      -7.470  -1.128   7.976  1.00  0.00    -0.006 C 
ATOM     26  C   UNL     1      -9.912  -1.413   8.786  1.00  0.00     0.033 C 
ATOM     27  C   UNL     1      -8.781  -0.430   8.436  1.00  0.00     0.120 C 
ATOM     28  C   UNL     1      -6.438  -0.006   7.665  1.00  0.00     0.014 C 
ATOM     29  C   UNL     1      -6.865  -1.984   9.124  1.00  0.00     0.014 C 
ENDROOT
BRANCH   1  30
ATOM     30  C   UNL     1      -5.525  -9.876   6.912  1.00  0.00     0.048 C 
ATOM     31  O   UNL     1      -4.641 -10.213   7.747  1.00  0.00    -0.550 OA
ATOM     32  O   UNL     1      -5.663 -10.631   5.752  1.00  0.00    -0.550 OA
ENDBRANCH   1  30
BRANCH  27  33
ATOM     33  O   UNL     1      -9.228   0.449   7.431  1.00  0.00    -0.393 OA
ATOM     34  H   UNL     1      -8.665   0.294   6.627  1.00  0.00     0.210 HD
ENDBRANCH  27  33
TORSDOF 2
ENDMDL
