MODEL 1
REMARK VINA RESULT:    -6.051      0.000      0.000
REMARK INTER + INTRA:         -10.599
REMARK INTER:                  -8.528
REMARK INTRA:                  -2.071
REMARK UNBOUND:                -2.071
REMARK SMILES C=C(CC[C@@H](C(=O)[O-])[C@@H]1[C@@H](O)C[C@@]2(C)C3=C(CC[C@]12C)[C@@]1(C)CC[C@H](O)C(C)(C)[C@@H]1CC3)C(C)C
REMARK SMILES IDX 4 1 5 2 6 3 7 4 8 5 9 6 10 7 19 8 12 9 13 10 18 11 20 12
REMARK SMILES IDX 14 13 15 14 17 15 16 16 32 17 21 18 31 19 30 20 23 21 22 22
REMARK SMILES IDX 27 23 24 24 25 25 28 26 29 27 11 28 26 30 3 32 2 33 1 34
REMARK SMILES IDX 33 35 34 36 35 37
REMARK H PARENT 11 29 26 31
REMARK Flexibility Score: inf
ROOT
ATOM      1  C   UNL     1     -61.626 -77.348 222.440  1.00  0.00     0.014 C 
ENDROOT
BRANCH   1   2
ATOM      2  C   UNL     1     -63.123 -77.138 222.806  1.00  0.00     0.042 C 
BRANCH   2   3
ATOM      3  C   UNL     1     -63.651 -75.902 222.114  1.00  0.00     0.045 C 
ATOM      4  O   UNL     1     -63.189 -75.537 220.999  1.00  0.00    -0.550 OA
ATOM      5  O   UNL     1     -64.570 -75.086 222.759  1.00  0.00    -0.550 OA
ENDBRANCH   2   3
BRANCH   2   6
ATOM      6  C   UNL     1     -63.940 -78.460 222.569  1.00  0.00     0.033 C 
ATOM      7  C   UNL     1     -65.064 -78.402 221.494  1.00  0.00     0.119 C 
ATOM      8  C   UNL     1     -64.581 -79.203 223.798  1.00  0.00    -0.017 C 
ATOM      9  C   UNL     1     -66.262 -79.188 222.071  1.00  0.00     0.043 C 
ATOM     10  C   UNL     1     -66.118 -79.048 223.596  1.00  0.00    -0.003 C 
ATOM     11  C   UNL     1     -64.241 -78.736 225.227  1.00  0.00     0.012 C 
ATOM     12  C   UNL     1     -64.112 -80.704 223.693  1.00  0.00     0.013 C 
ATOM     13  C   UNL     1     -66.732 -77.667 223.986  1.00  0.00     0.017 C 
ATOM     14  C   UNL     1     -66.824 -80.052 224.494  1.00  0.00    -0.064 C 
ATOM     15  C   UNL     1     -65.126 -79.454 226.292  1.00  0.00     0.032 C 
ATOM     16  C   UNL     1     -66.423 -80.156 225.801  1.00  0.00    -0.064 C 
ATOM     17  C   UNL     1     -67.907 -80.950 223.938  1.00  0.00     0.032 C 
ATOM     18  C   UNL     1     -67.203 -81.081 226.764  1.00  0.00    -0.008 C 
ATOM     19  C   UNL     1     -69.040 -81.281 224.924  1.00  0.00     0.009 C 
ATOM     20  C   UNL     1     -68.732 -80.951 226.413  1.00  0.00     0.007 C 
ATOM     21  C   UNL     1     -66.989 -80.613 228.238  1.00  0.00     0.014 C 
ATOM     22  C   UNL     1     -66.641 -82.517 226.578  1.00  0.00     0.016 C 
ATOM     23  C   UNL     1     -69.752 -81.585 227.447  1.00  0.00    -0.006 C 
ATOM     24  C   UNL     1     -67.927 -81.276 229.252  1.00  0.00     0.033 C 
ATOM     25  C   UNL     1     -69.403 -81.055 228.875  1.00  0.00     0.120 C 
ATOM     26  C   UNL     1     -71.187 -81.104 227.105  1.00  0.00     0.014 C 
ATOM     27  C   UNL     1     -69.782 -83.140 227.431  1.00  0.00     0.014 C 
BRANCH   7  28
ATOM     28  O   UNL     1     -64.628 -78.981 220.290  1.00  0.00    -0.393 OA
ATOM     29  H   UNL     1     -64.369 -79.917 220.502  1.00  0.00     0.210 HD
ENDBRANCH   7  28
BRANCH  25  30
ATOM     30  O   UNL     1     -70.260 -81.588 229.859  1.00  0.00    -0.393 OA
ATOM     31  H   UNL     1     -69.761 -82.281 230.366  1.00  0.00     0.210 HD
ENDBRANCH  25  30
ENDBRANCH   2   6
ENDBRANCH   1   2
BRANCH   1  32
ATOM     32  C   UNL     1     -61.275 -78.770 221.951  1.00  0.00     0.031 C 
BRANCH  32  33
ATOM     33  C   UNL     1     -60.376 -79.523 222.919  1.00  0.00    -0.075 C 
ATOM     34  C   UNL     1     -59.221 -80.052 222.472  1.00  0.00     0.008 C 
BRANCH  33  35
ATOM     35  C   UNL     1     -60.822 -79.807 224.349  1.00  0.00     0.008 C 
ATOM     36  C   UNL     1     -60.595 -81.272 224.737  1.00  0.00     0.012 C 
ATOM     37  C   UNL     1     -60.124 -78.865 225.337  1.00  0.00     0.012 C 
ENDBRANCH  33  35
ENDBRANCH  32  33
ENDBRANCH   1  32
TORSDOF 8
ENDMDL
MODEL 2
REMARK VINA RESULT:    -5.981      1.488      2.240
REMARK INTER + INTRA:         -10.499
REMARK INTER:                  -9.206
REMARK INTRA:                  -1.293
REMARK UNBOUND:                -2.071
REMARK SMILES C=C(CC[C@@H](C(=O)[O-])[C@@H]1[C@@H](O)C[C@@]2(C)C3=C(CC[C@]12C)[C@@]1(C)CC[C@H](O)C(C)(C)[C@@H]1CC3)C(C)C
REMARK SMILES IDX 4 1 5 2 6 3 7 4 8 5 9 6 10 7 19 8 12 9 13 10 18 11 20 12
REMARK SMILES IDX 14 13 15 14 17 15 16 16 32 17 21 18 31 19 30 20 23 21 22 22
REMARK SMILES IDX 27 23 24 24 25 25 28 26 29 27 11 28 26 30 3 32 2 33 1 34
REMARK SMILES IDX 33 35 34 36 35 37
REMARK H PARENT 11 29 26 31
REMARK Flexibility Score: inf
ROOT
ATOM      1  C   UNL     1     -61.272 -76.762 221.911  1.00  0.00     0.014 C 
ENDROOT
BRANCH   1   2
ATOM      2  C   UNL     1     -62.720 -76.767 222.477  1.00  0.00     0.042 C 
BRANCH   2   3
ATOM      3  C   UNL     1     -63.472 -75.556 221.972  1.00  0.00     0.045 C 
ATOM      4  O   UNL     1     -63.290 -75.123 220.802  1.00  0.00    -0.550 OA
ATOM      5  O   UNL     1     -64.284 -74.835 222.837  1.00  0.00    -0.550 OA
ENDBRANCH   2   3
BRANCH   2   6
ATOM      6  C   UNL     1     -63.408 -78.158 222.222  1.00  0.00     0.033 C 
ATOM      7  C   UNL     1     -64.438 -78.223 221.057  1.00  0.00     0.119 C 
ATOM      8  C   UNL     1     -64.091 -78.912 223.421  1.00  0.00    -0.017 C 
ATOM      9  C   UNL     1     -65.615 -79.087 221.562  1.00  0.00     0.043 C 
ATOM     10  C   UNL     1     -65.613 -78.889 223.087  1.00  0.00    -0.003 C 
ATOM     11  C   UNL     1     -63.911 -78.377 224.855  1.00  0.00     0.012 C 
ATOM     12  C   UNL     1     -63.499 -80.373 223.410  1.00  0.00     0.013 C 
ATOM     13  C   UNL     1     -66.364 -77.552 223.374  1.00  0.00     0.017 C 
ATOM     14  C   UNL     1     -66.311 -79.920 223.960  1.00  0.00    -0.064 C 
ATOM     15  C   UNL     1     -64.825 -79.132 225.869  1.00  0.00     0.032 C 
ATOM     16  C   UNL     1     -66.016 -79.951 225.299  1.00  0.00    -0.064 C 
ATOM     17  C   UNL     1     -67.269 -80.919 223.350  1.00  0.00     0.032 C 
ATOM     18  C   UNL     1     -66.801 -80.907 226.228  1.00  0.00    -0.008 C 
ATOM     19  C   UNL     1     -68.453 -81.312 224.251  1.00  0.00     0.009 C 
ATOM     20  C   UNL     1     -68.300 -80.912 225.747  1.00  0.00     0.007 C 
ATOM     21  C   UNL     1     -66.750 -80.379 227.696  1.00  0.00     0.014 C 
ATOM     22  C   UNL     1     -66.113 -82.298 226.142  1.00  0.00     0.016 C 
ATOM     23  C   UNL     1     -69.351 -81.596 226.716  1.00  0.00    -0.006 C 
ATOM     24  C   UNL     1     -67.716 -81.086 228.653  1.00  0.00     0.033 C 
ATOM     25  C   UNL     1     -69.167 -80.997 228.148  1.00  0.00     0.120 C 
ATOM     26  C   UNL     1     -70.785 -81.244 226.240  1.00  0.00     0.014 C 
ATOM     27  C   UNL     1     -69.257 -83.149 226.755  1.00  0.00     0.014 C 
BRANCH   7  28
ATOM     28  O   UNL     1     -63.856 -78.801 219.915  1.00  0.00    -0.393 OA
ATOM     29  H   UNL     1     -64.148 -78.254 219.139  1.00  0.00     0.210 HD
ENDBRANCH   7  28
BRANCH  25  30
ATOM     30  O   UNL     1     -70.060 -81.567 229.077  1.00  0.00    -0.393 OA
ATOM     31  H   UNL     1     -70.312 -80.870 229.737  1.00  0.00     0.210 HD
ENDBRANCH  25  30
ENDBRANCH   2   6
ENDBRANCH   1   2
BRANCH   1  32
ATOM     32  C   UNL     1     -60.859 -78.060 221.184  1.00  0.00     0.031 C 
BRANCH  32  33
ATOM     33  C   UNL     1     -60.376 -77.814 219.764  1.00  0.00    -0.075 C 
ATOM     34  C   UNL     1     -60.994 -76.888 219.007  1.00  0.00     0.008 C 
BRANCH  33  35
ATOM     35  C   UNL     1     -59.297 -78.690 219.137  1.00  0.00     0.008 C 
ATOM     36  C   UNL     1     -58.527 -77.949 218.037  1.00  0.00     0.012 C 
ATOM     37  C   UNL     1     -58.340 -79.230 220.205  1.00  0.00     0.012 C 
ENDBRANCH  33  35
ENDBRANCH  32  33
ENDBRANCH   1  32
TORSDOF 8
ENDMDL
MODEL 3
REMARK VINA RESULT:    -5.948      4.160      7.165
REMARK INTER + INTRA:         -10.453
REMARK INTER:                  -8.812
REMARK INTRA:                  -1.641
REMARK UNBOUND:                -2.071
REMARK SMILES C=C(CC[C@@H](C(=O)[O-])[C@@H]1[C@@H](O)C[C@@]2(C)C3=C(CC[C@]12C)[C@@]1(C)CC[C@H](O)C(C)(C)[C@@H]1CC3)C(C)C
REMARK SMILES IDX 4 1 5 2 6 3 7 4 8 5 9 6 10 7 19 8 12 9 13 10 18 11 20 12
REMARK SMILES IDX 14 13 15 14 17 15 16 16 32 17 21 18 31 19 30 20 23 21 22 22
REMARK SMILES IDX 27 23 24 24 25 25 28 26 29 27 11 28 26 30 3 32 2 33 1 34
REMARK SMILES IDX 33 35 34 36 35 37
REMARK H PARENT 11 29 26 31
REMARK Flexibility Score: inf
ROOT
ATOM      1  C   UNL     1     -58.646 -79.031 216.600  1.00  0.00     0.014 C 
ENDROOT
BRANCH   1   2
ATOM      2  C   UNL     1     -59.368 -79.847 217.709  1.00  0.00     0.042 C 
BRANCH   2   3
ATOM      3  C   UNL     1     -58.854 -81.269 217.716  1.00  0.00     0.045 C 
ATOM      4  O   UNL     1     -57.680 -81.534 217.341  1.00  0.00    -0.550 OA
ATOM      5  O   UNL     1     -59.713 -82.315 218.024  1.00  0.00    -0.550 OA
ENDBRANCH   2   3
BRANCH   2   6
ATOM      6  C   UNL     1     -59.304 -79.087 219.084  1.00  0.00     0.033 C 
ATOM      7  C   UNL     1     -58.360 -79.684 220.168  1.00  0.00     0.119 C 
ATOM      8  C   UNL     1     -60.641 -78.747 219.841  1.00  0.00    -0.017 C 
ATOM      9  C   UNL     1     -59.114 -79.576 221.512  1.00  0.00     0.043 C 
ATOM     10  C   UNL     1     -60.602 -79.627 221.126  1.00  0.00    -0.003 C 
ATOM     11  C   UNL     1     -61.991 -78.989 219.140  1.00  0.00     0.012 C 
ATOM     12  C   UNL     1     -60.575 -77.206 220.170  1.00  0.00     0.013 C 
ATOM     13  C   UNL     1     -60.973 -81.132 220.945  1.00  0.00     0.017 C 
ATOM     14  C   UNL     1     -61.632 -79.090 222.107  1.00  0.00    -0.064 C 
ATOM     15  C   UNL     1     -63.191 -78.789 220.119  1.00  0.00     0.032 C 
ATOM     16  C   UNL     1     -62.891 -78.804 221.643  1.00  0.00    -0.064 C 
ATOM     17  C   UNL     1     -61.256 -78.830 223.549  1.00  0.00     0.032 C 
ATOM     18  C   UNL     1     -63.989 -78.372 222.643  1.00  0.00    -0.008 C 
ATOM     19  C   UNL     1     -62.381 -79.089 224.567  1.00  0.00     0.009 C 
ATOM     20  C   UNL     1     -63.803 -79.228 223.951  1.00  0.00     0.007 C 
ATOM     21  C   UNL     1     -65.398 -78.677 222.045  1.00  0.00     0.014 C 
ATOM     22  C   UNL     1     -63.829 -76.844 222.869  1.00  0.00     0.016 C 
ATOM     23  C   UNL     1     -64.981 -79.166 225.009  1.00  0.00    -0.006 C 
ATOM     24  C   UNL     1     -66.549 -78.550 223.049  1.00  0.00     0.033 C 
ATOM     25  C   UNL     1     -66.326 -79.459 224.270  1.00  0.00     0.120 C 
ATOM     26  C   UNL     1     -64.773 -80.283 226.067  1.00  0.00     0.014 C 
ATOM     27  C   UNL     1     -65.063 -77.820 225.785  1.00  0.00     0.014 C 
BRANCH   7  28
ATOM     28  O   UNL     1     -57.152 -78.966 220.221  1.00  0.00    -0.393 OA
ATOM     29  H   UNL     1     -56.422 -79.640 220.224  1.00  0.00     0.210 HD
ENDBRANCH   7  28
BRANCH  25  30
ATOM     30  O   UNL     1     -67.431 -79.408 225.145  1.00  0.00    -0.393 OA
ATOM     31  H   UNL     1     -67.712 -80.337 225.348  1.00  0.00     0.210 HD
ENDBRANCH  25  30
ENDBRANCH   2   6
ENDBRANCH   1   2
BRANCH   1  32
ATOM     32  C   UNL     1     -57.991 -77.720 217.087  1.00  0.00     0.031 C 
BRANCH  32  33
ATOM     33  C   UNL     1     -58.509 -76.493 216.354  1.00  0.00    -0.075 C 
ATOM     34  C   UNL     1     -58.348 -76.403 215.020  1.00  0.00     0.008 C 
BRANCH  33  35
ATOM     35  C   UNL     1     -59.082 -75.303 217.118  1.00  0.00     0.008 C 
ATOM     36  C   UNL     1     -58.310 -74.012 216.825  1.00  0.00     0.012 C 
ATOM     37  C   UNL     1     -60.575 -75.129 216.818  1.00  0.00     0.012 C 
ENDBRANCH  33  35
ENDBRANCH  32  33
ENDBRANCH   1  32
TORSDOF 8
ENDMDL
MODEL 4
REMARK VINA RESULT:    -5.810      4.730      8.152
REMARK INTER + INTRA:         -10.259
REMARK INTER:                  -8.343
REMARK INTRA:                  -1.916
REMARK UNBOUND:                -2.071
REMARK SMILES C=C(CC[C@@H](C(=O)[O-])[C@@H]1[C@@H](O)C[C@@]2(C)C3=C(CC[C@]12C)[C@@]1(C)CC[C@H](O)C(C)(C)[C@@H]1CC3)C(C)C
REMARK SMILES IDX 4 1 5 2 6 3 7 4 8 5 9 6 10 7 19 8 12 9 13 10 18 11 20 12
REMARK SMILES IDX 14 13 15 14 17 15 16 16 32 17 21 18 31 19 30 20 23 21 22 22
REMARK SMILES IDX 27 23 24 24 25 25 28 26 29 27 11 28 26 30 3 32 2 33 1 34
REMARK SMILES IDX 33 35 34 36 35 37
REMARK H PARENT 11 29 26 31
REMARK Flexibility Score: inf
ROOT
ATOM      1  C   UNL     1     -56.955 -79.282 216.245  1.00  0.00     0.014 C 
ENDROOT
BRANCH   1   2
ATOM      2  C   UNL     1     -58.377 -79.825 216.564  1.00  0.00     0.042 C 
BRANCH   2   3
ATOM      3  C   UNL     1     -58.754 -80.893 215.561  1.00  0.00     0.045 C 
ATOM      4  O   UNL     1     -57.871 -81.600 215.005  1.00  0.00    -0.550 OA
ATOM      5  O   UNL     1     -60.075 -81.023 215.154  1.00  0.00    -0.550 OA
ENDBRANCH   2   3
BRANCH   2   6
ATOM      6  C   UNL     1     -58.483 -80.237 218.078  1.00  0.00     0.033 C 
ATOM      7  C   UNL     1     -58.824 -81.726 218.373  1.00  0.00     0.119 C 
ATOM      8  C   UNL     1     -59.405 -79.403 219.041  1.00  0.00    -0.017 C 
ATOM      9  C   UNL     1     -59.828 -81.721 219.548  1.00  0.00     0.043 C 
ATOM     10  C   UNL     1     -60.562 -80.375 219.422  1.00  0.00    -0.003 C 
ATOM     11  C   UNL     1     -60.036 -78.090 218.538  1.00  0.00     0.012 C 
ATOM     12  C   UNL     1     -58.510 -79.025 220.282  1.00  0.00     0.013 C 
ATOM     13  C   UNL     1     -61.684 -80.567 218.355  1.00  0.00     0.017 C 
ATOM     14  C   UNL     1     -61.278 -79.815 220.641  1.00  0.00    -0.064 C 
ATOM     15  C   UNL     1     -61.072 -77.522 219.558  1.00  0.00     0.032 C 
ATOM     16  C   UNL     1     -61.618 -78.487 220.647  1.00  0.00    -0.064 C 
ATOM     17  C   UNL     1     -61.560 -80.697 221.837  1.00  0.00     0.032 C 
ATOM     18  C   UNL     1     -62.453 -77.921 221.820  1.00  0.00    -0.008 C 
ATOM     19  C   UNL     1     -62.872 -80.382 222.577  1.00  0.00     0.009 C 
ATOM     20  C   UNL     1     -63.516 -79.013 222.215  1.00  0.00     0.007 C 
ATOM     21  C   UNL     1     -63.207 -76.634 221.361  1.00  0.00     0.014 C 
ATOM     22  C   UNL     1     -61.461 -77.574 222.964  1.00  0.00     0.016 C 
ATOM     23  C   UNL     1     -64.668 -78.552 223.201  1.00  0.00    -0.006 C 
ATOM     24  C   UNL     1     -64.275 -76.145 222.346  1.00  0.00     0.033 C 
ATOM     25  C   UNL     1     -65.311 -77.245 222.636  1.00  0.00     0.120 C 
ATOM     26  C   UNL     1     -65.773 -79.642 223.236  1.00  0.00     0.014 C 
ATOM     27  C   UNL     1     -64.197 -78.342 224.669  1.00  0.00     0.014 C 
BRANCH   7  28
ATOM     28  O   UNL     1     -57.663 -82.439 218.721  1.00  0.00    -0.393 OA
ATOM     29  H   UNL     1     -56.954 -82.156 218.085  1.00  0.00     0.210 HD
ENDBRANCH   7  28
BRANCH  25  30
ATOM     30  O   UNL     1     -66.340 -76.761 223.469  1.00  0.00    -0.393 OA
ATOM     31  H   UNL     1     -66.272 -75.771 223.506  1.00  0.00     0.210 HD
ENDBRANCH  25  30
ENDBRANCH   2   6
ENDBRANCH   1   2
BRANCH   1  32
ATOM     32  C   UNL     1     -56.932 -77.891 215.576  1.00  0.00     0.031 C 
BRANCH  32  33
ATOM     33  C   UNL     1     -57.290 -76.768 216.536  1.00  0.00    -0.075 C 
ATOM     34  C   UNL     1     -56.673 -76.697 217.731  1.00  0.00     0.008 C 
BRANCH  33  35
ATOM     35  C   UNL     1     -58.431 -75.803 216.228  1.00  0.00     0.008 C 
ATOM     36  C   UNL     1     -58.230 -74.445 216.910  1.00  0.00     0.012 C 
ATOM     37  C   UNL     1     -58.613 -75.635 214.716  1.00  0.00     0.012 C 
ENDBRANCH  33  35
ENDBRANCH  32  33
ENDBRANCH   1  32
TORSDOF 8
ENDMDL
MODEL 5
REMARK VINA RESULT:    -5.733      2.398      4.497
REMARK INTER + INTRA:         -10.151
REMARK INTER:                  -8.279
REMARK INTRA:                  -1.871
REMARK UNBOUND:                -2.071
REMARK SMILES C=C(CC[C@@H](C(=O)[O-])[C@@H]1[C@@H](O)C[C@@]2(C)C3=C(CC[C@]12C)[C@@]1(C)CC[C@H](O)C(C)(C)[C@@H]1CC3)C(C)C
REMARK SMILES IDX 4 1 5 2 6 3 7 4 8 5 9 6 10 7 19 8 12 9 13 10 18 11 20 12
REMARK SMILES IDX 14 13 15 14 17 15 16 16 32 17 21 18 31 19 30 20 23 21 22 22
REMARK SMILES IDX 27 23 24 24 25 25 28 26 29 27 11 28 26 30 3 32 2 33 1 34
REMARK SMILES IDX 33 35 34 36 35 37
REMARK H PARENT 11 29 26 31
REMARK Flexibility Score: inf
ROOT
ATOM      1  C   UNL     1     -60.246 -78.658 221.055  1.00  0.00     0.014 C 
ENDROOT
BRANCH   1   2
ATOM      2  C   UNL     1     -60.924 -79.742 221.940  1.00  0.00     0.042 C 
BRANCH   2   3
ATOM      3  C   UNL     1     -59.932 -80.840 222.253  1.00  0.00     0.045 C 
ATOM      4  O   UNL     1     -58.694 -80.605 222.282  1.00  0.00    -0.550 OA
ATOM      5  O   UNL     1     -60.371 -82.149 222.395  1.00  0.00    -0.550 OA
ENDBRANCH   2   3
BRANCH   2   6
ATOM      6  C   UNL     1     -61.630 -79.080 223.179  1.00  0.00     0.033 C 
ATOM      7  C   UNL     1     -61.094 -79.483 224.584  1.00  0.00     0.119 C 
ATOM      8  C   UNL     1     -63.197 -79.144 223.299  1.00  0.00    -0.017 C 
ATOM      9  C   UNL     1     -62.333 -79.658 225.490  1.00  0.00     0.043 C 
ATOM     10  C   UNL     1     -63.462 -80.066 224.528  1.00  0.00    -0.003 C 
ATOM     11  C   UNL     1     -64.026 -79.680 222.117  1.00  0.00     0.012 C 
ATOM     12  C   UNL     1     -63.675 -77.663 223.550  1.00  0.00     0.013 C 
ATOM     13  C   UNL     1     -63.320 -81.601 224.285  1.00  0.00     0.017 C 
ATOM     14  C   UNL     1     -64.905 -79.875 224.969  1.00  0.00    -0.064 C 
ATOM     15  C   UNL     1     -65.528 -79.858 222.502  1.00  0.00     0.032 C 
ATOM     16  C   UNL     1     -65.888 -79.893 224.013  1.00  0.00    -0.064 C 
ATOM     17  C   UNL     1     -65.235 -79.620 226.422  1.00  0.00     0.032 C 
ATOM     18  C   UNL     1     -67.371 -79.823 224.448  1.00  0.00    -0.008 C 
ATOM     19  C   UNL     1     -66.569 -80.224 226.897  1.00  0.00     0.009 C 
ATOM     20  C   UNL     1     -67.523 -80.684 225.757  1.00  0.00     0.007 C 
ATOM     21  C   UNL     1     -68.278 -80.441 223.338  1.00  0.00     0.014 C 
ATOM     22  C   UNL     1     -67.722 -78.323 224.643  1.00  0.00     0.016 C 
ATOM     23  C   UNL     1     -69.003 -80.995 226.230  1.00  0.00    -0.006 C 
ATOM     24  C   UNL     1     -69.729 -80.678 223.770  1.00  0.00     0.033 C 
ATOM     25  C   UNL     1     -69.799 -81.576 225.018  1.00  0.00     0.120 C 
ATOM     26  C   UNL     1     -68.965 -82.086 227.334  1.00  0.00     0.014 C 
ATOM     27  C   UNL     1     -69.743 -79.768 226.836  1.00  0.00     0.014 C 
BRANCH   7  28
ATOM     28  O   UNL     1     -60.247 -78.484 225.095  1.00  0.00    -0.393 OA
ATOM     29  H   UNL     1     -60.813 -77.681 225.246  1.00  0.00     0.210 HD
ENDBRANCH   7  28
BRANCH  25  30
ATOM     30  O   UNL     1     -71.137 -81.866 225.355  1.00  0.00    -0.393 OA
ATOM     31  H   UNL     1     -71.728 -81.269 224.827  1.00  0.00     0.210 HD
ENDBRANCH  25  30
ENDBRANCH   2   6
ENDBRANCH   1   2
BRANCH   1  32
ATOM     32  C   UNL     1     -60.868 -77.249 221.171  1.00  0.00     0.031 C 
BRANCH  32  33
ATOM     33  C   UNL     1     -61.434 -76.742 219.855  1.00  0.00    -0.075 C 
ATOM     34  C   UNL     1     -60.618 -76.611 218.791  1.00  0.00     0.008 C 
BRANCH  33  35
ATOM     35  C   UNL     1     -62.875 -76.251 219.754  1.00  0.00     0.008 C 
ATOM     36  C   UNL     1     -63.853 -77.401 219.490  1.00  0.00     0.012 C 
ATOM     37  C   UNL     1     -63.275 -75.469 221.009  1.00  0.00     0.012 C 
ENDBRANCH  33  35
ENDBRANCH  32  33
ENDBRANCH   1  32
TORSDOF 8
ENDMDL
MODEL 6
REMARK VINA RESULT:    -5.671      3.745     10.012
REMARK INTER + INTRA:         -10.063
REMARK INTER:                  -8.275
REMARK INTRA:                  -1.788
REMARK UNBOUND:                -2.071
REMARK SMILES C=C(CC[C@@H](C(=O)[O-])[C@@H]1[C@@H](O)C[C@@]2(C)C3=C(CC[C@]12C)[C@@]1(C)CC[C@H](O)C(C)(C)[C@@H]1CC3)C(C)C
REMARK SMILES IDX 4 1 5 2 6 3 7 4 8 5 9 6 10 7 19 8 12 9 13 10 18 11 20 12
REMARK SMILES IDX 14 13 15 14 17 15 16 16 32 17 21 18 31 19 30 20 23 21 22 22
REMARK SMILES IDX 27 23 24 24 25 25 28 26 29 27 11 28 26 30 3 32 2 33 1 34
REMARK SMILES IDX 33 35 34 36 35 37
REMARK H PARENT 11 29 26 31
REMARK Flexibility Score: inf
ROOT
ATOM      1  C   UNL     1     -64.593 -80.054 224.901  1.00  0.00     0.014 C 
ENDROOT
BRANCH   1   2
ATOM      2  C   UNL     1     -63.131 -79.591 224.646  1.00  0.00     0.042 C 
BRANCH   2   3
ATOM      3  C   UNL     1     -62.451 -79.295 225.964  1.00  0.00     0.045 C 
ATOM      4  O   UNL     1     -63.005 -79.586 227.059  1.00  0.00    -0.550 OA
ATOM      5  O   UNL     1     -61.256 -78.587 225.983  1.00  0.00    -0.550 OA
ENDBRANCH   2   3
BRANCH   2   6
ATOM      6  C   UNL     1     -62.388 -80.604 223.702  1.00  0.00     0.033 C 
ATOM      7  C   UNL     1     -61.321 -81.522 224.366  1.00  0.00     0.119 C 
ATOM      8  C   UNL     1     -61.716 -80.077 222.381  1.00  0.00    -0.017 C 
ATOM      9  C   UNL     1     -60.130 -81.590 223.383  1.00  0.00     0.043 C 
ATOM     10  C   UNL     1     -60.186 -80.258 222.615  1.00  0.00    -0.003 C 
ATOM     11  C   UNL     1     -61.959 -78.622 221.935  1.00  0.00     0.012 C 
ATOM     12  C   UNL     1     -62.256 -80.998 221.221  1.00  0.00     0.013 C 
ATOM     13  C   UNL     1     -59.492 -79.186 223.511  1.00  0.00     0.017 C 
ATOM     14  C   UNL     1     -59.480 -80.157 221.272  1.00  0.00    -0.064 C 
ATOM     15  C   UNL     1     -61.051 -78.232 220.728  1.00  0.00     0.032 C 
ATOM     16  C   UNL     1     -59.815 -79.126 220.433  1.00  0.00    -0.064 C 
ATOM     17  C   UNL     1     -58.469 -81.203 220.857  1.00  0.00     0.032 C 
ATOM     18  C   UNL     1     -59.027 -78.931 219.116  1.00  0.00    -0.008 C 
ATOM     19  C   UNL     1     -57.301 -80.671 220.009  1.00  0.00     0.009 C 
ATOM     20  C   UNL     1     -57.514 -79.248 219.418  1.00  0.00     0.007 C 
ATOM     21  C   UNL     1     -59.141 -77.448 218.645  1.00  0.00     0.014 C 
ATOM     22  C   UNL     1     -59.662 -79.873 218.057  1.00  0.00     0.016 C 
ATOM     23  C   UNL     1     -56.471 -78.844 218.295  1.00  0.00    -0.006 C 
ATOM     24  C   UNL     1     -58.181 -77.071 217.512  1.00  0.00     0.033 C 
ATOM     25  C   UNL     1     -56.720 -77.352 217.902  1.00  0.00     0.120 C 
ATOM     26  C   UNL     1     -55.035 -78.943 218.877  1.00  0.00     0.014 C 
ATOM     27  C   UNL     1     -56.511 -79.758 217.037  1.00  0.00     0.014 C 
BRANCH   7  28
ATOM     28  O   UNL     1     -61.846 -82.806 224.594  1.00  0.00    -0.393 OA
ATOM     29  H   UNL     1     -62.211 -83.122 223.725  1.00  0.00     0.210 HD
ENDBRANCH   7  28
BRANCH  25  30
ATOM     30  O   UNL     1     -55.836 -76.918 216.892  1.00  0.00    -0.393 OA
ATOM     31  H   UNL     1     -56.217 -76.103 216.473  1.00  0.00     0.210 HD
ENDBRANCH  25  30
ENDBRANCH   2   6
ENDBRANCH   1   2
BRANCH   1  32
ATOM     32  C   UNL     1     -65.415 -80.329 223.623  1.00  0.00     0.031 C 
BRANCH  32  33
ATOM     33  C   UNL     1     -65.567 -79.099 222.743  1.00  0.00    -0.075 C 
ATOM     34  C   UNL     1     -65.494 -79.231 221.404  1.00  0.00     0.008 C 
BRANCH  33  35
ATOM     35  C   UNL     1     -65.662 -77.703 223.349  1.00  0.00     0.008 C 
ATOM     36  C   UNL     1     -64.907 -76.664 222.512  1.00  0.00     0.012 C 
ATOM     37  C   UNL     1     -67.125 -77.289 223.545  1.00  0.00     0.012 C 
ENDBRANCH  33  35
ENDBRANCH  32  33
ENDBRANCH   1  32
TORSDOF 8
ENDMDL
MODEL 7
REMARK VINA RESULT:    -5.661      3.454      5.339
REMARK INTER + INTRA:         -10.049
REMARK INTER:                  -9.037
REMARK INTRA:                  -1.012
REMARK UNBOUND:                -2.071
REMARK SMILES C=C(CC[C@@H](C(=O)[O-])[C@@H]1[C@@H](O)C[C@@]2(C)C3=C(CC[C@]12C)[C@@]1(C)CC[C@H](O)C(C)(C)[C@@H]1CC3)C(C)C
REMARK SMILES IDX 4 1 5 2 6 3 7 4 8 5 9 6 10 7 19 8 12 9 13 10 18 11 20 12
REMARK SMILES IDX 14 13 15 14 17 15 16 16 32 17 21 18 31 19 30 20 23 21 22 22
REMARK SMILES IDX 27 23 24 24 25 25 28 26 29 27 11 28 26 30 3 32 2 33 1 34
REMARK SMILES IDX 33 35 34 36 35 37
REMARK H PARENT 11 29 26 31
REMARK Flexibility Score: inf
ROOT
ATOM      1  C   UNL     1     -59.789 -77.793 219.365  1.00  0.00     0.014 C 
ENDROOT
BRANCH   1   2
ATOM      2  C   UNL     1     -60.941 -78.817 219.569  1.00  0.00     0.042 C 
BRANCH   2   3
ATOM      3  C   UNL     1     -60.891 -79.868 218.482  1.00  0.00     0.045 C 
ATOM      4  O   UNL     1     -59.812 -80.129 217.884  1.00  0.00    -0.550 OA
ATOM      5  O   UNL     1     -62.063 -80.474 218.050  1.00  0.00    -0.550 OA
ENDBRANCH   2   3
BRANCH   2   6
ATOM      6  C   UNL     1     -60.946 -79.356 221.046  1.00  0.00     0.033 C 
ATOM      7  C   UNL     1     -60.752 -80.889 221.229  1.00  0.00     0.119 C 
ATOM      8  C   UNL     1     -62.133 -78.972 222.004  1.00  0.00    -0.017 C 
ATOM      9  C   UNL     1     -61.732 -81.324 222.342  1.00  0.00     0.043 C 
ATOM     10  C   UNL     1     -62.887 -80.312 222.257  1.00  0.00    -0.003 C 
ATOM     11  C   UNL     1     -63.167 -77.925 221.547  1.00  0.00     0.012 C 
ATOM     12  C   UNL     1     -61.467 -78.404 223.315  1.00  0.00     0.013 C 
ATOM     13  C   UNL     1     -63.835 -80.798 221.118  1.00  0.00     0.017 C 
ATOM     14  C   UNL     1     -63.793 -80.132 223.465  1.00  0.00    -0.064 C 
ATOM     15  C   UNL     1     -64.369 -77.834 222.538  1.00  0.00     0.032 C 
ATOM     16  C   UNL     1     -64.577 -79.009 223.533  1.00  0.00    -0.064 C 
ATOM     17  C   UNL     1     -63.786 -81.147 224.587  1.00  0.00     0.032 C 
ATOM     18  C   UNL     1     -65.594 -78.862 224.688  1.00  0.00    -0.008 C 
ATOM     19  C   UNL     1     -65.148 -81.365 225.268  1.00  0.00     0.009 C 
ATOM     20  C   UNL     1     -66.220 -80.282 224.954  1.00  0.00     0.007 C 
ATOM     21  C   UNL     1     -66.736 -77.885 224.267  1.00  0.00     0.014 C 
ATOM     22  C   UNL     1     -64.825 -78.281 225.907  1.00  0.00     0.016 C 
ATOM     23  C   UNL     1     -67.491 -80.329 225.899  1.00  0.00    -0.006 C 
ATOM     24  C   UNL     1     -67.939 -77.876 225.216  1.00  0.00     0.033 C 
ATOM     25  C   UNL     1     -68.533 -79.286 225.379  1.00  0.00     0.120 C 
ATOM     26  C   UNL     1     -68.144 -81.733 225.803  1.00  0.00     0.014 C 
ATOM     27  C   UNL     1     -67.171 -80.082 227.401  1.00  0.00     0.014 C 
BRANCH   7  28
ATOM     28  O   UNL     1     -59.426 -81.179 221.599  1.00  0.00    -0.393 OA
ATOM     29  H   UNL     1     -59.230 -82.092 221.259  1.00  0.00     0.210 HD
ENDBRANCH   7  28
BRANCH  25  30
ATOM     30  O   UNL     1     -69.693 -79.256 226.179  1.00  0.00    -0.393 OA
ATOM     31  H   UNL     1     -69.758 -80.117 226.668  1.00  0.00     0.210 HD
ENDBRANCH  25  30
ENDBRANCH   2   6
ENDBRANCH   1   2
BRANCH   1  32
ATOM     32  C   UNL     1     -60.162 -76.565 218.508  1.00  0.00     0.031 C 
BRANCH  32  33
ATOM     33  C   UNL     1     -59.077 -76.187 217.513  1.00  0.00    -0.075 C 
ATOM     34  C   UNL     1     -57.890 -76.822 217.556  1.00  0.00     0.008 C 
BRANCH  33  35
ATOM     35  C   UNL     1     -59.258 -75.011 216.558  1.00  0.00     0.008 C 
ATOM     36  C   UNL     1     -58.324 -73.846 216.905  1.00  0.00     0.012 C 
ATOM     37  C   UNL     1     -59.066 -75.452 215.104  1.00  0.00     0.012 C 
ENDBRANCH  33  35
ENDBRANCH  32  33
ENDBRANCH   1  32
TORSDOF 8
ENDMDL
MODEL 8
REMARK VINA RESULT:    -5.563      2.599      8.589
REMARK INTER + INTRA:          -9.911
REMARK INTER:                  -8.228
REMARK INTRA:                  -1.682
REMARK UNBOUND:                -2.071
REMARK SMILES C=C(CC[C@@H](C(=O)[O-])[C@@H]1[C@@H](O)C[C@@]2(C)C3=C(CC[C@]12C)[C@@]1(C)CC[C@H](O)C(C)(C)[C@@H]1CC3)C(C)C
REMARK SMILES IDX 4 1 5 2 6 3 7 4 8 5 9 6 10 7 19 8 12 9 13 10 18 11 20 12
REMARK SMILES IDX 14 13 15 14 17 15 16 16 32 17 21 18 31 19 30 20 23 21 22 22
REMARK SMILES IDX 27 23 24 24 25 25 28 26 29 27 11 28 26 30 3 32 2 33 1 34
REMARK SMILES IDX 33 35 34 36 35 37
REMARK H PARENT 11 29 26 31
REMARK Flexibility Score: inf
ROOT
ATOM      1  C   UNL     1     -68.238 -79.180 223.981  1.00  0.00     0.014 C 
ENDROOT
BRANCH   1   2
ATOM      2  C   UNL     1     -67.074 -78.215 223.619  1.00  0.00     0.042 C 
BRANCH   2   3
ATOM      3  C   UNL     1     -67.383 -76.825 224.130  1.00  0.00     0.045 C 
ATOM      4  O   UNL     1     -67.270 -75.819 223.378  1.00  0.00    -0.550 OA
ATOM      5  O   UNL     1     -67.682 -76.631 225.471  1.00  0.00    -0.550 OA
ENDBRANCH   2   3
BRANCH   2   6
ATOM      6  C   UNL     1     -65.694 -78.820 224.068  1.00  0.00     0.033 C 
ATOM      7  C   UNL     1     -64.783 -77.908 224.939  1.00  0.00     0.119 C 
ATOM      8  C   UNL     1     -64.739 -79.450 222.989  1.00  0.00    -0.017 C 
ATOM      9  C   UNL     1     -63.340 -78.112 224.425  1.00  0.00     0.043 C 
ATOM     10  C   UNL     1     -63.508 -78.495 222.945  1.00  0.00    -0.003 C 
ATOM     11  C   UNL     1     -65.246 -79.637 221.546  1.00  0.00     0.012 C 
ATOM     12  C   UNL     1     -64.363 -80.884 223.523  1.00  0.00     0.013 C 
ATOM     13  C   UNL     1     -63.692 -77.165 222.149  1.00  0.00     0.017 C 
ATOM     14  C   UNL     1     -62.368 -79.213 222.240  1.00  0.00    -0.064 C 
ATOM     15  C   UNL     1     -64.097 -80.078 220.586  1.00  0.00     0.032 C 
ATOM     16  C   UNL     1     -62.634 -79.864 221.063  1.00  0.00    -0.064 C 
ATOM     17  C   UNL     1     -60.987 -79.249 222.856  1.00  0.00     0.032 C 
ATOM     18  C   UNL     1     -61.470 -80.499 220.267  1.00  0.00    -0.008 C 
ATOM     19  C   UNL     1     -59.828 -79.226 221.844  1.00  0.00     0.009 C 
ATOM     20  C   UNL     1     -60.236 -79.526 220.373  1.00  0.00     0.007 C 
ATOM     21  C   UNL     1     -61.868 -80.635 218.764  1.00  0.00     0.014 C 
ATOM     22  C   UNL     1     -61.210 -81.905 220.874  1.00  0.00     0.016 C 
ATOM     23  C   UNL     1     -59.017 -79.822 219.405  1.00  0.00    -0.006 C 
ATOM     24  C   UNL     1     -60.704 -80.990 217.833  1.00  0.00     0.033 C 
ATOM     25  C   UNL     1     -59.564 -79.963 217.948  1.00  0.00     0.120 C 
ATOM     26  C   UNL     1     -58.045 -78.613 219.427  1.00  0.00     0.014 C 
ATOM     27  C   UNL     1     -58.185 -81.076 219.802  1.00  0.00     0.014 C 
BRANCH   7  28
ATOM     28  O   UNL     1     -64.878 -78.265 226.296  1.00  0.00    -0.393 OA
ATOM     29  H   UNL     1     -65.841 -78.221 226.535  1.00  0.00     0.210 HD
ENDBRANCH   7  28
BRANCH  25  30
ATOM     30  O   UNL     1     -58.537 -80.243 217.024  1.00  0.00    -0.393 OA
ATOM     31  H   UNL     1     -57.667 -80.183 217.496  1.00  0.00     0.210 HD
ENDBRANCH  25  30
ENDBRANCH   2   6
ENDBRANCH   1   2
BRANCH   1  32
ATOM     32  C   UNL     1     -67.812 -80.434 224.776  1.00  0.00     0.031 C 
BRANCH  32  33
ATOM     33  C   UNL     1     -68.251 -80.387 226.231  1.00  0.00    -0.075 C 
ATOM     34  C   UNL     1     -69.512 -80.021 226.530  1.00  0.00     0.008 C 
BRANCH  33  35
ATOM     35  C   UNL     1     -67.253 -80.613 227.362  1.00  0.00     0.008 C 
ATOM     36  C   UNL     1     -67.932 -81.160 228.622  1.00  0.00     0.012 C 
ATOM     37  C   UNL     1     -66.113 -81.533 226.911  1.00  0.00     0.012 C 
ENDBRANCH  33  35
ENDBRANCH  32  33
ENDBRANCH   1  32
TORSDOF 8
ENDMDL
MODEL 9
REMARK VINA RESULT:    -5.422      2.333      8.050
REMARK INTER + INTRA:          -9.712
REMARK INTER:                  -8.231
REMARK INTRA:                  -1.481
REMARK UNBOUND:                -2.071
REMARK SMILES C=C(CC[C@@H](C(=O)[O-])[C@@H]1[C@@H](O)C[C@@]2(C)C3=C(CC[C@]12C)[C@@]1(C)CC[C@H](O)C(C)(C)[C@@H]1CC3)C(C)C
REMARK SMILES IDX 4 1 5 2 6 3 7 4 8 5 9 6 10 7 19 8 12 9 13 10 18 11 20 12
REMARK SMILES IDX 14 13 15 14 17 15 16 16 32 17 21 18 31 19 30 20 23 21 22 22
REMARK SMILES IDX 27 23 24 24 25 25 28 26 29 27 11 28 26 30 3 32 2 33 1 34
REMARK SMILES IDX 33 35 34 36 35 37
REMARK H PARENT 11 29 26 31
REMARK Flexibility Score: inf
ROOT
ATOM      1  C   UNL     1     -68.509 -80.388 226.796  1.00  0.00     0.014 C 
ENDROOT
BRANCH   1   2
ATOM      2  C   UNL     1     -68.235 -80.022 225.310  1.00  0.00     0.042 C 
BRANCH   2   3
ATOM      3  C   UNL     1     -69.528 -79.621 224.635  1.00  0.00     0.045 C 
ATOM      4  O   UNL     1     -70.470 -79.104 225.294  1.00  0.00    -0.550 OA
ATOM      5  O   UNL     1     -69.734 -79.928 223.297  1.00  0.00    -0.550 OA
ENDBRANCH   2   3
BRANCH   2   6
ATOM      6  C   UNL     1     -67.055 -78.988 225.205  1.00  0.00     0.033 C 
ATOM      7  C   UNL     1     -67.351 -77.668 224.435  1.00  0.00     0.119 C 
ATOM      8  C   UNL     1     -65.653 -79.469 224.679  1.00  0.00    -0.017 C 
ATOM      9  C   UNL     1     -66.096 -77.367 223.586  1.00  0.00     0.043 C 
ATOM     10  C   UNL     1     -65.475 -78.747 223.309  1.00  0.00    -0.003 C 
ATOM     11  C   UNL     1     -65.401 -80.973 224.459  1.00  0.00     0.012 C 
ATOM     12  C   UNL     1     -64.599 -78.988 225.749  1.00  0.00     0.013 C 
ATOM     13  C   UNL     1     -66.248 -79.359 222.100  1.00  0.00     0.017 C 
ATOM     14  C   UNL     1     -64.010 -78.824 222.913  1.00  0.00    -0.064 C 
ATOM     15  C   UNL     1     -64.037 -81.228 223.745  1.00  0.00     0.032 C 
ATOM     16  C   UNL     1     -63.367 -80.031 223.014  1.00  0.00    -0.064 C 
ATOM     17  C   UNL     1     -63.269 -77.583 222.467  1.00  0.00     0.032 C 
ATOM     18  C   UNL     1     -61.914 -80.164 222.503  1.00  0.00    -0.008 C 
ATOM     19  C   UNL     1     -62.197 -77.823 221.389  1.00  0.00     0.009 C 
ATOM     20  C   UNL     1     -61.794 -79.312 221.185  1.00  0.00     0.007 C 
ATOM     21  C   UNL     1     -61.606 -81.656 222.161  1.00  0.00     0.014 C 
ATOM     22  C   UNL     1     -60.979 -79.680 223.646  1.00  0.00     0.016 C 
ATOM     23  C   UNL     1     -60.480 -79.520 220.325  1.00  0.00    -0.006 C 
ATOM     24  C   UNL     1     -60.300 -81.869 221.390  1.00  0.00     0.033 C 
ATOM     25  C   UNL     1     -60.282 -81.052 220.086  1.00  0.00     0.120 C 
ATOM     26  C   UNL     1     -60.667 -78.849 218.938  1.00  0.00     0.014 C 
ATOM     27  C   UNL     1     -59.204 -78.895 220.959  1.00  0.00     0.014 C 
BRANCH   7  28
ATOM     28  O   UNL     1     -67.603 -76.617 225.334  1.00  0.00    -0.393 OA
ATOM     29  H   UNL     1     -67.978 -77.030 226.157  1.00  0.00     0.210 HD
ENDBRANCH   7  28
BRANCH  25  30
ATOM     30  O   UNL     1     -59.119 -81.323 219.337  1.00  0.00    -0.393 OA
ATOM     31  H   UNL     1     -59.349 -81.271 218.373  1.00  0.00     0.210 HD
ENDBRANCH  25  30
ENDBRANCH   2   6
ENDBRANCH   1   2
BRANCH   1  32
ATOM     32  C   UNL     1     -67.245 -80.526 227.671  1.00  0.00     0.031 C 
BRANCH  32  33
ATOM     33  C   UNL     1     -67.004 -81.951 228.142  1.00  0.00    -0.075 C 
ATOM     34  C   UNL     1     -66.605 -82.882 227.254  1.00  0.00     0.008 C 
BRANCH  33  35
ATOM     35  C   UNL     1     -67.338 -82.376 229.568  1.00  0.00     0.008 C 
ATOM     36  C   UNL     1     -66.193 -83.167 230.211  1.00  0.00     0.012 C 
ATOM     37  C   UNL     1     -67.717 -81.165 230.426  1.00  0.00     0.012 C 
ENDBRANCH  33  35
ENDBRANCH  32  33
ENDBRANCH   1  32
TORSDOF 8
ENDMDL
