MODEL 1
REMARK VINA RESULT:    34.992      0.000      0.000
REMARK INTER + INTRA:          40.853
REMARK INTER:                  41.129
REMARK INTRA:                  -0.276
REMARK UNBOUND:                -0.276
REMARK SMILES O=c1cc(-c2ccc(O)c(O)c2)oc2cc(O)cc(O)c12
REMARK SMILES IDX 4 1 3 2 2 3 1 4 21 5 19 6 18 7 16 8 15 9 14 10 13 11 5 12
REMARK SMILES IDX 6 13 7 14 8 15 12 16 10 17 9 18 11 20 20 22 17 24
REMARK H PARENT 9 19 11 21 20 23 17 25
REMARK Flexibility Score: inf
ROOT
ATOM      1  C   UNL     1       9.321  67.709   6.890  1.00  0.00     0.138 A 
ATOM      2  C   UNL     1       9.308  68.879   7.668  1.00  0.00     0.100 A 
ATOM      3  C   UNL     1       9.342  70.123   7.037  1.00  0.00     0.197 A 
ATOM      4  O   UNL     1       9.332  71.167   7.744  1.00  0.00    -0.289 OA
ATOM      5  C   UNL     1       9.392  70.189   5.630  1.00  0.00     0.107 A 
ATOM      6  C   UNL     1       9.427  71.409   4.912  1.00  0.00     0.134 A 
ATOM      7  C   UNL     1       9.481  71.389   3.511  1.00  0.00     0.093 A 
ATOM      8  C   UNL     1       9.500  70.177   2.815  1.00  0.00     0.123 A 
ATOM      9  C   UNL     1       9.466  68.968   3.520  1.00  0.00     0.094 A 
ATOM     10  C   UNL     1       9.411  68.967   4.917  1.00  0.00     0.146 A 
ATOM     11  O   UNL     1       9.377  67.807   5.563  1.00  0.00    -0.456 OA
ENDROOT
BRANCH   1  12
ATOM     12  C   UNL     1       9.287  66.359   7.506  1.00  0.00     0.021 A 
ATOM     13  C   UNL     1      10.343  65.954   8.341  1.00  0.00     0.016 A 
ATOM     14  C   UNL     1      10.339  64.686   8.927  1.00  0.00     0.051 A 
ATOM     15  C   UNL     1       9.286  63.797   8.683  1.00  0.00     0.157 A 
ATOM     16  C   UNL     1       8.237  65.455   7.253  1.00  0.00     0.062 A 
ATOM     17  C   UNL     1       8.232  64.184   7.838  1.00  0.00     0.158 A 
BRANCH  15  18
ATOM     18  O   UNL     1       9.283  62.533   9.271  1.00  0.00    -0.504 OA
ATOM     19  H   UNL     1       8.754  61.765   8.876  1.00  0.00     0.293 HD
ENDBRANCH  15  18
BRANCH  17  20
ATOM     20  O   UNL     1       7.173  63.317   7.565  1.00  0.00    -0.504 OA
ATOM     21  H   UNL     1       6.207  63.622   7.590  1.00  0.00     0.293 HD
ENDBRANCH  17  20
ENDBRANCH   1  12
BRANCH   6  22
ATOM     22  O   UNL     1       9.409  72.634   5.579  1.00  0.00    -0.507 OA
ATOM     23  H   UNL     1       8.840  73.407   5.257  1.00  0.00     0.293 HD
ENDBRANCH   6  22
BRANCH   8  24
ATOM     24  O   UNL     1       9.555  70.185   1.424  1.00  0.00    -0.508 OA
ATOM     25  H   UNL     1       9.883  69.380   0.901  1.00  0.00     0.293 HD
ENDBRANCH   8  24
TORSDOF 5
ENDMDL
MODEL 2
REMARK VINA RESULT:    37.928      3.368      8.363
REMARK INTER + INTRA:          44.305
REMARK INTER:                  44.570
REMARK INTRA:                  -0.266
REMARK UNBOUND:                -0.276
REMARK SMILES O=c1cc(-c2ccc(O)c(O)c2)oc2cc(O)cc(O)c12
REMARK SMILES IDX 4 1 3 2 2 3 1 4 21 5 19 6 18 7 16 8 15 9 14 10 13 11 5 12
REMARK SMILES IDX 6 13 7 14 8 15 12 16 10 17 9 18 11 20 20 22 17 24
REMARK H PARENT 9 19 11 21 20 23 17 25
REMARK Flexibility Score: inf
ROOT
ATOM      1  C   UNL     1       9.682  73.137   5.163  1.00  0.00     0.138 A 
ATOM      2  C   UNL     1       9.493  72.537   6.420  1.00  0.00     0.100 A 
ATOM      3  C   UNL     1       9.432  71.146   6.514  1.00  0.00     0.197 A 
ATOM      4  O   UNL     1       9.261  70.618   7.646  1.00  0.00    -0.289 OA
ATOM      5  C   UNL     1       9.557  70.363   5.349  1.00  0.00     0.107 A 
ATOM      6  C   UNL     1       9.508  68.949   5.358  1.00  0.00     0.134 A 
ATOM      7  C   UNL     1       9.635  68.242   4.153  1.00  0.00     0.093 A 
ATOM      8  C   UNL     1       9.810  68.920   2.944  1.00  0.00     0.123 A 
ATOM      9  C   UNL     1       9.859  70.319   2.930  1.00  0.00     0.094 A 
ATOM     10  C   UNL     1       9.735  71.041   4.120  1.00  0.00     0.146 A 
ATOM     11  O   UNL     1       9.787  72.368   4.081  1.00  0.00    -0.456 OA
ENDROOT
BRANCH   1  12
ATOM     12  C   UNL     1       9.754  74.611   5.002  1.00  0.00     0.021 A 
ATOM     13  C   UNL     1       8.567  75.347   4.842  1.00  0.00     0.016 A 
ATOM     14  C   UNL     1       8.608  76.734   4.681  1.00  0.00     0.051 A 
ATOM     15  C   UNL     1       9.834  77.409   4.668  1.00  0.00     0.157 A 
ATOM     16  C   UNL     1      10.985  75.293   4.974  1.00  0.00     0.062 A 
ATOM     17  C   UNL     1      11.028  76.683   4.811  1.00  0.00     0.158 A 
BRANCH  15  18
ATOM     18  O   UNL     1       9.871  78.794   4.509  1.00  0.00    -0.504 OA
ATOM     19  H   UNL     1      10.142  79.407   5.268  1.00  0.00     0.293 HD
ENDBRANCH  15  18
BRANCH  17  20
ATOM     20  O   UNL     1      12.267  77.324   4.790  1.00  0.00    -0.504 OA
ATOM     21  H   UNL     1      12.851  77.341   3.962  1.00  0.00     0.293 HD
ENDBRANCH  17  20
ENDBRANCH   1  12
BRANCH   6  22
ATOM     22  O   UNL     1       9.334  68.244   6.549  1.00  0.00    -0.507 OA
ATOM     23  H   UNL     1       8.913  67.323   6.567  1.00  0.00     0.293 HD
ENDBRANCH   6  22
BRANCH   8  24
ATOM     24  O   UNL     1       9.933  68.194   1.762  1.00  0.00    -0.508 OA
ATOM     25  H   UNL     1      10.411  67.300   1.736  1.00  0.00     0.293 HD
ENDBRANCH   8  24
TORSDOF 5
ENDMDL
