MODEL 1
REMARK VINA RESULT:    -4.481      0.000      0.000
REMARK INTER + INTRA:         -10.249
REMARK INTER:                  -8.410
REMARK INTRA:                  -1.839
REMARK UNBOUND:                -1.839
REMARK SMILES CCCCCC=CCC=CCCCCCCCC(=O)OC
REMARK SMILES IDX 11 1 10 2 9 3 8 4 7 5 6 6 5 7 4 8 3 9 2 10 1 11 12 12 13 13
REMARK SMILES IDX 14 14 15 15 16 16 17 17 18 18 19 19 20 20 21 21
REMARK H PARENT
REMARK Flexibility Score: inf
ROOT
ATOM      1  C   UNL     1       6.122  -9.094  29.363  1.00  0.00     0.027 C 
ENDROOT
BRANCH   1   2
ATOM      2  C   UNL     1       5.377  -8.924  30.666  1.00  0.00    -0.031 C 
ATOM      3  C   UNL     1       5.413  -9.800  31.686  1.00  0.00    -0.027 C 
BRANCH   3   4
ATOM      4  C   UNL     1       6.145 -11.117  31.652  1.00  0.00     0.054 C 
BRANCH   4   5
ATOM      5  C   UNL     1       7.342 -11.095  32.561  1.00  0.00    -0.027 C 
ATOM      6  C   UNL     1       8.583 -11.199  32.062  1.00  0.00    -0.031 C 
BRANCH   6   7
ATOM      7  C   UNL     1       9.795 -11.204  32.954  1.00  0.00     0.027 C 
BRANCH   7   8
ATOM      8  C   UNL     1       9.610 -10.335  34.208  1.00  0.00     0.004 C 
BRANCH   8   9
ATOM      9  C   UNL     1       9.607  -8.820  33.931  1.00  0.00     0.000 C 
BRANCH   9  10
ATOM     10  C   UNL     1      10.852  -8.330  33.163  1.00  0.00    -0.003 C 
ATOM     11  C   UNL     1      10.722  -6.877  32.708  1.00  0.00     0.004 C 
ENDBRANCH   9  10
ENDBRANCH   8   9
ENDBRANCH   7   8
ENDBRANCH   6   7
ENDBRANCH   4   5
ENDBRANCH   3   4
ENDBRANCH   1   2
BRANCH   1  12
ATOM     12  C   UNL     1       7.307  -8.122  29.241  1.00  0.00     0.004 C 
BRANCH  12  13
ATOM     13  C   UNL     1       8.528  -8.490  30.108  1.00  0.00     0.000 C 
BRANCH  13  14
ATOM     14  C   UNL     1       9.873  -8.509  29.360  1.00  0.00     0.000 C 
BRANCH  14  15
ATOM     15  C   UNL     1      10.136  -9.842  28.638  1.00  0.00     0.001 C 
BRANCH  15  16
ATOM     16  C   UNL     1      11.108  -9.693  27.457  1.00  0.00     0.012 C 
BRANCH  16  17
ATOM     17  C   UNL     1      11.888 -10.982  27.170  1.00  0.00     0.123 C 
BRANCH  17  18
ATOM     18  C   UNL     1      12.774 -10.798  25.979  1.00  0.00     0.305 C 
ATOM     19  O   UNL     1      12.289 -10.893  24.818  1.00  0.00    -0.252 OA
BRANCH  18  20
ATOM     20  O   UNL     1      14.121 -10.476  26.167  1.00  0.00    -0.469 OA
ATOM     21  C   UNL     1      14.876  -9.755  25.201  1.00  0.00     0.282 C 
ENDBRANCH  18  20
ENDBRANCH  17  18
ENDBRANCH  16  17
ENDBRANCH  15  16
ENDBRANCH  14  15
ENDBRANCH  13  14
ENDBRANCH  12  13
ENDBRANCH   1  12
TORSDOF 15
ENDMDL
MODEL 2
REMARK VINA RESULT:    -4.395      1.249      3.732
REMARK INTER + INTRA:         -10.087
REMARK INTER:                  -8.159
REMARK INTRA:                  -1.928
REMARK UNBOUND:                -1.839
REMARK SMILES CCCCCC=CCC=CCCCCCCCC(=O)OC
REMARK SMILES IDX 11 1 10 2 9 3 8 4 7 5 6 6 5 7 4 8 3 9 2 10 1 11 12 12 13 13
REMARK SMILES IDX 14 14 15 15 16 16 17 17 18 18 19 19 20 20 21 21
REMARK H PARENT
REMARK Flexibility Score: inf
ROOT
ATOM      1  C   UNL     1      10.725  -7.755  31.996  1.00  0.00     0.027 C 
ENDROOT
BRANCH   1   2
ATOM      2  C   UNL     1      10.286  -7.816  33.440  1.00  0.00    -0.031 C 
ATOM      3  C   UNL     1      10.293  -8.930  34.193  1.00  0.00    -0.027 C 
BRANCH   3   4
ATOM      4  C   UNL     1      10.675 -10.298  33.688  1.00  0.00     0.054 C 
BRANCH   4   5
ATOM      5  C   UNL     1       9.467 -11.183  33.554  1.00  0.00    -0.027 C 
ATOM      6  C   UNL     1       8.239 -10.654  33.452  1.00  0.00    -0.031 C 
BRANCH   6   7
ATOM      7  C   UNL     1       7.013 -11.520  33.340  1.00  0.00     0.027 C 
BRANCH   7   8
ATOM      8  C   UNL     1       6.228 -11.271  32.043  1.00  0.00     0.004 C 
BRANCH   8   9
ATOM      9  C   UNL     1       6.407  -9.857  31.459  1.00  0.00     0.000 C 
BRANCH   9  10
ATOM     10  C   UNL     1       5.502  -9.571  30.242  1.00  0.00    -0.003 C 
ATOM     11  C   UNL     1       6.024  -8.420  29.384  1.00  0.00     0.004 C 
ENDBRANCH   9  10
ENDBRANCH   8   9
ENDBRANCH   7   8
ENDBRANCH   6   7
ENDBRANCH   4   5
ENDBRANCH   3   4
ENDBRANCH   1   2
BRANCH   1  12
ATOM     12  C   UNL     1       9.586  -8.115  31.028  1.00  0.00     0.004 C 
BRANCH  12  13
ATOM     13  C   UNL     1       9.859  -9.356  30.152  1.00  0.00     0.000 C 
BRANCH  13  14
ATOM     14  C   UNL     1       9.489  -9.196  28.667  1.00  0.00     0.000 C 
BRANCH  14  15
ATOM     15  C   UNL     1      10.566  -8.450  27.862  1.00  0.00     0.001 C 
BRANCH  15  16
ATOM     16  C   UNL     1      11.120  -9.287  26.697  1.00  0.00     0.012 C 
BRANCH  16  17
ATOM     17  C   UNL     1      11.827 -10.562  27.172  1.00  0.00     0.123 C 
BRANCH  17  18
ATOM     18  C   UNL     1      12.143 -11.445  26.007  1.00  0.00     0.305 C 
ATOM     19  O   UNL     1      12.481 -10.931  24.905  1.00  0.00    -0.252 OA
BRANCH  18  20
ATOM     20  O   UNL     1      12.106 -12.833  26.166  1.00  0.00    -0.469 OA
ATOM     21  C   UNL     1      12.244 -13.732  25.072  1.00  0.00     0.282 C 
ENDBRANCH  18  20
ENDBRANCH  17  18
ENDBRANCH  16  17
ENDBRANCH  15  16
ENDBRANCH  14  15
ENDBRANCH  13  14
ENDBRANCH  12  13
ENDBRANCH   1  12
TORSDOF 15
ENDMDL
MODEL 3
REMARK VINA RESULT:    -4.365      2.927      5.967
REMARK INTER + INTRA:         -10.031
REMARK INTER:                  -8.964
REMARK INTRA:                  -1.067
REMARK UNBOUND:                -1.839
REMARK SMILES CCCCCC=CCC=CCCCCCCCC(=O)OC
REMARK SMILES IDX 11 1 10 2 9 3 8 4 7 5 6 6 5 7 4 8 3 9 2 10 1 11 12 12 13 13
REMARK SMILES IDX 14 14 15 15 16 16 17 17 18 18 19 19 20 20 21 21
REMARK H PARENT
REMARK Flexibility Score: inf
ROOT
ATOM      1  C   UNL     1      12.563 -10.891  24.770  1.00  0.00     0.027 C 
ENDROOT
BRANCH   1   2
ATOM      2  C   UNL     1      12.471 -11.166  26.252  1.00  0.00    -0.031 C 
ATOM      3  C   UNL     1      11.724 -10.455  27.116  1.00  0.00    -0.027 C 
BRANCH   3   4
ATOM      4  C   UNL     1      10.923  -9.234  26.744  1.00  0.00     0.054 C 
BRANCH   4   5
ATOM      5  C   UNL     1      10.469  -8.488  27.968  1.00  0.00    -0.027 C 
ATOM      6  C   UNL     1      10.021  -9.149  29.045  1.00  0.00    -0.031 C 
BRANCH   6   7
ATOM      7  C   UNL     1       9.539  -8.424  30.273  1.00  0.00     0.027 C 
BRANCH   7   8
ATOM      8  C   UNL     1       9.584  -9.301  31.534  1.00  0.00     0.004 C 
BRANCH   8   9
ATOM      9  C   UNL     1      10.782  -9.016  32.459  1.00  0.00     0.000 C 
BRANCH   9  10
ATOM     10  C   UNL     1      10.526  -7.877  33.468  1.00  0.00    -0.003 C 
ATOM     11  C   UNL     1      10.749  -6.494  32.855  1.00  0.00     0.004 C 
ENDBRANCH   9  10
ENDBRANCH   8   9
ENDBRANCH   7   8
ENDBRANCH   6   7
ENDBRANCH   4   5
ENDBRANCH   3   4
ENDBRANCH   1   2
BRANCH   1  12
ATOM     12  C   UNL     1      11.407 -11.535  23.988  1.00  0.00     0.004 C 
BRANCH  12  13
ATOM     13  C   UNL     1      11.818 -12.735  23.110  1.00  0.00     0.000 C 
BRANCH  13  14
ATOM     14  C   UNL     1      12.085 -14.041  23.880  1.00  0.00     0.000 C 
BRANCH  14  15
ATOM     15  C   UNL     1      13.541 -14.520  23.755  1.00  0.00     0.001 C 
BRANCH  15  16
ATOM     16  C   UNL     1      14.284 -14.510  25.100  1.00  0.00     0.012 C 
BRANCH  16  17
ATOM     17  C   UNL     1      15.133 -13.248  25.295  1.00  0.00     0.123 C 
BRANCH  17  18
ATOM     18  C   UNL     1      16.400 -13.580  26.018  1.00  0.00     0.305 C 
ATOM     19  O   UNL     1      16.485 -14.658  26.668  1.00  0.00    -0.252 OA
BRANCH  18  20
ATOM     20  O   UNL     1      17.493 -12.714  25.924  1.00  0.00    -0.469 OA
ATOM     21  C   UNL     1      18.834 -13.180  25.846  1.00  0.00     0.282 C 
ENDBRANCH  18  20
ENDBRANCH  17  18
ENDBRANCH  16  17
ENDBRANCH  15  16
ENDBRANCH  14  15
ENDBRANCH  13  14
ENDBRANCH  12  13
ENDBRANCH   1  12
TORSDOF 15
ENDMDL
MODEL 4
REMARK VINA RESULT:    -4.361      5.658      7.313
REMARK INTER + INTRA:         -10.024
REMARK INTER:                  -8.804
REMARK INTRA:                  -1.220
REMARK UNBOUND:                -1.839
REMARK SMILES CCCCCC=CCC=CCCCCCCCC(=O)OC
REMARK SMILES IDX 11 1 10 2 9 3 8 4 7 5 6 6 5 7 4 8 3 9 2 10 1 11 12 12 13 13
REMARK SMILES IDX 14 14 15 15 16 16 17 17 18 18 19 19 20 20 21 21
REMARK H PARENT
REMARK Flexibility Score: inf
ROOT
ATOM      1  C   UNL     1       8.660  -7.008  26.935  1.00  0.00     0.027 C 
ENDROOT
BRANCH   1   2
ATOM      2  C   UNL     1      10.102  -7.313  27.267  1.00  0.00    -0.031 C 
ATOM      3  C   UNL     1      10.515  -8.389  27.961  1.00  0.00    -0.027 C 
BRANCH   3   4
ATOM      4  C   UNL     1       9.593  -9.414  28.571  1.00  0.00     0.054 C 
BRANCH   4   5
ATOM      5  C   UNL     1       9.301  -9.092  30.010  1.00  0.00    -0.027 C 
ATOM      6  C   UNL     1      10.219  -8.483  30.775  1.00  0.00    -0.031 C 
BRANCH   6   7
ATOM      7  C   UNL     1       9.959  -8.173  32.225  1.00  0.00     0.027 C 
BRANCH   7   8
ATOM      8  C   UNL     1      10.752  -9.084  33.176  1.00  0.00     0.004 C 
BRANCH   8   9
ATOM      9  C   UNL     1       9.873  -9.970  34.078  1.00  0.00     0.000 C 
BRANCH   9  10
ATOM     10  C   UNL     1       9.162 -11.111  33.320  1.00  0.00    -0.003 C 
ATOM     11  C   UNL     1      10.118 -11.902  32.428  1.00  0.00     0.004 C 
ENDBRANCH   9  10
ENDBRANCH   8   9
ENDBRANCH   7   8
ENDBRANCH   6   7
ENDBRANCH   4   5
ENDBRANCH   3   4
ENDBRANCH   1   2
BRANCH   1  12
ATOM     12  C   UNL     1       8.525  -5.806  25.987  1.00  0.00     0.004 C 
BRANCH  12  13
ATOM     13  C   UNL     1       9.082  -6.044  24.568  1.00  0.00     0.000 C 
BRANCH  13  14
ATOM     14  C   UNL     1       8.017  -6.293  23.486  1.00  0.00     0.000 C 
BRANCH  14  15
ATOM     15  C   UNL     1       7.069  -5.097  23.295  1.00  0.00     0.001 C 
BRANCH  15  16
ATOM     16  C   UNL     1       6.679  -4.880  21.824  1.00  0.00     0.012 C 
BRANCH  16  17
ATOM     17  C   UNL     1       5.457  -3.967  21.667  1.00  0.00     0.123 C 
BRANCH  17  18
ATOM     18  C   UNL     1       4.198  -4.774  21.698  1.00  0.00     0.305 C 
ATOM     19  O   UNL     1       3.955  -5.591  20.768  1.00  0.00    -0.252 OA
BRANCH  18  20
ATOM     20  O   UNL     1       3.326  -4.647  22.783  1.00  0.00    -0.469 OA
ATOM     21  C   UNL     1       3.485  -3.644  23.779  1.00  0.00     0.282 C 
ENDBRANCH  18  20
ENDBRANCH  17  18
ENDBRANCH  16  17
ENDBRANCH  15  16
ENDBRANCH  14  15
ENDBRANCH  13  14
ENDBRANCH  12  13
ENDBRANCH   1  12
TORSDOF 15
ENDMDL
MODEL 5
REMARK VINA RESULT:    -4.316      2.646      5.738
REMARK INTER + INTRA:          -9.940
REMARK INTER:                  -8.628
REMARK INTRA:                  -1.312
REMARK UNBOUND:                -1.839
REMARK SMILES CCCCCC=CCC=CCCCCCCCC(=O)OC
REMARK SMILES IDX 11 1 10 2 9 3 8 4 7 5 6 6 5 7 4 8 3 9 2 10 1 11 12 12 13 13
REMARK SMILES IDX 14 14 15 15 16 16 17 17 18 18 19 19 20 20 21 21
REMARK H PARENT
REMARK Flexibility Score: inf
ROOT
ATOM      1  C   UNL     1      12.328 -10.826  24.433  1.00  0.00     0.027 C 
ENDROOT
BRANCH   1   2
ATOM      2  C   UNL     1      11.394  -9.719  24.863  1.00  0.00    -0.031 C 
ATOM      3  C   UNL     1      11.079  -9.438  26.140  1.00  0.00    -0.027 C 
BRANCH   3   4
ATOM      4  C   UNL     1      11.558 -10.230  27.329  1.00  0.00     0.054 C 
BRANCH   4   5
ATOM      5  C   UNL     1      10.647 -10.041  28.510  1.00  0.00    -0.027 C 
ATOM      6  C   UNL     1       9.946  -8.908  28.658  1.00  0.00    -0.031 C 
BRANCH   6   7
ATOM      7  C   UNL     1       9.046  -8.685  29.844  1.00  0.00     0.027 C 
BRANCH   7   8
ATOM      8  C   UNL     1       9.805  -8.733  31.180  1.00  0.00     0.004 C 
BRANCH   8   9
ATOM      9  C   UNL     1       9.620 -10.045  31.964  1.00  0.00     0.000 C 
BRANCH   9  10
ATOM     10  C   UNL     1       9.856  -9.897  33.482  1.00  0.00    -0.003 C 
ATOM     11  C   UNL     1       9.157 -10.988  34.291  1.00  0.00     0.004 C 
ENDBRANCH   9  10
ENDBRANCH   8   9
ENDBRANCH   7   8
ENDBRANCH   6   7
ENDBRANCH   4   5
ENDBRANCH   3   4
ENDBRANCH   1   2
BRANCH   1  12
ATOM     12  C   UNL     1      11.572 -12.016  23.820  1.00  0.00     0.004 C 
BRANCH  12  13
ATOM     13  C   UNL     1      11.897 -13.380  24.463  1.00  0.00     0.000 C 
BRANCH  13  14
ATOM     14  C   UNL     1      12.160 -13.336  25.979  1.00  0.00     0.000 C 
BRANCH  14  15
ATOM     15  C   UNL     1      12.832 -14.616  26.505  1.00  0.00     0.001 C 
BRANCH  15  16
ATOM     16  C   UNL     1      14.019 -15.061  25.636  1.00  0.00     0.012 C 
BRANCH  16  17
ATOM     17  C   UNL     1      15.374 -14.745  26.281  1.00  0.00     0.123 C 
BRANCH  17  18
ATOM     18  C   UNL     1      15.993 -13.550  25.630  1.00  0.00     0.305 C 
ATOM     19  O   UNL     1      17.033 -13.035  26.125  1.00  0.00    -0.252 OA
BRANCH  18  20
ATOM     20  O   UNL     1      15.438 -13.044  24.450  1.00  0.00    -0.469 OA
ATOM     21  C   UNL     1      15.827 -11.793  23.897  1.00  0.00     0.282 C 
ENDBRANCH  18  20
ENDBRANCH  17  18
ENDBRANCH  16  17
ENDBRANCH  15  16
ENDBRANCH  14  15
ENDBRANCH  13  14
ENDBRANCH  12  13
ENDBRANCH   1  12
TORSDOF 15
ENDMDL
MODEL 6
REMARK VINA RESULT:    -4.292      4.664      8.022
REMARK INTER + INTRA:          -9.895
REMARK INTER:                  -8.816
REMARK INTRA:                  -1.080
REMARK UNBOUND:                -1.839
REMARK SMILES CCCCCC=CCC=CCCCCCCCC(=O)OC
REMARK SMILES IDX 11 1 10 2 9 3 8 4 7 5 6 6 5 7 4 8 3 9 2 10 1 11 12 12 13 13
REMARK SMILES IDX 14 14 15 15 16 16 17 17 18 18 19 19 20 20 21 21
REMARK H PARENT
REMARK Flexibility Score: inf
ROOT
ATOM      1  C   UNL     1      12.246 -10.441  27.060  1.00  0.00     0.027 C 
ENDROOT
BRANCH   1   2
ATOM      2  C   UNL     1      10.945 -10.012  27.696  1.00  0.00    -0.031 C 
ATOM      3  C   UNL     1      10.370  -8.808  27.521  1.00  0.00    -0.027 C 
BRANCH   3   4
ATOM      4  C   UNL     1      10.973  -7.685  26.719  1.00  0.00     0.054 C 
BRANCH   4   5
ATOM      5  C   UNL     1       9.933  -6.997  25.880  1.00  0.00    -0.027 C 
ATOM      6  C   UNL     1      10.019  -5.684  25.622  1.00  0.00    -0.031 C 
BRANCH   6   7
ATOM      7  C   UNL     1       8.976  -4.969  24.805  1.00  0.00     0.027 C 
BRANCH   7   8
ATOM      8  C   UNL     1       7.993  -5.935  24.125  1.00  0.00     0.004 C 
BRANCH   8   9
ATOM      9  C   UNL     1       7.226  -5.323  22.938  1.00  0.00     0.000 C 
BRANCH   9  10
ATOM     10  C   UNL     1       7.100  -3.787  23.010  1.00  0.00    -0.003 C 
ATOM     11  C   UNL     1       6.469  -3.194  21.751  1.00  0.00     0.004 C 
ENDBRANCH   9  10
ENDBRANCH   8   9
ENDBRANCH   7   8
ENDBRANCH   6   7
ENDBRANCH   4   5
ENDBRANCH   3   4
ENDBRANCH   1   2
BRANCH   1  12
ATOM     12  C   UNL     1      12.050 -11.597  26.064  1.00  0.00     0.004 C 
BRANCH  12  13
ATOM     13  C   UNL     1      12.042 -11.170  24.582  1.00  0.00     0.000 C 
BRANCH  13  14
ATOM     14  C   UNL     1      11.742 -12.301  23.583  1.00  0.00     0.000 C 
BRANCH  14  15
ATOM     15  C   UNL     1      11.759 -13.694  24.236  1.00  0.00     0.001 C 
BRANCH  15  16
ATOM     16  C   UNL     1      13.129 -14.382  24.123  1.00  0.00     0.012 C 
BRANCH  16  17
ATOM     17  C   UNL     1      13.606 -14.969  25.457  1.00  0.00     0.123 C 
BRANCH  17  18
ATOM     18  C   UNL     1      15.047 -14.641  25.683  1.00  0.00     0.305 C 
ATOM     19  O   UNL     1      15.404 -13.437  25.803  1.00  0.00    -0.252 OA
BRANCH  18  20
ATOM     20  O   UNL     1      15.977 -15.677  25.808  1.00  0.00    -0.469 OA
ATOM     21  C   UNL     1      15.600 -17.049  25.800  1.00  0.00     0.282 C 
ENDBRANCH  18  20
ENDBRANCH  17  18
ENDBRANCH  16  17
ENDBRANCH  15  16
ENDBRANCH  14  15
ENDBRANCH  13  14
ENDBRANCH  12  13
ENDBRANCH   1  12
TORSDOF 15
ENDMDL
MODEL 7
REMARK VINA RESULT:    -4.280      2.355      3.891
REMARK INTER + INTRA:          -9.871
REMARK INTER:                  -8.624
REMARK INTRA:                  -1.247
REMARK UNBOUND:                -1.839
REMARK SMILES CCCCCC=CCC=CCCCCCCCC(=O)OC
REMARK SMILES IDX 11 1 10 2 9 3 8 4 7 5 6 6 5 7 4 8 3 9 2 10 1 11 12 12 13 13
REMARK SMILES IDX 14 14 15 15 16 16 17 17 18 18 19 19 20 20 21 21
REMARK H PARENT
REMARK Flexibility Score: inf
ROOT
ATOM      1  C   UNL     1       9.819  -7.746  27.005  1.00  0.00     0.027 C 
ENDROOT
BRANCH   1   2
ATOM      2  C   UNL     1      10.480  -8.843  27.806  1.00  0.00    -0.031 C 
ATOM      3  C   UNL     1      10.022  -9.312  28.981  1.00  0.00    -0.027 C 
BRANCH   3   4
ATOM      4  C   UNL     1       8.819  -8.765  29.706  1.00  0.00     0.054 C 
BRANCH   4   5
ATOM      5  C   UNL     1       8.565  -9.519  30.981  1.00  0.00    -0.027 C 
ATOM      6  C   UNL     1       9.484 -10.365  31.471  1.00  0.00    -0.031 C 
BRANCH   6   7
ATOM      7  C   UNL     1       9.243 -11.149  32.733  1.00  0.00     0.027 C 
BRANCH   7   8
ATOM      8  C   UNL     1       9.541 -10.334  34.002  1.00  0.00     0.004 C 
BRANCH   8   9
ATOM      9  C   UNL     1      10.681  -9.311  33.841  1.00  0.00     0.000 C 
BRANCH   9  10
ATOM     10  C   UNL     1      10.202  -7.844  33.854  1.00  0.00    -0.003 C 
ATOM     11  C   UNL     1      10.858  -7.007  32.757  1.00  0.00     0.004 C 
ENDBRANCH   9  10
ENDBRANCH   8   9
ENDBRANCH   7   8
ENDBRANCH   6   7
ENDBRANCH   4   5
ENDBRANCH   3   4
ENDBRANCH   1   2
BRANCH   1  12
ATOM     12  C   UNL     1      10.239  -7.775  25.526  1.00  0.00     0.004 C 
BRANCH  12  13
ATOM     13  C   UNL     1      11.582  -8.484  25.256  1.00  0.00     0.000 C 
BRANCH  13  14
ATOM     14  C   UNL     1      11.466  -9.843  24.543  1.00  0.00     0.000 C 
BRANCH  14  15
ATOM     15  C   UNL     1      12.042 -11.003  25.373  1.00  0.00     0.001 C 
BRANCH  15  16
ATOM     16  C   UNL     1      12.936 -11.937  24.542  1.00  0.00     0.012 C 
BRANCH  16  17
ATOM     17  C   UNL     1      13.906 -12.750  25.409  1.00  0.00     0.123 C 
BRANCH  17  18
ATOM     18  C   UNL     1      13.337 -14.102  25.696  1.00  0.00     0.305 C 
ATOM     19  O   UNL     1      12.513 -14.248  26.640  1.00  0.00    -0.252 OA
BRANCH  18  20
ATOM     20  O   UNL     1      13.689 -15.184  24.883  1.00  0.00    -0.469 OA
ATOM     21  C   UNL     1      14.757 -15.119  23.945  1.00  0.00     0.282 C 
ENDBRANCH  18  20
ENDBRANCH  17  18
ENDBRANCH  16  17
ENDBRANCH  15  16
ENDBRANCH  14  15
ENDBRANCH  13  14
ENDBRANCH  12  13
ENDBRANCH   1  12
TORSDOF 15
ENDMDL
MODEL 8
REMARK VINA RESULT:    -4.276      6.260      8.987
REMARK INTER + INTRA:          -9.865
REMARK INTER:                  -8.588
REMARK INTRA:                  -1.277
REMARK UNBOUND:                -1.839
REMARK SMILES CCCCCC=CCC=CCCCCCCCC(=O)OC
REMARK SMILES IDX 11 1 10 2 9 3 8 4 7 5 6 6 5 7 4 8 3 9 2 10 1 11 12 12 13 13
REMARK SMILES IDX 14 14 15 15 16 16 17 17 18 18 19 19 20 20 21 21
REMARK H PARENT
REMARK Flexibility Score: inf
ROOT
ATOM      1  C   UNL     1       9.881  -6.341  26.363  1.00  0.00     0.027 C 
ENDROOT
BRANCH   1   2
ATOM      2  C   UNL     1      11.326  -6.143  26.754  1.00  0.00    -0.031 C 
ATOM      3  C   UNL     1      12.081  -5.092  26.384  1.00  0.00    -0.027 C 
BRANCH   3   4
ATOM      4  C   UNL     1      11.615  -3.991  25.467  1.00  0.00     0.054 C 
BRANCH   4   5
ATOM      5  C   UNL     1      12.173  -2.660  25.889  1.00  0.00    -0.027 C 
ATOM      6  C   UNL     1      13.182  -2.590  26.771  1.00  0.00    -0.031 C 
BRANCH   6   7
ATOM      7  C   UNL     1      13.741  -1.269  27.227  1.00  0.00     0.027 C 
BRANCH   7   8
ATOM      8  C   UNL     1      12.713  -0.130  27.142  1.00  0.00     0.004 C 
BRANCH   8   9
ATOM      9  C   UNL     1      13.217   1.122  26.401  1.00  0.00     0.000 C 
BRANCH   9  10
ATOM     10  C   UNL     1      12.606   1.295  24.995  1.00  0.00    -0.003 C 
ATOM     11  C   UNL     1      11.165   0.793  24.919  1.00  0.00     0.004 C 
ENDBRANCH   9  10
ENDBRANCH   8   9
ENDBRANCH   7   8
ENDBRANCH   6   7
ENDBRANCH   4   5
ENDBRANCH   3   4
ENDBRANCH   1   2
BRANCH   1  12
ATOM     12  C   UNL     1       9.242  -7.536  27.090  1.00  0.00     0.004 C 
BRANCH  12  13
ATOM     13  C   UNL     1      10.212  -8.699  27.383  1.00  0.00     0.000 C 
BRANCH  13  14
ATOM     14  C   UNL     1      10.135  -9.263  28.813  1.00  0.00     0.000 C 
BRANCH  14  15
ATOM     15  C   UNL     1       9.084  -8.550  29.679  1.00  0.00     0.001 C 
BRANCH  15  16
ATOM     16  C   UNL     1       8.658  -9.383  30.898  1.00  0.00     0.012 C 
BRANCH  16  17
ATOM     17  C   UNL     1       9.838  -9.742  31.809  1.00  0.00     0.123 C 
BRANCH  17  18
ATOM     18  C   UNL     1       9.749 -11.174  32.234  1.00  0.00     0.305 C 
ATOM     19  O   UNL     1       9.815 -12.089  31.368  1.00  0.00    -0.252 OA
BRANCH  18  20
ATOM     20  O   UNL     1       9.644 -11.483  33.593  1.00  0.00    -0.469 OA
ATOM     21  C   UNL     1       8.638 -10.923  34.429  1.00  0.00     0.282 C 
ENDBRANCH  18  20
ENDBRANCH  17  18
ENDBRANCH  16  17
ENDBRANCH  15  16
ENDBRANCH  14  15
ENDBRANCH  13  14
ENDBRANCH  12  13
ENDBRANCH   1  12
TORSDOF 15
ENDMDL
MODEL 9
REMARK VINA RESULT:    -4.206      8.351     10.763
REMARK INTER + INTRA:          -9.734
REMARK INTER:                  -7.757
REMARK INTRA:                  -1.977
REMARK UNBOUND:                -1.839
REMARK SMILES CCCCCC=CCC=CCCCCCCCC(=O)OC
REMARK SMILES IDX 11 1 10 2 9 3 8 4 7 5 6 6 5 7 4 8 3 9 2 10 1 11 12 12 13 13
REMARK SMILES IDX 14 14 15 15 16 16 17 17 18 18 19 19 20 20 21 21
REMARK H PARENT
REMARK Flexibility Score: inf
ROOT
ATOM      1  C   UNL     1      11.143  -0.334  25.689  1.00  0.00     0.027 C 
ENDROOT
BRANCH   1   2
ATOM      2  C   UNL     1      12.105  -0.811  26.751  1.00  0.00    -0.031 C 
ATOM      3  C   UNL     1      12.848  -1.930  26.661  1.00  0.00    -0.027 C 
BRANCH   3   4
ATOM      4  C   UNL     1      12.779  -2.908  25.517  1.00  0.00     0.054 C 
BRANCH   4   5
ATOM      5  C   UNL     1      12.214  -4.227  25.965  1.00  0.00    -0.027 C 
ATOM      6  C   UNL     1      10.981  -4.605  25.597  1.00  0.00    -0.031 C 
BRANCH   6   7
ATOM      7  C   UNL     1      10.385  -5.910  26.052  1.00  0.00     0.027 C 
BRANCH   7   8
ATOM      8  C   UNL     1       8.898  -6.041  25.686  1.00  0.00     0.004 C 
BRANCH   8   9
ATOM      9  C   UNL     1       8.459  -5.159  24.502  1.00  0.00     0.000 C 
BRANCH   9  10
ATOM     10  C   UNL     1       7.660  -5.923  23.426  1.00  0.00    -0.003 C 
ATOM     11  C   UNL     1       6.746  -5.003  22.616  1.00  0.00     0.004 C 
ENDBRANCH   9  10
ENDBRANCH   8   9
ENDBRANCH   7   8
ENDBRANCH   6   7
ENDBRANCH   4   5
ENDBRANCH   3   4
ENDBRANCH   1   2
BRANCH   1  12
ATOM     12  C   UNL     1      11.713   0.840  24.875  1.00  0.00     0.004 C 
BRANCH  12  13
ATOM     13  C   UNL     1      12.931   1.534  25.520  1.00  0.00     0.000 C 
BRANCH  13  14
ATOM     14  C   UNL     1      14.189   1.588  24.636  1.00  0.00     0.000 C 
BRANCH  14  15
ATOM     15  C   UNL     1      14.337   0.353  23.732  1.00  0.00     0.001 C 
BRANCH  15  16
ATOM     16  C   UNL     1      15.449  -0.597  24.206  1.00  0.00     0.012 C 
BRANCH  16  17
ATOM     17  C   UNL     1      16.102  -0.134  25.513  1.00  0.00     0.123 C 
BRANCH  17  18
ATOM     18  C   UNL     1      16.316  -1.298  26.427  1.00  0.00     0.305 C 
ATOM     19  O   UNL     1      16.410  -2.462  25.948  1.00  0.00    -0.252 OA
BRANCH  18  20
ATOM     20  O   UNL     1      16.457  -1.079  27.801  1.00  0.00    -0.469 OA
ATOM     21  C   UNL     1      15.619  -0.183  28.522  1.00  0.00     0.282 C 
ENDBRANCH  18  20
ENDBRANCH  17  18
ENDBRANCH  16  17
ENDBRANCH  15  16
ENDBRANCH  14  15
ENDBRANCH  13  14
ENDBRANCH  12  13
ENDBRANCH   1  12
TORSDOF 15
ENDMDL
