MODEL 1
REMARK VINA RESULT:    -5.788      0.000      0.000
REMARK INTER + INTRA:          -5.788
REMARK INTER:                  -5.788
REMARK INTRA:                   0.000
REMARK UNBOUND:                 0.000
REMARK SMILES C=C1CCC[C@@]2(C)CC(=O)C(=C(C)C)C[C@H]12
REMARK SMILES IDX 13 1 12 2 11 3 15 4 16 5 2 6 1 7 3 8 4 9 5 10 6 11 8 12 9 13
REMARK SMILES IDX 10 14 7 15 14 16
REMARK H PARENT
REMARK Flexibility Score: inf
ROOT
ATOM      1  C   UNL     1     -15.228   5.368  26.620  1.00  0.00     0.039 C 
ATOM      2  C   UNL     1     -14.130   5.247  27.652  1.00  0.00    -0.070 C 
ATOM      3  C   UNL     1     -13.760   4.039  28.171  1.00  0.00    -0.006 C 
ATOM      4  C   UNL     1     -12.694   3.942  29.254  1.00  0.00     0.047 C 
ATOM      5  C   UNL     1     -12.914   2.739  30.206  1.00  0.00     0.025 C 
ATOM      6  C   UNL     1     -11.850   2.567  31.292  1.00  0.00    -0.073 C 
ATOM      7  C   UNL     1     -10.781   3.372  31.434  1.00  0.00     0.008 C 
ATOM      8  C   UNL     1     -12.073   1.438  32.270  1.00  0.00     0.031 C 
ATOM      9  C   UNL     1     -12.296   0.121  31.523  1.00  0.00     0.005 C 
ATOM     10  C   UNL     1     -13.393   0.252  30.453  1.00  0.00     0.008 C 
ATOM     11  C   UNL     1     -13.118   1.398  29.433  1.00  0.00    -0.018 C 
ATOM     12  C   UNL     1     -14.359   1.539  28.519  1.00  0.00     0.088 C 
ATOM     13  C   UNL     1     -14.277   2.749  27.633  1.00  0.00     0.159 C 
ATOM     14  O   UNL     1     -14.640   2.639  26.430  1.00  0.00    -0.295 OA
ATOM     15  C   UNL     1     -11.880   1.038  28.566  1.00  0.00     0.012 C 
ATOM     16  C   UNL     1     -13.481   6.533  28.113  1.00  0.00     0.039 C 
ENDROOT
TORSDOF 0
ENDMDL
MODEL 2
REMARK VINA RESULT:    -5.626     10.725     12.117
REMARK INTER + INTRA:          -5.626
REMARK INTER:                  -5.626
REMARK INTRA:                   0.000
REMARK UNBOUND:                 0.000
REMARK SMILES C=C1CCC[C@@]2(C)CC(=O)C(=C(C)C)C[C@H]12
REMARK SMILES IDX 13 1 12 2 11 3 15 4 16 5 2 6 1 7 3 8 4 9 5 10 6 11 8 12 9 13
REMARK SMILES IDX 10 14 7 15 14 16
REMARK H PARENT
REMARK Flexibility Score: inf
ROOT
ATOM      1  C   UNL     1      -1.860   4.690  32.755  1.00  0.00     0.039 C 
ATOM      2  C   UNL     1      -2.396   3.358  32.283  1.00  0.00    -0.070 C 
ATOM      3  C   UNL     1      -1.986   2.792  31.109  1.00  0.00    -0.006 C 
ATOM      4  C   UNL     1      -2.581   1.479  30.619  1.00  0.00     0.047 C 
ATOM      5  C   UNL     1      -2.604   1.371  29.074  1.00  0.00     0.025 C 
ATOM      6  C   UNL     1      -3.155   0.055  28.522  1.00  0.00    -0.073 C 
ATOM      7  C   UNL     1      -3.586  -0.963  29.292  1.00  0.00     0.008 C 
ATOM      8  C   UNL     1      -3.245  -0.053  27.019  1.00  0.00     0.031 C 
ATOM      9  C   UNL     1      -1.892   0.272  26.379  1.00  0.00     0.005 C 
ATOM     10  C   UNL     1      -1.334   1.614  26.883  1.00  0.00     0.008 C 
ATOM     11  C   UNL     1      -1.215   1.683  28.435  1.00  0.00    -0.018 C 
ATOM     12  C   UNL     1      -0.805   3.124  28.823  1.00  0.00     0.088 C 
ATOM     13  C   UNL     1      -0.859   3.349  30.308  1.00  0.00     0.159 C 
ATOM     14  O   UNL     1       0.072   4.002  30.852  1.00  0.00    -0.295 OA
ATOM     15  C   UNL     1      -0.121   0.690  28.918  1.00  0.00     0.012 C 
ATOM     16  C   UNL     1      -3.438   2.694  33.154  1.00  0.00     0.039 C 
ENDROOT
TORSDOF 0
ENDMDL
MODEL 3
REMARK VINA RESULT:    -5.491      9.198     11.007
REMARK INTER + INTRA:          -5.491
REMARK INTER:                  -5.491
REMARK INTRA:                   0.000
REMARK UNBOUND:                 0.000
REMARK SMILES C=C1CCC[C@@]2(C)CC(=O)C(=C(C)C)C[C@H]12
REMARK SMILES IDX 13 1 12 2 11 3 15 4 16 5 2 6 1 7 3 8 4 9 5 10 6 11 8 12 9 13
REMARK SMILES IDX 10 14 7 15 14 16
REMARK H PARENT
REMARK Flexibility Score: inf
ROOT
ATOM      1  C   UNL     1      -4.618   1.842  33.932  1.00  0.00     0.039 C 
ATOM      2  C   UNL     1      -3.621   2.294  32.890  1.00  0.00    -0.070 C 
ATOM      3  C   UNL     1      -3.587   1.744  31.640  1.00  0.00    -0.006 C 
ATOM      4  C   UNL     1      -2.537   2.168  30.622  1.00  0.00     0.047 C 
ATOM      5  C   UNL     1      -2.160   1.030  29.641  1.00  0.00     0.025 C 
ATOM      6  C   UNL     1      -1.137   1.410  28.568  1.00  0.00    -0.073 C 
ATOM      7  C   UNL     1      -0.591   2.635  28.447  1.00  0.00     0.008 C 
ATOM      8  C   UNL     1      -0.706   0.303  27.636  1.00  0.00     0.031 C 
ATOM      9  C   UNL     1      -1.929  -0.363  26.999  1.00  0.00     0.005 C 
ATOM     10  C   UNL     1      -2.957  -0.796  28.058  1.00  0.00     0.008 C 
ATOM     11  C   UNL     1      -3.413   0.373  28.981  1.00  0.00    -0.018 C 
ATOM     12  C   UNL     1      -4.308  -0.215  30.099  1.00  0.00     0.088 C 
ATOM     13  C   UNL     1      -4.635   0.800  31.157  1.00  0.00     0.159 C 
ATOM     14  O   UNL     1      -5.812   0.841  31.609  1.00  0.00    -0.295 OA
ATOM     15  C   UNL     1      -4.234   1.401  28.153  1.00  0.00     0.012 C 
ATOM     16  C   UNL     1      -2.633   3.360  33.306  1.00  0.00     0.039 C 
ENDROOT
TORSDOF 0
ENDMDL
MODEL 4
REMARK VINA RESULT:    -5.466      8.765     10.977
REMARK INTER + INTRA:          -5.466
REMARK INTER:                  -5.466
REMARK INTRA:                   0.000
REMARK UNBOUND:                 0.000
REMARK SMILES C=C1CCC[C@@]2(C)CC(=O)C(=C(C)C)C[C@H]12
REMARK SMILES IDX 13 1 12 2 11 3 15 4 16 5 2 6 1 7 3 8 4 9 5 10 6 11 8 12 9 13
REMARK SMILES IDX 10 14 7 15 14 16
REMARK H PARENT
REMARK Flexibility Score: inf
ROOT
ATOM      1  C   UNL     1      -6.345  -0.217  32.988  1.00  0.00     0.039 C 
ATOM      2  C   UNL     1      -5.472   0.950  32.588  1.00  0.00    -0.070 C 
ATOM      3  C   UNL     1      -4.517   0.836  31.618  1.00  0.00    -0.006 C 
ATOM      4  C   UNL     1      -3.605   2.004  31.270  1.00  0.00     0.047 C 
ATOM      5  C   UNL     1      -2.209   1.549  30.775  1.00  0.00     0.025 C 
ATOM      6  C   UNL     1      -1.262   2.681  30.371  1.00  0.00    -0.073 C 
ATOM      7  C   UNL     1      -1.586   3.987  30.419  1.00  0.00     0.008 C 
ATOM      8  C   UNL     1       0.125   2.267  29.942  1.00  0.00     0.031 C 
ATOM      9  C   UNL     1       0.048   1.212  28.835  1.00  0.00     0.005 C 
ATOM     10  C   UNL     1      -0.864   0.039  29.231  1.00  0.00     0.008 C 
ATOM     11  C   UNL     1      -2.301   0.490  29.632  1.00  0.00    -0.018 C 
ATOM     12  C   UNL     1      -3.064  -0.747  30.164  1.00  0.00     0.088 C 
ATOM     13  C   UNL     1      -4.391  -0.380  30.765  1.00  0.00     0.159 C 
ATOM     14  O   UNL     1      -5.387  -1.113  30.517  1.00  0.00    -0.295 OA
ATOM     15  C   UNL     1      -3.038   1.050  28.383  1.00  0.00     0.012 C 
ATOM     16  C   UNL     1      -5.678   2.246  33.339  1.00  0.00     0.039 C 
ENDROOT
TORSDOF 0
ENDMDL
MODEL 5
REMARK VINA RESULT:    -5.461      1.862      4.768
REMARK INTER + INTRA:          -5.461
REMARK INTER:                  -5.461
REMARK INTRA:                   0.000
REMARK UNBOUND:                 0.000
REMARK SMILES C=C1CCC[C@@]2(C)CC(=O)C(=C(C)C)C[C@H]12
REMARK SMILES IDX 13 1 12 2 11 3 15 4 16 5 2 6 1 7 3 8 4 9 5 10 6 11 8 12 9 13
REMARK SMILES IDX 10 14 7 15 14 16
REMARK H PARENT
REMARK Flexibility Score: inf
ROOT
ATOM      1  C   UNL     1     -11.634   0.731  32.687  1.00  0.00     0.039 C 
ATOM      2  C   UNL     1     -11.837   2.026  31.934  1.00  0.00    -0.070 C 
ATOM      3  C   UNL     1     -12.389   2.055  30.685  1.00  0.00    -0.006 C 
ATOM      4  C   UNL     1     -12.530   3.362  29.917  1.00  0.00     0.047 C 
ATOM      5  C   UNL     1     -12.447   3.167  28.382  1.00  0.00     0.025 C 
ATOM      6  C   UNL     1     -12.623   4.442  27.555  1.00  0.00    -0.073 C 
ATOM      7  C   UNL     1     -12.847   5.659  28.085  1.00  0.00     0.008 C 
ATOM      8  C   UNL     1     -12.486   4.290  26.059  1.00  0.00     0.031 C 
ATOM      9  C   UNL     1     -13.416   3.186  25.547  1.00  0.00     0.005 C 
ATOM     10  C   UNL     1     -13.230   1.877  26.333  1.00  0.00     0.008 C 
ATOM     11  C   UNL     1     -13.415   2.055  27.870  1.00  0.00    -0.018 C 
ATOM     12  C   UNL     1     -13.042   0.719  28.558  1.00  0.00     0.088 C 
ATOM     13  C   UNL     1     -12.994   0.846  30.055  1.00  0.00     0.159 C 
ATOM     14  O   UNL     1     -13.487  -0.080  30.753  1.00  0.00    -0.295 OA
ATOM     15  C   UNL     1     -14.900   2.395  28.179  1.00  0.00     0.012 C 
ATOM     16  C   UNL     1     -11.365   3.292  32.614  1.00  0.00     0.039 C 
ENDROOT
TORSDOF 0
ENDMDL
MODEL 6
REMARK VINA RESULT:    -5.453      5.640      8.862
REMARK INTER + INTRA:          -5.453
REMARK INTER:                  -5.453
REMARK INTRA:                   0.000
REMARK UNBOUND:                 0.000
REMARK SMILES C=C1CCC[C@@]2(C)CC(=O)C(=C(C)C)C[C@H]12
REMARK SMILES IDX 13 1 12 2 11 3 15 4 16 5 2 6 1 7 3 8 4 9 5 10 6 11 8 12 9 13
REMARK SMILES IDX 10 14 7 15 14 16
REMARK H PARENT
REMARK Flexibility Score: inf
ROOT
ATOM      1  C   UNL     1      -9.549   7.490  34.055  1.00  0.00     0.039 C 
ATOM      2  C   UNL     1     -10.690   7.341  33.075  1.00  0.00    -0.070 C 
ATOM      3  C   UNL     1     -11.122   8.386  32.309  1.00  0.00    -0.006 C 
ATOM      4  C   UNL     1     -12.312   8.235  31.371  1.00  0.00     0.047 C 
ATOM      5  C   UNL     1     -13.098   9.556  31.182  1.00  0.00     0.025 C 
ATOM      6  C   UNL     1     -14.283   9.475  30.218  1.00  0.00    -0.073 C 
ATOM      7  C   UNL     1     -14.640   8.359  29.554  1.00  0.00     0.008 C 
ATOM      8  C   UNL     1     -15.103  10.734  30.062  1.00  0.00     0.031 C 
ATOM      9  C   UNL     1     -14.200  11.918  29.704  1.00  0.00     0.005 C 
ATOM     10  C   UNL     1     -13.022  12.051  30.684  1.00  0.00     0.008 C 
ATOM     11  C   UNL     1     -12.170  10.751  30.797  1.00  0.00    -0.018 C 
ATOM     12  C   UNL     1     -11.130  10.952  31.925  1.00  0.00     0.088 C 
ATOM     13  C   UNL     1     -10.391   9.684  32.248  1.00  0.00     0.159 C 
ATOM     14  O   UNL     1      -9.148   9.746  32.450  1.00  0.00    -0.295 OA
ATOM     15  C   UNL     1     -11.430  10.496  29.454  1.00  0.00     0.012 C 
ATOM     16  C   UNL     1     -11.360   5.987  33.007  1.00  0.00     0.039 C 
ENDROOT
TORSDOF 0
ENDMDL
MODEL 7
REMARK VINA RESULT:    -5.398      1.993      5.496
REMARK INTER + INTRA:          -5.398
REMARK INTER:                  -5.398
REMARK INTRA:                   0.000
REMARK UNBOUND:                 0.000
REMARK SMILES C=C1CCC[C@@]2(C)CC(=O)C(=C(C)C)C[C@H]12
REMARK SMILES IDX 13 1 12 2 11 3 15 4 16 5 2 6 1 7 3 8 4 9 5 10 6 11 8 12 9 13
REMARK SMILES IDX 10 14 7 15 14 16
REMARK H PARENT
REMARK Flexibility Score: inf
ROOT
ATOM      1  C   UNL     1     -11.564   0.800  32.988  1.00  0.00     0.039 C 
ATOM      2  C   UNL     1     -12.276   0.878  31.657  1.00  0.00    -0.070 C 
ATOM      3  C   UNL     1     -12.279   2.020  30.907  1.00  0.00    -0.006 C 
ATOM      4  C   UNL     1     -13.052   2.100  29.598  1.00  0.00     0.047 C 
ATOM      5  C   UNL     1     -13.563   3.530  29.289  1.00  0.00     0.025 C 
ATOM      6  C   UNL     1     -14.312   3.680  27.964  1.00  0.00    -0.073 C 
ATOM      7  C   UNL     1     -14.522   2.670  27.098  1.00  0.00     0.008 C 
ATOM      8  C   UNL     1     -14.874   5.050  27.667  1.00  0.00     0.031 C 
ATOM      9  C   UNL     1     -13.777   6.113  27.787  1.00  0.00     0.005 C 
ATOM     10  C   UNL     1     -13.034   6.014  29.130  1.00  0.00     0.008 C 
ATOM     11  C   UNL     1     -12.432   4.601  29.393  1.00  0.00    -0.018 C 
ATOM     12  C   UNL     1     -11.861   4.580  30.832  1.00  0.00     0.088 C 
ATOM     13  C   UNL     1     -11.438   3.202  31.254  1.00  0.00     0.159 C 
ATOM     14  O   UNL     1     -10.357   3.073  31.890  1.00  0.00    -0.295 OA
ATOM     15  C   UNL     1     -11.284   4.328  28.381  1.00  0.00     0.012 C 
ATOM     16  C   UNL     1     -13.020  -0.359  31.206  1.00  0.00     0.039 C 
ENDROOT
TORSDOF 0
ENDMDL
MODEL 8
REMARK VINA RESULT:    -5.368      8.943     11.088
REMARK INTER + INTRA:          -5.368
REMARK INTER:                  -5.368
REMARK INTRA:                   0.000
REMARK UNBOUND:                 0.000
REMARK SMILES C=C1CCC[C@@]2(C)CC(=O)C(=C(C)C)C[C@H]12
REMARK SMILES IDX 13 1 12 2 11 3 15 4 16 5 2 6 1 7 3 8 4 9 5 10 6 11 8 12 9 13
REMARK SMILES IDX 10 14 7 15 14 16
REMARK H PARENT
REMARK Flexibility Score: inf
ROOT
ATOM      1  C   UNL     1     -18.555   7.660  18.756  1.00  0.00     0.039 C 
ATOM      2  C   UNL     1     -17.333   8.398  19.252  1.00  0.00    -0.070 C 
ATOM      3  C   UNL     1     -17.209   8.794  20.553  1.00  0.00    -0.006 C 
ATOM      4  C   UNL     1     -15.999   9.590  21.022  1.00  0.00     0.047 C 
ATOM      5  C   UNL     1     -16.328  10.546  22.196  1.00  0.00     0.025 C 
ATOM      6  C   UNL     1     -15.140  11.343  22.737  1.00  0.00    -0.073 C 
ATOM      7  C   UNL     1     -13.884  11.241  22.262  1.00  0.00     0.008 C 
ATOM      8  C   UNL     1     -15.444  12.327  23.841  1.00  0.00     0.031 C 
ATOM      9  C   UNL     1     -16.188  11.631  24.985  1.00  0.00     0.005 C 
ATOM     10  C   UNL     1     -17.415  10.856  24.476  1.00  0.00     0.008 C 
ATOM     11  C   UNL     1     -17.066   9.820  23.365  1.00  0.00    -0.018 C 
ATOM     12  C   UNL     1     -18.391   9.231  22.822  1.00  0.00     0.088 C 
ATOM     13  C   UNL     1     -18.174   8.371  21.609  1.00  0.00     0.159 C 
ATOM     14  O   UNL     1     -18.812   7.288  21.517  1.00  0.00    -0.295 OA
ATOM     15  C   UNL     1     -16.205   8.677  23.971  1.00  0.00     0.012 C 
ATOM     16  C   UNL     1     -16.264   8.714  18.230  1.00  0.00     0.039 C 
ENDROOT
TORSDOF 0
ENDMDL
MODEL 9
REMARK VINA RESULT:    -5.303      5.906      7.517
REMARK INTER + INTRA:          -5.303
REMARK INTER:                  -5.303
REMARK INTRA:                   0.000
REMARK UNBOUND:                 0.000
REMARK SMILES C=C1CCC[C@@]2(C)CC(=O)C(=C(C)C)C[C@H]12
REMARK SMILES IDX 13 1 12 2 11 3 15 4 16 5 2 6 1 7 3 8 4 9 5 10 6 11 8 12 9 13
REMARK SMILES IDX 10 14 7 15 14 16
REMARK H PARENT
REMARK Flexibility Score: inf
ROOT
ATOM      1  C   UNL     1     -14.422  10.811  29.672  1.00  0.00     0.039 C 
ATOM      2  C   UNL     1     -14.014   9.605  30.486  1.00  0.00    -0.070 C 
ATOM      3  C   UNL     1     -12.785   9.516  31.075  1.00  0.00    -0.006 C 
ATOM      4  C   UNL     1     -12.367   8.268  31.841  1.00  0.00     0.047 C 
ATOM      5  C   UNL     1     -10.840   8.012  31.783  1.00  0.00     0.025 C 
ATOM      6  C   UNL     1     -10.356   6.792  32.569  1.00  0.00    -0.073 C 
ATOM      7  C   UNL     1     -11.165   5.984  33.281  1.00  0.00     0.008 C 
ATOM      8  C   UNL     1      -8.880   6.484  32.480  1.00  0.00     0.031 C 
ATOM      9  C   UNL     1      -8.055   7.721  32.847  1.00  0.00     0.005 C 
ATOM     10  C   UNL     1      -8.491   8.955  32.039  1.00  0.00     0.008 C 
ATOM     11  C   UNL     1     -10.010   9.273  32.180  1.00  0.00    -0.018 C 
ATOM     12  C   UNL     1     -10.356  10.420  31.200  1.00  0.00     0.088 C 
ATOM     13  C   UNL     1     -11.835  10.666  31.113  1.00  0.00     0.159 C 
ATOM     14  O   UNL     1     -12.247  11.857  31.088  1.00  0.00    -0.295 OA
ATOM     15  C   UNL     1     -10.313   9.730  33.634  1.00  0.00     0.012 C 
ATOM     16  C   UNL     1     -15.017   8.479  30.589  1.00  0.00     0.039 C 
ENDROOT
TORSDOF 0
ENDMDL
