MODEL 1
REMARK VINA RESULT:    -2.450      0.000      0.000
REMARK INTER + INTRA:          -3.392
REMARK INTER:                  -3.166
REMARK INTRA:                  -0.226
REMARK UNBOUND:                -0.226
REMARK SMILES CCCCCCC(=O)[O-]
REMARK SMILES IDX 5 1 6 2 7 3 8 4 9 5 4 6 3 7 2 8 1 9
REMARK H PARENT
REMARK Flexibility Score: inf
ROOT
ATOM      1  C   UNL     1      -2.429  -9.312   3.023  1.00  0.00     0.006 C 
ENDROOT
BRANCH   1   2
ATOM      2  C   UNL     1      -3.419  -8.414   3.788  1.00  0.00     0.053 C 
BRANCH   2   3
ATOM      3  C   UNL     1      -4.414  -7.750   2.885  1.00  0.00     0.041 C 
ATOM      4  O   UNL     1      -4.676  -8.242   1.757  1.00  0.00    -0.550 OA
ATOM      5  O   UNL     1      -5.023  -6.563   3.274  1.00  0.00    -0.550 OA
ENDBRANCH   2   3
ENDBRANCH   1   2
BRANCH   1   6
ATOM      6  C   UNL     1      -0.947  -8.985   3.291  1.00  0.00     0.000 C 
BRANCH   6   7
ATOM      7  C   UNL     1      -0.672  -8.208   4.590  1.00  0.00    -0.000 C 
BRANCH   7   8
ATOM      8  C   UNL     1       0.205  -6.966   4.370  1.00  0.00    -0.003 C 
ATOM      9  C   UNL     1      -0.485  -5.708   4.891  1.00  0.00     0.004 C 
ENDBRANCH   7   8
ENDBRANCH   6   7
ENDBRANCH   1   6
TORSDOF 5
ENDMDL
MODEL 2
REMARK VINA RESULT:    -2.431     14.428     15.471
REMARK INTER + INTRA:          -3.367
REMARK INTER:                  -3.163
REMARK INTRA:                  -0.204
REMARK UNBOUND:                -0.226
REMARK SMILES CCCCCCC(=O)[O-]
REMARK SMILES IDX 5 1 6 2 7 3 8 4 9 5 4 6 3 7 2 8 1 9
REMARK H PARENT
REMARK Flexibility Score: inf
ROOT
ATOM      1  C   UNL     1      12.002  -5.875   0.621  1.00  0.00     0.006 C 
ENDROOT
BRANCH   1   2
ATOM      2  C   UNL     1      13.125  -5.257   1.473  1.00  0.00     0.053 C 
BRANCH   2   3
ATOM      3  C   UNL     1      12.646  -4.116   2.319  1.00  0.00     0.041 C 
ATOM      4  O   UNL     1      12.826  -4.128   3.564  1.00  0.00    -0.550 OA
ATOM      5  O   UNL     1      11.962  -3.056   1.736  1.00  0.00    -0.550 OA
ENDBRANCH   2   3
ENDBRANCH   1   2
BRANCH   1   6
ATOM      6  C   UNL     1      12.057  -7.413   0.528  1.00  0.00     0.000 C 
BRANCH   6   7
ATOM      7  C   UNL     1      13.125  -8.084   1.409  1.00  0.00    -0.000 C 
BRANCH   7   8
ATOM      8  C   UNL     1      12.545  -9.168   2.330  1.00  0.00    -0.003 C 
ATOM      9  C   UNL     1      11.257  -9.748   1.752  1.00  0.00     0.004 C 
ENDBRANCH   7   8
ENDBRANCH   6   7
ENDBRANCH   1   6
TORSDOF 5
ENDMDL
MODEL 3
REMARK VINA RESULT:    -2.336      2.823      4.704
REMARK INTER + INTRA:          -3.244
REMARK INTER:                  -2.915
REMARK INTRA:                  -0.329
REMARK UNBOUND:                -0.226
REMARK SMILES CCCCCCC(=O)[O-]
REMARK SMILES IDX 5 1 6 2 7 3 8 4 9 5 4 6 3 7 2 8 1 9
REMARK H PARENT
REMARK Flexibility Score: inf
ROOT
ATOM      1  C   UNL     1      -3.718  -8.620   2.541  1.00  0.00     0.006 C 
ENDROOT
BRANCH   1   2
ATOM      2  C   UNL     1      -4.126  -7.803   3.780  1.00  0.00     0.053 C 
BRANCH   2   3
ATOM      3  C   UNL     1      -5.176  -6.778   3.476  1.00  0.00     0.041 C 
ATOM      4  O   UNL     1      -4.882  -5.556   3.444  1.00  0.00    -0.550 OA
ATOM      5  O   UNL     1      -6.493  -7.172   3.268  1.00  0.00    -0.550 OA
ENDBRANCH   2   3
ENDBRANCH   1   2
BRANCH   1   6
ATOM      6  C   UNL     1      -4.438  -9.978   2.418  1.00  0.00     0.000 C 
BRANCH   6   7
ATOM      7  C   UNL     1      -5.530 -10.044   1.337  1.00  0.00    -0.000 C 
BRANCH   7   8
ATOM      8  C   UNL     1      -5.451  -8.883   0.335  1.00  0.00    -0.003 C 
ATOM      9  C   UNL     1      -6.689  -8.842  -0.556  1.00  0.00     0.004 C 
ENDBRANCH   7   8
ENDBRANCH   6   7
ENDBRANCH   1   6
TORSDOF 5
ENDMDL
MODEL 4
REMARK VINA RESULT:    -2.265      2.813      4.689
REMARK INTER + INTRA:          -3.153
REMARK INTER:                  -3.007
REMARK INTRA:                  -0.145
REMARK UNBOUND:                -0.226
REMARK SMILES CCCCCCC(=O)[O-]
REMARK SMILES IDX 5 1 6 2 7 3 8 4 9 5 4 6 3 7 2 8 1 9
REMARK H PARENT
REMARK Flexibility Score: inf
ROOT
ATOM      1  C   UNL     1      -1.556  -8.784   3.726  1.00  0.00     0.006 C 
ENDROOT
BRANCH   1   2
ATOM      2  C   UNL     1      -1.694  -7.712   4.822  1.00  0.00     0.053 C 
BRANCH   2   3
ATOM      3  C   UNL     1      -0.529  -6.769   4.858  1.00  0.00     0.041 C 
ATOM      4  O   UNL     1      -0.717  -5.525   4.846  1.00  0.00    -0.550 OA
ATOM      5  O   UNL     1       0.769  -7.266   4.861  1.00  0.00    -0.550 OA
ENDBRANCH   2   3
ENDBRANCH   1   2
BRANCH   1   6
ATOM      6  C   UNL     1      -2.901  -9.265   3.145  1.00  0.00     0.000 C 
BRANCH   6   7
ATOM      7  C   UNL     1      -3.939  -8.158   2.892  1.00  0.00    -0.000 C 
BRANCH   7   8
ATOM      8  C   UNL     1      -4.811  -8.426   1.657  1.00  0.00    -0.003 C 
ATOM      9  C   UNL     1      -5.123  -9.913   1.518  1.00  0.00     0.004 C 
ENDBRANCH   7   8
ENDBRANCH   6   7
ENDBRANCH   1   6
TORSDOF 5
ENDMDL
MODEL 5
REMARK VINA RESULT:    -2.198      3.540      4.485
REMARK INTER + INTRA:          -3.066
REMARK INTER:                  -2.937
REMARK INTRA:                  -0.129
REMARK UNBOUND:                -0.226
REMARK SMILES CCCCCCC(=O)[O-]
REMARK SMILES IDX 5 1 6 2 7 3 8 4 9 5 4 6 3 7 2 8 1 9
REMARK H PARENT
REMARK Flexibility Score: inf
ROOT
ATOM      1  C   UNL     1      -4.457  -8.463   1.806  1.00  0.00     0.006 C 
ENDROOT
BRANCH   1   2
ATOM      2  C   UNL     1      -5.681  -9.360   1.543  1.00  0.00     0.053 C 
BRANCH   2   3
ATOM      3  C   UNL     1      -5.944  -9.564   0.081  1.00  0.00     0.041 C 
ATOM      4  O   UNL     1      -5.618 -10.642  -0.479  1.00  0.00    -0.550 OA
ATOM      5  O   UNL     1      -6.514  -8.544  -0.672  1.00  0.00    -0.550 OA
ENDBRANCH   2   3
ENDBRANCH   1   2
BRANCH   1   6
ATOM      6  C   UNL     1      -4.386  -7.902   3.239  1.00  0.00     0.000 C 
BRANCH   6   7
ATOM      7  C   UNL     1      -4.900  -6.461   3.405  1.00  0.00    -0.000 C 
BRANCH   7   8
ATOM      8  C   UNL     1      -6.310  -6.395   4.009  1.00  0.00    -0.003 C 
ATOM      9  C   UNL     1      -6.641  -4.980   4.476  1.00  0.00     0.004 C 
ENDBRANCH   7   8
ENDBRANCH   6   7
ENDBRANCH   1   6
TORSDOF 5
ENDMDL
MODEL 6
REMARK VINA RESULT:    -2.195      2.201      2.829
REMARK INTER + INTRA:          -3.062
REMARK INTER:                  -2.845
REMARK INTRA:                  -0.217
REMARK UNBOUND:                -0.226
REMARK SMILES CCCCCCC(=O)[O-]
REMARK SMILES IDX 5 1 6 2 7 3 8 4 9 5 4 6 3 7 2 8 1 9
REMARK H PARENT
REMARK Flexibility Score: inf
ROOT
ATOM      1  C   UNL     1      -4.415  -9.856   2.356  1.00  0.00     0.006 C 
ENDROOT
BRANCH   1   2
ATOM      2  C   UNL     1      -4.385  -8.352   2.032  1.00  0.00     0.053 C 
BRANCH   2   3
ATOM      3  C   UNL     1      -5.205  -7.538   2.988  1.00  0.00     0.041 C 
ATOM      4  O   UNL     1      -6.212  -8.042   3.549  1.00  0.00    -0.550 OA
ATOM      5  O   UNL     1      -4.879  -6.209   3.227  1.00  0.00    -0.550 OA
ENDBRANCH   2   3
ENDBRANCH   1   2
BRANCH   1   6
ATOM      6  C   UNL     1      -3.072 -10.416   2.865  1.00  0.00     0.000 C 
BRANCH   6   7
ATOM      7  C   UNL     1      -2.058  -9.360   3.336  1.00  0.00    -0.000 C 
BRANCH   7   8
ATOM      8  C   UNL     1      -0.623  -9.660   2.876  1.00  0.00    -0.003 C 
ATOM      9  C   UNL     1      -0.470 -11.124   2.477  1.00  0.00     0.004 C 
ENDBRANCH   7   8
ENDBRANCH   6   7
ENDBRANCH   1   6
TORSDOF 5
ENDMDL
MODEL 7
REMARK VINA RESULT:    -2.175      2.644      3.783
REMARK INTER + INTRA:          -3.036
REMARK INTER:                  -2.815
REMARK INTRA:                  -0.220
REMARK UNBOUND:                -0.226
REMARK SMILES CCCCCCC(=O)[O-]
REMARK SMILES IDX 5 1 6 2 7 3 8 4 9 5 4 6 3 7 2 8 1 9
REMARK H PARENT
REMARK Flexibility Score: inf
ROOT
ATOM      1  C   UNL     1      -4.697  -8.135   1.915  1.00  0.00     0.006 C 
ENDROOT
BRANCH   1   2
ATOM      2  C   UNL     1      -5.887  -9.062   1.611  1.00  0.00     0.053 C 
BRANCH   2   3
ATOM      3  C   UNL     1      -6.004  -9.394   0.154  1.00  0.00     0.041 C 
ATOM      4  O   UNL     1      -6.503  -8.564  -0.650  1.00  0.00    -0.550 OA
ATOM      5  O   UNL     1      -5.598 -10.640  -0.310  1.00  0.00    -0.550 OA
ENDBRANCH   2   3
ENDBRANCH   1   2
BRANCH   1   6
ATOM      6  C   UNL     1      -3.721  -8.691   2.970  1.00  0.00     0.000 C 
BRANCH   6   7
ATOM      7  C   UNL     1      -3.438 -10.200   2.872  1.00  0.00    -0.000 C 
BRANCH   7   8
ATOM      8  C   UNL     1      -1.939 -10.532   2.908  1.00  0.00    -0.003 C 
ATOM      9  C   UNL     1      -1.105  -9.275   3.136  1.00  0.00     0.004 C 
ENDBRANCH   7   8
ENDBRANCH   6   7
ENDBRANCH   1   6
TORSDOF 5
ENDMDL
MODEL 8
REMARK VINA RESULT:    -2.096      3.018      5.372
REMARK INTER + INTRA:          -2.934
REMARK INTER:                  -2.751
REMARK INTRA:                  -0.184
REMARK UNBOUND:                -0.226
REMARK SMILES CCCCCCC(=O)[O-]
REMARK SMILES IDX 5 1 6 2 7 3 8 4 9 5 4 6 3 7 2 8 1 9
REMARK H PARENT
REMARK Flexibility Score: inf
ROOT
ATOM      1  C   UNL     1      -4.090  -8.200   2.573  1.00  0.00     0.006 C 
ENDROOT
BRANCH   1   2
ATOM      2  C   UNL     1      -3.145  -9.373   2.888  1.00  0.00     0.053 C 
BRANCH   2   3
ATOM      3  C   UNL     1      -1.879  -8.932   3.559  1.00  0.00     0.041 C 
ATOM      4  O   UNL     1      -1.910  -8.446   4.719  1.00  0.00    -0.550 OA
ATOM      5  O   UNL     1      -0.667  -9.019   2.884  1.00  0.00    -0.550 OA
ENDBRANCH   2   3
ENDBRANCH   1   2
BRANCH   1   6
ATOM      6  C   UNL     1      -5.357  -8.605   1.796  1.00  0.00     0.000 C 
BRANCH   6   7
ATOM      7  C   UNL     1      -5.357 -10.041   1.245  1.00  0.00    -0.000 C 
BRANCH   7   8
ATOM      8  C   UNL     1      -5.898 -10.131  -0.190  1.00  0.00    -0.003 C 
ATOM      9  C   UNL     1      -6.614  -8.844  -0.589  1.00  0.00     0.004 C 
ENDBRANCH   7   8
ENDBRANCH   6   7
ENDBRANCH   1   6
TORSDOF 5
ENDMDL
MODEL 9
REMARK VINA RESULT:    -2.094      3.027      5.161
REMARK INTER + INTRA:          -2.931
REMARK INTER:                  -2.789
REMARK INTRA:                  -0.142
REMARK UNBOUND:                -0.226
REMARK SMILES CCCCCCC(=O)[O-]
REMARK SMILES IDX 5 1 6 2 7 3 8 4 9 5 4 6 3 7 2 8 1 9
REMARK H PARENT
REMARK Flexibility Score: inf
ROOT
ATOM      1  C   UNL     1      -3.447  -9.869   2.659  1.00  0.00     0.006 C 
ENDROOT
BRANCH   1   2
ATOM      2  C   UNL     1      -2.345  -9.841   3.734  1.00  0.00     0.053 C 
BRANCH   2   3
ATOM      3  C   UNL     1      -0.994  -9.520   3.168  1.00  0.00     0.041 C 
ATOM      4  O   UNL     1      -0.419 -10.332   2.398  1.00  0.00    -0.550 OA
ATOM      5  O   UNL     1      -0.353  -8.341   3.525  1.00  0.00    -0.550 OA
ENDBRANCH   2   3
ENDBRANCH   1   2
BRANCH   1   6
ATOM      6  C   UNL     1      -4.049  -8.486   2.340  1.00  0.00     0.000 C 
BRANCH   6   7
ATOM      7  C   UNL     1      -5.468  -8.510   1.747  1.00  0.00    -0.000 C 
BRANCH   7   8
ATOM      8  C   UNL     1      -5.579  -9.395   0.496  1.00  0.00    -0.003 C 
ATOM      9  C   UNL     1      -6.591  -8.823  -0.492  1.00  0.00     0.004 C 
ENDBRANCH   7   8
ENDBRANCH   6   7
ENDBRANCH   1   6
TORSDOF 5
ENDMDL
