MODEL 1
REMARK VINA RESULT:    -3.146      0.000      0.000
REMARK INTER + INTRA:          -4.505
REMARK INTER:                  -4.066
REMARK INTRA:                  -0.439
REMARK UNBOUND:                -0.439
REMARK SMILES CCCCCCC(=O)[O-]
REMARK SMILES IDX 5 1 6 2 7 3 8 4 9 5 4 6 3 7 2 8 1 9
REMARK H PARENT
REMARK Flexibility Score: inf
ROOT
ATOM      1  C   UNL     1       6.672   2.097  47.486  1.00  0.00     0.006 C 
ENDROOT
BRANCH   1   2
ATOM      2  C   UNL     1       5.578   3.112  47.844  1.00  0.00     0.053 C 
BRANCH   2   3
ATOM      3  C   UNL     1       6.130   4.275  48.609  1.00  0.00     0.041 C 
ATOM      4  O   UNL     1       7.103   4.932  48.152  1.00  0.00    -0.550 OA
ATOM      5  O   UNL     1       5.590   4.615  49.843  1.00  0.00    -0.550 OA
ENDBRANCH   2   3
ENDBRANCH   1   2
BRANCH   1   6
ATOM      6  C   UNL     1       6.999   1.157  48.654  1.00  0.00     0.000 C 
BRANCH   6   7
ATOM      7  C   UNL     1       5.717   0.678  49.351  1.00  0.00    -0.000 C 
BRANCH   7   8
ATOM      8  C   UNL     1       5.752   0.895  50.871  1.00  0.00    -0.003 C 
ATOM      9  C   UNL     1       6.961   1.713  51.324  1.00  0.00     0.004 C 
ENDBRANCH   7   8
ENDBRANCH   6   7
ENDBRANCH   1   6
TORSDOF 5
ENDMDL
MODEL 2
REMARK VINA RESULT:    -3.125      1.943      3.026
REMARK INTER + INTRA:          -4.477
REMARK INTER:                  -4.279
REMARK INTRA:                  -0.197
REMARK UNBOUND:                -0.439
REMARK SMILES CCCCCCC(=O)[O-]
REMARK SMILES IDX 5 1 6 2 7 3 8 4 9 5 4 6 3 7 2 8 1 9
REMARK H PARENT
REMARK Flexibility Score: inf
ROOT
ATOM      1  C   UNL     1       6.786   4.632  49.532  1.00  0.00     0.006 C 
ENDROOT
BRANCH   1   2
ATOM      2  C   UNL     1       7.157   5.430  48.276  1.00  0.00     0.053 C 
BRANCH   2   3
ATOM      3  C   UNL     1       7.548   6.837  48.609  1.00  0.00     0.041 C 
ATOM      4  O   UNL     1       7.567   7.721  47.711  1.00  0.00    -0.550 OA
ATOM      5  O   UNL     1       7.925   7.166  49.906  1.00  0.00    -0.550 OA
ENDBRANCH   2   3
ENDBRANCH   1   2
BRANCH   1   6
ATOM      6  C   UNL     1       5.662   3.619  49.268  1.00  0.00     0.000 C 
BRANCH   6   7
ATOM      7  C   UNL     1       5.720   3.098  47.824  1.00  0.00    -0.000 C 
BRANCH   7   8
ATOM      8  C   UNL     1       6.655   1.890  47.668  1.00  0.00    -0.003 C 
ATOM      9  C   UNL     1       6.650   0.976  48.894  1.00  0.00     0.004 C 
ENDBRANCH   7   8
ENDBRANCH   6   7
ENDBRANCH   1   6
TORSDOF 5
ENDMDL
MODEL 3
REMARK VINA RESULT:    -3.114      1.939      3.172
REMARK INTER + INTRA:          -4.463
REMARK INTER:                  -4.277
REMARK INTRA:                  -0.186
REMARK UNBOUND:                -0.439
REMARK SMILES CCCCCCC(=O)[O-]
REMARK SMILES IDX 5 1 6 2 7 3 8 4 9 5 4 6 3 7 2 8 1 9
REMARK H PARENT
REMARK Flexibility Score: inf
ROOT
ATOM      1  C   UNL     1       6.859   4.702  49.492  1.00  0.00     0.006 C 
ENDROOT
BRANCH   1   2
ATOM      2  C   UNL     1       7.196   5.453  48.197  1.00  0.00     0.053 C 
BRANCH   2   3
ATOM      3  C   UNL     1       7.673   6.846  48.473  1.00  0.00     0.041 C 
ATOM      4  O   UNL     1       8.012   7.183  49.639  1.00  0.00    -0.550 OA
ATOM      5  O   UNL     1       7.713   7.784  47.448  1.00  0.00    -0.550 OA
ENDBRANCH   2   3
ENDBRANCH   1   2
BRANCH   1   6
ATOM      6  C   UNL     1       5.738   3.672  49.292  1.00  0.00     0.000 C 
BRANCH   6   7
ATOM      7  C   UNL     1       5.759   3.106  47.864  1.00  0.00    -0.000 C 
BRANCH   7   8
ATOM      8  C   UNL     1       6.701   1.902  47.718  1.00  0.00    -0.003 C 
ATOM      9  C   UNL     1       6.813   1.079  49.002  1.00  0.00     0.004 C 
ENDBRANCH   7   8
ENDBRANCH   6   7
ENDBRANCH   1   6
TORSDOF 5
ENDMDL
MODEL 4
REMARK VINA RESULT:    -3.072      1.247      1.861
REMARK INTER + INTRA:          -4.409
REMARK INTER:                  -4.095
REMARK INTRA:                  -0.314
REMARK UNBOUND:                -0.439
REMARK SMILES CCCCCCC(=O)[O-]
REMARK SMILES IDX 5 1 6 2 7 3 8 4 9 5 4 6 3 7 2 8 1 9
REMARK H PARENT
REMARK Flexibility Score: inf
ROOT
ATOM      1  C   UNL     1       5.766   3.466  48.265  1.00  0.00     0.006 C 
ENDROOT
BRANCH   1   2
ATOM      2  C   UNL     1       6.739   4.642  48.416  1.00  0.00     0.053 C 
BRANCH   2   3
ATOM      3  C   UNL     1       7.039   4.931  49.855  1.00  0.00     0.041 C 
ATOM      4  O   UNL     1       7.154   6.121  50.254  1.00  0.00    -0.550 OA
ATOM      5  O   UNL     1       7.225   3.885  50.751  1.00  0.00    -0.550 OA
ENDBRANCH   2   3
ENDBRANCH   1   2
BRANCH   1   6
ATOM      6  C   UNL     1       6.381   2.298  47.480  1.00  0.00     0.000 C 
BRANCH   6   7
ATOM      7  C   UNL     1       7.002   1.263  48.431  1.00  0.00    -0.000 C 
BRANCH   7   8
ATOM      8  C   UNL     1       5.947   0.504  49.249  1.00  0.00    -0.003 C 
ATOM      9  C   UNL     1       6.293   0.430  50.736  1.00  0.00     0.004 C 
ENDBRANCH   7   8
ENDBRANCH   6   7
ENDBRANCH   1   6
TORSDOF 5
ENDMDL
MODEL 5
REMARK VINA RESULT:    -3.070      2.479      4.043
REMARK INTER + INTRA:          -4.406
REMARK INTER:                  -4.189
REMARK INTRA:                  -0.218
REMARK UNBOUND:                -0.439
REMARK SMILES CCCCCCC(=O)[O-]
REMARK SMILES IDX 5 1 6 2 7 3 8 4 9 5 4 6 3 7 2 8 1 9
REMARK H PARENT
REMARK Flexibility Score: inf
ROOT
ATOM      1  C   UNL     1       6.518   1.892  47.629  1.00  0.00     0.006 C 
ENDROOT
BRANCH   1   2
ATOM      2  C   UNL     1       6.868   1.208  48.957  1.00  0.00     0.053 C 
BRANCH   2   3
ATOM      3  C   UNL     1       5.772   0.296  49.417  1.00  0.00     0.041 C 
ATOM      4  O   UNL     1       5.568  -0.799  48.829  1.00  0.00    -0.550 OA
ATOM      5  O   UNL     1       4.954   0.672  50.476  1.00  0.00    -0.550 OA
ENDBRANCH   2   3
ENDBRANCH   1   2
BRANCH   1   6
ATOM      6  C   UNL     1       5.691   3.170  47.833  1.00  0.00     0.000 C 
BRANCH   6   7
ATOM      7  C   UNL     1       6.305   4.052  48.931  1.00  0.00    -0.000 C 
BRANCH   7   8
ATOM      8  C   UNL     1       7.076   5.253  48.363  1.00  0.00    -0.003 C 
ATOM      9  C   UNL     1       7.086   6.452  49.311  1.00  0.00     0.004 C 
ENDBRANCH   7   8
ENDBRANCH   6   7
ENDBRANCH   1   6
TORSDOF 5
ENDMDL
MODEL 6
REMARK VINA RESULT:    -3.033      2.803      4.708
REMARK INTER + INTRA:          -4.358
REMARK INTER:                  -4.198
REMARK INTRA:                  -0.160
REMARK UNBOUND:                -0.439
REMARK SMILES CCCCCCC(=O)[O-]
REMARK SMILES IDX 5 1 6 2 7 3 8 4 9 5 4 6 3 7 2 8 1 9
REMARK H PARENT
REMARK Flexibility Score: inf
ROOT
ATOM      1  C   UNL     1       6.724   4.500  48.272  1.00  0.00     0.006 C 
ENDROOT
BRANCH   1   2
ATOM      2  C   UNL     1       5.765   3.305  48.330  1.00  0.00     0.053 C 
BRANCH   2   3
ATOM      3  C   UNL     1       6.417   2.047  47.843  1.00  0.00     0.041 C 
ATOM      4  O   UNL     1       6.956   2.010  46.705  1.00  0.00    -0.550 OA
ATOM      5  O   UNL     1       6.402   0.904  48.634  1.00  0.00    -0.550 OA
ENDBRANCH   2   3
ENDBRANCH   1   2
BRANCH   1   6
ATOM      6  C   UNL     1       6.773   5.273  49.597  1.00  0.00     0.000 C 
BRANCH   6   7
ATOM      7  C   UNL     1       7.554   6.587  49.439  1.00  0.00    -0.000 C 
BRANCH   7   8
ATOM      8  C   UNL     1       7.875   6.912  47.973  1.00  0.00    -0.003 C 
ATOM      9  C   UNL     1       8.979   7.960  47.827  1.00  0.00     0.004 C 
ENDBRANCH   7   8
ENDBRANCH   6   7
ENDBRANCH   1   6
TORSDOF 5
ENDMDL
MODEL 7
REMARK VINA RESULT:    -3.015      2.474      3.656
REMARK INTER + INTRA:          -4.335
REMARK INTER:                  -4.010
REMARK INTRA:                  -0.325
REMARK UNBOUND:                -0.439
REMARK SMILES CCCCCCC(=O)[O-]
REMARK SMILES IDX 5 1 6 2 7 3 8 4 9 5 4 6 3 7 2 8 1 9
REMARK H PARENT
REMARK Flexibility Score: inf
ROOT
ATOM      1  C   UNL     1       5.829   3.113  47.899  1.00  0.00     0.006 C 
ENDROOT
BRANCH   1   2
ATOM      2  C   UNL     1       6.691   1.850  47.781  1.00  0.00     0.053 C 
BRANCH   2   3
ATOM      3  C   UNL     1       6.537   0.960  48.976  1.00  0.00     0.041 C 
ATOM      4  O   UNL     1       7.032   1.295  50.085  1.00  0.00    -0.550 OA
ATOM      5  O   UNL     1       5.875  -0.256  48.858  1.00  0.00    -0.550 OA
ENDBRANCH   2   3
ENDBRANCH   1   2
BRANCH   1   6
ATOM      6  C   UNL     1       6.637   4.327  48.381  1.00  0.00     0.000 C 
BRANCH   6   7
ATOM      7  C   UNL     1       6.056   4.890  49.688  1.00  0.00    -0.000 C 
BRANCH   7   8
ATOM      8  C   UNL     1       4.811   4.125  50.160  1.00  0.00    -0.003 C 
ATOM      9  C   UNL     1       3.675   5.053  50.591  1.00  0.00     0.004 C 
ENDBRANCH   7   8
ENDBRANCH   6   7
ENDBRANCH   1   6
TORSDOF 5
ENDMDL
MODEL 8
REMARK VINA RESULT:    -2.996      2.199      3.623
REMARK INTER + INTRA:          -4.311
REMARK INTER:                  -3.960
REMARK INTRA:                  -0.351
REMARK UNBOUND:                -0.439
REMARK SMILES CCCCCCC(=O)[O-]
REMARK SMILES IDX 5 1 6 2 7 3 8 4 9 5 4 6 3 7 2 8 1 9
REMARK H PARENT
REMARK Flexibility Score: inf
ROOT
ATOM      1  C   UNL     1       6.839   1.200  48.417  1.00  0.00     0.006 C 
ENDROOT
BRANCH   1   2
ATOM      2  C   UNL     1       5.834   1.050  49.565  1.00  0.00     0.053 C 
BRANCH   2   3
ATOM      3  C   UNL     1       6.518   0.988  50.897  1.00  0.00     0.041 C 
ATOM      4  O   UNL     1       7.236   1.947  51.286  1.00  0.00    -0.550 OA
ATOM      5  O   UNL     1       6.389  -0.143  51.694  1.00  0.00    -0.550 OA
ENDBRANCH   2   3
ENDBRANCH   1   2
BRANCH   1   6
ATOM      6  C   UNL     1       6.459   2.334  47.454  1.00  0.00     0.000 C 
BRANCH   6   7
ATOM      7  C   UNL     1       5.823   3.509  48.212  1.00  0.00    -0.000 C 
BRANCH   7   8
ATOM      8  C   UNL     1       6.797   4.680  48.413  1.00  0.00    -0.003 C 
ATOM      9  C   UNL     1       6.913   5.109  49.875  1.00  0.00     0.004 C 
ENDBRANCH   7   8
ENDBRANCH   6   7
ENDBRANCH   1   6
TORSDOF 5
ENDMDL
MODEL 9
REMARK VINA RESULT:    -2.996      2.670      3.500
REMARK INTER + INTRA:          -4.310
REMARK INTER:                  -3.833
REMARK INTRA:                  -0.477
REMARK UNBOUND:                -0.439
REMARK SMILES CCCCCCC(=O)[O-]
REMARK SMILES IDX 5 1 6 2 7 3 8 4 9 5 4 6 3 7 2 8 1 9
REMARK H PARENT
REMARK Flexibility Score: inf
ROOT
ATOM      1  C   UNL     1       6.463   3.038  48.242  1.00  0.00     0.006 C 
ENDROOT
BRANCH   1   2
ATOM      2  C   UNL     1       6.838   1.575  47.978  1.00  0.00     0.053 C 
BRANCH   2   3
ATOM      3  C   UNL     1       6.468   0.691  49.130  1.00  0.00     0.041 C 
ATOM      4  O   UNL     1       5.798  -0.358  48.936  1.00  0.00    -0.550 OA
ATOM      5  O   UNL     1       6.835   1.043  50.424  1.00  0.00    -0.550 OA
ENDBRANCH   2   3
ENDBRANCH   1   2
BRANCH   1   6
ATOM      6  C   UNL     1       4.945   3.239  48.355  1.00  0.00     0.000 C 
BRANCH   6   7
ATOM      7  C   UNL     1       4.577   3.908  49.688  1.00  0.00    -0.000 C 
BRANCH   7   8
ATOM      8  C   UNL     1       3.785   2.976  50.618  1.00  0.00    -0.003 C 
ATOM      9  C   UNL     1       3.002   1.906  49.857  1.00  0.00     0.004 C 
ENDBRANCH   7   8
ENDBRANCH   6   7
ENDBRANCH   1   6
TORSDOF 5
ENDMDL
