MODEL 1
REMARK VINA RESULT:    -5.546      0.000      0.000
REMARK INTER + INTRA:          -7.419
REMARK INTER:                  -6.843
REMARK INTRA:                  -0.576
REMARK UNBOUND:                -0.576
REMARK SMILES COc1ccc(-c2cc3cc(O)c(OC)cc3o2)c(O)c1
REMARK SMILES IDX 7 1 8 2 9 3 10 4 11 5 13 6 16 7 17 8 18 9 6 10 3 11 21 12
REMARK SMILES IDX 4 13 19 14 5 15 2 16 1 17 20 18 12 20 14 22 15 23
REMARK H PARENT 20 19 12 21
REMARK Flexibility Score: inf
ROOT
ATOM      1  C   UNL     1     125.701 131.735 134.780  1.00  0.00     0.139 A 
ATOM      2  C   UNL     1     125.680 132.405 136.007  1.00  0.00     0.060 A 
ATOM      3  C   UNL     1     126.459 133.520 135.803  1.00  0.00     0.025 A 
ATOM      4  C   UNL     1     126.798 134.562 136.658  1.00  0.00     0.062 A 
ATOM      5  C   UNL     1     127.620 135.589 136.158  1.00  0.00     0.158 A 
ATOM      6  C   UNL     1     128.082 135.550 134.812  1.00  0.00     0.164 A 
ATOM      7  C   UNL     1     127.708 134.469 133.975  1.00  0.00     0.098 A 
ATOM      8  C   UNL     1     126.893 133.475 134.509  1.00  0.00     0.138 A 
ATOM      9  O   UNL     1     126.433 132.408 133.908  1.00  0.00    -0.456 OA
ENDROOT
BRANCH   1  10
ATOM     10  C   UNL     1     125.001 130.474 134.442  1.00  0.00     0.059 A 
ATOM     11  C   UNL     1     123.656 128.047 133.909  1.00  0.00     0.122 A 
ATOM     12  C   UNL     1     124.194 128.808 132.855  1.00  0.00     0.093 A 
ATOM     13  C   UNL     1     123.784 128.513 135.219  1.00  0.00     0.047 A 
ATOM     14  C   UNL     1     124.854 130.019 133.112  1.00  0.00     0.130 A 
ATOM     15  C   UNL     1     124.445 129.714 135.484  1.00  0.00     0.020 A 
BRANCH  11  16
ATOM     16  O   UNL     1     122.988 126.832 133.696  1.00  0.00    -0.497 OA
ATOM     17  C   UNL     1     123.445 125.568 134.168  1.00  0.00     0.278 C 
ENDBRANCH  11  16
BRANCH  14  18
ATOM     18  O   UNL     1     125.336 130.775 132.044  1.00  0.00    -0.507 OA
ATOM     19  H   UNL     1     125.036 131.730 131.887  1.00  0.00     0.293 HD
ENDBRANCH  14  18
ENDBRANCH   1  10
BRANCH   5  20
ATOM     20  O   UNL     1     127.970 136.639 137.005  1.00  0.00    -0.504 OA
ATOM     21  H   UNL     1     127.937 137.607 136.706  1.00  0.00     0.293 HD
ENDBRANCH   5  20
BRANCH   6  22
ATOM     22  O   UNL     1     128.901 136.593 134.349  1.00  0.00    -0.493 OA
ATOM     23  C   UNL     1     130.086 136.405 133.583  1.00  0.00     0.278 C 
ENDBRANCH   6  22
TORSDOF 5
ENDMDL
MODEL 2
REMARK VINA RESULT:    -5.283     12.186     15.170
REMARK INTER + INTRA:          -7.094
REMARK INTER:                  -6.486
REMARK INTRA:                  -0.608
REMARK UNBOUND:                -0.576
REMARK SMILES COc1ccc(-c2cc3cc(O)c(OC)cc3o2)c(O)c1
REMARK SMILES IDX 7 1 8 2 9 3 10 4 11 5 13 6 16 7 17 8 18 9 6 10 3 11 21 12
REMARK SMILES IDX 4 13 19 14 5 15 2 16 1 17 20 18 12 20 14 22 15 23
REMARK H PARENT 20 19 12 21
REMARK Flexibility Score: inf
ROOT
ATOM      1  C   UNL     1     128.572 120.166 139.881  1.00  0.00     0.139 A 
ATOM      2  C   UNL     1     128.030 119.737 141.097  1.00  0.00     0.060 A 
ATOM      3  C   UNL     1     126.934 118.988 140.739  1.00  0.00     0.025 A 
ATOM      4  C   UNL     1     126.008 118.300 141.516  1.00  0.00     0.062 A 
ATOM      5  C   UNL     1     124.978 117.602 140.857  1.00  0.00     0.158 A 
ATOM      6  C   UNL     1     124.901 117.606 139.436  1.00  0.00     0.164 A 
ATOM      7  C   UNL     1     125.869 118.318 138.684  1.00  0.00     0.098 A 
ATOM      8  C   UNL     1     126.870 118.994 139.375  1.00  0.00     0.138 A 
ATOM      9  O   UNL     1     127.854 119.697 138.874  1.00  0.00    -0.456 OA
ENDROOT
BRANCH   1  10
ATOM     10  C   UNL     1     129.786 120.994 139.690  1.00  0.00     0.059 A 
ATOM     11  C   UNL     1     132.073 122.629 139.421  1.00  0.00     0.122 A 
ATOM     12  C   UNL     1     131.717 121.732 138.398  1.00  0.00     0.093 A 
ATOM     13  C   UNL     1     131.290 122.691 140.575  1.00  0.00     0.047 A 
ATOM     14  C   UNL     1     130.588 120.909 138.529  1.00  0.00     0.130 A 
ATOM     15  C   UNL     1     130.161 121.881 140.712  1.00  0.00     0.020 A 
BRANCH  11  16
ATOM     16  O   UNL     1     133.195 123.467 139.331  1.00  0.00    -0.497 OA
ATOM     17  C   UNL     1     133.379 124.652 140.100  1.00  0.00     0.278 C 
ENDBRANCH  11  16
BRANCH  14  18
ATOM     18  O   UNL     1     130.285 119.997 137.519  1.00  0.00    -0.507 OA
ATOM     19  H   UNL     1     130.798 119.130 137.411  1.00  0.00     0.293 HD
ENDBRANCH  14  18
ENDBRANCH   1  10
BRANCH   5  20
ATOM     20  O   UNL     1     124.042 116.911 141.624  1.00  0.00    -0.504 OA
ATOM     21  H   UNL     1     124.001 115.898 141.641  1.00  0.00     0.293 HD
ENDBRANCH   5  20
BRANCH   6  22
ATOM     22  O   UNL     1     123.859 116.898 138.816  1.00  0.00    -0.493 OA
ATOM     23  C   UNL     1     122.894 117.483 137.948  1.00  0.00     0.278 C 
ENDBRANCH   6  22
TORSDOF 5
ENDMDL
MODEL 3
REMARK VINA RESULT:    -5.228     10.246     11.932
REMARK INTER + INTRA:          -7.026
REMARK INTER:                  -6.419
REMARK INTRA:                  -0.607
REMARK UNBOUND:                -0.576
REMARK SMILES COc1ccc(-c2cc3cc(O)c(OC)cc3o2)c(O)c1
REMARK SMILES IDX 7 1 8 2 9 3 10 4 11 5 13 6 16 7 17 8 18 9 6 10 3 11 21 12
REMARK SMILES IDX 4 13 19 14 5 15 2 16 1 17 20 18 12 20 14 22 15 23
REMARK H PARENT 20 19 12 21
REMARK Flexibility Score: inf
ROOT
ATOM      1  C   UNL     1     126.372 121.860 137.475  1.00  0.00     0.139 A 
ATOM      2  C   UNL     1     126.862 122.622 138.539  1.00  0.00     0.060 A 
ATOM      3  C   UNL     1     127.921 121.892 139.026  1.00  0.00     0.025 A 
ATOM      4  C   UNL     1     128.799 122.149 140.073  1.00  0.00     0.062 A 
ATOM      5  C   UNL     1     129.809 121.204 140.338  1.00  0.00     0.158 A 
ATOM      6  C   UNL     1     129.918 120.026 139.546  1.00  0.00     0.164 A 
ATOM      7  C   UNL     1     129.003 119.808 138.486  1.00  0.00     0.098 A 
ATOM      8  C   UNL     1     128.020 120.767 138.258  1.00  0.00     0.138 A 
ATOM      9  O   UNL     1     127.093 120.760 137.334  1.00  0.00    -0.456 OA
ENDROOT
BRANCH   1  10
ATOM     10  C   UNL     1     125.238 122.200 136.583  1.00  0.00     0.059 A 
ATOM     11  C   UNL     1     123.017 122.879 134.976  1.00  0.00     0.122 A 
ATOM     12  C   UNL     1     124.142 122.256 134.407  1.00  0.00     0.093 A 
ATOM     13  C   UNL     1     123.018 123.169 136.342  1.00  0.00     0.047 A 
ATOM     14  C   UNL     1     125.253 121.926 135.197  1.00  0.00     0.130 A 
ATOM     15  C   UNL     1     124.116 122.838 137.138  1.00  0.00     0.020 A 
BRANCH  11  16
ATOM     16  O   UNL     1     121.886 123.228 134.222  1.00  0.00    -0.497 OA
ATOM     17  C   UNL     1     121.875 123.367 132.805  1.00  0.00     0.278 C 
ENDBRANCH  11  16
BRANCH  14  18
ATOM     18  O   UNL     1     126.372 121.351 134.597  1.00  0.00    -0.507 OA
ATOM     19  H   UNL     1     127.058 120.831 135.132  1.00  0.00     0.293 HD
ENDBRANCH  14  18
ENDBRANCH   1  10
BRANCH   5  20
ATOM     20  O   UNL     1     130.694 121.448 141.386  1.00  0.00    -0.504 OA
ATOM     21  H   UNL     1     130.492 122.120 142.117  1.00  0.00     0.293 HD
ENDBRANCH   5  20
BRANCH   6  22
ATOM     22  O   UNL     1     130.938 119.107 139.841  1.00  0.00    -0.493 OA
ATOM     23  C   UNL     1     130.741 117.705 139.982  1.00  0.00     0.278 C 
ENDBRANCH   6  22
TORSDOF 5
ENDMDL
MODEL 4
REMARK VINA RESULT:    -5.135      2.139      3.135
REMARK INTER + INTRA:          -6.912
REMARK INTER:                  -6.309
REMARK INTRA:                  -0.603
REMARK UNBOUND:                -0.576
REMARK SMILES COc1ccc(-c2cc3cc(O)c(OC)cc3o2)c(O)c1
REMARK SMILES IDX 7 1 8 2 9 3 10 4 11 5 13 6 16 7 17 8 18 9 6 10 3 11 21 12
REMARK SMILES IDX 4 13 19 14 5 15 2 16 1 17 20 18 12 20 14 22 15 23
REMARK H PARENT 20 19 12 21
REMARK Flexibility Score: inf
ROOT
ATOM      1  C   UNL     1     125.765 132.398 134.392  1.00  0.00     0.139 A 
ATOM      2  C   UNL     1     125.131 133.037 133.321  1.00  0.00     0.060 A 
ATOM      3  C   UNL     1     126.008 134.028 132.945  1.00  0.00     0.025 A 
ATOM      4  C   UNL     1     125.927 134.979 131.934  1.00  0.00     0.062 A 
ATOM      5  C   UNL     1     127.002 135.875 131.780  1.00  0.00     0.158 A 
ATOM      6  C   UNL     1     128.134 135.796 132.640  1.00  0.00     0.164 A 
ATOM      7  C   UNL     1     128.174 134.807 133.654  1.00  0.00     0.098 A 
ATOM      8  C   UNL     1     127.091 133.941 133.772  1.00  0.00     0.138 A 
ATOM      9  O   UNL     1     126.937 132.964 134.629  1.00  0.00    -0.456 OA
ENDROOT
BRANCH   1  10
ATOM     10  C   UNL     1     125.260 131.236 135.160  1.00  0.00     0.059 A 
ATOM     11  C   UNL     1     124.243 128.986 136.532  1.00  0.00     0.122 A 
ATOM     12  C   UNL     1     124.960 129.977 137.226  1.00  0.00     0.093 A 
ATOM     13  C   UNL     1     124.052 129.123 135.156  1.00  0.00     0.047 A 
ATOM     14  C   UNL     1     125.478 131.092 136.549  1.00  0.00     0.130 A 
ATOM     15  C   UNL     1     124.557 130.232 134.475  1.00  0.00     0.020 A 
BRANCH  11  16
ATOM     16  O   UNL     1     123.711 127.855 137.170  1.00  0.00    -0.497 OA
ATOM     17  C   UNL     1     123.506 126.596 136.538  1.00  0.00     0.278 C 
ENDBRANCH  11  16
BRANCH  14  18
ATOM     18  O   UNL     1     126.224 132.034 137.255  1.00  0.00    -0.507 OA
ATOM     19  H   UNL     1     125.785 132.804 137.747  1.00  0.00     0.293 HD
ENDBRANCH  14  18
ENDBRANCH   1  10
BRANCH   5  20
ATOM     20  O   UNL     1     126.933 136.835 130.772  1.00  0.00    -0.504 OA
ATOM     21  H   UNL     1     127.397 137.732 130.850  1.00  0.00     0.293 HD
ENDBRANCH   5  20
BRANCH   6  22
ATOM     22  O   UNL     1     129.186 136.707 132.454  1.00  0.00    -0.493 OA
ATOM     23  C   UNL     1     130.347 136.772 133.275  1.00  0.00     0.278 C 
ENDBRANCH   6  22
TORSDOF 5
ENDMDL
MODEL 5
REMARK VINA RESULT:    -5.059      2.288      7.538
REMARK INTER + INTRA:          -6.817
REMARK INTER:                  -6.242
REMARK INTRA:                  -0.575
REMARK UNBOUND:                -0.576
REMARK SMILES COc1ccc(-c2cc3cc(O)c(OC)cc3o2)c(O)c1
REMARK SMILES IDX 7 1 8 2 9 3 10 4 11 5 13 6 16 7 17 8 18 9 6 10 3 11 21 12
REMARK SMILES IDX 4 13 19 14 5 15 2 16 1 17 20 18 12 20 14 22 15 23
REMARK H PARENT 20 19 12 21
REMARK Flexibility Score: inf
ROOT
ATOM      1  C   UNL     1     126.417 132.595 134.512  1.00  0.00     0.139 A 
ATOM      2  C   UNL     1     125.414 131.897 133.832  1.00  0.00     0.060 A 
ATOM      3  C   UNL     1     124.984 130.950 134.731  1.00  0.00     0.025 A 
ATOM      4  C   UNL     1     124.000 129.974 134.625  1.00  0.00     0.062 A 
ATOM      5  C   UNL     1     123.773 129.138 135.734  1.00  0.00     0.158 A 
ATOM      6  C   UNL     1     124.533 129.301 136.926  1.00  0.00     0.164 A 
ATOM      7  C   UNL     1     125.524 130.313 136.991  1.00  0.00     0.098 A 
ATOM      8  C   UNL     1     125.716 131.117 135.872  1.00  0.00     0.138 A 
ATOM      9  O   UNL     1     126.566 132.103 135.731  1.00  0.00    -0.456 OA
ENDROOT
BRANCH   1  10
ATOM     10  C   UNL     1     127.204 133.743 134.004  1.00  0.00     0.059 A 
ATOM     11  C   UNL     1     128.608 135.981 133.003  1.00  0.00     0.122 A 
ATOM     12  C   UNL     1     129.308 134.856 133.475  1.00  0.00     0.093 A 
ATOM     13  C   UNL     1     127.213 135.981 133.047  1.00  0.00     0.047 A 
ATOM     14  C   UNL     1     128.617 133.745 133.984  1.00  0.00     0.130 A 
ATOM     15  C   UNL     1     126.517 134.879 133.545  1.00  0.00     0.020 A 
BRANCH  11  16
ATOM     16  O   UNL     1     129.259 137.112 132.488  1.00  0.00    -0.497 OA
ATOM     17  C   UNL     1     130.606 137.125 132.026  1.00  0.00     0.278 C 
ENDBRANCH  11  16
BRANCH  14  18
ATOM     18  O   UNL     1     129.339 132.664 134.488  1.00  0.00    -0.507 OA
ATOM     19  H   UNL     1     129.661 131.912 133.890  1.00  0.00     0.293 HD
ENDBRANCH  14  18
ENDBRANCH   1  10
BRANCH   5  20
ATOM     20  O   UNL     1     122.791 128.153 135.640  1.00  0.00    -0.504 OA
ATOM     21  H   UNL     1     122.794 127.330 136.230  1.00  0.00     0.293 HD
ENDBRANCH   5  20
BRANCH   6  22
ATOM     22  O   UNL     1     124.277 128.448 138.012  1.00  0.00    -0.493 OA
ATOM     23  C   UNL     1     124.730 128.680 139.341  1.00  0.00     0.278 C 
ENDBRANCH   6  22
TORSDOF 5
ENDMDL
MODEL 6
REMARK VINA RESULT:    -5.029      2.130      7.883
REMARK INTER + INTRA:          -6.781
REMARK INTER:                  -6.183
REMARK INTRA:                  -0.598
REMARK UNBOUND:                -0.576
REMARK SMILES COc1ccc(-c2cc3cc(O)c(OC)cc3o2)c(O)c1
REMARK SMILES IDX 7 1 8 2 9 3 10 4 11 5 13 6 16 7 17 8 18 9 6 10 3 11 21 12
REMARK SMILES IDX 4 13 19 14 5 15 2 16 1 17 20 18 12 20 14 22 15 23
REMARK H PARENT 20 19 12 21
REMARK Flexibility Score: inf
ROOT
ATOM      1  C   UNL     1     125.724 131.826 135.785  1.00  0.00     0.139 A 
ATOM      2  C   UNL     1     124.891 131.103 134.925  1.00  0.00     0.060 A 
ATOM      3  C   UNL     1     124.592 129.956 135.622  1.00  0.00     0.025 A 
ATOM      4  C   UNL     1     123.799 128.865 135.282  1.00  0.00     0.062 A 
ATOM      5  C   UNL     1     123.671 127.822 136.218  1.00  0.00     0.158 A 
ATOM      6  C   UNL     1     124.335 127.897 137.474  1.00  0.00     0.164 A 
ATOM      7  C   UNL     1     125.130 129.030 137.780  1.00  0.00     0.098 A 
ATOM      8  C   UNL     1     125.231 130.038 136.826  1.00  0.00     0.138 A 
ATOM      9  O   UNL     1     125.900 131.159 136.914  1.00  0.00    -0.456 OA
ENDROOT
BRANCH   1  10
ATOM     10  C   UNL     1     126.322 133.159 135.534  1.00  0.00     0.059 A 
ATOM     11  C   UNL     1     127.518 135.654 134.966  1.00  0.00     0.122 A 
ATOM     12  C   UNL     1     126.744 135.485 136.128  1.00  0.00     0.093 A 
ATOM     13  C   UNL     1     127.677 134.577 134.092  1.00  0.00     0.047 A 
ATOM     14  C   UNL     1     126.138 134.251 136.411  1.00  0.00     0.130 A 
ATOM     15  C   UNL     1     127.084 133.344 134.368  1.00  0.00     0.020 A 
BRANCH  11  16
ATOM     16  O   UNL     1     128.140 136.871 134.646  1.00  0.00    -0.497 OA
ATOM     17  C   UNL     1     129.274 136.995 133.794  1.00  0.00     0.278 C 
ENDBRANCH  11  16
BRANCH  14  18
ATOM     18  O   UNL     1     125.338 134.126 137.546  1.00  0.00    -0.507 OA
ATOM     19  H   UNL     1     124.327 134.150 137.492  1.00  0.00     0.293 HD
ENDBRANCH  14  18
ENDBRANCH   1  10
BRANCH   5  20
ATOM     20  O   UNL     1     122.881 126.722 135.889  1.00  0.00    -0.504 OA
ATOM     21  H   UNL     1     122.723 125.959 136.536  1.00  0.00     0.293 HD
ENDBRANCH   5  20
BRANCH   6  22
ATOM     22  O   UNL     1     124.182 126.836 138.382  1.00  0.00    -0.493 OA
ATOM     23  C   UNL     1     125.247 126.009 138.839  1.00  0.00     0.278 C 
ENDBRANCH   6  22
TORSDOF 5
ENDMDL
MODEL 7
REMARK VINA RESULT:    -5.012      7.085     11.321
REMARK INTER + INTRA:          -6.760
REMARK INTER:                  -6.145
REMARK INTRA:                  -0.615
REMARK UNBOUND:                -0.576
REMARK SMILES COc1ccc(-c2cc3cc(O)c(OC)cc3o2)c(O)c1
REMARK SMILES IDX 7 1 8 2 9 3 10 4 11 5 13 6 16 7 17 8 18 9 6 10 3 11 21 12
REMARK SMILES IDX 4 13 19 14 5 15 2 16 1 17 20 18 12 20 14 22 15 23
REMARK H PARENT 20 19 12 21
REMARK Flexibility Score: inf
ROOT
ATOM      1  C   UNL     1     126.768 122.008 137.538  1.00  0.00     0.139 A 
ATOM      2  C   UNL     1     126.707 122.066 136.143  1.00  0.00     0.060 A 
ATOM      3  C   UNL     1     125.807 123.072 135.880  1.00  0.00     0.025 A 
ATOM      4  C   UNL     1     125.348 123.591 134.674  1.00  0.00     0.062 A 
ATOM      5  C   UNL     1     124.416 124.645 134.718  1.00  0.00     0.158 A 
ATOM      6  C   UNL     1     123.968 125.158 135.968  1.00  0.00     0.164 A 
ATOM      7  C   UNL     1     124.466 124.601 137.172  1.00  0.00     0.098 A 
ATOM      8  C   UNL     1     125.386 123.560 137.084  1.00  0.00     0.138 A 
ATOM      9  O   UNL     1     125.968 122.920 138.066  1.00  0.00    -0.456 OA
ENDROOT
BRANCH   1  10
ATOM     10  C   UNL     1     127.609 121.103 138.356  1.00  0.00     0.059 A 
ATOM     11  C   UNL     1     129.172 119.290 139.856  1.00  0.00     0.122 A 
ATOM     12  C   UNL     1     129.120 120.648 140.215  1.00  0.00     0.093 A 
ATOM     13  C   UNL     1     128.451 118.852 138.743  1.00  0.00     0.047 A 
ATOM     14  C   UNL     1     128.354 121.557 139.468  1.00  0.00     0.130 A 
ATOM     15  C   UNL     1     127.682 119.747 137.998  1.00  0.00     0.020 A 
BRANCH  11  16
ATOM     16  O   UNL     1     129.926 118.349 140.574  1.00  0.00    -0.497 OA
ATOM     17  C   UNL     1     130.955 117.543 140.010  1.00  0.00     0.278 C 
ENDBRANCH  11  16
BRANCH  14  18
ATOM     18  O   UNL     1     128.359 122.906 139.820  1.00  0.00    -0.507 OA
ATOM     19  H   UNL     1     128.170 123.635 139.142  1.00  0.00     0.293 HD
ENDBRANCH  14  18
ENDBRANCH   1  10
BRANCH   5  20
ATOM     20  O   UNL     1     123.945 125.172 133.517  1.00  0.00    -0.504 OA
ATOM     21  H   UNL     1     123.236 125.895 133.487  1.00  0.00     0.293 HD
ENDBRANCH   5  20
BRANCH   6  22
ATOM     22  O   UNL     1     123.037 126.209 135.971  1.00  0.00    -0.493 OA
ATOM     23  C   UNL     1     123.379 127.585 136.107  1.00  0.00     0.278 C 
ENDBRANCH   6  22
TORSDOF 5
ENDMDL
MODEL 8
REMARK VINA RESULT:    -4.967      1.331      1.906
REMARK INTER + INTRA:          -6.704
REMARK INTER:                  -6.505
REMARK INTRA:                  -0.199
REMARK UNBOUND:                -0.576
REMARK SMILES COc1ccc(-c2cc3cc(O)c(OC)cc3o2)c(O)c1
REMARK SMILES IDX 7 1 8 2 9 3 10 4 11 5 13 6 16 7 17 8 18 9 6 10 3 11 21 12
REMARK SMILES IDX 4 13 19 14 5 15 2 16 1 17 20 18 12 20 14 22 15 23
REMARK H PARENT 20 19 12 21
REMARK Flexibility Score: inf
ROOT
ATOM      1  C   UNL     1     125.799 131.872 135.468  1.00  0.00     0.139 A 
ATOM      2  C   UNL     1     125.614 132.976 136.306  1.00  0.00     0.060 A 
ATOM      3  C   UNL     1     126.579 133.872 135.910  1.00  0.00     0.025 A 
ATOM      4  C   UNL     1     126.878 135.150 136.371  1.00  0.00     0.062 A 
ATOM      5  C   UNL     1     127.936 135.845 135.756  1.00  0.00     0.158 A 
ATOM      6  C   UNL     1     128.668 135.247 134.691  1.00  0.00     0.164 A 
ATOM      7  C   UNL     1     128.325 133.944 134.251  1.00  0.00     0.098 A 
ATOM      8  C   UNL     1     127.272 133.292 134.887  1.00  0.00     0.138 A 
ATOM      9  O   UNL     1     126.796 132.100 134.629  1.00  0.00    -0.456 OA
ENDROOT
BRANCH   1  10
ATOM     10  C   UNL     1     125.005 130.621 135.455  1.00  0.00     0.059 A 
ATOM     11  C   UNL     1     123.469 128.254 135.318  1.00  0.00     0.122 A 
ATOM     12  C   UNL     1     123.966 128.708 136.553  1.00  0.00     0.093 A 
ATOM     13  C   UNL     1     123.755 128.981 134.161  1.00  0.00     0.047 A 
ATOM     14  C   UNL     1     124.739 129.877 136.627  1.00  0.00     0.130 A 
ATOM     15  C   UNL     1     124.517 130.148 134.225  1.00  0.00     0.020 A 
BRANCH  11  16
ATOM     16  O   UNL     1     122.694 127.090 135.201  1.00  0.00    -0.497 OA
ATOM     17  C   UNL     1     122.944 126.048 134.263  1.00  0.00     0.278 C 
ENDBRANCH  11  16
BRANCH  14  18
ATOM     18  O   UNL     1     125.258 130.278 137.857  1.00  0.00    -0.507 OA
ATOM     19  H   UNL     1     124.708 130.813 138.519  1.00  0.00     0.293 HD
ENDBRANCH  14  18
ENDBRANCH   1  10
BRANCH   5  20
ATOM     20  O   UNL     1     128.249 137.125 136.209  1.00  0.00    -0.504 OA
ATOM     21  H   UNL     1     128.098 137.950 135.641  1.00  0.00     0.293 HD
ENDBRANCH   5  20
BRANCH   6  22
ATOM     22  O   UNL     1     129.717 135.972 134.102  1.00  0.00    -0.493 OA
ATOM     23  C   UNL     1     129.579 136.789 132.945  1.00  0.00     0.278 C 
ENDBRANCH   6  22
TORSDOF 5
ENDMDL
MODEL 9
REMARK VINA RESULT:    -4.808      1.709      8.084
REMARK INTER + INTRA:          -6.508
REMARK INTER:                  -5.931
REMARK INTRA:                  -0.577
REMARK UNBOUND:                -0.576
REMARK SMILES COc1ccc(-c2cc3cc(O)c(OC)cc3o2)c(O)c1
REMARK SMILES IDX 7 1 8 2 9 3 10 4 11 5 13 6 16 7 17 8 18 9 6 10 3 11 21 12
REMARK SMILES IDX 4 13 19 14 5 15 2 16 1 17 20 18 12 20 14 22 15 23
REMARK H PARENT 20 19 12 21
REMARK Flexibility Score: inf
ROOT
ATOM      1  C   UNL     1     125.090 131.090 134.691  1.00  0.00     0.139 A 
ATOM      2  C   UNL     1     124.831 130.399 133.503  1.00  0.00     0.060 A 
ATOM      3  C   UNL     1     124.231 129.231 133.908  1.00  0.00     0.025 A 
ATOM      4  C   UNL     1     123.743 128.155 133.173  1.00  0.00     0.062 A 
ATOM      5  C   UNL     1     123.163 127.082 133.876  1.00  0.00     0.158 A 
ATOM      6  C   UNL     1     123.081 127.112 135.296  1.00  0.00     0.164 A 
ATOM      7  C   UNL     1     123.588 128.231 136.003  1.00  0.00     0.098 A 
ATOM      8  C   UNL     1     124.153 129.270 135.271  1.00  0.00     0.138 A 
ATOM      9  O   UNL     1     124.666 130.385 135.727  1.00  0.00    -0.456 OA
ENDROOT
BRANCH   1  10
ATOM     10  C   UNL     1     125.713 132.427 134.826  1.00  0.00     0.059 A 
ATOM     11  C   UNL     1     126.898 134.987 134.971  1.00  0.00     0.122 A 
ATOM     12  C   UNL     1     126.762 134.201 136.129  1.00  0.00     0.093 A 
ATOM     13  C   UNL     1     126.430 134.491 133.753  1.00  0.00     0.047 A 
ATOM     14  C   UNL     1     126.164 132.933 136.066  1.00  0.00     0.130 A 
ATOM     15  C   UNL     1     125.840 133.228 133.680  1.00  0.00     0.020 A 
BRANCH  11  16
ATOM     16  O   UNL     1     127.488 136.260 134.990  1.00  0.00    -0.497 OA
ATOM     17  C   UNL     1     127.500 137.125 136.121  1.00  0.00     0.278 C 
ENDBRANCH  11  16
BRANCH  14  18
ATOM     18  O   UNL     1     126.001 132.195 137.238  1.00  0.00    -0.507 OA
ATOM     19  H   UNL     1     126.622 132.308 138.031  1.00  0.00     0.293 HD
ENDBRANCH  14  18
ENDBRANCH   1  10
BRANCH   5  20
ATOM     20  O   UNL     1     122.673 125.997 133.152  1.00  0.00    -0.504 OA
ATOM     21  H   UNL     1     123.283 125.286 132.766  1.00  0.00     0.293 HD
ENDBRANCH   5  20
BRANCH   6  22
ATOM     22  O   UNL     1     122.495 126.022 135.961  1.00  0.00    -0.493 OA
ATOM     23  C   UNL     1     123.058 125.377 137.099  1.00  0.00     0.278 C 
ENDBRANCH   6  22
TORSDOF 5
ENDMDL
