MODEL 1
REMARK VINA RESULT:     2.965      0.000      0.000
REMARK INTER + INTRA:           5.186
REMARK INTER:                   4.525
REMARK INTRA:                   0.661
REMARK UNBOUND:                 0.661
REMARK SMILES CC1=CCC[C@@H](C)C(=O)C[C@H](C(C)C)C(=O)C1
REMARK SMILES IDX 8 1 9 2 6 3 7 4 5 5 4 6 3 7 2 8 1 9 10 11 11 12 15 13 16 14
REMARK SMILES IDX 17 15 12 17 13 18 14 19
REMARK H PARENT
REMARK Flexibility Score: 70.00
ROOT
ATOM      1  C   UNL     1      -2.489  12.207   7.416  1.00  0.00     0.136 C 
ATOM      2  O   UNL     1      -2.309  11.470   6.456  1.00  0.00    -0.299 OA
ENDROOT
BRANCH   1   3
ATOM      3  C   UNL     1      -2.432  11.599   8.810  1.00  0.00     0.053 C 
ATOM      4  C   UNL     1      -1.115  10.839   9.019  1.00  0.00     0.016 C 
BRANCH   3   5
ATOM      5  C   UNL     1      -3.648  10.693   9.122  1.00  0.00     0.015 C 
BRANCH   5   6
ATOM      6  C   UNL     1      -5.015  11.211   8.623  1.00  0.00     0.028 C 
BRANCH   6   7
ATOM      7  C   UNL     1      -5.453  12.569   9.123  1.00  0.00    -0.028 C 
ATOM      8  C   UNL     1      -6.019  13.554   8.388  1.00  0.00    -0.070 CG0
ATOM      9  C   UNL     1      -6.531  14.772   9.116  1.00  0.00     0.039 C 
ATOM     10  G   UNL     1      -6.106  13.532   6.875  1.00  0.00     0.000 G0
ENDBRANCH   6   7
ENDBRANCH   5   6
ENDBRANCH   3   5
ENDBRANCH   1   3
BRANCH   1  11
ATOM     11  C   UNL     1      -2.791  13.673   7.143  1.00  0.00     0.087 C 
BRANCH  11  12
ATOM     12  C   UNL     1      -3.678  13.917   5.891  1.00  0.00     0.066 C 
BRANCH  12  13
ATOM     13  C   UNL     1      -5.060  14.421   6.271  1.00  0.00     0.140 C 
ATOM     14  O   UNL     1      -5.337  15.602   6.125  1.00  0.00    -0.299 OA
BRANCH  13  15
ATOM     15  C   UNL     1      -6.090  13.493   6.875  1.00  0.00     0.106 CG0
ATOM     16  G   UNL     1      -6.040  13.571   8.387  1.00  0.00     0.000 G0
ENDBRANCH  13  15
ENDBRANCH  12  13
BRANCH  12  17
ATOM     17  C   UNL     1      -3.007  14.815   4.799  1.00  0.00    -0.006 C 
ATOM     18  C   UNL     1      -3.964  15.077   3.623  1.00  0.00     0.008 C 
ATOM     19  C   UNL     1      -1.667  14.283   4.259  1.00  0.00     0.008 C 
ENDBRANCH  12  17
ENDBRANCH  11  12
ENDBRANCH   1  11
TORSDOF 1
ENDMDL
MODEL 2
REMARK VINA RESULT:     3.185      1.905      4.365
REMARK INTER + INTRA:           5.522
REMARK INTER:                   3.644
REMARK INTRA:                   1.878
REMARK UNBOUND:                 0.661
REMARK SMILES CC1=CCC[C@@H](C)C(=O)C[C@H](C(C)C)C(=O)C1
REMARK SMILES IDX 8 1 9 2 6 3 7 4 5 5 4 6 3 7 2 8 1 9 10 11 11 12 15 13 16 14
REMARK SMILES IDX 17 15 12 17 13 18 14 19
REMARK H PARENT
REMARK Flexibility Score: 70.00
ROOT
ATOM      1  C   UNL     1      -4.706  15.455   5.269  1.00  0.00     0.136 C 
ATOM      2  O   UNL     1      -5.066  16.387   4.562  1.00  0.00    -0.299 OA
ENDROOT
BRANCH   1   3
ATOM      3  C   UNL     1      -3.326  14.860   5.027  1.00  0.00     0.053 C 
ATOM      4  C   UNL     1      -2.857  15.140   3.592  1.00  0.00     0.016 C 
BRANCH   3   5
ATOM      5  C   UNL     1      -3.259  13.347   5.344  1.00  0.00     0.015 C 
BRANCH   5   6
ATOM      6  C   UNL     1      -2.118  12.910   6.290  1.00  0.00     0.028 C 
BRANCH   6   7
ATOM      7  C   UNL     1      -2.431  11.799   7.266  1.00  0.00    -0.028 C 
ATOM      8  C   UNL     1      -3.220  11.889   8.362  1.00  0.00    -0.070 CG0
ATOM      9  C   UNL     1      -3.533  10.617   9.111  1.00  0.00     0.039 C 
ATOM     10  G   UNL     1      -3.748  13.197   8.915  1.00  0.00     0.000 G0
ENDBRANCH   6   7
ENDBRANCH   5   6
ENDBRANCH   3   5
ENDBRANCH   1   3
BRANCH   1  11
ATOM     11  C   UNL     1      -5.679  14.938   6.319  1.00  0.00     0.087 C 
BRANCH  11  12
ATOM     12  C   UNL     1      -5.349  13.513   6.844  1.00  0.00     0.066 C 
BRANCH  12  13
ATOM     13  C   UNL     1      -5.131  13.505   8.347  1.00  0.00     0.140 C 
ATOM     14  O   UNL     1      -6.052  13.791   9.096  1.00  0.00    -0.299 OA
BRANCH  13  15
ATOM     15  C   UNL     1      -3.773  13.195   8.937  1.00  0.00     0.106 CG0
ATOM     16  G   UNL     1      -3.238  11.901   8.359  1.00  0.00     0.000 G0
ENDBRANCH  13  15
ENDBRANCH  12  13
BRANCH  12  17
ATOM     17  C   UNL     1      -6.370  12.416   6.394  1.00  0.00    -0.006 C 
ATOM     18  C   UNL     1      -5.897  11.010   6.801  1.00  0.00     0.008 C 
ATOM     19  C   UNL     1      -6.710  12.427   4.892  1.00  0.00     0.008 C 
ENDBRANCH  12  17
ENDBRANCH  11  12
ENDBRANCH   1  11
TORSDOF 1
ENDMDL
MODEL 3
REMARK VINA RESULT:     4.124      1.642      4.594
REMARK INTER + INTRA:           6.954
REMARK INTER:                   5.526
REMARK INTRA:                   1.428
REMARK UNBOUND:                 0.661
REMARK SMILES CC1=CCC[C@@H](C)C(=O)C[C@H](C(C)C)C(=O)C1
REMARK SMILES IDX 8 1 9 2 6 3 7 4 5 5 4 6 3 7 2 8 1 9 10 11 11 12 15 13 16 14
REMARK SMILES IDX 17 15 12 17 13 18 14 19
REMARK H PARENT
REMARK Flexibility Score: 70.00
ROOT
ATOM      1  C   UNL     1      -5.864  13.403   8.628  1.00  0.00     0.136 C 
ATOM      2  O   UNL     1      -6.509  14.336   9.086  1.00  0.00    -0.299 OA
ENDROOT
BRANCH   1   3
ATOM      3  C   UNL     1      -6.574  12.425   7.701  1.00  0.00     0.053 C 
ATOM      4  C   UNL     1      -6.117  10.986   7.974  1.00  0.00     0.016 C 
BRANCH   3   5
ATOM      5  C   UNL     1      -6.405  12.784   6.205  1.00  0.00     0.015 C 
BRANCH   5   6
ATOM      6  C   UNL     1      -6.104  14.268   5.901  1.00  0.00     0.028 C 
BRANCH   6   7
ATOM      7  C   UNL     1      -4.946  14.551   4.970  1.00  0.00    -0.028 C 
ATOM      8  C   UNL     1      -3.632  14.388   5.249  1.00  0.00    -0.070 CG0
ATOM      9  C   UNL     1      -2.645  14.573   4.122  1.00  0.00     0.039 C 
ATOM     10  G   UNL     1      -3.093  14.099   6.635  1.00  0.00     0.000 G0
ENDBRANCH   6   7
ENDBRANCH   5   6
ENDBRANCH   3   5
ENDBRANCH   1   3
BRANCH   1  11
ATOM     11  C   UNL     1      -4.408  13.268   9.045  1.00  0.00     0.087 C 
BRANCH  11  12
ATOM     12  C   UNL     1      -3.627  12.162   8.282  1.00  0.00     0.066 C 
BRANCH  12  13
ATOM     13  C   UNL     1      -3.115  12.660   6.942  1.00  0.00     0.140 C 
ATOM     14  O   UNL     1      -2.695  11.861   6.117  1.00  0.00    -0.299 OA
BRANCH  13  15
ATOM     15  C   UNL     1      -3.070  14.137   6.622  1.00  0.00     0.106 CG0
ATOM     16  G   UNL     1      -3.677  14.394   5.258  1.00  0.00     0.000 G0
ENDBRANCH  13  15
ENDBRANCH  12  13
BRANCH  12  17
ATOM     17  C   UNL     1      -2.498  11.482   9.125  1.00  0.00    -0.006 C 
ATOM     18  C   UNL     1      -1.182  12.273   9.041  1.00  0.00     0.008 C 
ATOM     19  C   UNL     1      -2.231  10.006   8.775  1.00  0.00     0.008 C 
ENDBRANCH  12  17
ENDBRANCH  11  12
ENDBRANCH   1  11
TORSDOF 1
ENDMDL
MODEL 4
REMARK VINA RESULT:     4.138      1.855      3.820
REMARK INTER + INTRA:           6.976
REMARK INTER:                   6.337
REMARK INTRA:                   0.639
REMARK UNBOUND:                 0.661
REMARK SMILES CC1=CCC[C@@H](C)C(=O)C[C@H](C(C)C)C(=O)C1
REMARK SMILES IDX 8 1 9 2 6 3 7 4 5 5 4 6 3 7 2 8 1 9 10 11 11 12 15 13 16 14
REMARK SMILES IDX 17 15 12 17 13 18 14 19
REMARK H PARENT
REMARK Flexibility Score: 70.00
ROOT
ATOM      1  C   UNL     1      -6.490  12.584   6.008  1.00  0.00     0.136 C 
ATOM      2  O   UNL     1      -7.465  12.515   5.271  1.00  0.00    -0.299 OA
ENDROOT
BRANCH   1   3
ATOM      3  C   UNL     1      -6.719  12.505   7.511  1.00  0.00     0.053 C 
ATOM      4  C   UNL     1      -6.294  13.811   8.196  1.00  0.00     0.016 C 
BRANCH   3   5
ATOM      5  C   UNL     1      -6.020  11.287   8.162  1.00  0.00     0.015 C 
BRANCH   5   6
ATOM      6  C   UNL     1      -4.857  11.617   9.124  1.00  0.00     0.028 C 
BRANCH   6   7
ATOM      7  C   UNL     1      -3.547  10.904   8.877  1.00  0.00    -0.028 C 
ATOM      8  C   UNL     1      -2.397  11.464   8.434  1.00  0.00    -0.070 CG0
ATOM      9  C   UNL     1      -1.158  10.604   8.412  1.00  0.00     0.039 C 
ATOM     10  G   UNL     1      -2.300  12.878   7.899  1.00  0.00     0.000 G0
ENDBRANCH   6   7
ENDBRANCH   5   6
ENDBRANCH   3   5
ENDBRANCH   1   3
BRANCH   1  11
ATOM     11  C   UNL     1      -5.124  12.777   5.368  1.00  0.00     0.087 C 
BRANCH  11  12
ATOM     12  C   UNL     1      -4.162  13.683   6.184  1.00  0.00     0.066 C 
BRANCH  12  13
ATOM     13  C   UNL     1      -2.852  12.978   6.493  1.00  0.00     0.140 C 
ATOM     14  O   UNL     1      -2.227  12.437   5.593  1.00  0.00    -0.299 OA
BRANCH  13  15
ATOM     15  C   UNL     1      -2.327  12.890   7.908  1.00  0.00     0.106 CG0
ATOM     16  G   UNL     1      -2.397  11.460   8.403  1.00  0.00     0.000 G0
ENDBRANCH  13  15
ENDBRANCH  12  13
BRANCH  12  17
ATOM     17  C   UNL     1      -3.932  15.098   5.557  1.00  0.00    -0.006 C 
ATOM     18  C   UNL     1      -5.267  15.785   5.220  1.00  0.00     0.008 C 
ATOM     19  C   UNL     1      -3.021  15.114   4.316  1.00  0.00     0.008 C 
ENDBRANCH  12  17
ENDBRANCH  11  12
ENDBRANCH   1  11
TORSDOF 1
ENDMDL
MODEL 5
REMARK VINA RESULT:     4.610      1.782      4.857
REMARK INTER + INTRA:           7.696
REMARK INTER:                   7.235
REMARK INTRA:                   0.461
REMARK UNBOUND:                 0.661
REMARK SMILES CC1=CCC[C@@H](C)C(=O)C[C@H](C(C)C)C(=O)C1
REMARK SMILES IDX 8 1 9 2 6 3 7 4 5 5 4 6 3 7 2 8 1 9 10 11 11 12 15 13 16 14
REMARK SMILES IDX 17 15 12 17 13 18 14 19
REMARK H PARENT
REMARK Flexibility Score: 70.00
ROOT
ATOM      1  C   UNL     1      -4.545  14.700   6.025  1.00  0.00     0.136 C 
ATOM      2  O   UNL     1      -5.626  14.752   5.453  1.00  0.00    -0.299 OA
ENDROOT
BRANCH   1   3
ATOM      3  C   UNL     1      -3.281  14.739   5.177  1.00  0.00     0.053 C 
ATOM      4  C   UNL     1      -3.629  14.766   3.682  1.00  0.00     0.016 C 
BRANCH   3   5
ATOM      5  C   UNL     1      -2.307  13.580   5.496  1.00  0.00     0.015 C 
BRANCH   5   6
ATOM      6  C   UNL     1      -2.966  12.231   5.862  1.00  0.00     0.028 C 
BRANCH   6   7
ATOM      7  C   UNL     1      -2.234  11.365   6.862  1.00  0.00    -0.028 C 
ATOM      8  C   UNL     1      -2.415  11.354   8.203  1.00  0.00    -0.070 CG0
ATOM      9  C   UNL     1      -1.697  10.295   9.002  1.00  0.00     0.039 C 
ATOM     10  G   UNL     1      -3.241  12.382   8.950  1.00  0.00     0.000 G0
ENDBRANCH   6   7
ENDBRANCH   5   6
ENDBRANCH   3   5
ENDBRANCH   1   3
BRANCH   1  11
ATOM     11  C   UNL     1      -4.545  14.567   7.540  1.00  0.00     0.087 C 
BRANCH  11  12
ATOM     12  C   UNL     1      -5.488  13.456   8.081  1.00  0.00     0.066 C 
BRANCH  12  13
ATOM     13  C   UNL     1      -4.707  12.259   8.595  1.00  0.00     0.140 C 
ATOM     14  O   UNL     1      -5.272  11.186   8.749  1.00  0.00    -0.299 OA
BRANCH  13  15
ATOM     15  C   UNL     1      -3.247  12.380   8.967  1.00  0.00     0.106 CG0
ATOM     16  G   UNL     1      -2.429  11.350   8.214  1.00  0.00     0.000 G0
ENDBRANCH  13  15
ENDBRANCH  12  13
BRANCH  12  17
ATOM     17  C   UNL     1      -6.538  13.963   9.124  1.00  0.00    -0.006 C 
ATOM     18  C   UNL     1      -7.888  13.245   8.955  1.00  0.00     0.008 C 
ATOM     19  C   UNL     1      -6.765  15.486   9.125  1.00  0.00     0.008 C 
ENDBRANCH  12  17
ENDBRANCH  11  12
ENDBRANCH   1  11
TORSDOF 1
ENDMDL
MODEL 6
REMARK VINA RESULT:     4.720      1.478      3.965
REMARK INTER + INTRA:           7.865
REMARK INTER:                   5.257
REMARK INTRA:                   2.608
REMARK UNBOUND:                 0.661
REMARK SMILES CC1=CCC[C@@H](C)C(=O)C[C@H](C(C)C)C(=O)C1
REMARK SMILES IDX 8 1 9 2 6 3 7 4 5 5 4 6 3 7 2 8 1 9 10 11 11 12 15 13 16 14
REMARK SMILES IDX 17 15 12 17 13 18 14 19
REMARK H PARENT
REMARK Flexibility Score: 70.00
ROOT
ATOM      1  C   UNL     1      -2.782  13.014   6.409  1.00  0.00     0.136 C 
ATOM      2  O   UNL     1      -2.421  11.879   6.128  1.00  0.00    -0.299 OA
ENDROOT
BRANCH   1   3
ATOM      3  C   UNL     1      -3.242  13.923   5.277  1.00  0.00     0.053 C 
ATOM      4  C   UNL     1      -2.074  14.256   4.338  1.00  0.00     0.016 C 
BRANCH   3   5
ATOM      5  C   UNL     1      -3.928  15.214   5.783  1.00  0.00     0.015 C 
BRANCH   5   6
ATOM      6  C   UNL     1      -5.473  15.215   5.737  1.00  0.00     0.028 C 
BRANCH   6   7
ATOM      7  C   UNL     1      -6.193  14.925   7.034  1.00  0.00    -0.028 C 
ATOM      8  C   UNL     1      -6.088  13.799   7.778  1.00  0.00    -0.070 CG0
ATOM      9  C   UNL     1      -6.767  13.780   9.125  1.00  0.00     0.039 C 
ATOM     10  G   UNL     1      -5.387  12.541   7.309  1.00  0.00     0.000 G0
ENDBRANCH   6   7
ENDBRANCH   5   6
ENDBRANCH   3   5
ENDBRANCH   1   3
BRANCH   1  11
ATOM     11  C   UNL     1      -2.714  13.445   7.866  1.00  0.00     0.087 C 
BRANCH  11  12
ATOM     12  C   UNL     1      -3.248  12.385   8.868  1.00  0.00     0.066 C 
BRANCH  12  13
ATOM     13  C   UNL     1      -4.641  11.909   8.493  1.00  0.00     0.140 C 
ATOM     14  O   UNL     1      -5.159  10.994   9.115  1.00  0.00    -0.299 OA
BRANCH  13  15
ATOM     15  C   UNL     1      -5.385  12.517   7.325  1.00  0.00     0.106 CG0
ATOM     16  G   UNL     1      -6.075  13.796   7.755  1.00  0.00     0.000 G0
ENDBRANCH  13  15
ENDBRANCH  12  13
BRANCH  12  17
ATOM     17  C   UNL     1      -2.268  11.191   9.117  1.00  0.00    -0.006 C 
ATOM     18  C   UNL     1      -0.800  11.646   9.040  1.00  0.00     0.008 C 
ATOM     19  C   UNL     1      -2.477   9.979   8.190  1.00  0.00     0.008 C 
ENDBRANCH  12  17
ENDBRANCH  11  12
ENDBRANCH   1  11
TORSDOF 1
ENDMDL
MODEL 7
REMARK VINA RESULT:     5.110      1.619      4.679
REMARK INTER + INTRA:           8.459
REMARK INTER:                   4.294
REMARK INTRA:                   4.166
REMARK UNBOUND:                 0.661
REMARK SMILES CC1=CCC[C@@H](C)C(=O)C[C@H](C(C)C)C(=O)C1
REMARK SMILES IDX 8 1 9 2 6 3 7 4 5 5 4 6 3 7 2 8 1 9 10 11 11 12 15 13 16 14
REMARK SMILES IDX 17 15 12 17 13 18 14 19
REMARK H PARENT
REMARK Flexibility Score: 70.00
ROOT
ATOM      1  C   UNL     1      -5.721  12.402   7.089  1.00  0.00     0.136 C 
ATOM      2  O   UNL     1      -6.430  12.329   6.095  1.00  0.00    -0.299 OA
ENDROOT
BRANCH   1   3
ATOM      3  C   UNL     1      -5.539  13.765   7.743  1.00  0.00     0.053 C 
ATOM      4  C   UNL     1      -6.370  13.866   9.030  1.00  0.00     0.016 C 
BRANCH   3   5
ATOM      5  C   UNL     1      -5.858  14.939   6.786  1.00  0.00     0.015 C 
BRANCH   5   6
ATOM      6  C   UNL     1      -5.514  14.703   5.298  1.00  0.00     0.028 C 
BRANCH   6   7
ATOM      7  C   UNL     1      -4.082  14.954   4.883  1.00  0.00    -0.028 C 
ATOM      8  C   UNL     1      -2.975  14.412   5.443  1.00  0.00    -0.070 CG0
ATOM      9  C   UNL     1      -1.649  14.668   4.771  1.00  0.00     0.039 C 
ATOM     10  G   UNL     1      -2.985  13.624   6.737  1.00  0.00     0.000 G0
ENDBRANCH   6   7
ENDBRANCH   5   6
ENDBRANCH   3   5
ENDBRANCH   1   3
BRANCH   1  11
ATOM     11  C   UNL     1      -5.045  11.131   7.580  1.00  0.00     0.087 C 
BRANCH  11  12
ATOM     12  C   UNL     1      -3.494  11.164   7.504  1.00  0.00     0.066 C 
BRANCH  12  13
ATOM     13  C   UNL     1      -3.005  12.145   6.452  1.00  0.00     0.140 C 
ATOM     14  O   UNL     1      -2.609  11.731   5.373  1.00  0.00    -0.299 OA
BRANCH  13  15
ATOM     15  C   UNL     1      -2.952  13.630   6.733  1.00  0.00     0.106 CG0
ATOM     16  G   UNL     1      -2.954  14.407   5.432  1.00  0.00     0.000 G0
ENDBRANCH  13  15
ENDBRANCH  12  13
BRANCH  12  17
ATOM     17  C   UNL     1      -2.792  11.387   8.884  1.00  0.00    -0.006 C 
ATOM     18  C   UNL     1      -2.430  12.868   9.096  1.00  0.00     0.008 C 
ATOM     19  C   UNL     1      -1.545  10.516   9.124  1.00  0.00     0.008 C 
ENDBRANCH  12  17
ENDBRANCH  11  12
ENDBRANCH   1  11
TORSDOF 1
ENDMDL
MODEL 8
REMARK VINA RESULT:     5.252      1.798      3.769
REMARK INTER + INTRA:           8.676
REMARK INTER:                   6.657
REMARK INTRA:                   2.019
REMARK UNBOUND:                 0.661
REMARK SMILES CC1=CCC[C@@H](C)C(=O)C[C@H](C(C)C)C(=O)C1
REMARK SMILES IDX 8 1 9 2 6 3 7 4 5 5 4 6 3 7 2 8 1 9 10 11 11 12 15 13 16 14
REMARK SMILES IDX 17 15 12 17 13 18 14 19
REMARK H PARENT
REMARK Flexibility Score: 70.00
ROOT
ATOM      1  C   UNL     1      -3.940  12.071   9.083  1.00  0.00     0.136 C 
ATOM      2  O   UNL     1      -4.530  10.999   9.123  1.00  0.00    -0.299 OA
ENDROOT
BRANCH   1   3
ATOM      3  C   UNL     1      -2.419  12.053   9.037  1.00  0.00     0.053 C 
ATOM      4  C   UNL     1      -1.854  13.478   9.125  1.00  0.00     0.016 C 
BRANCH   3   5
ATOM      5  C   UNL     1      -1.863  11.315   7.795  1.00  0.00     0.015 C 
BRANCH   5   6
ATOM      6  C   UNL     1      -2.806  11.255   6.573  1.00  0.00     0.028 C 
BRANCH   6   7
ATOM      7  C   UNL     1      -2.590  12.292   5.495  1.00  0.00    -0.028 C 
ATOM      8  C   UNL     1      -2.743  13.631   5.624  1.00  0.00    -0.070 CG0
ATOM      9  C   UNL     1      -2.317  14.503   4.469  1.00  0.00     0.039 C 
ATOM     10  G   UNL     1      -3.378  14.294   6.830  1.00  0.00     0.000 G0
ENDBRANCH   6   7
ENDBRANCH   5   6
ENDBRANCH   3   5
ENDBRANCH   1   3
BRANCH   1  11
ATOM     11  C   UNL     1      -4.772  13.344   9.115  1.00  0.00     0.087 C 
BRANCH  11  12
ATOM     12  C   UNL     1      -5.648  13.564   7.851  1.00  0.00     0.066 C 
BRANCH  12  13
ATOM     13  C   UNL     1      -4.869  14.245   6.739  1.00  0.00     0.140 C 
ATOM     14  O   UNL     1      -5.460  14.687   5.765  1.00  0.00    -0.299 OA
BRANCH  13  15
ATOM     15  C   UNL     1      -3.361  14.344   6.790  1.00  0.00     0.106 CG0
ATOM     16  G   UNL     1      -2.750  13.602   5.619  1.00  0.00     0.000 G0
ENDBRANCH  13  15
ENDBRANCH  12  13
BRANCH  12  17
ATOM     17  C   UNL     1      -6.380  12.275   7.350  1.00  0.00    -0.006 C 
ATOM     18  C   UNL     1      -6.489  12.253   5.815  1.00  0.00     0.008 C 
ATOM     19  C   UNL     1      -7.772  12.042   7.965  1.00  0.00     0.008 C 
ENDBRANCH  12  17
ENDBRANCH  11  12
ENDBRANCH   1  11
TORSDOF 1
ENDMDL
MODEL 9
REMARK VINA RESULT:     5.397      1.622      2.342
REMARK INTER + INTRA:           8.898
REMARK INTER:                   6.420
REMARK INTRA:                   2.478
REMARK UNBOUND:                 0.661
REMARK SMILES CC1=CCC[C@@H](C)C(=O)C[C@H](C(C)C)C(=O)C1
REMARK SMILES IDX 8 1 9 2 6 3 7 4 5 5 4 6 3 7 2 8 1 9 10 11 11 12 15 13 16 14
REMARK SMILES IDX 17 15 12 17 13 18 14 19
REMARK H PARENT
REMARK Flexibility Score: 70.00
ROOT
ATOM      1  C   UNL     1      -2.906  13.024   6.737  1.00  0.00     0.136 C 
ATOM      2  O   UNL     1      -2.117  13.894   6.394  1.00  0.00    -0.299 OA
ENDROOT
BRANCH   1   3
ATOM      3  C   UNL     1      -2.679  12.336   8.076  1.00  0.00     0.053 C 
ATOM      4  C   UNL     1      -2.517  10.821   7.888  1.00  0.00     0.016 C 
BRANCH   3   5
ATOM      5  C   UNL     1      -3.787  12.649   9.109  1.00  0.00     0.015 C 
BRANCH   5   6
ATOM      6  C   UNL     1      -5.220  12.239   8.700  1.00  0.00     0.028 C 
BRANCH   6   7
ATOM      7  C   UNL     1      -6.339  13.162   9.125  1.00  0.00    -0.028 C 
ATOM      8  C   UNL     1      -6.537  14.433   8.703  1.00  0.00    -0.070 CG0
ATOM      9  C   UNL     1      -7.810  15.125   9.125  1.00  0.00     0.039 C 
ATOM     10  G   UNL     1      -5.527  15.219   7.891  1.00  0.00     0.000 G0
ENDBRANCH   6   7
ENDBRANCH   5   6
ENDBRANCH   3   5
ENDBRANCH   1   3
BRANCH   1  11
ATOM     11  C   UNL     1      -4.037  12.670   5.784  1.00  0.00     0.087 C 
BRANCH  11  12
ATOM     12  C   UNL     1      -5.424  13.227   6.209  1.00  0.00     0.066 C 
BRANCH  12  13
ATOM     13  C   UNL     1      -5.370  14.720   6.483  1.00  0.00     0.140 C 
ATOM     14  O   UNL     1      -5.152  15.499   5.567  1.00  0.00    -0.299 OA
BRANCH  13  15
ATOM     15  C   UNL     1      -5.533  15.263   7.885  1.00  0.00     0.106 CG0
ATOM     16  G   UNL     1      -6.515  14.411   8.663  1.00  0.00     0.000 G0
ENDBRANCH  13  15
ENDBRANCH  12  13
BRANCH  12  17
ATOM     17  C   UNL     1      -6.588  12.853   5.233  1.00  0.00    -0.006 C 
ATOM     18  C   UNL     1      -6.858  11.338   5.237  1.00  0.00     0.008 C 
ATOM     19  C   UNL     1      -6.396  13.334   3.783  1.00  0.00     0.008 C 
ENDBRANCH  12  17
ENDBRANCH  11  12
ENDBRANCH   1  11
TORSDOF 1
ENDMDL
