MODEL 1
REMARK VINA RESULT:    -5.791      0.000      0.000
REMARK INTER + INTRA:         -19.718
REMARK INTER:                 -14.592
REMARK INTRA:                  -5.126
REMARK UNBOUND:                -5.126
REMARK SMILES CCCCCCCCCCCCCCCCCCCCCCCCCCCC(=O)[O-]
REMARK SMILES IDX 15 1 16 2 17 3 18 4 19 5 20 6 21 7 22 8 23 9 24 10 25 11
REMARK SMILES IDX 26 12 27 13 28 14 29 15 30 16 14 17 13 18 12 19 11 20 10 21
REMARK SMILES IDX 9 22 8 23 7 24 6 25 5 26 4 27 3 28 2 29 1 30
REMARK H PARENT
REMARK Flexibility Score: inf
ROOT
ATOM      1  C   UNL     1     218.353  -7.246  27.539  1.00  0.00     0.000 C 
ENDROOT
BRANCH   1   2
ATOM      2  C   UNL     1     218.658  -7.248  29.047  1.00  0.00     0.000 C 
BRANCH   2   3
ATOM      3  C   UNL     1     217.886  -8.302  29.866  1.00  0.00     0.000 C 
BRANCH   3   4
ATOM      4  C   UNL     1     218.750  -9.427  30.465  1.00  0.00     0.000 C 
BRANCH   4   5
ATOM      5  C   UNL     1     219.827  -9.936  29.492  1.00  0.00     0.000 C 
BRANCH   5   6
ATOM      6  C   UNL     1     221.231  -9.922  30.120  1.00  0.00     0.000 C 
BRANCH   6   7
ATOM      7  C   UNL     1     221.430  -8.724  31.067  1.00  0.00     0.000 C 
BRANCH   7   8
ATOM      8  C   UNL     1     222.280  -7.609  30.438  1.00  0.00     0.000 C 
BRANCH   8   9
ATOM      9  C   UNL     1     222.366  -7.713  28.906  1.00  0.00     0.000 C 
BRANCH   9  10
ATOM     10  C   UNL     1     223.827  -7.731  28.404  1.00  0.00     0.000 C 
BRANCH  10  11
ATOM     11  C   UNL     1     224.825  -8.295  29.431  1.00  0.00     0.000 C 
BRANCH  11  12
ATOM     12  C   UNL     1     225.070  -9.813  29.326  1.00  0.00     0.006 C 
BRANCH  12  13
ATOM     13  C   UNL     1     224.697 -10.594  30.600  1.00  0.00     0.053 C 
BRANCH  13  14
ATOM     14  C   UNL     1     225.286  -9.993  31.839  1.00  0.00     0.041 C 
ATOM     15  O   UNL     1     226.526 -10.055  32.049  1.00  0.00    -0.550 OA
ATOM     16  O   UNL     1     224.460  -9.386  32.776  1.00  0.00    -0.550 OA
ENDBRANCH  13  14
ENDBRANCH  12  13
ENDBRANCH  11  12
ENDBRANCH  10  11
ENDBRANCH   9  10
ENDBRANCH   8   9
ENDBRANCH   7   8
ENDBRANCH   6   7
ENDBRANCH   5   6
ENDBRANCH   4   5
ENDBRANCH   3   4
ENDBRANCH   2   3
ENDBRANCH   1   2
BRANCH   1  17
ATOM     17  C   UNL     1     217.519  -8.461  27.097  1.00  0.00     0.000 C 
BRANCH  17  18
ATOM     18  C   UNL     1     217.705  -8.802  25.608  1.00  0.00     0.000 C 
BRANCH  18  19
ATOM     19  C   UNL     1     217.506  -7.618  24.641  1.00  0.00     0.000 C 
BRANCH  19  20
ATOM     20  C   UNL     1     217.495  -7.991  23.146  1.00  0.00     0.000 C 
BRANCH  20  21
ATOM     21  C   UNL     1     217.632  -9.496  22.851  1.00  0.00     0.000 C 
BRANCH  21  22
ATOM     22  C   UNL     1     218.631  -9.793  21.721  1.00  0.00    -0.000 C 
BRANCH  22  23
ATOM     23  C   UNL     1     219.338  -8.512  21.254  1.00  0.00    -0.000 C 
BRANCH  23  24
ATOM     24  C   UNL     1     220.872  -8.671  21.208  1.00  0.00    -0.000 C 
BRANCH  24  25
ATOM     25  C   UNL     1     221.557  -8.479  22.573  1.00  0.00    -0.000 C 
BRANCH  25  26
ATOM     26  C   UNL     1     221.025  -7.264  23.348  1.00  0.00    -0.000 C 
BRANCH  26  27
ATOM     27  C   UNL     1     221.033  -7.481  24.871  1.00  0.00    -0.000 C 
BRANCH  27  28
ATOM     28  C   UNL     1     222.000  -8.595  25.332  1.00  0.00    -0.000 C 
BRANCH  28  29
ATOM     29  C   UNL     1     221.293  -9.761  26.046  1.00  0.00    -0.003 C 
ATOM     30  C   UNL     1     222.278 -10.790  26.600  1.00  0.00     0.004 C 
ENDBRANCH  28  29
ENDBRANCH  27  28
ENDBRANCH  26  27
ENDBRANCH  25  26
ENDBRANCH  24  25
ENDBRANCH  23  24
ENDBRANCH  22  23
ENDBRANCH  21  22
ENDBRANCH  20  21
ENDBRANCH  19  20
ENDBRANCH  18  19
ENDBRANCH  17  18
ENDBRANCH   1  17
TORSDOF 26
ENDMDL
MODEL 2
REMARK VINA RESULT:    -5.545      1.342      4.227
REMARK INTER + INTRA:         -19.099
REMARK INTER:                 -14.297
REMARK INTRA:                  -4.802
REMARK UNBOUND:                -5.126
REMARK SMILES CCCCCCCCCCCCCCCCCCCCCCCCCCCC(=O)[O-]
REMARK SMILES IDX 15 1 16 2 17 3 18 4 19 5 20 6 21 7 22 8 23 9 24 10 25 11
REMARK SMILES IDX 26 12 27 13 28 14 29 15 30 16 14 17 13 18 12 19 11 20 10 21
REMARK SMILES IDX 9 22 8 23 7 24 6 25 5 26 4 27 3 28 2 29 1 30
REMARK H PARENT
REMARK Flexibility Score: inf
ROOT
ATOM      1  C   UNL     1     221.479  -8.025  24.306  1.00  0.00     0.000 C 
ENDROOT
BRANCH   1   2
ATOM      2  C   UNL     1     221.810  -9.490  23.972  1.00  0.00     0.000 C 
BRANCH   2   3
ATOM      3  C   UNL     1     221.141 -10.533  24.889  1.00  0.00     0.000 C 
BRANCH   3   4
ATOM      4  C   UNL     1     221.944 -10.910  26.147  1.00  0.00     0.000 C 
BRANCH   4   5
ATOM      5  C   UNL     1     221.573 -10.055  27.371  1.00  0.00     0.000 C 
BRANCH   5   6
ATOM      6  C   UNL     1     222.629  -8.976  27.666  1.00  0.00     0.000 C 
BRANCH   6   7
ATOM      7  C   UNL     1     221.996  -7.670  28.182  1.00  0.00     0.000 C 
BRANCH   7   8
ATOM      8  C   UNL     1     222.633  -7.182  29.493  1.00  0.00     0.000 C 
BRANCH   8   9
ATOM      9  C   UNL     1     224.144  -6.929  29.365  1.00  0.00     0.000 C 
BRANCH   9  10
ATOM     10  C   UNL     1     224.968  -7.829  30.313  1.00  0.00     0.000 C 
BRANCH  10  11
ATOM     11  C   UNL     1     224.106  -8.759  31.185  1.00  0.00     0.000 C 
BRANCH  11  12
ATOM     12  C   UNL     1     224.902  -9.665  32.146  1.00  0.00     0.006 C 
BRANCH  12  13
ATOM     13  C   UNL     1     224.673  -9.348  33.635  1.00  0.00     0.053 C 
BRANCH  13  14
ATOM     14  C   UNL     1     223.734 -10.312  34.293  1.00  0.00     0.041 C 
ATOM     15  O   UNL     1     222.490 -10.125  34.241  1.00  0.00    -0.550 OA
ATOM     16  O   UNL     1     224.236 -11.405  34.987  1.00  0.00    -0.550 OA
ENDBRANCH  13  14
ENDBRANCH  12  13
ENDBRANCH  11  12
ENDBRANCH  10  11
ENDBRANCH   9  10
ENDBRANCH   8   9
ENDBRANCH   7   8
ENDBRANCH   6   7
ENDBRANCH   5   6
ENDBRANCH   4   5
ENDBRANCH   3   4
ENDBRANCH   2   3
ENDBRANCH   1   2
BRANCH   1  17
ATOM     17  C   UNL     1     220.895  -7.256  23.108  1.00  0.00     0.000 C 
BRANCH  17  18
ATOM     18  C   UNL     1     220.758  -8.129  21.849  1.00  0.00     0.000 C 
BRANCH  18  19
ATOM     19  C   UNL     1     219.309  -8.359  21.374  1.00  0.00     0.000 C 
BRANCH  19  20
ATOM     20  C   UNL     1     218.634  -9.629  21.928  1.00  0.00     0.000 C 
BRANCH  20  21
ATOM     21  C   UNL     1     217.864  -9.433  23.246  1.00  0.00     0.000 C 
BRANCH  21  22
ATOM     22  C   UNL     1     217.362  -7.992  23.435  1.00  0.00    -0.000 C 
BRANCH  22  23
ATOM     23  C   UNL     1     217.646  -7.488  24.857  1.00  0.00    -0.000 C 
BRANCH  23  24
ATOM     24  C   UNL     1     218.111  -8.618  25.800  1.00  0.00    -0.000 C 
BRANCH  24  25
ATOM     25  C   UNL     1     218.531  -8.128  27.197  1.00  0.00    -0.000 C 
BRANCH  25  26
ATOM     26  C   UNL     1     217.909  -8.951  28.336  1.00  0.00    -0.000 C 
BRANCH  26  27
ATOM     27  C   UNL     1     218.021  -8.255  29.703  1.00  0.00    -0.000 C 
BRANCH  27  28
ATOM     28  C   UNL     1     219.240  -8.717  30.534  1.00  0.00    -0.000 C 
BRANCH  28  29
ATOM     29  C   UNL     1     219.503 -10.231  30.443  1.00  0.00    -0.003 C 
ATOM     30  C   UNL     1     220.898 -10.613  30.936  1.00  0.00     0.004 C 
ENDBRANCH  28  29
ENDBRANCH  27  28
ENDBRANCH  26  27
ENDBRANCH  25  26
ENDBRANCH  24  25
ENDBRANCH  23  24
ENDBRANCH  22  23
ENDBRANCH  21  22
ENDBRANCH  20  21
ENDBRANCH  19  20
ENDBRANCH  18  19
ENDBRANCH  17  18
ENDBRANCH   1  17
TORSDOF 26
ENDMDL
MODEL 3
REMARK VINA RESULT:    -5.531      1.105      1.749
REMARK INTER + INTRA:         -19.063
REMARK INTER:                 -14.364
REMARK INTRA:                  -4.699
REMARK UNBOUND:                -5.126
REMARK SMILES CCCCCCCCCCCCCCCCCCCCCCCCCCCC(=O)[O-]
REMARK SMILES IDX 15 1 16 2 17 3 18 4 19 5 20 6 21 7 22 8 23 9 24 10 25 11
REMARK SMILES IDX 26 12 27 13 28 14 29 15 30 16 14 17 13 18 12 19 11 20 10 21
REMARK SMILES IDX 9 22 8 23 7 24 6 25 5 26 4 27 3 28 2 29 1 30
REMARK H PARENT
REMARK Flexibility Score: inf
ROOT
ATOM      1  C   UNL     1     218.454  -7.691  28.501  1.00  0.00     0.000 C 
ENDROOT
BRANCH   1   2
ATOM      2  C   UNL     1     218.237  -8.460  29.816  1.00  0.00     0.000 C 
BRANCH   2   3
ATOM      3  C   UNL     1     218.893  -9.854  29.871  1.00  0.00     0.000 C 
BRANCH   3   4
ATOM      4  C   UNL     1     220.410  -9.873  29.610  1.00  0.00     0.000 C 
BRANCH   4   5
ATOM      5  C   UNL     1     221.227  -9.314  30.788  1.00  0.00     0.000 C 
BRANCH   5   6
ATOM      6  C   UNL     1     221.683  -7.866  30.542  1.00  0.00     0.000 C 
BRANCH   6   7
ATOM      7  C   UNL     1     222.060  -7.618  29.071  1.00  0.00     0.000 C 
BRANCH   7   8
ATOM      8  C   UNL     1     223.453  -6.987  28.915  1.00  0.00     0.000 C 
BRANCH   8   9
ATOM      9  C   UNL     1     224.511  -7.643  29.818  1.00  0.00     0.000 C 
BRANCH   9  10
ATOM     10  C   UNL     1     225.047  -8.965  29.223  1.00  0.00     0.000 C 
BRANCH  10  11
ATOM     11  C   UNL     1     224.878 -10.175  30.159  1.00  0.00     0.000 C 
BRANCH  11  12
ATOM     12  C   UNL     1     224.794  -9.825  31.658  1.00  0.00     0.006 C 
BRANCH  12  13
ATOM     13  C   UNL     1     224.064 -10.884  32.505  1.00  0.00     0.053 C 
BRANCH  13  14
ATOM     14  C   UNL     1     223.660 -10.367  33.852  1.00  0.00     0.041 C 
ATOM     15  O   UNL     1     223.915 -11.031  34.891  1.00  0.00    -0.550 OA
ATOM     16  O   UNL     1     222.978  -9.162  33.957  1.00  0.00    -0.550 OA
ENDBRANCH  13  14
ENDBRANCH  12  13
ENDBRANCH  11  12
ENDBRANCH  10  11
ENDBRANCH   9  10
ENDBRANCH   8   9
ENDBRANCH   7   8
ENDBRANCH   6   7
ENDBRANCH   5   6
ENDBRANCH   4   5
ENDBRANCH   3   4
ENDBRANCH   2   3
ENDBRANCH   1   2
BRANCH   1  17
ATOM     17  C   UNL     1     218.394  -8.600  27.261  1.00  0.00     0.000 C 
BRANCH  17  18
ATOM     18  C   UNL     1     217.464  -8.054  26.164  1.00  0.00     0.000 C 
BRANCH  18  19
ATOM     19  C   UNL     1     218.155  -7.167  25.109  1.00  0.00     0.000 C 
BRANCH  19  20
ATOM     20  C   UNL     1     217.825  -7.517  23.645  1.00  0.00     0.000 C 
BRANCH  20  21
ATOM     21  C   UNL     1     217.888  -9.017  23.306  1.00  0.00     0.000 C 
BRANCH  21  22
ATOM     22  C   UNL     1     218.773  -9.317  22.086  1.00  0.00    -0.000 C 
BRANCH  22  23
ATOM     23  C   UNL     1     219.718  -8.144  21.785  1.00  0.00    -0.000 C 
BRANCH  23  24
ATOM     24  C   UNL     1     221.149  -8.613  21.449  1.00  0.00    -0.000 C 
BRANCH  24  25
ATOM     25  C   UNL     1     222.047  -8.801  22.685  1.00  0.00    -0.000 C 
BRANCH  25  26
ATOM     26  C   UNL     1     221.652  -7.892  23.859  1.00  0.00    -0.000 C 
BRANCH  26  27
ATOM     27  C   UNL     1     221.496  -8.662  25.182  1.00  0.00    -0.000 C 
BRANCH  27  28
ATOM     28  C   UNL     1     220.984 -10.109  24.997  1.00  0.00    -0.000 C 
BRANCH  28  29
ATOM     29  C   UNL     1     221.782 -11.148  25.805  1.00  0.00    -0.003 C 
ATOM     30  C   UNL     1     222.722 -10.502  26.823  1.00  0.00     0.004 C 
ENDBRANCH  28  29
ENDBRANCH  27  28
ENDBRANCH  26  27
ENDBRANCH  25  26
ENDBRANCH  24  25
ENDBRANCH  23  24
ENDBRANCH  22  23
ENDBRANCH  21  22
ENDBRANCH  20  21
ENDBRANCH  19  20
ENDBRANCH  18  19
ENDBRANCH  17  18
ENDBRANCH   1  17
TORSDOF 26
ENDMDL
MODEL 4
REMARK VINA RESULT:    -5.520      1.419      3.928
REMARK INTER + INTRA:         -19.036
REMARK INTER:                 -14.534
REMARK INTRA:                  -4.502
REMARK UNBOUND:                -5.126
REMARK SMILES CCCCCCCCCCCCCCCCCCCCCCCCCCCC(=O)[O-]
REMARK SMILES IDX 15 1 16 2 17 3 18 4 19 5 20 6 21 7 22 8 23 9 24 10 25 11
REMARK SMILES IDX 26 12 27 13 28 14 29 15 30 16 14 17 13 18 12 19 11 20 10 21
REMARK SMILES IDX 9 22 8 23 7 24 6 25 5 26 4 27 3 28 2 29 1 30
REMARK H PARENT
REMARK Flexibility Score: inf
ROOT
ATOM      1  C   UNL     1     222.286 -10.119  27.873  1.00  0.00     0.000 C 
ENDROOT
BRANCH   1   2
ATOM      2  C   UNL     1     222.829  -8.717  28.199  1.00  0.00     0.000 C 
BRANCH   2   3
ATOM      3  C   UNL     1     221.793  -7.579  28.103  1.00  0.00     0.000 C 
BRANCH   3   4
ATOM      4  C   UNL     1     220.361  -8.026  27.756  1.00  0.00     0.000 C 
BRANCH   4   5
ATOM      5  C   UNL     1     219.316  -7.520  28.765  1.00  0.00     0.000 C 
BRANCH   5   6
ATOM      6  C   UNL     1     218.252  -8.585  29.080  1.00  0.00     0.000 C 
BRANCH   6   7
ATOM      7  C   UNL     1     218.431  -9.188  30.485  1.00  0.00     0.000 C 
BRANCH   7   8
ATOM      8  C   UNL     1     219.522 -10.269  30.530  1.00  0.00     0.000 C 
BRANCH   8   9
ATOM      9  C   UNL     1     220.769  -9.830  31.316  1.00  0.00     0.000 C 
BRANCH   9  10
ATOM     10  C   UNL     1     221.926 -10.846  31.190  1.00  0.00     0.000 C 
BRANCH  10  11
ATOM     11  C   UNL     1     222.181 -11.653  32.475  1.00  0.00     0.000 C 
BRANCH  11  12
ATOM     12  C   UNL     1     223.664 -11.769  32.881  1.00  0.00     0.006 C 
BRANCH  12  13
ATOM     13  C   UNL     1     224.060 -10.866  34.064  1.00  0.00     0.053 C 
BRANCH  13  14
ATOM     14  C   UNL     1     224.467  -9.492  33.629  1.00  0.00     0.041 C 
ATOM     15  O   UNL     1     225.515  -9.324  32.951  1.00  0.00    -0.550 OA
ATOM     16  O   UNL     1     223.703  -8.393  33.997  1.00  0.00    -0.550 OA
ENDBRANCH  13  14
ENDBRANCH  12  13
ENDBRANCH  11  12
ENDBRANCH  10  11
ENDBRANCH   9  10
ENDBRANCH   8   9
ENDBRANCH   7   8
ENDBRANCH   6   7
ENDBRANCH   5   6
ENDBRANCH   4   5
ENDBRANCH   3   4
ENDBRANCH   2   3
ENDBRANCH   1   2
BRANCH   1  17
ATOM     17  C   UNL     1     222.724 -10.623  26.487  1.00  0.00     0.000 C 
BRANCH  17  18
ATOM     18  C   UNL     1     221.539 -11.061  25.609  1.00  0.00     0.000 C 
BRANCH  18  19
ATOM     19  C   UNL     1     221.310 -10.198  24.352  1.00  0.00     0.000 C 
BRANCH  19  20
ATOM     20  C   UNL     1     221.701  -8.715  24.498  1.00  0.00     0.000 C 
BRANCH  20  21
ATOM     21  C   UNL     1     221.647  -7.898  23.195  1.00  0.00     0.000 C 
BRANCH  21  22
ATOM     22  C   UNL     1     222.036  -8.723  21.957  1.00  0.00    -0.000 C 
BRANCH  22  23
ATOM     23  C   UNL     1     220.935  -8.671  20.888  1.00  0.00    -0.000 C 
BRANCH  23  24
ATOM     24  C   UNL     1     219.549  -8.349  21.486  1.00  0.00    -0.000 C 
BRANCH  24  25
ATOM     25  C   UNL     1     218.645  -9.583  21.656  1.00  0.00    -0.000 C 
BRANCH  25  26
ATOM     26  C   UNL     1     217.576  -9.401  22.745  1.00  0.00    -0.000 C 
BRANCH  26  27
ATOM     27  C   UNL     1     217.995 -10.003  24.097  1.00  0.00    -0.000 C 
BRANCH  27  28
ATOM     28  C   UNL     1     217.892  -9.007  25.275  1.00  0.00    -0.000 C 
BRANCH  28  29
ATOM     29  C   UNL     1     217.523  -7.578  24.837  1.00  0.00    -0.003 C 
ATOM     30  C   UNL     1     218.710  -6.618  24.912  1.00  0.00     0.004 C 
ENDBRANCH  28  29
ENDBRANCH  27  28
ENDBRANCH  26  27
ENDBRANCH  25  26
ENDBRANCH  24  25
ENDBRANCH  23  24
ENDBRANCH  22  23
ENDBRANCH  21  22
ENDBRANCH  20  21
ENDBRANCH  19  20
ENDBRANCH  18  19
ENDBRANCH  17  18
ENDBRANCH   1  17
TORSDOF 26
ENDMDL
MODEL 5
REMARK VINA RESULT:    -5.485      3.257      5.140
REMARK INTER + INTRA:         -18.949
REMARK INTER:                 -14.638
REMARK INTRA:                  -4.311
REMARK UNBOUND:                -5.126
REMARK SMILES CCCCCCCCCCCCCCCCCCCCCCCCCCCC(=O)[O-]
REMARK SMILES IDX 15 1 16 2 17 3 18 4 19 5 20 6 21 7 22 8 23 9 24 10 25 11
REMARK SMILES IDX 26 12 27 13 28 14 29 15 30 16 14 17 13 18 12 19 11 20 10 21
REMARK SMILES IDX 9 22 8 23 7 24 6 25 5 26 4 27 3 28 2 29 1 30
REMARK H PARENT
REMARK Flexibility Score: inf
ROOT
ATOM      1  C   UNL     1     221.419  -8.404  24.769  1.00  0.00     0.000 C 
ENDROOT
BRANCH   1   2
ATOM      2  C   UNL     1     221.169  -9.919  24.666  1.00  0.00     0.000 C 
BRANCH   2   3
ATOM      3  C   UNL     1     221.434 -10.712  25.961  1.00  0.00     0.000 C 
BRANCH   3   4
ATOM      4  C   UNL     1     222.755 -10.375  26.675  1.00  0.00     0.000 C 
BRANCH   4   5
ATOM      5  C   UNL     1     222.649 -10.473  28.207  1.00  0.00     0.000 C 
BRANCH   5   6
ATOM      6  C   UNL     1     223.442  -9.361  28.915  1.00  0.00     0.000 C 
BRANCH   6   7
ATOM      7  C   UNL     1     223.494  -8.066  28.084  1.00  0.00     0.000 C 
BRANCH   7   8
ATOM      8  C   UNL     1     223.710  -6.815  28.950  1.00  0.00     0.000 C 
BRANCH   8   9
ATOM      9  C   UNL     1     225.121  -6.745  29.557  1.00  0.00     0.000 C 
BRANCH   9  10
ATOM     10  C   UNL     1     226.063  -5.833  28.739  1.00  0.00     0.000 C 
BRANCH  10  11
ATOM     11  C   UNL     1     227.537  -6.277  28.775  1.00  0.00     0.000 C 
BRANCH  11  12
ATOM     12  C   UNL     1     228.433  -5.628  27.701  1.00  0.00     0.006 C 
BRANCH  12  13
ATOM     13  C   UNL     1     228.956  -4.232  28.087  1.00  0.00     0.053 C 
BRANCH  13  14
ATOM     14  C   UNL     1     228.475  -3.159  27.160  1.00  0.00     0.041 C 
ATOM     15  O   UNL     1     227.336  -3.240  26.629  1.00  0.00    -0.550 OA
ATOM     16  O   UNL     1     229.297  -2.080  26.862  1.00  0.00    -0.550 OA
ENDBRANCH  13  14
ENDBRANCH  12  13
ENDBRANCH  11  12
ENDBRANCH  10  11
ENDBRANCH   9  10
ENDBRANCH   8   9
ENDBRANCH   7   8
ENDBRANCH   6   7
ENDBRANCH   5   6
ENDBRANCH   4   5
ENDBRANCH   3   4
ENDBRANCH   2   3
ENDBRANCH   1   2
BRANCH   1  17
ATOM     17  C   UNL     1     221.565  -7.728  23.395  1.00  0.00     0.000 C 
BRANCH  17  18
ATOM     18  C   UNL     1     221.729  -8.739  22.246  1.00  0.00     0.000 C 
BRANCH  18  19
ATOM     19  C   UNL     1     220.930  -8.406  20.970  1.00  0.00     0.000 C 
BRANCH  19  20
ATOM     20  C   UNL     1     219.399  -8.400  21.142  1.00  0.00     0.000 C 
BRANCH  20  21
ATOM     21  C   UNL     1     218.802  -9.708  21.690  1.00  0.00     0.000 C 
BRANCH  21  22
ATOM     22  C   UNL     1     218.011  -9.503  22.992  1.00  0.00    -0.000 C 
BRANCH  22  23
ATOM     23  C   UNL     1     217.715  -8.015  23.232  1.00  0.00    -0.000 C 
BRANCH  23  24
ATOM     24  C   UNL     1     217.785  -7.636  24.727  1.00  0.00    -0.000 C 
BRANCH  24  25
ATOM     25  C   UNL     1     217.802  -8.848  25.675  1.00  0.00    -0.000 C 
BRANCH  25  26
ATOM     26  C   UNL     1     217.514  -8.473  27.136  1.00  0.00    -0.000 C 
BRANCH  26  27
ATOM     27  C   UNL     1     218.363  -7.287  27.624  1.00  0.00    -0.000 C 
BRANCH  27  28
ATOM     28  C   UNL     1     219.772  -7.694  28.111  1.00  0.00    -0.000 C 
BRANCH  28  29
ATOM     29  C   UNL     1     219.751  -8.613  29.346  1.00  0.00    -0.003 C 
ATOM     30  C   UNL     1     220.359  -7.948  30.581  1.00  0.00     0.004 C 
ENDBRANCH  28  29
ENDBRANCH  27  28
ENDBRANCH  26  27
ENDBRANCH  25  26
ENDBRANCH  24  25
ENDBRANCH  23  24
ENDBRANCH  22  23
ENDBRANCH  21  22
ENDBRANCH  20  21
ENDBRANCH  19  20
ENDBRANCH  18  19
ENDBRANCH  17  18
ENDBRANCH   1  17
TORSDOF 26
ENDMDL
MODEL 6
REMARK VINA RESULT:    -5.469      2.046      7.198
REMARK INTER + INTRA:         -18.908
REMARK INTER:                 -14.282
REMARK INTRA:                  -4.627
REMARK UNBOUND:                -5.126
REMARK SMILES CCCCCCCCCCCCCCCCCCCCCCCCCCCC(=O)[O-]
REMARK SMILES IDX 15 1 16 2 17 3 18 4 19 5 20 6 21 7 22 8 23 9 24 10 25 11
REMARK SMILES IDX 26 12 27 13 28 14 29 15 30 16 14 17 13 18 12 19 11 20 10 21
REMARK SMILES IDX 9 22 8 23 7 24 6 25 5 26 4 27 3 28 2 29 1 30
REMARK H PARENT
REMARK Flexibility Score: inf
ROOT
ATOM      1  C   UNL     1     218.535  -7.328  27.962  1.00  0.00     0.000 C 
ENDROOT
BRANCH   1   2
ATOM      2  C   UNL     1     219.324  -7.468  26.649  1.00  0.00     0.000 C 
BRANCH   2   3
ATOM      3  C   UNL     1     218.652  -6.831  25.416  1.00  0.00     0.000 C 
BRANCH   3   4
ATOM      4  C   UNL     1     217.667  -7.744  24.663  1.00  0.00     0.000 C 
BRANCH   4   5
ATOM      5  C   UNL     1     217.858  -9.234  24.997  1.00  0.00     0.000 C 
BRANCH   5   6
ATOM      6  C   UNL     1     218.058 -10.090  23.736  1.00  0.00     0.000 C 
BRANCH   6   7
ATOM      7  C   UNL     1     217.914  -9.264  22.445  1.00  0.00     0.000 C 
BRANCH   7   8
ATOM      8  C   UNL     1     219.001  -9.592  21.409  1.00  0.00     0.000 C 
BRANCH   8   9
ATOM      9  C   UNL     1     219.865  -8.374  21.042  1.00  0.00     0.000 C 
BRANCH   9  10
ATOM     10  C   UNL     1     220.654  -7.832  22.255  1.00  0.00     0.000 C 
BRANCH  10  11
ATOM     11  C   UNL     1     221.649  -8.847  22.846  1.00  0.00     0.000 C 
BRANCH  11  12
ATOM     12  C   UNL     1     221.623  -8.956  24.384  1.00  0.00     0.006 C 
BRANCH  12  13
ATOM     13  C   UNL     1     221.448 -10.395  24.904  1.00  0.00     0.053 C 
BRANCH  13  14
ATOM     14  C   UNL     1     222.003 -10.581  26.282  1.00  0.00     0.041 C 
ATOM     15  O   UNL     1     223.097 -11.181  26.452  1.00  0.00    -0.550 OA
ATOM     16  O   UNL     1     221.297 -10.115  27.384  1.00  0.00    -0.550 OA
ENDBRANCH  13  14
ENDBRANCH  12  13
ENDBRANCH  11  12
ENDBRANCH  10  11
ENDBRANCH   9  10
ENDBRANCH   8   9
ENDBRANCH   7   8
ENDBRANCH   6   7
ENDBRANCH   5   6
ENDBRANCH   4   5
ENDBRANCH   3   4
ENDBRANCH   2   3
ENDBRANCH   1   2
BRANCH   1  17
ATOM     17  C   UNL     1     218.156  -8.685  28.580  1.00  0.00     0.000 C 
BRANCH  17  18
ATOM     18  C   UNL     1     218.222  -8.681  30.117  1.00  0.00     0.000 C 
BRANCH  18  19
ATOM     19  C   UNL     1     219.039  -9.833  30.734  1.00  0.00     0.000 C 
BRANCH  19  20
ATOM     20  C   UNL     1     220.569  -9.649  30.684  1.00  0.00     0.000 C 
BRANCH  20  21
ATOM     21  C   UNL     1     221.061  -8.222  30.984  1.00  0.00     0.000 C 
BRANCH  21  22
ATOM     22  C   UNL     1     221.842  -7.602  29.814  1.00  0.00    -0.000 C 
BRANCH  22  23
ATOM     23  C   UNL     1     223.354  -7.811  29.985  1.00  0.00    -0.000 C 
BRANCH  23  24
ATOM     24  C   UNL     1     223.954  -8.700  28.874  1.00  0.00    -0.000 C 
BRANCH  24  25
ATOM     25  C   UNL     1     224.827  -9.851  29.404  1.00  0.00    -0.000 C 
BRANCH  25  26
ATOM     26  C   UNL     1     224.892  -9.899  30.938  1.00  0.00    -0.000 C 
BRANCH  26  27
ATOM     27  C   UNL     1     224.022 -11.018  31.536  1.00  0.00    -0.000 C 
BRANCH  27  28
ATOM     28  C   UNL     1     223.292 -10.606  32.834  1.00  0.00    -0.000 C 
BRANCH  28  29
ATOM     29  C   UNL     1     224.135  -9.698  33.747  1.00  0.00    -0.003 C 
ATOM     30  C   UNL     1     223.550  -8.291  33.876  1.00  0.00     0.004 C 
ENDBRANCH  28  29
ENDBRANCH  27  28
ENDBRANCH  26  27
ENDBRANCH  25  26
ENDBRANCH  24  25
ENDBRANCH  23  24
ENDBRANCH  22  23
ENDBRANCH  21  22
ENDBRANCH  20  21
ENDBRANCH  19  20
ENDBRANCH  18  19
ENDBRANCH  17  18
ENDBRANCH   1  17
TORSDOF 26
ENDMDL
MODEL 7
REMARK VINA RESULT:    -5.467      2.343      3.273
REMARK INTER + INTRA:         -18.903
REMARK INTER:                 -13.907
REMARK INTRA:                  -4.996
REMARK UNBOUND:                -5.126
REMARK SMILES CCCCCCCCCCCCCCCCCCCCCCCCCCCC(=O)[O-]
REMARK SMILES IDX 15 1 16 2 17 3 18 4 19 5 20 6 21 7 22 8 23 9 24 10 25 11
REMARK SMILES IDX 26 12 27 13 28 14 29 15 30 16 14 17 13 18 12 19 11 20 10 21
REMARK SMILES IDX 9 22 8 23 7 24 6 25 5 26 4 27 3 28 2 29 1 30
REMARK H PARENT
REMARK Flexibility Score: inf
ROOT
ATOM      1  C   UNL     1     217.891  -9.318  28.398  1.00  0.00     0.000 C 
ENDROOT
BRANCH   1   2
ATOM      2  C   UNL     1     218.230  -8.210  29.410  1.00  0.00     0.000 C 
BRANCH   2   3
ATOM      3  C   UNL     1     219.180  -8.636  30.547  1.00  0.00     0.000 C 
BRANCH   3   4
ATOM      4  C   UNL     1     219.390 -10.154  30.690  1.00  0.00     0.000 C 
BRANCH   4   5
ATOM      5  C   UNL     1     220.872 -10.562  30.617  1.00  0.00     0.000 C 
BRANCH   5   6
ATOM      6  C   UNL     1     221.766  -9.659  31.483  1.00  0.00     0.000 C 
BRANCH   6   7
ATOM      7  C   UNL     1     223.204 -10.196  31.589  1.00  0.00     0.000 C 
BRANCH   7   8
ATOM      8  C   UNL     1     223.794 -10.582  30.224  1.00  0.00     0.000 C 
BRANCH   8   9
ATOM      9  C   UNL     1     225.129  -9.879  29.928  1.00  0.00     0.000 C 
BRANCH   9  10
ATOM     10  C   UNL     1     224.989  -8.340  29.921  1.00  0.00     0.000 C 
BRANCH  10  11
ATOM     11  C   UNL     1     226.097  -7.623  29.130  1.00  0.00     0.000 C 
BRANCH  11  12
ATOM     12  C   UNL     1     225.653  -6.323  28.429  1.00  0.00     0.006 C 
BRANCH  12  13
ATOM     13  C   UNL     1     225.042  -5.279  29.383  1.00  0.00     0.053 C 
BRANCH  13  14
ATOM     14  C   UNL     1     225.921  -4.081  29.566  1.00  0.00     0.041 C 
ATOM     15  O   UNL     1     225.588  -2.967  29.082  1.00  0.00    -0.550 OA
ATOM     16  O   UNL     1     227.124  -4.201  30.249  1.00  0.00    -0.550 OA
ENDBRANCH  13  14
ENDBRANCH  12  13
ENDBRANCH  11  12
ENDBRANCH  10  11
ENDBRANCH   9  10
ENDBRANCH   8   9
ENDBRANCH   7   8
ENDBRANCH   6   7
ENDBRANCH   5   6
ENDBRANCH   4   5
ENDBRANCH   3   4
ENDBRANCH   2   3
ENDBRANCH   1   2
BRANCH   1  17
ATOM     17  C   UNL     1     217.567  -8.769  26.997  1.00  0.00     0.000 C 
BRANCH  17  18
ATOM     18  C   UNL     1     217.915  -7.279  26.845  1.00  0.00     0.000 C 
BRANCH  18  19
ATOM     19  C   UNL     1     219.169  -6.989  25.995  1.00  0.00     0.000 C 
BRANCH  19  20
ATOM     20  C   UNL     1     218.887  -6.550  24.545  1.00  0.00     0.000 C 
BRANCH  20  21
ATOM     21  C   UNL     1     217.734  -7.299  23.853  1.00  0.00     0.000 C 
BRANCH  21  22
ATOM     22  C   UNL     1     218.226  -8.403  22.904  1.00  0.00    -0.000 C 
BRANCH  22  23
ATOM     23  C   UNL     1     218.099  -9.790  23.553  1.00  0.00    -0.000 C 
BRANCH  23  24
ATOM     24  C   UNL     1     219.472 -10.423  23.862  1.00  0.00    -0.000 C 
BRANCH  24  25
ATOM     25  C   UNL     1     220.667  -9.538  23.462  1.00  0.00    -0.000 C 
BRANCH  25  26
ATOM     26  C   UNL     1     221.712  -9.397  24.579  1.00  0.00    -0.000 C 
BRANCH  26  27
ATOM     27  C   UNL     1     221.476 -10.377  25.741  1.00  0.00    -0.000 C 
BRANCH  27  28
ATOM     28  C   UNL     1     221.445  -9.695  27.128  1.00  0.00    -0.000 C 
BRANCH  28  29
ATOM     29  C   UNL     1     222.351  -8.454  27.219  1.00  0.00    -0.003 C 
ATOM     30  C   UNL     1     221.937  -7.510  28.348  1.00  0.00     0.004 C 
ENDBRANCH  28  29
ENDBRANCH  27  28
ENDBRANCH  26  27
ENDBRANCH  25  26
ENDBRANCH  24  25
ENDBRANCH  23  24
ENDBRANCH  22  23
ENDBRANCH  21  22
ENDBRANCH  20  21
ENDBRANCH  19  20
ENDBRANCH  18  19
ENDBRANCH  17  18
ENDBRANCH   1  17
TORSDOF 26
ENDMDL
MODEL 8
REMARK VINA RESULT:    -5.403      1.640      2.415
REMARK INTER + INTRA:         -18.742
REMARK INTER:                 -13.774
REMARK INTRA:                  -4.968
REMARK UNBOUND:                -5.126
REMARK SMILES CCCCCCCCCCCCCCCCCCCCCCCCCCCC(=O)[O-]
REMARK SMILES IDX 15 1 16 2 17 3 18 4 19 5 20 6 21 7 22 8 23 9 24 10 25 11
REMARK SMILES IDX 26 12 27 13 28 14 29 15 30 16 14 17 13 18 12 19 11 20 10 21
REMARK SMILES IDX 9 22 8 23 7 24 6 25 5 26 4 27 3 28 2 29 1 30
REMARK H PARENT
REMARK Flexibility Score: inf
ROOT
ATOM      1  C   UNL     1     218.445  -7.330  27.436  1.00  0.00     0.000 C 
ENDROOT
BRANCH   1   2
ATOM      2  C   UNL     1     218.757  -7.259  28.941  1.00  0.00     0.000 C 
BRANCH   2   3
ATOM      3  C   UNL     1     217.863  -8.143  29.834  1.00  0.00     0.000 C 
BRANCH   3   4
ATOM      4  C   UNL     1     218.591  -9.294  30.552  1.00  0.00     0.000 C 
BRANCH   4   5
ATOM      5  C   UNL     1     219.944  -9.640  29.906  1.00  0.00     0.000 C 
BRANCH   5   6
ATOM      6  C   UNL     1     220.857 -10.427  30.862  1.00  0.00     0.000 C 
BRANCH   6   7
ATOM      7  C   UNL     1     221.997 -11.144  30.116  1.00  0.00     0.000 C 
BRANCH   7   8
ATOM      8  C   UNL     1     223.244 -11.343  30.992  1.00  0.00     0.000 C 
BRANCH   8   9
ATOM      9  C   UNL     1     223.417 -10.237  32.047  1.00  0.00     0.000 C 
BRANCH   9  10
ATOM     10  C   UNL     1     224.307  -9.081  31.539  1.00  0.00     0.000 C 
BRANCH  10  11
ATOM     11  C   UNL     1     223.528  -7.786  31.246  1.00  0.00     0.000 C 
BRANCH  11  12
ATOM     12  C   UNL     1     223.115  -7.600  29.772  1.00  0.00     0.006 C 
BRANCH  12  13
ATOM     13  C   UNL     1     224.268  -7.798  28.772  1.00  0.00     0.053 C 
BRANCH  13  14
ATOM     14  C   UNL     1     225.158  -6.597  28.671  1.00  0.00     0.041 C 
ATOM     15  O   UNL     1     226.391  -6.734  28.455  1.00  0.00    -0.550 OA
ATOM     16  O   UNL     1     224.628  -5.325  28.844  1.00  0.00    -0.550 OA
ENDBRANCH  13  14
ENDBRANCH  12  13
ENDBRANCH  11  12
ENDBRANCH  10  11
ENDBRANCH   9  10
ENDBRANCH   8   9
ENDBRANCH   7   8
ENDBRANCH   6   7
ENDBRANCH   5   6
ENDBRANCH   4   5
ENDBRANCH   3   4
ENDBRANCH   2   3
ENDBRANCH   1   2
BRANCH   1  17
ATOM     17  C   UNL     1     217.804  -8.666  27.022  1.00  0.00     0.000 C 
BRANCH  17  18
ATOM     18  C   UNL     1     217.879  -8.919  25.506  1.00  0.00     0.000 C 
BRANCH  18  19
ATOM     19  C   UNL     1     217.510  -7.707  24.628  1.00  0.00     0.000 C 
BRANCH  19  20
ATOM     20  C   UNL     1     217.396  -8.004  23.120  1.00  0.00     0.000 C 
BRANCH  20  21
ATOM     21  C   UNL     1     217.642  -9.472  22.727  1.00  0.00     0.000 C 
BRANCH  21  22
ATOM     22  C   UNL     1     218.988  -9.680  22.014  1.00  0.00    -0.000 C 
BRANCH  22  23
ATOM     23  C   UNL     1     219.693  -8.340  21.757  1.00  0.00    -0.000 C 
BRANCH  23  24
ATOM     24  C   UNL     1     220.909  -8.128  22.684  1.00  0.00    -0.000 C 
BRANCH  24  25
ATOM     25  C   UNL     1     220.841  -6.831  23.510  1.00  0.00    -0.000 C 
BRANCH  25  26
ATOM     26  C   UNL     1     221.097  -7.058  25.008  1.00  0.00    -0.000 C 
BRANCH  26  27
ATOM     27  C   UNL     1     222.012  -8.263  25.279  1.00  0.00    -0.000 C 
BRANCH  27  28
ATOM     28  C   UNL     1     221.596  -9.089  26.517  1.00  0.00    -0.000 C 
BRANCH  28  29
ATOM     29  C   UNL     1     221.639 -10.610  26.282  1.00  0.00    -0.003 C 
ATOM     30  C   UNL     1     220.983 -11.016  24.962  1.00  0.00     0.004 C 
ENDBRANCH  28  29
ENDBRANCH  27  28
ENDBRANCH  26  27
ENDBRANCH  25  26
ENDBRANCH  24  25
ENDBRANCH  23  24
ENDBRANCH  22  23
ENDBRANCH  21  22
ENDBRANCH  20  21
ENDBRANCH  19  20
ENDBRANCH  18  19
ENDBRANCH  17  18
ENDBRANCH   1  17
TORSDOF 26
ENDMDL
MODEL 9
REMARK VINA RESULT:    -5.372      3.882      6.263
REMARK INTER + INTRA:         -18.663
REMARK INTER:                 -14.167
REMARK INTRA:                  -4.497
REMARK UNBOUND:                -5.126
REMARK SMILES CCCCCCCCCCCCCCCCCCCCCCCCCCCC(=O)[O-]
REMARK SMILES IDX 15 1 16 2 17 3 18 4 19 5 20 6 21 7 22 8 23 9 24 10 25 11
REMARK SMILES IDX 26 12 27 13 28 14 29 15 30 16 14 17 13 18 12 19 11 20 10 21
REMARK SMILES IDX 9 22 8 23 7 24 6 25 5 26 4 27 3 28 2 29 1 30
REMARK H PARENT
REMARK Flexibility Score: inf
ROOT
ATOM      1  C   UNL     1     221.538  -9.810  26.938  1.00  0.00     0.000 C 
ENDROOT
BRANCH   1   2
ATOM      2  C   UNL     1     222.533 -10.798  27.572  1.00  0.00     0.000 C 
BRANCH   2   3
ATOM      3  C   UNL     1     222.338 -11.039  29.082  1.00  0.00     0.000 C 
BRANCH   3   4
ATOM      4  C   UNL     1     223.494 -10.555  29.976  1.00  0.00     0.000 C 
BRANCH   4   5
ATOM      5  C   UNL     1     224.576  -9.792  29.192  1.00  0.00     0.000 C 
BRANCH   5   6
ATOM      6  C   UNL     1     225.193  -8.650  30.018  1.00  0.00     0.000 C 
BRANCH   6   7
ATOM      7  C   UNL     1     226.020  -7.686  29.148  1.00  0.00     0.000 C 
BRANCH   7   8
ATOM      8  C   UNL     1     225.167  -6.566  28.532  1.00  0.00     0.000 C 
BRANCH   8   9
ATOM      9  C   UNL     1     225.051  -5.333  29.444  1.00  0.00     0.000 C 
BRANCH   9  10
ATOM     10  C   UNL     1     225.487  -4.035  28.727  1.00  0.00     0.000 C 
BRANCH  10  11
ATOM     11  C   UNL     1     226.859  -4.141  28.039  1.00  0.00     0.000 C 
BRANCH  11  12
ATOM     12  C   UNL     1     227.233  -2.935  27.154  1.00  0.00     0.006 C 
BRANCH  12  13
ATOM     13  C   UNL     1     228.740  -2.819  26.862  1.00  0.00     0.053 C 
BRANCH  13  14
ATOM     14  C   UNL     1     229.389  -1.696  27.610  1.00  0.00     0.041 C 
ATOM     15  O   UNL     1     228.686  -0.853  28.228  1.00  0.00    -0.550 OA
ATOM     16  O   UNL     1     230.771  -1.565  27.604  1.00  0.00    -0.550 OA
ENDBRANCH  13  14
ENDBRANCH  12  13
ENDBRANCH  11  12
ENDBRANCH  10  11
ENDBRANCH   9  10
ENDBRANCH   8   9
ENDBRANCH   7   8
ENDBRANCH   6   7
ENDBRANCH   5   6
ENDBRANCH   4   5
ENDBRANCH   3   4
ENDBRANCH   2   3
ENDBRANCH   1   2
BRANCH   1  17
ATOM     17  C   UNL     1     222.090  -8.377  26.855  1.00  0.00     0.000 C 
BRANCH  17  18
ATOM     18  C   UNL     1     221.331  -7.391  27.760  1.00  0.00     0.000 C 
BRANCH  18  19
ATOM     19  C   UNL     1     221.541  -7.606  29.272  1.00  0.00     0.000 C 
BRANCH  19  20
ATOM     20  C   UNL     1     220.250  -7.623  30.115  1.00  0.00     0.000 C 
BRANCH  20  21
ATOM     21  C   UNL     1     219.789  -9.020  30.568  1.00  0.00     0.000 C 
BRANCH  21  22
ATOM     22  C   UNL     1     218.877  -9.710  29.541  1.00  0.00    -0.000 C 
BRANCH  22  23
ATOM     23  C   UNL     1     217.891  -8.711  28.917  1.00  0.00    -0.000 C 
BRANCH  23  24
ATOM     24  C   UNL     1     217.738  -8.910  27.394  1.00  0.00    -0.000 C 
BRANCH  24  25
ATOM     25  C   UNL     1     217.833  -7.604  26.585  1.00  0.00    -0.000 C 
BRANCH  25  26
ATOM     26  C   UNL     1     218.545  -7.782  25.235  1.00  0.00    -0.000 C 
BRANCH  26  27
ATOM     27  C   UNL     1     218.666  -9.257  24.817  1.00  0.00    -0.000 C 
BRANCH  27  28
ATOM     28  C   UNL     1     219.520  -9.470  23.546  1.00  0.00    -0.000 C 
BRANCH  28  29
ATOM     29  C   UNL     1     220.052  -8.159  22.939  1.00  0.00    -0.003 C 
ATOM     30  C   UNL     1     221.572  -8.039  23.049  1.00  0.00     0.004 C 
ENDBRANCH  28  29
ENDBRANCH  27  28
ENDBRANCH  26  27
ENDBRANCH  25  26
ENDBRANCH  24  25
ENDBRANCH  23  24
ENDBRANCH  22  23
ENDBRANCH  21  22
ENDBRANCH  20  21
ENDBRANCH  19  20
ENDBRANCH  18  19
ENDBRANCH  17  18
ENDBRANCH   1  17
TORSDOF 26
ENDMDL
