MODEL 1
REMARK VINA RESULT:    -1.757      0.000      0.000
REMARK INTER + INTRA:          -5.993
REMARK INTER:                  -4.632
REMARK INTRA:                  -1.361
REMARK UNBOUND:                -1.361
REMARK SMILES CCCCCCCCCCCCCCCCCCCCCCCCCCCCCC(=O)[O-]
REMARK SMILES IDX 16 1 17 2 18 3 19 4 20 5 21 6 22 7 23 8 24 9 25 10 26 11
REMARK SMILES IDX 27 12 28 13 29 14 30 15 31 16 32 17 15 18 14 19 13 20 12 21
REMARK SMILES IDX 11 22 10 23 9 24 8 25 7 26 6 27 5 28 4 29 3 30 2 31 1 32
REMARK H PARENT
REMARK Flexibility Score: inf
ROOT
ATOM      1  C   UNL     1     -42.417 -27.033  -0.908  1.00  0.00     0.000 C 
ENDROOT
BRANCH   1   2
ATOM      2  C   UNL     1     -43.677 -26.618  -1.690  1.00  0.00     0.000 C 
BRANCH   2   3
ATOM      3  C   UNL     1     -43.577 -26.930  -3.189  1.00  0.00     0.000 C 
BRANCH   3   4
ATOM      4  C   UNL     1     -44.951 -27.321  -3.755  1.00  0.00     0.000 C 
BRANCH   4   5
ATOM      5  C   UNL     1     -45.676 -28.362  -2.887  1.00  0.00     0.000 C 
BRANCH   5   6
ATOM      6  C   UNL     1     -47.072 -28.713  -3.431  1.00  0.00     0.000 C 
BRANCH   6   7
ATOM      7  C   UNL     1     -47.124 -30.110  -4.073  1.00  0.00     0.000 C 
BRANCH   7   8
ATOM      8  C   UNL     1     -46.827 -30.075  -5.583  1.00  0.00     0.000 C 
BRANCH   8   9
ATOM      9  C   UNL     1     -46.935 -28.660  -6.173  1.00  0.00     0.000 C 
BRANCH   9  10
ATOM     10  C   UNL     1     -45.758 -28.311  -7.100  1.00  0.00     0.000 C 
BRANCH  10  11
ATOM     11  C   UNL     1     -46.199 -27.539  -8.356  1.00  0.00     0.000 C 
BRANCH  11  12
ATOM     12  C   UNL     1     -45.607 -28.061  -9.679  1.00  0.00     0.000 C 
BRANCH  12  13
ATOM     13  C   UNL     1     -44.687 -29.291  -9.547  1.00  0.00     0.006 C 
BRANCH  13  14
ATOM     14  C   UNL     1     -43.185 -28.964  -9.542  1.00  0.00     0.053 C 
BRANCH  14  15
ATOM     15  C   UNL     1     -42.625 -28.935  -8.153  1.00  0.00     0.041 C 
ATOM     16  O   UNL     1     -42.351 -27.837  -7.602  1.00  0.00    -0.550 OA
ATOM     17  O   UNL     1     -42.369 -30.124  -7.481  1.00  0.00    -0.550 OA
ENDBRANCH  14  15
ENDBRANCH  13  14
ENDBRANCH  12  13
ENDBRANCH  11  12
ENDBRANCH  10  11
ENDBRANCH   9  10
ENDBRANCH   8   9
ENDBRANCH   7   8
ENDBRANCH   6   7
ENDBRANCH   5   6
ENDBRANCH   4   5
ENDBRANCH   3   4
ENDBRANCH   2   3
ENDBRANCH   1   2
BRANCH   1  18
ATOM     18  C   UNL     1     -42.491 -28.423  -0.242  1.00  0.00     0.000 C 
BRANCH  18  19
ATOM     19  C   UNL     1     -43.852 -29.133  -0.363  1.00  0.00     0.000 C 
BRANCH  19  20
ATOM     20  C   UNL     1     -44.124 -30.104   0.797  1.00  0.00     0.000 C 
BRANCH  20  21
ATOM     21  C   UNL     1     -45.513 -29.863   1.408  1.00  0.00     0.000 C 
BRANCH  21  22
ATOM     22  C   UNL     1     -46.251 -28.671   0.763  1.00  0.00     0.000 C 
BRANCH  22  23
ATOM     23  C   UNL     1     -46.381 -27.437   1.676  1.00  0.00     0.000 C 
BRANCH  23  24
ATOM     24  C   UNL     1     -47.119 -27.678   3.006  1.00  0.00    -0.000 C 
BRANCH  24  25
ATOM     25  C   UNL     1     -46.742 -28.983   3.737  1.00  0.00    -0.000 C 
BRANCH  25  26
ATOM     26  C   UNL     1     -47.048 -28.994   5.245  1.00  0.00    -0.000 C 
BRANCH  26  27
ATOM     27  C   UNL     1     -45.940 -29.646   6.100  1.00  0.00    -0.000 C 
BRANCH  27  28
ATOM     28  C   UNL     1     -45.745 -28.935   7.447  1.00  0.00    -0.000 C 
BRANCH  28  29
ATOM     29  C   UNL     1     -45.792 -27.412   7.280  1.00  0.00    -0.000 C 
BRANCH  29  30
ATOM     30  C   UNL     1     -47.011 -26.819   7.999  1.00  0.00    -0.000 C 
BRANCH  30  31
ATOM     31  C   UNL     1     -46.777 -25.347   8.356  1.00  0.00    -0.003 C 
ATOM     32  C   UNL     1     -47.082 -25.082   9.827  1.00  0.00     0.004 C 
ENDBRANCH  30  31
ENDBRANCH  29  30
ENDBRANCH  28  29
ENDBRANCH  27  28
ENDBRANCH  26  27
ENDBRANCH  25  26
ENDBRANCH  24  25
ENDBRANCH  23  24
ENDBRANCH  22  23
ENDBRANCH  21  22
ENDBRANCH  20  21
ENDBRANCH  19  20
ENDBRANCH  18  19
ENDBRANCH   1  18
TORSDOF 28
ENDMDL
MODEL 2
REMARK VINA RESULT:    -1.658      2.977     11.946
REMARK INTER + INTRA:          -5.732
REMARK INTER:                  -4.387
REMARK INTRA:                  -1.345
REMARK UNBOUND:                -1.361
REMARK SMILES CCCCCCCCCCCCCCCCCCCCCCCCCCCCCC(=O)[O-]
REMARK SMILES IDX 16 1 17 2 18 3 19 4 20 5 21 6 22 7 23 8 24 9 25 10 26 11
REMARK SMILES IDX 27 12 28 13 29 14 30 15 31 16 32 17 15 18 14 19 13 20 12 21
REMARK SMILES IDX 11 22 10 23 9 24 8 25 7 26 6 27 5 28 4 29 3 30 2 31 1 32
REMARK H PARENT
REMARK Flexibility Score: inf
ROOT
ATOM      1  C   UNL     1     -44.223 -28.640  -0.679  1.00  0.00     0.000 C 
ENDROOT
BRANCH   1   2
ATOM      2  C   UNL     1     -45.339 -28.540   0.376  1.00  0.00     0.000 C 
BRANCH   2   3
ATOM      3  C   UNL     1     -45.428 -29.785   1.269  1.00  0.00     0.000 C 
BRANCH   3   4
ATOM      4  C   UNL     1     -46.888 -30.084   1.640  1.00  0.00     0.000 C 
BRANCH   4   5
ATOM      5  C   UNL     1     -47.119 -30.124   3.159  1.00  0.00     0.000 C 
BRANCH   5   6
ATOM      6  C   UNL     1     -45.820 -29.923   3.958  1.00  0.00     0.000 C 
BRANCH   6   7
ATOM      7  C   UNL     1     -46.033 -30.052   5.476  1.00  0.00     0.000 C 
BRANCH   7   8
ATOM      8  C   UNL     1     -44.748 -29.772   6.277  1.00  0.00     0.000 C 
BRANCH   8   9
ATOM      9  C   UNL     1     -44.732 -28.363   6.891  1.00  0.00     0.000 C 
BRANCH   9  10
ATOM     10  C   UNL     1     -46.120 -27.910   7.377  1.00  0.00     0.000 C 
BRANCH  10  11
ATOM     11  C   UNL     1     -46.326 -26.391   7.254  1.00  0.00     0.000 C 
BRANCH  11  12
ATOM     12  C   UNL     1     -47.064 -25.938   5.980  1.00  0.00     0.000 C 
BRANCH  12  13
ATOM     13  C   UNL     1     -46.234 -26.002   4.682  1.00  0.00     0.006 C 
BRANCH  13  14
ATOM     14  C   UNL     1     -47.013 -26.496   3.453  1.00  0.00     0.053 C 
BRANCH  14  15
ATOM     15  C   UNL     1     -46.391 -26.031   2.173  1.00  0.00     0.041 C 
ATOM     16  O   UNL     1     -47.025 -26.119   1.089  1.00  0.00    -0.550 OA
ATOM     17  O   UNL     1     -45.093 -25.533   2.171  1.00  0.00    -0.550 OA
ENDBRANCH  14  15
ENDBRANCH  13  14
ENDBRANCH  12  13
ENDBRANCH  11  12
ENDBRANCH  10  11
ENDBRANCH   9  10
ENDBRANCH   8   9
ENDBRANCH   7   8
ENDBRANCH   6   7
ENDBRANCH   5   6
ENDBRANCH   4   5
ENDBRANCH   3   4
ENDBRANCH   2   3
ENDBRANCH   1   2
BRANCH   1  18
ATOM     18  C   UNL     1     -43.587 -27.294  -1.086  1.00  0.00     0.000 C 
BRANCH  18  19
ATOM     19  C   UNL     1     -44.119 -26.692  -2.400  1.00  0.00     0.000 C 
BRANCH  19  20
ATOM     20  C   UNL     1     -45.481 -27.270  -2.814  1.00  0.00     0.000 C 
BRANCH  20  21
ATOM     21  C   UNL     1     -45.617 -27.331  -4.343  1.00  0.00     0.000 C 
BRANCH  21  22
ATOM     22  C   UNL     1     -44.327 -27.816  -5.038  1.00  0.00     0.000 C 
BRANCH  22  23
ATOM     23  C   UNL     1     -44.383 -27.770  -6.577  1.00  0.00     0.000 C 
BRANCH  23  24
ATOM     24  C   UNL     1     -45.644 -27.115  -7.171  1.00  0.00    -0.000 C 
BRANCH  24  25
ATOM     25  C   UNL     1     -45.698 -27.079  -8.712  1.00  0.00    -0.000 C 
BRANCH  25  26
ATOM     26  C   UNL     1     -46.767 -27.988  -9.345  1.00  0.00    -0.000 C 
BRANCH  26  27
ATOM     27  C   UNL     1     -46.528 -29.492  -9.100  1.00  0.00    -0.000 C 
BRANCH  27  28
ATOM     28  C   UNL     1     -45.527 -30.097 -10.095  1.00  0.00    -0.000 C 
BRANCH  28  29
ATOM     29  C   UNL     1     -44.084 -29.783  -9.687  1.00  0.00    -0.000 C 
BRANCH  29  30
ATOM     30  C   UNL     1     -43.876 -30.011  -8.184  1.00  0.00    -0.000 C 
BRANCH  30  31
ATOM     31  C   UNL     1     -42.385 -30.095  -7.840  1.00  0.00    -0.003 C 
ATOM     32  C   UNL     1     -41.527 -30.064  -9.100  1.00  0.00     0.004 C 
ENDBRANCH  30  31
ENDBRANCH  29  30
ENDBRANCH  28  29
ENDBRANCH  27  28
ENDBRANCH  26  27
ENDBRANCH  25  26
ENDBRANCH  24  25
ENDBRANCH  23  24
ENDBRANCH  22  23
ENDBRANCH  21  22
ENDBRANCH  20  21
ENDBRANCH  19  20
ENDBRANCH  18  19
ENDBRANCH   1  18
TORSDOF 28
ENDMDL
MODEL 3
REMARK VINA RESULT:     1.101      4.374     11.973
REMARK INTER + INTRA:           1.544
REMARK INTER:                   2.147
REMARK INTRA:                  -0.603
REMARK UNBOUND:                -1.361
REMARK SMILES CCCCCCCCCCCCCCCCCCCCCCCCCCCCCC(=O)[O-]
REMARK SMILES IDX 16 1 17 2 18 3 19 4 20 5 21 6 22 7 23 8 24 9 25 10 26 11
REMARK SMILES IDX 27 12 28 13 29 14 30 15 31 16 32 17 15 18 14 19 13 20 12 21
REMARK SMILES IDX 11 22 10 23 9 24 8 25 7 26 6 27 5 28 4 29 3 30 2 31 1 32
REMARK H PARENT
REMARK Flexibility Score: inf
ROOT
ATOM      1  C   UNL     1     -43.736 -27.688   0.306  1.00  0.00     0.000 C 
ENDROOT
BRANCH   1   2
ATOM      2  C   UNL     1     -44.023 -28.949   1.140  1.00  0.00     0.000 C 
BRANCH   2   3
ATOM      3  C   UNL     1     -45.254 -29.722   0.649  1.00  0.00     0.000 C 
BRANCH   3   4
ATOM      4  C   UNL     1     -46.233 -29.975   1.805  1.00  0.00     0.000 C 
BRANCH   4   5
ATOM      5  C   UNL     1     -47.106 -28.751   2.124  1.00  0.00     0.000 C 
BRANCH   5   6
ATOM      6  C   UNL     1     -46.681 -27.502   1.333  1.00  0.00     0.000 C 
BRANCH   6   7
ATOM      7  C   UNL     1     -46.170 -26.371   2.241  1.00  0.00     0.000 C 
BRANCH   7   8
ATOM      8  C   UNL     1     -47.124 -26.079   3.413  1.00  0.00     0.000 C 
BRANCH   8   9
ATOM      9  C   UNL     1     -46.861 -26.985   4.627  1.00  0.00     0.000 C 
BRANCH   9  10
ATOM     10  C   UNL     1     -45.363 -27.123   4.951  1.00  0.00     0.000 C 
BRANCH  10  11
ATOM     11  C   UNL     1     -45.096 -28.066   6.137  1.00  0.00     0.000 C 
BRANCH  11  12
ATOM     12  C   UNL     1     -46.347 -28.459   6.948  1.00  0.00     0.000 C 
BRANCH  12  13
ATOM     13  C   UNL     1     -46.215 -28.298   8.475  1.00  0.00     0.006 C 
BRANCH  13  14
ATOM     14  C   UNL     1     -47.124 -27.216   9.081  1.00  0.00     0.053 C 
BRANCH  14  15
ATOM     15  C   UNL     1     -46.714 -25.840   8.658  1.00  0.00     0.041 C 
ATOM     16  O   UNL     1     -46.265 -25.023   9.503  1.00  0.00    -0.550 OA
ATOM     17  O   UNL     1     -46.863 -25.446   7.333  1.00  0.00    -0.550 OA
ENDBRANCH  14  15
ENDBRANCH  13  14
ENDBRANCH  12  13
ENDBRANCH  11  12
ENDBRANCH  10  11
ENDBRANCH   9  10
ENDBRANCH   8   9
ENDBRANCH   7   8
ENDBRANCH   6   7
ENDBRANCH   5   6
ENDBRANCH   4   5
ENDBRANCH   3   4
ENDBRANCH   2   3
ENDBRANCH   1   2
BRANCH   1  18
ATOM     18  C   UNL     1     -42.257 -27.485  -0.084  1.00  0.00     0.000 C 
BRANCH  18  19
ATOM     19  C   UNL     1     -41.955 -27.606  -1.590  1.00  0.00     0.000 C 
BRANCH  19  20
ATOM     20  C   UNL     1     -43.013 -26.917  -2.467  1.00  0.00     0.000 C 
BRANCH  20  21
ATOM     21  C   UNL     1     -44.131 -27.894  -2.857  1.00  0.00     0.000 C 
BRANCH  21  22
ATOM     22  C   UNL     1     -45.501 -27.201  -3.019  1.00  0.00     0.000 C 
BRANCH  22  23
ATOM     23  C   UNL     1     -46.691 -28.018  -2.481  1.00  0.00     0.000 C 
BRANCH  23  24
ATOM     24  C   UNL     1     -46.876 -29.409  -3.117  1.00  0.00    -0.000 C 
BRANCH  24  25
ATOM     25  C   UNL     1     -46.035 -29.666  -4.384  1.00  0.00    -0.000 C 
BRANCH  25  26
ATOM     26  C   UNL     1     -46.845 -29.797  -5.686  1.00  0.00    -0.000 C 
BRANCH  26  27
ATOM     27  C   UNL     1     -45.971 -29.936  -6.950  1.00  0.00    -0.000 C 
BRANCH  27  28
ATOM     28  C   UNL     1     -44.560 -29.363  -6.754  1.00  0.00    -0.000 C 
BRANCH  28  29
ATOM     29  C   UNL     1     -43.854 -29.160  -8.100  1.00  0.00    -0.000 C 
BRANCH  29  30
ATOM     30  C   UNL     1     -43.863 -27.681  -8.507  1.00  0.00    -0.000 C 
BRANCH  30  31
ATOM     31  C   UNL     1     -44.405 -27.504  -9.930  1.00  0.00    -0.003 C 
ATOM     32  C   UNL     1     -45.828 -28.040 -10.048  1.00  0.00     0.004 C 
ENDBRANCH  30  31
ENDBRANCH  29  30
ENDBRANCH  28  29
ENDBRANCH  27  28
ENDBRANCH  26  27
ENDBRANCH  25  26
ENDBRANCH  24  25
ENDBRANCH  23  24
ENDBRANCH  22  23
ENDBRANCH  21  22
ENDBRANCH  20  21
ENDBRANCH  19  20
ENDBRANCH  18  19
ENDBRANCH   1  18
TORSDOF 28
ENDMDL
