MODEL 1
REMARK VINA RESULT:    -4.312      0.000      0.000
REMARK INTER + INTRA:          -6.040
REMARK INTER:                  -5.824
REMARK INTRA:                  -0.216
REMARK UNBOUND:                -0.216
REMARK SMILES CCCCCCCC(=O)[O-]
REMARK SMILES IDX 5 1 6 2 7 3 8 4 9 5 10 6 4 7 3 8 2 9 1 10
REMARK H PARENT
REMARK Flexibility Score: inf
ROOT
ATOM      1  C   UNL     1     127.598 142.912 139.644  1.00  0.00     0.000 C 
ENDROOT
BRANCH   1   2
ATOM      2  C   UNL     1     126.168 143.439 139.843  1.00  0.00     0.006 C 
BRANCH   2   3
ATOM      3  C   UNL     1     126.105 144.972 139.897  1.00  0.00     0.053 C 
BRANCH   3   4
ATOM      4  C   UNL     1     126.032 145.540 138.515  1.00  0.00     0.041 C 
ATOM      5  O   UNL     1     125.669 144.818 137.551  1.00  0.00    -0.550 OA
ATOM      6  O   UNL     1     126.415 146.855 138.284  1.00  0.00    -0.550 OA
ENDBRANCH   3   4
ENDBRANCH   2   3
ENDBRANCH   1   2
BRANCH   1   7
ATOM      7  C   UNL     1     128.345 142.712 140.972  1.00  0.00     0.000 C 
BRANCH   7   8
ATOM      8  C   UNL     1     129.616 141.876 140.765  1.00  0.00    -0.000 C 
BRANCH   8   9
ATOM      9  C   UNL     1     129.904 141.595 139.283  1.00  0.00    -0.003 C 
ATOM     10  C   UNL     1     131.323 141.078 139.042  1.00  0.00     0.004 C 
ENDBRANCH   8   9
ENDBRANCH   7   8
ENDBRANCH   1   7
TORSDOF 6
ENDMDL
MODEL 2
REMARK VINA RESULT:    -4.270      3.593      5.421
REMARK INTER + INTRA:          -5.984
REMARK INTER:                  -5.673
REMARK INTRA:                  -0.310
REMARK UNBOUND:                -0.216
REMARK SMILES CCCCCCCC(=O)[O-]
REMARK SMILES IDX 5 1 6 2 7 3 8 4 9 5 10 6 4 7 3 8 2 9 1 10
REMARK H PARENT
REMARK Flexibility Score: inf
ROOT
ATOM      1  C   UNL     1     128.280 142.347 139.512  1.00  0.00     0.000 C 
ENDROOT
BRANCH   1   2
ATOM      2  C   UNL     1     128.133 142.415 141.041  1.00  0.00     0.006 C 
BRANCH   2   3
ATOM      3  C   UNL     1     129.484 142.531 141.760  1.00  0.00     0.053 C 
BRANCH   3   4
ATOM      4  C   UNL     1     130.341 141.343 141.454  1.00  0.00     0.041 C 
ATOM      5  O   UNL     1     130.010 140.200 141.863  1.00  0.00    -0.550 OA
ATOM      6  O   UNL     1     131.533 141.508 140.760  1.00  0.00    -0.550 OA
ENDBRANCH   3   4
ENDBRANCH   2   3
ENDBRANCH   1   2
BRANCH   1   7
ATOM      7  C   UNL     1     127.077 142.954 138.774  1.00  0.00     0.000 C 
BRANCH   7   8
ATOM      8  C   UNL     1     126.097 143.602 139.763  1.00  0.00    -0.000 C 
BRANCH   8   9
ATOM      9  C   UNL     1     126.175 145.136 139.754  1.00  0.00    -0.003 C 
ATOM     10  C   UNL     1     125.871 145.737 138.381  1.00  0.00     0.004 C 
ENDBRANCH   8   9
ENDBRANCH   7   8
ENDBRANCH   1   7
TORSDOF 6
ENDMDL
MODEL 3
REMARK VINA RESULT:    -4.163      3.462      5.649
REMARK INTER + INTRA:          -5.839
REMARK INTER:                  -5.647
REMARK INTRA:                  -0.192
REMARK UNBOUND:                -0.216
REMARK SMILES CCCCCCCC(=O)[O-]
REMARK SMILES IDX 5 1 6 2 7 3 8 4 9 5 10 6 4 7 3 8 2 9 1 10
REMARK H PARENT
REMARK Flexibility Score: inf
ROOT
ATOM      1  C   UNL     1     128.005 142.326 141.165  1.00  0.00     0.000 C 
ENDROOT
BRANCH   1   2
ATOM      2  C   UNL     1     129.480 142.476 141.573  1.00  0.00     0.006 C 
BRANCH   2   3
ATOM      3  C   UNL     1     130.282 141.182 141.378  1.00  0.00     0.053 C 
BRANCH   3   4
ATOM      4  C   UNL     1     131.456 141.426 140.484  1.00  0.00     0.041 C 
ATOM      5  O   UNL     1     132.601 141.601 140.974  1.00  0.00    -0.550 OA
ATOM      6  O   UNL     1     131.275 141.512 139.109  1.00  0.00    -0.550 OA
ENDBRANCH   3   4
ENDBRANCH   2   3
ENDBRANCH   1   2
BRANCH   1   7
ATOM      7  C   UNL     1     127.683 143.033 139.840  1.00  0.00     0.000 C 
BRANCH   7   8
ATOM      8  C   UNL     1     126.212 143.472 139.797  1.00  0.00    -0.000 C 
BRANCH   8   9
ATOM      9  C   UNL     1     126.045 144.994 139.928  1.00  0.00    -0.003 C 
ATOM     10  C   UNL     1     125.950 145.698 138.574  1.00  0.00     0.004 C 
ENDBRANCH   8   9
ENDBRANCH   7   8
ENDBRANCH   1   7
TORSDOF 6
ENDMDL
MODEL 4
REMARK VINA RESULT:    -4.121     12.139     14.200
REMARK INTER + INTRA:          -5.782
REMARK INTER:                  -5.167
REMARK INTRA:                  -0.616
REMARK UNBOUND:                -0.216
REMARK SMILES CCCCCCCC(=O)[O-]
REMARK SMILES IDX 5 1 6 2 7 3 8 4 9 5 10 6 4 7 3 8 2 9 1 10
REMARK H PARENT
REMARK Flexibility Score: inf
ROOT
ATOM      1  C   UNL     1     140.427 134.983 140.992  1.00  0.00     0.000 C 
ENDROOT
BRANCH   1   2
ATOM      2  C   UNL     1     139.578 136.263 141.044  1.00  0.00     0.006 C 
BRANCH   2   3
ATOM      3  C   UNL     1     139.180 136.766 139.650  1.00  0.00     0.053 C 
BRANCH   3   4
ATOM      4  C   UNL     1     137.693 136.725 139.486  1.00  0.00     0.041 C 
ATOM      5  O   UNL     1     137.044 135.704 139.834  1.00  0.00    -0.550 OA
ATOM      6  O   UNL     1     137.029 137.796 138.902  1.00  0.00    -0.550 OA
ENDBRANCH   3   4
ENDBRANCH   2   3
ENDBRANCH   1   2
BRANCH   1   7
ATOM      7  C   UNL     1     139.593 133.711 141.208  1.00  0.00     0.000 C 
BRANCH   7   8
ATOM      8  C   UNL     1     139.336 132.992 139.875  1.00  0.00    -0.000 C 
BRANCH   8   9
ATOM      9  C   UNL     1     140.388 133.328 138.809  1.00  0.00    -0.003 C 
ATOM     10  C   UNL     1     139.769 133.690 137.458  1.00  0.00     0.004 C 
ENDBRANCH   8   9
ENDBRANCH   7   8
ENDBRANCH   1   7
TORSDOF 6
ENDMDL
MODEL 5
REMARK VINA RESULT:    -4.034      0.989      1.663
REMARK INTER + INTRA:          -5.665
REMARK INTER:                  -5.408
REMARK INTRA:                  -0.257
REMARK UNBOUND:                -0.216
REMARK SMILES CCCCCCCC(=O)[O-]
REMARK SMILES IDX 5 1 6 2 7 3 8 4 9 5 10 6 4 7 3 8 2 9 1 10
REMARK H PARENT
REMARK Flexibility Score: inf
ROOT
ATOM      1  C   UNL     1     128.048 142.359 141.354  1.00  0.00     0.000 C 
ENDROOT
BRANCH   1   2
ATOM      2  C   UNL     1     127.652 142.937 139.986  1.00  0.00     0.006 C 
BRANCH   2   3
ATOM      3  C   UNL     1     126.491 143.936 140.079  1.00  0.00     0.053 C 
BRANCH   3   4
ATOM      4  C   UNL     1     126.174 144.494 138.728  1.00  0.00     0.041 C 
ATOM      5  O   UNL     1     125.872 145.709 138.598  1.00  0.00    -0.550 OA
ATOM      6  O   UNL     1     126.163 143.660 137.617  1.00  0.00    -0.550 OA
ENDBRANCH   3   4
ENDBRANCH   2   3
ENDBRANCH   1   2
BRANCH   1   7
ATOM      7  C   UNL     1     129.561 142.429 141.612  1.00  0.00     0.000 C 
BRANCH   7   8
ATOM      8  C   UNL     1     130.250 141.125 141.183  1.00  0.00    -0.000 C 
BRANCH   8   9
ATOM      9  C   UNL     1     131.467 141.371 140.278  1.00  0.00    -0.003 C 
ATOM     10  C   UNL     1     131.171 141.106 138.801  1.00  0.00     0.004 C 
ENDBRANCH   8   9
ENDBRANCH   7   8
ENDBRANCH   1   7
TORSDOF 6
ENDMDL
MODEL 6
REMARK VINA RESULT:    -4.010     13.143     15.121
REMARK INTER + INTRA:          -5.632
REMARK INTER:                  -5.011
REMARK INTRA:                  -0.621
REMARK UNBOUND:                -0.216
REMARK SMILES CCCCCCCC(=O)[O-]
REMARK SMILES IDX 5 1 6 2 7 3 8 4 9 5 10 6 4 7 3 8 2 9 1 10
REMARK H PARENT
REMARK Flexibility Score: inf
ROOT
ATOM      1  C   UNL     1     139.962 134.204 141.721  1.00  0.00     0.000 C 
ENDROOT
BRANCH   1   2
ATOM      2  C   UNL     1     139.110 133.363 140.755  1.00  0.00     0.006 C 
BRANCH   2   3
ATOM      3  C   UNL     1     139.838 133.054 139.440  1.00  0.00     0.053 C 
BRANCH   3   4
ATOM      4  C   UNL     1     138.942 133.324 138.272  1.00  0.00     0.041 C 
ATOM      5  O   UNL     1     139.393 133.893 137.245  1.00  0.00    -0.550 OA
ATOM      6  O   UNL     1     137.595 132.990 138.339  1.00  0.00    -0.550 OA
ENDBRANCH   3   4
ENDBRANCH   2   3
ENDBRANCH   1   2
BRANCH   1   7
ATOM      7  C   UNL     1     140.681 135.365 141.018  1.00  0.00     0.000 C 
BRANCH   7   8
ATOM      8  C   UNL     1     139.739 136.565 140.839  1.00  0.00    -0.000 C 
BRANCH   8   9
ATOM      9  C   UNL     1     139.420 136.851 139.364  1.00  0.00    -0.003 C 
ATOM     10  C   UNL     1     137.921 136.820 139.064  1.00  0.00     0.004 C 
ENDBRANCH   8   9
ENDBRANCH   7   8
ENDBRANCH   1   7
TORSDOF 6
ENDMDL
MODEL 7
REMARK VINA RESULT:    -3.983     13.893     15.043
REMARK INTER + INTRA:          -5.597
REMARK INTER:                  -4.945
REMARK INTRA:                  -0.651
REMARK UNBOUND:                -0.216
REMARK SMILES CCCCCCCC(=O)[O-]
REMARK SMILES IDX 5 1 6 2 7 3 8 4 9 5 10 6 4 7 3 8 2 9 1 10
REMARK H PARENT
REMARK Flexibility Score: inf
ROOT
ATOM      1  C   UNL     1     138.914 135.947 138.593  1.00  0.00     0.000 C 
ENDROOT
BRANCH   1   2
ATOM      2  C   UNL     1     139.707 134.782 137.978  1.00  0.00     0.006 C 
BRANCH   2   3
ATOM      3  C   UNL     1     139.992 133.662 138.988  1.00  0.00     0.053 C 
BRANCH   3   4
ATOM      4  C   UNL     1     138.720 133.203 139.629  1.00  0.00     0.041 C 
ATOM      5  O   UNL     1     138.594 133.232 140.881  1.00  0.00    -0.550 OA
ATOM      6  O   UNL     1     137.692 132.695 138.845  1.00  0.00    -0.550 OA
ENDBRANCH   3   4
ENDBRANCH   2   3
ENDBRANCH   1   2
BRANCH   1   7
ATOM      7  C   UNL     1     139.743 136.763 139.596  1.00  0.00     0.000 C 
BRANCH   7   8
ATOM      8  C   UNL     1     139.012 136.885 140.941  1.00  0.00    -0.000 C 
BRANCH   8   9
ATOM      9  C   UNL     1     139.810 136.278 142.105  1.00  0.00    -0.003 C 
ATOM     10  C   UNL     1     141.197 135.792 141.683  1.00  0.00     0.004 C 
ENDBRANCH   8   9
ENDBRANCH   7   8
ENDBRANCH   1   7
TORSDOF 6
ENDMDL
MODEL 8
REMARK VINA RESULT:    -3.849     15.220     16.509
REMARK INTER + INTRA:          -5.416
REMARK INTER:                  -5.088
REMARK INTRA:                  -0.328
REMARK UNBOUND:                -0.216
REMARK SMILES CCCCCCCC(=O)[O-]
REMARK SMILES IDX 5 1 6 2 7 3 8 4 9 5 10 6 4 7 3 8 2 9 1 10
REMARK H PARENT
REMARK Flexibility Score: inf
ROOT
ATOM      1  C   UNL     1     141.822 145.064 136.307  1.00  0.00     0.000 C 
ENDROOT
BRANCH   1   2
ATOM      2  C   UNL     1     143.277 144.684 136.627  1.00  0.00     0.006 C 
BRANCH   2   3
ATOM      3  C   UNL     1     143.782 143.510 135.778  1.00  0.00     0.053 C 
BRANCH   3   4
ATOM      4  C   UNL     1     143.877 142.269 136.608  1.00  0.00     0.041 C 
ATOM      5  O   UNL     1     144.125 141.161 136.066  1.00  0.00    -0.550 OA
ATOM      6  O   UNL     1     143.641 142.329 137.976  1.00  0.00    -0.550 OA
ENDBRANCH   3   4
ENDBRANCH   2   3
ENDBRANCH   1   2
BRANCH   1   7
ATOM      7  C   UNL     1     141.622 146.582 136.176  1.00  0.00     0.000 C 
BRANCH   7   8
ATOM      8  C   UNL     1     141.585 147.004 134.700  1.00  0.00    -0.000 C 
BRANCH   8   9
ATOM      9  C   UNL     1     142.774 147.895 134.310  1.00  0.00    -0.003 C 
ATOM     10  C   UNL     1     143.113 148.932 135.380  1.00  0.00     0.004 C 
ENDBRANCH   8   9
ENDBRANCH   7   8
ENDBRANCH   1   7
TORSDOF 6
ENDMDL
MODEL 9
REMARK VINA RESULT:    -3.836      3.698      5.793
REMARK INTER + INTRA:          -5.397
REMARK INTER:                  -5.173
REMARK INTRA:                  -0.224
REMARK UNBOUND:                -0.216
REMARK SMILES CCCCCCCC(=O)[O-]
REMARK SMILES IDX 5 1 6 2 7 3 8 4 9 5 10 6 4 7 3 8 2 9 1 10
REMARK H PARENT
REMARK Flexibility Score: inf
ROOT
ATOM      1  C   UNL     1     129.548 141.865 140.564  1.00  0.00     0.000 C 
ENDROOT
BRANCH   1   2
ATOM      2  C   UNL     1     129.743 141.636 139.056  1.00  0.00     0.006 C 
BRANCH   2   3
ATOM      3  C   UNL     1     131.045 140.890 138.734  1.00  0.00     0.053 C 
BRANCH   3   4
ATOM      4  C   UNL     1     130.745 139.531 138.186  1.00  0.00     0.041 C 
ATOM      5  O   UNL     1     130.510 138.571 138.964  1.00  0.00    -0.550 OA
ATOM      6  O   UNL     1     130.775 139.314 136.814  1.00  0.00    -0.550 OA
ENDBRANCH   3   4
ENDBRANCH   2   3
ENDBRANCH   1   2
BRANCH   1   7
ATOM      7  C   UNL     1     128.183 142.484 140.897  1.00  0.00     0.000 C 
BRANCH   7   8
ATOM      8  C   UNL     1     127.484 142.988 139.626  1.00  0.00    -0.000 C 
BRANCH   8   9
ATOM      9  C   UNL     1     126.144 143.678 139.922  1.00  0.00    -0.003 C 
ATOM     10  C   UNL     1     126.120 145.141 139.477  1.00  0.00     0.004 C 
ENDBRANCH   8   9
ENDBRANCH   7   8
ENDBRANCH   1   7
TORSDOF 6
ENDMDL
