MODEL 1
REMARK VINA RESULT:    -6.670      0.000      0.000
REMARK INTER + INTRA:          -8.503
REMARK INTER:                  -8.230
REMARK INTRA:                  -0.273
REMARK UNBOUND:                -0.273
REMARK SMILES O=c1c(O)c(-c2cc(O)c(O)c(O)c2)oc2cc(O)cc(O)c12
REMARK SMILES IDX 5 1 3 2 2 3 1 4 23 5 21 6 20 7 18 8 17 9 16 10 15 11 6 12
REMARK SMILES IDX 7 13 8 14 14 15 10 16 12 17 9 18 11 20 13 22 4 24 22 26
REMARK SMILES IDX 19 28
REMARK H PARENT 9 19 11 21 13 23 4 25 22 27 19 29
REMARK Flexibility Score: inf
ROOT
ATOM      1  C   UNL     1     109.550 102.535 138.009  1.00  0.00     0.180 A 
ATOM      2  C   UNL     1     108.279 102.590 137.412  1.00  0.00     0.208 A 
ATOM      3  C   UNL     1     107.926 103.724 136.663  1.00  0.00     0.238 A 
ATOM      4  O   UNL     1     106.808 103.743 136.086  1.00  0.00    -0.285 OA
ATOM      5  C   UNL     1     108.844 104.794 136.531  1.00  0.00     0.111 A 
ATOM      6  C   UNL     1     108.577 106.008 135.829  1.00  0.00     0.134 A 
ATOM      7  C   UNL     1     109.604 106.943 135.652  1.00  0.00     0.093 A 
ATOM      8  C   UNL     1     110.866 106.741 136.209  1.00  0.00     0.123 A 
ATOM      9  C   UNL     1     111.121 105.585 136.949  1.00  0.00     0.094 A 
ATOM     10  C   UNL     1     110.126 104.616 137.111  1.00  0.00     0.146 A 
ATOM     11  O   UNL     1     110.412 103.526 137.813  1.00  0.00    -0.452 OA
ENDROOT
BRANCH   1  12
ATOM     12  C   UNL     1     109.984 101.384 138.834  1.00  0.00     0.029 A 
ATOM     13  C   UNL     1     110.325 100.175 138.209  1.00  0.00     0.062 A 
ATOM     14  C   UNL     1     110.759  99.079 138.967  1.00  0.00     0.162 A 
ATOM     15  C   UNL     1     110.119 101.495 140.229  1.00  0.00     0.062 A 
ATOM     16  C   UNL     1     110.871  99.188 140.359  1.00  0.00     0.200 A 
ATOM     17  C   UNL     1     110.554 100.402 140.992  1.00  0.00     0.162 A 
BRANCH  14  18
ATOM     18  O   UNL     1     111.082  97.875 138.342  1.00  0.00    -0.504 OA
ATOM     19  H   UNL     1     110.674  96.996 138.640  1.00  0.00     0.293 HD
ENDBRANCH  14  18
BRANCH  16  20
ATOM     20  O   UNL     1     111.301  98.086 141.097  1.00  0.00    -0.502 OA
ATOM     21  H   UNL     1     112.218  98.049 141.526  1.00  0.00     0.293 HD
ENDBRANCH  16  20
BRANCH  17  22
ATOM     22  O   UNL     1     110.677 100.520 142.375  1.00  0.00    -0.504 OA
ATOM     23  H   UNL     1     111.559 100.351 142.847  1.00  0.00     0.293 HD
ENDBRANCH  17  22
ENDBRANCH   1  12
BRANCH   2  24
ATOM     24  O   UNL     1     107.397 101.513 137.537  1.00  0.00    -0.502 OA
ATOM     25  H   UNL     1     107.577 100.731 138.155  1.00  0.00     0.293 HD
ENDBRANCH   2  24
BRANCH   6  26
ATOM     26  O   UNL     1     107.324 106.352 135.312  1.00  0.00    -0.507 OA
ATOM     27  H   UNL     1     106.908 105.937 134.492  1.00  0.00     0.293 HD
ENDBRANCH   6  26
BRANCH   8  28
ATOM     28  O   UNL     1     111.860 107.700 136.027  1.00  0.00    -0.508 OA
ATOM     29  H   UNL     1     112.239 107.903 135.109  1.00  0.00     0.293 HD
ENDBRANCH   8  28
TORSDOF 7
ENDMDL
MODEL 2
REMARK VINA RESULT:    -6.607      2.005      6.486
REMARK INTER + INTRA:          -8.425
REMARK INTER:                  -8.595
REMARK INTRA:                   0.170
REMARK UNBOUND:                -0.273
REMARK SMILES O=c1c(O)c(-c2cc(O)c(O)c(O)c2)oc2cc(O)cc(O)c12
REMARK SMILES IDX 5 1 3 2 2 3 1 4 23 5 21 6 20 7 18 8 17 9 16 10 15 11 6 12
REMARK SMILES IDX 7 13 8 14 14 15 10 16 12 17 9 18 11 20 13 22 4 24 22 26
REMARK SMILES IDX 19 28
REMARK H PARENT 9 19 11 21 13 23 4 25 22 27 19 29
REMARK Flexibility Score: inf
ROOT
ATOM      1  C   UNL     1     110.212 103.037 136.921  1.00  0.00     0.180 A 
ATOM      2  C   UNL     1     108.831 103.242 136.763  1.00  0.00     0.208 A 
ATOM      3  C   UNL     1     107.938 102.273 137.248  1.00  0.00     0.238 A 
ATOM      4  O   UNL     1     106.702 102.488 137.151  1.00  0.00    -0.285 OA
ATOM      5  C   UNL     1     108.438 101.105 137.873  1.00  0.00     0.111 A 
ATOM      6  C   UNL     1     107.626 100.039 138.366  1.00  0.00     0.134 A 
ATOM      7  C   UNL     1     108.220  98.993 139.083  1.00  0.00     0.093 A 
ATOM      8  C   UNL     1     109.601  98.939 139.266  1.00  0.00     0.123 A 
ATOM      9  C   UNL     1     110.411  99.946 138.736  1.00  0.00     0.094 A 
ATOM     10  C   UNL     1     109.843 101.022 138.049  1.00  0.00     0.146 A 
ATOM     11  O   UNL     1     110.648 101.963 137.569  1.00  0.00    -0.452 OA
ENDROOT
BRANCH   1  12
ATOM     12  C   UNL     1     111.215 104.001 136.414  1.00  0.00     0.029 A 
ATOM     13  C   UNL     1     112.397 103.523 135.826  1.00  0.00     0.062 A 
ATOM     14  C   UNL     1     113.352 104.415 135.320  1.00  0.00     0.162 A 
ATOM     15  C   UNL     1     110.983 105.387 136.454  1.00  0.00     0.062 A 
ATOM     16  C   UNL     1     113.125 105.795 135.382  1.00  0.00     0.200 A 
ATOM     17  C   UNL     1     111.934 106.283 135.947  1.00  0.00     0.162 A 
BRANCH  14  18
ATOM     18  O   UNL     1     114.531 103.935 134.750  1.00  0.00    -0.504 OA
ATOM     19  H   UNL     1     115.424 104.029 135.221  1.00  0.00     0.293 HD
ENDBRANCH  14  18
BRANCH  16  20
ATOM     20  O   UNL     1     114.088 106.668 134.875  1.00  0.00    -0.502 OA
ATOM     21  H   UNL     1     114.900 106.946 135.413  1.00  0.00     0.293 HD
ENDBRANCH  16  20
BRANCH  17  22
ATOM     22  O   UNL     1     111.698 107.656 135.998  1.00  0.00    -0.504 OA
ATOM     23  H   UNL     1     111.017 108.101 135.394  1.00  0.00     0.293 HD
ENDBRANCH  17  22
ENDBRANCH   1  12
BRANCH   2  24
ATOM     24  O   UNL     1     108.358 104.412 136.162  1.00  0.00    -0.502 OA
ATOM     25  H   UNL     1     107.382 104.680 136.185  1.00  0.00     0.293 HD
ENDBRANCH   2  24
BRANCH   6  26
ATOM     26  O   UNL     1     106.246  99.948 138.158  1.00  0.00    -0.507 OA
ATOM     27  H   UNL     1     105.602 100.722 138.228  1.00  0.00     0.293 HD
ENDBRANCH   6  26
BRANCH   8  28
ATOM     28  O   UNL     1     110.160  97.876 139.971  1.00  0.00    -0.508 OA
ATOM     29  H   UNL     1     110.702  97.157 139.505  1.00  0.00     0.293 HD
ENDBRANCH   8  28
TORSDOF 7
ENDMDL
MODEL 3
REMARK VINA RESULT:    -6.384     11.069     14.386
REMARK INTER + INTRA:          -8.150
REMARK INTER:                  -7.786
REMARK INTRA:                  -0.364
REMARK UNBOUND:                -0.273
REMARK SMILES O=c1c(O)c(-c2cc(O)c(O)c(O)c2)oc2cc(O)cc(O)c12
REMARK SMILES IDX 5 1 3 2 2 3 1 4 23 5 21 6 20 7 18 8 17 9 16 10 15 11 6 12
REMARK SMILES IDX 7 13 8 14 14 15 10 16 12 17 9 18 11 20 13 22 4 24 22 26
REMARK SMILES IDX 19 28
REMARK H PARENT 9 19 11 21 13 23 4 25 22 27 19 29
REMARK Flexibility Score: inf
ROOT
ATOM      1  C   UNL     1     104.443 114.465 137.706  1.00  0.00     0.180 A 
ATOM      2  C   UNL     1     105.518 115.207 138.224  1.00  0.00     0.208 A 
ATOM      3  C   UNL     1     106.079 114.826 139.453  1.00  0.00     0.238 A 
ATOM      4  O   UNL     1     107.076 115.461 139.885  1.00  0.00    -0.285 OA
ATOM      5  C   UNL     1     105.547 113.718 140.157  1.00  0.00     0.111 A 
ATOM      6  C   UNL     1     106.011 113.269 141.430  1.00  0.00     0.134 A 
ATOM      7  C   UNL     1     105.498 112.084 141.972  1.00  0.00     0.093 A 
ATOM      8  C   UNL     1     104.494 111.369 141.321  1.00  0.00     0.123 A 
ATOM      9  C   UNL     1     103.990 111.832 140.104  1.00  0.00     0.094 A 
ATOM     10  C   UNL     1     104.508 112.992 139.520  1.00  0.00     0.146 A 
ATOM     11  O   UNL     1     104.009 113.392 138.357  1.00  0.00    -0.452 OA
ENDROOT
BRANCH   1  12
ATOM     12  C   UNL     1     103.784 114.820 136.428  1.00  0.00     0.029 A 
ATOM     13  C   UNL     1     104.243 114.249 135.231  1.00  0.00     0.062 A 
ATOM     14  C   UNL     1     103.622 114.553 134.012  1.00  0.00     0.162 A 
ATOM     15  C   UNL     1     102.667 115.674 136.394  1.00  0.00     0.062 A 
ATOM     16  C   UNL     1     102.524 115.421 133.981  1.00  0.00     0.200 A 
ATOM     17  C   UNL     1     102.042 115.980 135.177  1.00  0.00     0.162 A 
BRANCH  14  18
ATOM     18  O   UNL     1     104.092 113.993 132.825  1.00  0.00    -0.504 OA
ATOM     19  H   UNL     1     104.374 114.571 132.041  1.00  0.00     0.293 HD
ENDBRANCH  14  18
BRANCH  16  20
ATOM     20  O   UNL     1     101.921 115.714 132.759  1.00  0.00    -0.502 OA
ATOM     21  H   UNL     1     102.227 116.486 132.178  1.00  0.00     0.293 HD
ENDBRANCH  16  20
BRANCH  17  22
ATOM     22  O   UNL     1     100.940 116.834 135.153  1.00  0.00    -0.504 OA
ATOM     23  H   UNL     1     100.325 116.886 134.349  1.00  0.00     0.293 HD
ENDBRANCH  17  22
ENDBRANCH   1  12
BRANCH   2  24
ATOM     24  O   UNL     1     106.042 116.283 137.502  1.00  0.00    -0.502 OA
ATOM     25  H   UNL     1     107.026 116.360 137.277  1.00  0.00     0.293 HD
ENDBRANCH   2  24
BRANCH   6  26
ATOM     26  O   UNL     1     106.946 113.958 142.208  1.00  0.00    -0.507 OA
ATOM     27  H   UNL     1     107.821 114.324 141.864  1.00  0.00     0.293 HD
ENDBRANCH   6  26
BRANCH   8  28
ATOM     28  O   UNL     1     103.996 110.203 141.898  1.00  0.00    -0.508 OA
ATOM     29  H   UNL     1     103.557 109.480 141.338  1.00  0.00     0.293 HD
ENDBRANCH   8  28
TORSDOF 7
ENDMDL
MODEL 4
REMARK VINA RESULT:    -6.374      2.454      3.332
REMARK INTER + INTRA:          -8.138
REMARK INTER:                  -7.827
REMARK INTRA:                  -0.311
REMARK UNBOUND:                -0.273
REMARK SMILES O=c1c(O)c(-c2cc(O)c(O)c(O)c2)oc2cc(O)cc(O)c12
REMARK SMILES IDX 5 1 3 2 2 3 1 4 23 5 21 6 20 7 18 8 17 9 16 10 15 11 6 12
REMARK SMILES IDX 7 13 8 14 14 15 10 16 12 17 9 18 11 20 13 22 4 24 22 26
REMARK SMILES IDX 19 28
REMARK H PARENT 9 19 11 21 13 23 4 25 22 27 19 29
REMARK Flexibility Score: inf
ROOT
ATOM      1  C   UNL     1     109.084 102.433 137.675  1.00  0.00     0.180 A 
ATOM      2  C   UNL     1     108.436 103.680 137.646  1.00  0.00     0.208 A 
ATOM      3  C   UNL     1     109.101 104.780 137.081  1.00  0.00     0.238 A 
ATOM      4  O   UNL     1     108.495 105.881 137.009  1.00  0.00    -0.285 OA
ATOM      5  C   UNL     1     110.411 104.623 136.566  1.00  0.00     0.111 A 
ATOM      6  C   UNL     1     111.194 105.679 136.009  1.00  0.00     0.134 A 
ATOM      7  C   UNL     1     112.425 105.383 135.411  1.00  0.00     0.093 A 
ATOM      8  C   UNL     1     112.932 104.085 135.410  1.00  0.00     0.123 A 
ATOM      9  C   UNL     1     112.202 103.055 136.006  1.00  0.00     0.094 A 
ATOM     10  C   UNL     1     110.953 103.312 136.578  1.00  0.00     0.146 A 
ATOM     11  O   UNL     1     110.287 102.303 137.126  1.00  0.00    -0.452 OA
ENDROOT
BRANCH   1  12
ATOM     12  C   UNL     1     108.458 101.233 138.276  1.00  0.00     0.029 A 
ATOM     13  C   UNL     1     108.830 100.834 139.569  1.00  0.00     0.062 A 
ATOM     14  C   UNL     1     108.236  99.714 140.167  1.00  0.00     0.162 A 
ATOM     15  C   UNL     1     107.454 100.516 137.601  1.00  0.00     0.062 A 
ATOM     16  C   UNL     1     107.252  98.992 139.482  1.00  0.00     0.200 A 
ATOM     17  C   UNL     1     106.856  99.397 138.195  1.00  0.00     0.162 A 
BRANCH  14  18
ATOM     18  O   UNL     1     108.620  99.314 141.446  1.00  0.00    -0.504 OA
ATOM     19  H   UNL     1     109.164  98.472 141.598  1.00  0.00     0.293 HD
ENDBRANCH  14  18
BRANCH  16  20
ATOM     20  O   UNL     1     106.675  97.878 140.091  1.00  0.00    -0.502 OA
ATOM     21  H   UNL     1     106.377  97.887 141.060  1.00  0.00     0.293 HD
ENDBRANCH  16  20
BRANCH  17  22
ATOM     22  O   UNL     1     105.866  98.689 137.515  1.00  0.00    -0.504 OA
ATOM     23  H   UNL     1     105.569  97.768 137.816  1.00  0.00     0.293 HD
ENDBRANCH  17  22
ENDBRANCH   1  12
BRANCH   2  24
ATOM     24  O   UNL     1     107.135 103.807 138.140  1.00  0.00    -0.502 OA
ATOM     25  H   UNL     1     106.655 104.697 138.185  1.00  0.00     0.293 HD
ENDBRANCH   2  24
BRANCH   6  26
ATOM     26  O   UNL     1     110.822 107.026 136.039  1.00  0.00    -0.507 OA
ATOM     27  H   UNL     1     110.201 107.466 135.376  1.00  0.00     0.293 HD
ENDBRANCH   6  26
BRANCH   8  28
ATOM     28  O   UNL     1     114.168 103.829 134.820  1.00  0.00    -0.508 OA
ATOM     29  H   UNL     1     114.453 102.889 134.572  1.00  0.00     0.293 HD
ENDBRANCH   8  28
TORSDOF 7
ENDMDL
MODEL 5
REMARK VINA RESULT:    -6.343      8.968     10.565
REMARK INTER + INTRA:          -8.099
REMARK INTER:                  -7.746
REMARK INTRA:                  -0.354
REMARK UNBOUND:                -0.273
REMARK SMILES O=c1c(O)c(-c2cc(O)c(O)c(O)c2)oc2cc(O)cc(O)c12
REMARK SMILES IDX 5 1 3 2 2 3 1 4 23 5 21 6 20 7 18 8 17 9 16 10 15 11 6 12
REMARK SMILES IDX 7 13 8 14 14 15 10 16 12 17 9 18 11 20 13 22 4 24 22 26
REMARK SMILES IDX 19 28
REMARK H PARENT 9 19 11 21 13 23 4 25 22 27 19 29
REMARK Flexibility Score: inf
ROOT
ATOM      1  C   UNL     1     106.717 112.402 138.840  1.00  0.00     0.180 A 
ATOM      2  C   UNL     1     105.739 113.389 139.054  1.00  0.00     0.208 A 
ATOM      3  C   UNL     1     104.970 113.833 137.967  1.00  0.00     0.238 A 
ATOM      4  O   UNL     1     104.060 114.677 138.175  1.00  0.00    -0.285 OA
ATOM      5  C   UNL     1     105.199 113.296 136.677  1.00  0.00     0.111 A 
ATOM      6  C   UNL     1     104.506 113.702 135.496  1.00  0.00     0.134 A 
ATOM      7  C   UNL     1     104.722 113.010 134.297  1.00  0.00     0.093 A 
ATOM      8  C   UNL     1     105.652 111.975 134.220  1.00  0.00     0.123 A 
ATOM      9  C   UNL     1     106.379 111.610 135.355  1.00  0.00     0.094 A 
ATOM     10  C   UNL     1     106.158 112.256 136.574  1.00  0.00     0.146 A 
ATOM     11  O   UNL     1     106.863 111.872 137.632  1.00  0.00    -0.452 OA
ENDROOT
BRANCH   1  12
ATOM     12  C   UNL     1     107.584 111.902 139.932  1.00  0.00     0.029 A 
ATOM     13  C   UNL     1     108.756 112.601 140.259  1.00  0.00     0.062 A 
ATOM     14  C   UNL     1     109.582 112.159 141.301  1.00  0.00     0.162 A 
ATOM     15  C   UNL     1     107.227 110.772 140.689  1.00  0.00     0.062 A 
ATOM     16  C   UNL     1     109.233 111.021 142.038  1.00  0.00     0.200 A 
ATOM     17  C   UNL     1     108.048 110.328 141.734  1.00  0.00     0.162 A 
BRANCH  14  18
ATOM     18  O   UNL     1     110.753 112.849 141.612  1.00  0.00    -0.504 OA
ATOM     19  H   UNL     1     111.516 112.402 142.108  1.00  0.00     0.293 HD
ENDBRANCH  14  18
BRANCH  16  20
ATOM     20  O   UNL     1     110.068 110.594 143.070  1.00  0.00    -0.502 OA
ATOM     21  H   UNL     1     110.659 109.776 142.983  1.00  0.00     0.293 HD
ENDBRANCH  16  20
BRANCH  17  22
ATOM     22  O   UNL     1     107.689 109.202 142.475  1.00  0.00    -0.504 OA
ATOM     23  H   UNL     1     107.892 108.264 142.148  1.00  0.00     0.293 HD
ENDBRANCH  17  22
ENDBRANCH   1  12
BRANCH   2  24
ATOM     24  O   UNL     1     105.516 113.890 140.340  1.00  0.00    -0.502 OA
ATOM     25  H   UNL     1     104.617 113.821 140.801  1.00  0.00     0.293 HD
ENDBRANCH   2  24
BRANCH   6  26
ATOM     26  O   UNL     1     103.623 114.784 135.442  1.00  0.00    -0.507 OA
ATOM     27  H   UNL     1     103.833 115.677 135.020  1.00  0.00     0.293 HD
ENDBRANCH   6  26
BRANCH   8  28
ATOM     28  O   UNL     1     105.853 111.319 133.007  1.00  0.00    -0.508 OA
ATOM     29  H   UNL     1     106.352 110.439 132.957  1.00  0.00     0.293 HD
ENDBRANCH   8  28
TORSDOF 7
ENDMDL
MODEL 6
REMARK VINA RESULT:    -6.307      2.391      3.008
REMARK INTER + INTRA:          -8.056
REMARK INTER:                  -7.822
REMARK INTRA:                  -0.234
REMARK UNBOUND:                -0.273
REMARK SMILES O=c1c(O)c(-c2cc(O)c(O)c(O)c2)oc2cc(O)cc(O)c12
REMARK SMILES IDX 5 1 3 2 2 3 1 4 23 5 21 6 20 7 18 8 17 9 16 10 15 11 6 12
REMARK SMILES IDX 7 13 8 14 14 15 10 16 12 17 9 18 11 20 13 22 4 24 22 26
REMARK SMILES IDX 19 28
REMARK H PARENT 9 19 11 21 13 23 4 25 22 27 19 29
REMARK Flexibility Score: inf
ROOT
ATOM      1  C   UNL     1     109.371 102.525 137.682  1.00  0.00     0.180 A 
ATOM      2  C   UNL     1     108.728 103.775 137.654  1.00  0.00     0.208 A 
ATOM      3  C   UNL     1     109.397 104.872 137.089  1.00  0.00     0.238 A 
ATOM      4  O   UNL     1     108.795 105.975 137.018  1.00  0.00    -0.285 OA
ATOM      5  C   UNL     1     110.705 104.710 136.573  1.00  0.00     0.111 A 
ATOM      6  C   UNL     1     111.492 105.762 136.014  1.00  0.00     0.134 A 
ATOM      7  C   UNL     1     112.721 105.461 135.414  1.00  0.00     0.093 A 
ATOM      8  C   UNL     1     113.223 104.160 135.413  1.00  0.00     0.123 A 
ATOM      9  C   UNL     1     112.489 103.134 136.011  1.00  0.00     0.094 A 
ATOM     10  C   UNL     1     111.242 103.397 136.584  1.00  0.00     0.146 A 
ATOM     11  O   UNL     1     110.572 102.390 137.132  1.00  0.00    -0.452 OA
ENDROOT
BRANCH   1  12
ATOM     12  C   UNL     1     108.740 101.328 138.284  1.00  0.00     0.029 A 
ATOM     13  C   UNL     1     107.652 100.721 137.638  1.00  0.00     0.062 A 
ATOM     14  C   UNL     1     107.052  99.575 138.176  1.00  0.00     0.162 A 
ATOM     15  C   UNL     1     109.245 100.749 139.462  1.00  0.00     0.062 A 
ATOM     16  C   UNL     1     107.546  99.015 139.361  1.00  0.00     0.200 A 
ATOM     17  C   UNL     1     108.649  99.602 140.004  1.00  0.00     0.162 A 
BRANCH  14  18
ATOM     18  O   UNL     1     105.963  98.985 137.537  1.00  0.00    -0.504 OA
ATOM     19  H   UNL     1     105.101  98.786 138.033  1.00  0.00     0.293 HD
ENDBRANCH  14  18
BRANCH  16  20
ATOM     20  O   UNL     1     106.934  97.877 139.884  1.00  0.00    -0.502 OA
ATOM     21  H   UNL     1     106.329  97.285 139.327  1.00  0.00     0.293 HD
ENDBRANCH  16  20
BRANCH  17  22
ATOM     22  O   UNL     1     109.153  99.040 141.176  1.00  0.00    -0.504 OA
ATOM     23  H   UNL     1     110.140  99.080 141.403  1.00  0.00     0.293 HD
ENDBRANCH  17  22
ENDBRANCH   1  12
BRANCH   2  24
ATOM     24  O   UNL     1     107.428 103.907 138.150  1.00  0.00    -0.502 OA
ATOM     25  H   UNL     1     106.689 104.359 137.625  1.00  0.00     0.293 HD
ENDBRANCH   2  24
BRANCH   6  26
ATOM     26  O   UNL     1     111.126 107.111 136.044  1.00  0.00    -0.507 OA
ATOM     27  H   UNL     1     111.079 107.712 135.235  1.00  0.00     0.293 HD
ENDBRANCH   6  26
BRANCH   8  28
ATOM     28  O   UNL     1     114.457 103.900 134.822  1.00  0.00    -0.508 OA
ATOM     29  H   UNL     1     114.553 103.797 133.819  1.00  0.00     0.293 HD
ENDBRANCH   8  28
TORSDOF 7
ENDMDL
MODEL 7
REMARK VINA RESULT:    -6.244      3.082      5.647
REMARK INTER + INTRA:          -7.978
REMARK INTER:                  -7.650
REMARK INTRA:                  -0.327
REMARK UNBOUND:                -0.273
REMARK SMILES O=c1c(O)c(-c2cc(O)c(O)c(O)c2)oc2cc(O)cc(O)c12
REMARK SMILES IDX 5 1 3 2 2 3 1 4 23 5 21 6 20 7 18 8 17 9 16 10 15 11 6 12
REMARK SMILES IDX 7 13 8 14 14 15 10 16 12 17 9 18 11 20 13 22 4 24 22 26
REMARK SMILES IDX 19 28
REMARK H PARENT 9 19 11 21 13 23 4 25 22 27 19 29
REMARK Flexibility Score: inf
ROOT
ATOM      1  C   UNL     1     108.606 103.887 137.041  1.00  0.00     0.180 A 
ATOM      2  C   UNL     1     108.158 102.754 137.742  1.00  0.00     0.208 A 
ATOM      3  C   UNL     1     106.807 102.670 138.112  1.00  0.00     0.238 A 
ATOM      4  O   UNL     1     106.401 101.629 138.691  1.00  0.00    -0.285 OA
ATOM      5  C   UNL     1     105.922 103.728 137.789  1.00  0.00     0.111 A 
ATOM      6  C   UNL     1     104.542 103.768 138.150  1.00  0.00     0.134 A 
ATOM      7  C   UNL     1     103.731 104.802 137.666  1.00  0.00     0.093 A 
ATOM      8  C   UNL     1     104.263 105.832 136.892  1.00  0.00     0.123 A 
ATOM      9  C   UNL     1     105.625 105.835 136.583  1.00  0.00     0.094 A 
ATOM     10  C   UNL     1     106.452 104.797 137.021  1.00  0.00     0.146 A 
ATOM     11  O   UNL     1     107.739 104.832 136.697  1.00  0.00    -0.452 OA
ENDROOT
BRANCH   1  12
ATOM     12  C   UNL     1     110.021 104.058 136.640  1.00  0.00     0.029 A 
ATOM     13  C   UNL     1     110.878 104.829 137.439  1.00  0.00     0.062 A 
ATOM     14  C   UNL     1     112.226 104.988 137.092  1.00  0.00     0.162 A 
ATOM     15  C   UNL     1     110.541 103.415 135.502  1.00  0.00     0.062 A 
ATOM     16  C   UNL     1     112.734 104.363 135.946  1.00  0.00     0.200 A 
ATOM     17  C   UNL     1     111.889 103.569 135.151  1.00  0.00     0.162 A 
BRANCH  14  18
ATOM     18  O   UNL     1     113.070 105.767 137.883  1.00  0.00    -0.504 OA
ATOM     19  H   UNL     1     113.012 106.780 137.882  1.00  0.00     0.293 HD
ENDBRANCH  14  18
BRANCH  16  20
ATOM     20  O   UNL     1     114.077 104.535 135.614  1.00  0.00    -0.502 OA
ATOM     21  H   UNL     1     114.370 104.847 134.696  1.00  0.00     0.293 HD
ENDBRANCH  16  20
BRANCH  17  22
ATOM     22  O   UNL     1     112.393 102.933 134.018  1.00  0.00    -0.504 OA
ATOM     23  H   UNL     1     111.895 102.946 133.135  1.00  0.00     0.293 HD
ENDBRANCH  17  22
ENDBRANCH   1  12
BRANCH   2  24
ATOM     24  O   UNL     1     109.044 101.711 138.030  1.00  0.00    -0.502 OA
ATOM     25  H   UNL     1     109.235 100.963 137.376  1.00  0.00     0.293 HD
ENDBRANCH   2  24
BRANCH   6  26
ATOM     26  O   UNL     1     103.928 102.838 138.995  1.00  0.00    -0.507 OA
ATOM     27  H   UNL     1     103.054 102.988 139.476  1.00  0.00     0.293 HD
ENDBRANCH   6  26
BRANCH   8  28
ATOM     28  O   UNL     1     103.431 106.854 136.440  1.00  0.00    -0.508 OA
ATOM     29  H   UNL     1     102.612 107.141 136.964  1.00  0.00     0.293 HD
ENDBRANCH   8  28
TORSDOF 7
ENDMDL
MODEL 8
REMARK VINA RESULT:    -6.239      1.513      3.496
REMARK INTER + INTRA:          -7.971
REMARK INTER:                  -7.666
REMARK INTRA:                  -0.306
REMARK UNBOUND:                -0.273
REMARK SMILES O=c1c(O)c(-c2cc(O)c(O)c(O)c2)oc2cc(O)cc(O)c12
REMARK SMILES IDX 5 1 3 2 2 3 1 4 23 5 21 6 20 7 18 8 17 9 16 10 15 11 6 12
REMARK SMILES IDX 7 13 8 14 14 15 10 16 12 17 9 18 11 20 13 22 4 24 22 26
REMARK SMILES IDX 19 28
REMARK H PARENT 9 19 11 21 13 23 4 25 22 27 19 29
REMARK Flexibility Score: inf
ROOT
ATOM      1  C   UNL     1     109.307 102.456 137.987  1.00  0.00     0.180 A 
ATOM      2  C   UNL     1     110.073 103.198 137.072  1.00  0.00     0.208 A 
ATOM      3  C   UNL     1     109.435 104.157 136.270  1.00  0.00     0.238 A 
ATOM      4  O   UNL     1     110.134 104.856 135.491  1.00  0.00    -0.285 OA
ATOM      5  C   UNL     1     108.037 104.352 136.383  1.00  0.00     0.111 A 
ATOM      6  C   UNL     1     107.280 105.269 135.592  1.00  0.00     0.134 A 
ATOM      7  C   UNL     1     105.925 105.473 135.879  1.00  0.00     0.093 A 
ATOM      8  C   UNL     1     105.284 104.747 136.882  1.00  0.00     0.123 A 
ATOM      9  C   UNL     1     106.000 103.804 137.622  1.00  0.00     0.094 A 
ATOM     10  C   UNL     1     107.363 103.605 137.383  1.00  0.00     0.146 A 
ATOM     11  O   UNL     1     108.009 102.707 138.116  1.00  0.00    -0.452 OA
ENDROOT
BRANCH   1  12
ATOM     12  C   UNL     1     109.904 101.409 138.849  1.00  0.00     0.029 A 
ATOM     13  C   UNL     1     110.043 101.643 140.226  1.00  0.00     0.062 A 
ATOM     14  C   UNL     1     110.585 100.661 141.064  1.00  0.00     0.162 A 
ATOM     15  C   UNL     1     110.284 100.160 138.326  1.00  0.00     0.062 A 
ATOM     16  C   UNL     1     110.981  99.427 140.535  1.00  0.00     0.200 A 
ATOM     17  C   UNL     1     110.826  99.174 139.161  1.00  0.00     0.162 A 
BRANCH  14  18
ATOM     18  O   UNL     1     110.734 100.904 142.429  1.00  0.00    -0.504 OA
ATOM     19  H   UNL     1     110.276 101.688 142.881  1.00  0.00     0.293 HD
ENDBRANCH  14  18
BRANCH  16  20
ATOM     20  O   UNL     1     111.522  98.462 141.384  1.00  0.00    -0.502 OA
ATOM     21  H   UNL     1     111.167  98.307 142.320  1.00  0.00     0.293 HD
ENDBRANCH  16  20
BRANCH  17  22
ATOM     22  O   UNL     1     111.205  97.941 138.631  1.00  0.00    -0.504 OA
ATOM     23  H   UNL     1     110.640  97.110 138.761  1.00  0.00     0.293 HD
ENDBRANCH  17  22
ENDBRANCH   1  12
BRANCH   2  24
ATOM     24  O   UNL     1     111.455 103.004 136.992  1.00  0.00    -0.502 OA
ATOM     25  H   UNL     1     111.958 102.404 137.634  1.00  0.00     0.293 HD
ENDBRANCH   2  24
BRANCH   6  26
ATOM     26  O   UNL     1     107.801 105.978 134.506  1.00  0.00    -0.507 OA
ATOM     27  H   UNL     1     107.956 106.975 134.491  1.00  0.00     0.293 HD
ENDBRANCH   6  26
BRANCH   8  28
ATOM     28  O   UNL     1     103.930 104.964 137.130  1.00  0.00    -0.508 OA
ATOM     29  H   UNL     1     103.363 105.535 136.514  1.00  0.00     0.293 HD
ENDBRANCH   8  28
TORSDOF 7
ENDMDL
MODEL 9
REMARK VINA RESULT:    -6.216      2.302      3.626
REMARK INTER + INTRA:          -7.942
REMARK INTER:                  -7.658
REMARK INTRA:                  -0.284
REMARK UNBOUND:                -0.273
REMARK SMILES O=c1c(O)c(-c2cc(O)c(O)c(O)c2)oc2cc(O)cc(O)c12
REMARK SMILES IDX 5 1 3 2 2 3 1 4 23 5 21 6 20 7 18 8 17 9 16 10 15 11 6 12
REMARK SMILES IDX 7 13 8 14 14 15 10 16 12 17 9 18 11 20 13 22 4 24 22 26
REMARK SMILES IDX 19 28
REMARK H PARENT 9 19 11 21 13 23 4 25 22 27 19 29
REMARK Flexibility Score: inf
ROOT
ATOM      1  C   UNL     1     108.957 102.299 137.761  1.00  0.00     0.180 A 
ATOM      2  C   UNL     1     110.323 102.253 137.432  1.00  0.00     0.208 A 
ATOM      3  C   UNL     1     110.920 103.378 136.841  1.00  0.00     0.238 A 
ATOM      4  O   UNL     1     112.154 103.351 136.599  1.00  0.00    -0.285 OA
ATOM      5  C   UNL     1     110.140 104.529 136.574  1.00  0.00     0.111 A 
ATOM      6  C   UNL     1     110.631 105.711 135.941  1.00  0.00     0.134 A 
ATOM      7  C   UNL     1     109.804 106.838 135.845  1.00  0.00     0.093 A 
ATOM      8  C   UNL     1     108.486 106.803 136.296  1.00  0.00     0.123 A 
ATOM      9  C   UNL     1     107.976 105.633 136.861  1.00  0.00     0.094 A 
ATOM     10  C   UNL     1     108.789 104.505 137.005  1.00  0.00     0.146 A 
ATOM     11  O   UNL     1     108.268 103.415 137.557  1.00  0.00    -0.452 OA
ENDROOT
BRANCH   1  12
ATOM     12  C   UNL     1     108.252 101.143 138.363  1.00  0.00     0.029 A 
ATOM     13  C   UNL     1     108.453 100.841 139.718  1.00  0.00     0.062 A 
ATOM     14  C   UNL     1     107.781  99.766 140.316  1.00  0.00     0.162 A 
ATOM     15  C   UNL     1     107.339 100.376 137.619  1.00  0.00     0.062 A 
ATOM     16  C   UNL     1     106.889  98.992 139.564  1.00  0.00     0.200 A 
ATOM     17  C   UNL     1     106.664  99.300 138.212  1.00  0.00     0.162 A 
BRANCH  14  18
ATOM     18  O   UNL     1     107.996  99.461 141.659  1.00  0.00    -0.504 OA
ATOM     19  H   UNL     1     107.994  98.504 141.993  1.00  0.00     0.293 HD
ENDBRANCH  14  18
BRANCH  16  20
ATOM     20  O   UNL     1     106.232  97.924 140.175  1.00  0.00    -0.502 OA
ATOM     21  H   UNL     1     105.512  98.062 140.874  1.00  0.00     0.293 HD
ENDBRANCH  16  20
BRANCH  17  22
ATOM     22  O   UNL     1     105.765  98.541 137.464  1.00  0.00    -0.504 OA
ATOM     23  H   UNL     1     106.032  98.118 136.582  1.00  0.00     0.293 HD
ENDBRANCH  17  22
ENDBRANCH   1  12
BRANCH   2  24
ATOM     24  O   UNL     1     111.078 101.114 137.725  1.00  0.00    -0.502 OA
ATOM     25  H   UNL     1     110.660 100.201 137.852  1.00  0.00     0.293 HD
ENDBRANCH   2  24
BRANCH   6  26
ATOM     26  O   UNL     1     111.904 105.822 135.374  1.00  0.00    -0.507 OA
ATOM     27  H   UNL     1     112.128 105.593 134.417  1.00  0.00     0.293 HD
ENDBRANCH   6  26
BRANCH   8  28
ATOM     28  O   UNL     1     107.686 107.937 136.170  1.00  0.00    -0.508 OA
ATOM     29  H   UNL     1     108.084 108.847 135.969  1.00  0.00     0.293 HD
ENDBRANCH   8  28
TORSDOF 7
ENDMDL
