MODEL 1
REMARK VINA RESULT:    -3.605      0.000      0.000
REMARK INTER + INTRA:          -8.808
REMARK INTER:                  -6.555
REMARK INTRA:                  -2.252
REMARK UNBOUND:                -2.252
REMARK SMILES CCCCCCCCCCCCCCCC(=O)[O-]
REMARK SMILES IDX 9 1 10 2 11 3 12 4 13 5 14 6 15 7 16 8 17 9 18 10 8 11 7 12
REMARK SMILES IDX 6 13 5 14 4 15 3 16 2 17 1 18
REMARK H PARENT
REMARK Flexibility Score: inf
ROOT
ATOM      1  C   UNL     1       6.427   0.643  50.599  1.00  0.00     0.000 C 
ENDROOT
BRANCH   1   2
ATOM      2  C   UNL     1       7.161   1.849  51.225  1.00  0.00     0.000 C 
BRANCH   2   3
ATOM      3  C   UNL     1       6.255   2.660  52.167  1.00  0.00     0.000 C 
BRANCH   3   4
ATOM      4  C   UNL     1       6.410   4.183  51.970  1.00  0.00     0.000 C 
BRANCH   4   5
ATOM      5  C   UNL     1       7.579   4.578  51.046  1.00  0.00     0.000 C 
BRANCH   5   6
ATOM      6  C   UNL     1       7.444   5.958  50.375  1.00  0.00     0.006 C 
BRANCH   6   7
ATOM      7  C   UNL     1       7.183   5.906  48.862  1.00  0.00     0.053 C 
BRANCH   7   8
ATOM      8  C   UNL     1       7.692   7.130  48.165  1.00  0.00     0.041 C 
ATOM      9  O   UNL     1       6.896   8.046  47.829  1.00  0.00    -0.550 OA
ATOM     10  O   UNL     1       9.051   7.273  47.916  1.00  0.00    -0.550 OA
ENDBRANCH   7   8
ENDBRANCH   6   7
ENDBRANCH   5   6
ENDBRANCH   4   5
ENDBRANCH   3   4
ENDBRANCH   2   3
ENDBRANCH   1   2
BRANCH   1  11
ATOM     11  C   UNL     1       6.373   0.678  49.062  1.00  0.00     0.000 C 
BRANCH  11  12
ATOM     12  C   UNL     1       6.694   2.066  48.486  1.00  0.00    -0.000 C 
BRANCH  12  13
ATOM     13  C   UNL     1       5.453   2.766  47.908  1.00  0.00    -0.000 C 
BRANCH  13  14
ATOM     14  C   UNL     1       4.583   3.422  48.992  1.00  0.00    -0.000 C 
BRANCH  14  15
ATOM     15  C   UNL     1       3.465   2.475  49.444  1.00  0.00    -0.000 C 
BRANCH  15  16
ATOM     16  C   UNL     1       2.894   2.908  50.803  1.00  0.00    -0.000 C 
BRANCH  16  17
ATOM     17  C   UNL     1       2.854   4.435  50.967  1.00  0.00    -0.003 C 
ATOM     18  C   UNL     1       1.609   4.918  51.710  1.00  0.00     0.004 C 
ENDBRANCH  16  17
ENDBRANCH  15  16
ENDBRANCH  14  15
ENDBRANCH  13  14
ENDBRANCH  12  13
ENDBRANCH  11  12
ENDBRANCH   1  11
TORSDOF 14
ENDMDL
MODEL 2
REMARK VINA RESULT:    -3.537      1.991      3.263
REMARK INTER + INTRA:          -8.684
REMARK INTER:                  -6.300
REMARK INTRA:                  -2.384
REMARK UNBOUND:                -2.252
REMARK SMILES CCCCCCCCCCCCCCCC(=O)[O-]
REMARK SMILES IDX 9 1 10 2 11 3 12 4 13 5 14 6 15 7 16 8 17 9 18 10 8 11 7 12
REMARK SMILES IDX 6 13 5 14 4 15 3 16 2 17 1 18
REMARK H PARENT
REMARK Flexibility Score: inf
ROOT
ATOM      1  C   UNL     1       6.939   1.196  49.092  1.00  0.00     0.000 C 
ENDROOT
BRANCH   1   2
ATOM      2  C   UNL     1       5.981   0.017  49.370  1.00  0.00     0.000 C 
BRANCH   2   3
ATOM      3  C   UNL     1       5.603  -0.091  50.857  1.00  0.00     0.000 C 
BRANCH   3   4
ATOM      4  C   UNL     1       6.648   0.571  51.781  1.00  0.00     0.000 C 
BRANCH   4   5
ATOM      5  C   UNL     1       6.121   1.807  52.537  1.00  0.00     0.000 C 
BRANCH   5   6
ATOM      6  C   UNL     1       7.192   2.845  52.917  1.00  0.00     0.006 C 
BRANCH   6   7
ATOM      7  C   UNL     1       7.881   3.516  51.719  1.00  0.00     0.053 C 
BRANCH   7   8
ATOM      8  C   UNL     1       7.337   4.887  51.457  1.00  0.00     0.041 C 
ATOM      9  O   UNL     1       7.521   5.440  50.341  1.00  0.00    -0.550 OA
ATOM     10  O   UNL     1       6.599   5.540  52.436  1.00  0.00    -0.550 OA
ENDBRANCH   7   8
ENDBRANCH   6   7
ENDBRANCH   5   6
ENDBRANCH   4   5
ENDBRANCH   3   4
ENDBRANCH   2   3
ENDBRANCH   1   2
BRANCH   1  11
ATOM     11  C   UNL     1       6.649   1.934  47.773  1.00  0.00     0.000 C 
BRANCH  11  12
ATOM     12  C   UNL     1       5.973   3.297  47.989  1.00  0.00    -0.000 C 
BRANCH  12  13
ATOM     13  C   UNL     1       4.527   3.166  48.493  1.00  0.00    -0.000 C 
BRANCH  13  14
ATOM     14  C   UNL     1       4.351   3.685  49.929  1.00  0.00    -0.000 C 
BRANCH  14  15
ATOM     15  C   UNL     1       3.259   2.899  50.666  1.00  0.00    -0.000 C 
BRANCH  15  16
ATOM     16  C   UNL     1       2.691   1.783  49.775  1.00  0.00    -0.000 C 
BRANCH  16  17
ATOM     17  C   UNL     1       1.585   0.977  50.473  1.00  0.00    -0.003 C 
ATOM     18  C   UNL     1       1.969  -0.486  50.693  1.00  0.00     0.004 C 
ENDBRANCH  16  17
ENDBRANCH  15  16
ENDBRANCH  14  15
ENDBRANCH  13  14
ENDBRANCH  12  13
ENDBRANCH  11  12
ENDBRANCH   1  11
TORSDOF 14
ENDMDL
MODEL 3
REMARK VINA RESULT:    -3.505      1.192      2.536
REMARK INTER + INTRA:          -8.626
REMARK INTER:                  -6.229
REMARK INTRA:                  -2.397
REMARK UNBOUND:                -2.252
REMARK SMILES CCCCCCCCCCCCCCCC(=O)[O-]
REMARK SMILES IDX 9 1 10 2 11 3 12 4 13 5 14 6 15 7 16 8 17 9 18 10 8 11 7 12
REMARK SMILES IDX 6 13 5 14 4 15 3 16 2 17 1 18
REMARK H PARENT
REMARK Flexibility Score: inf
ROOT
ATOM      1  C   UNL     1       6.828   1.421  48.530  1.00  0.00     0.000 C 
ENDROOT
BRANCH   1   2
ATOM      2  C   UNL     1       5.978   2.555  47.916  1.00  0.00     0.000 C 
BRANCH   2   3
ATOM      3  C   UNL     1       6.566   3.947  48.205  1.00  0.00     0.000 C 
BRANCH   3   4
ATOM      4  C   UNL     1       6.078   4.527  49.550  1.00  0.00     0.000 C 
BRANCH   4   5
ATOM      5  C   UNL     1       7.216   4.963  50.493  1.00  0.00     0.000 C 
BRANCH   5   6
ATOM      6  C   UNL     1       7.526   6.472  50.489  1.00  0.00     0.006 C 
BRANCH   6   7
ATOM      7  C   UNL     1       6.524   7.324  49.695  1.00  0.00     0.053 C 
BRANCH   7   8
ATOM      8  C   UNL     1       7.165   7.982  48.512  1.00  0.00     0.041 C 
ATOM      9  O   UNL     1       7.078   9.228  48.355  1.00  0.00    -0.550 OA
ATOM     10  O   UNL     1       7.886   7.223  47.600  1.00  0.00    -0.550 OA
ENDBRANCH   7   8
ENDBRANCH   6   7
ENDBRANCH   5   6
ENDBRANCH   4   5
ENDBRANCH   3   4
ENDBRANCH   2   3
ENDBRANCH   1   2
BRANCH   1  11
ATOM     11  C   UNL     1       5.997   0.243  49.066  1.00  0.00     0.000 C 
BRANCH  11  12
ATOM     12  C   UNL     1       6.051   0.123  50.597  1.00  0.00    -0.000 C 
BRANCH  12  13
ATOM     13  C   UNL     1       6.853   1.259  51.251  1.00  0.00    -0.000 C 
BRANCH  13  14
ATOM     14  C   UNL     1       6.051   2.007  52.329  1.00  0.00    -0.000 C 
BRANCH  14  15
ATOM     15  C   UNL     1       4.549   1.738  52.179  1.00  0.00    -0.000 C 
BRANCH  15  16
ATOM     16  C   UNL     1       3.753   3.052  52.170  1.00  0.00    -0.000 C 
BRANCH  16  17
ATOM     17  C   UNL     1       2.992   3.273  50.855  1.00  0.00    -0.003 C 
ATOM     18  C   UNL     1       2.931   2.015  49.989  1.00  0.00     0.004 C 
ENDBRANCH  16  17
ENDBRANCH  15  16
ENDBRANCH  14  15
ENDBRANCH  13  14
ENDBRANCH  12  13
ENDBRANCH  11  12
ENDBRANCH   1  11
TORSDOF 14
ENDMDL
MODEL 4
REMARK VINA RESULT:    -3.505      2.297      3.701
REMARK INTER + INTRA:          -8.626
REMARK INTER:                  -6.761
REMARK INTRA:                  -1.865
REMARK UNBOUND:                -2.252
REMARK SMILES CCCCCCCCCCCCCCCC(=O)[O-]
REMARK SMILES IDX 9 1 10 2 11 3 12 4 13 5 14 6 15 7 16 8 17 9 18 10 8 11 7 12
REMARK SMILES IDX 6 13 5 14 4 15 3 16 2 17 1 18
REMARK H PARENT
REMARK Flexibility Score: inf
ROOT
ATOM      1  C   UNL     1       5.399   3.105  47.844  1.00  0.00     0.000 C 
ENDROOT
BRANCH   1   2
ATOM      2  C   UNL     1       5.760   4.163  48.909  1.00  0.00     0.000 C 
BRANCH   2   3
ATOM      3  C   UNL     1       6.972   5.017  48.498  1.00  0.00     0.000 C 
BRANCH   3   4
ATOM      4  C   UNL     1       7.174   6.239  49.418  1.00  0.00     0.000 C 
BRANCH   4   5
ATOM      5  C   UNL     1       8.103   7.319  48.830  1.00  0.00     0.000 C 
BRANCH   5   6
ATOM      6  C   UNL     1       7.469   8.201  47.739  1.00  0.00     0.006 C 
BRANCH   6   7
ATOM      7  C   UNL     1       6.201   8.947  48.182  1.00  0.00     0.053 C 
BRANCH   7   8
ATOM      8  C   UNL     1       6.516  10.081  49.109  1.00  0.00     0.041 C 
ATOM      9  O   UNL     1       6.186  10.017  50.323  1.00  0.00    -0.550 OA
ATOM     10  O   UNL     1       7.202  11.193  48.639  1.00  0.00    -0.550 OA
ENDBRANCH   7   8
ENDBRANCH   6   7
ENDBRANCH   5   6
ENDBRANCH   4   5
ENDBRANCH   3   4
ENDBRANCH   2   3
ENDBRANCH   1   2
BRANCH   1  11
ATOM     11  C   UNL     1       6.572   2.188  47.458  1.00  0.00     0.000 C 
BRANCH  11  12
ATOM     12  C   UNL     1       7.036   1.293  48.617  1.00  0.00    -0.000 C 
BRANCH  12  13
ATOM     13  C   UNL     1       5.991   0.232  49.000  1.00  0.00    -0.000 C 
BRANCH  13  14
ATOM     14  C   UNL     1       5.536   0.348  50.463  1.00  0.00    -0.000 C 
BRANCH  14  15
ATOM     15  C   UNL     1       6.522   1.195  51.277  1.00  0.00    -0.000 C 
BRANCH  15  16
ATOM     16  C   UNL     1       5.779   2.233  52.133  1.00  0.00    -0.000 C 
BRANCH  16  17
ATOM     17  C   UNL     1       6.657   3.441  52.490  1.00  0.00    -0.003 C 
ATOM     18  C   UNL     1       8.016   3.412  51.790  1.00  0.00     0.004 C 
ENDBRANCH  16  17
ENDBRANCH  15  16
ENDBRANCH  14  15
ENDBRANCH  13  14
ENDBRANCH  12  13
ENDBRANCH  11  12
ENDBRANCH   1  11
TORSDOF 14
ENDMDL
MODEL 5
REMARK VINA RESULT:    -3.496      3.795      5.810
REMARK INTER + INTRA:          -8.609
REMARK INTER:                  -6.775
REMARK INTRA:                  -1.834
REMARK UNBOUND:                -2.252
REMARK SMILES CCCCCCCCCCCCCCCC(=O)[O-]
REMARK SMILES IDX 9 1 10 2 11 3 12 4 13 5 14 6 15 7 16 8 17 9 18 10 8 11 7 12
REMARK SMILES IDX 6 13 5 14 4 15 3 16 2 17 1 18
REMARK H PARENT
REMARK Flexibility Score: inf
ROOT
ATOM      1  C   UNL     1       6.013   0.294  49.322  1.00  0.00     0.000 C 
ENDROOT
BRANCH   1   2
ATOM      2  C   UNL     1       6.114   0.401  50.860  1.00  0.00     0.000 C 
BRANCH   2   3
ATOM      3  C   UNL     1       5.915   1.842  51.360  1.00  0.00     0.000 C 
BRANCH   3   4
ATOM      4  C   UNL     1       4.462   2.119  51.800  1.00  0.00     0.000 C 
BRANCH   4   5
ATOM      5  C   UNL     1       3.605   2.820  50.727  1.00  0.00     0.000 C 
BRANCH   5   6
ATOM      6  C   UNL     1       2.718   1.884  49.886  1.00  0.00     0.006 C 
BRANCH   6   7
ATOM      7  C   UNL     1       2.425   0.526  50.543  1.00  0.00     0.053 C 
BRANCH   7   8
ATOM      8  C   UNL     1       1.694  -0.397  49.617  1.00  0.00     0.041 C 
ATOM      9  O   UNL     1       0.875   0.064  48.778  1.00  0.00    -0.550 OA
ATOM     10  O   UNL     1       1.942  -1.762  49.657  1.00  0.00    -0.550 OA
ENDBRANCH   7   8
ENDBRANCH   6   7
ENDBRANCH   5   6
ENDBRANCH   4   5
ENDBRANCH   3   4
ENDBRANCH   2   3
ENDBRANCH   1   2
BRANCH   1  11
ATOM     11  C   UNL     1       7.044   1.153  48.571  1.00  0.00     0.000 C 
BRANCH  11  12
ATOM     12  C   UNL     1       6.415   2.002  47.455  1.00  0.00    -0.000 C 
BRANCH  12  13
ATOM     13  C   UNL     1       5.741   3.276  47.990  1.00  0.00    -0.000 C 
BRANCH  13  14
ATOM     14  C   UNL     1       6.747   4.402  48.279  1.00  0.00    -0.000 C 
BRANCH  14  15
ATOM     15  C   UNL     1       6.316   5.220  49.503  1.00  0.00    -0.000 C 
BRANCH  15  16
ATOM     16  C   UNL     1       7.191   6.473  49.662  1.00  0.00    -0.000 C 
BRANCH  16  17
ATOM     17  C   UNL     1       7.696   7.015  48.317  1.00  0.00    -0.003 C 
ATOM     18  C   UNL     1       7.063   8.356  47.945  1.00  0.00     0.004 C 
ENDBRANCH  16  17
ENDBRANCH  15  16
ENDBRANCH  14  15
ENDBRANCH  13  14
ENDBRANCH  12  13
ENDBRANCH  11  12
ENDBRANCH   1  11
TORSDOF 14
ENDMDL
MODEL 6
REMARK VINA RESULT:    -3.471      3.951      6.100
REMARK INTER + INTRA:          -8.563
REMARK INTER:                  -6.303
REMARK INTRA:                  -2.260
REMARK UNBOUND:                -2.252
REMARK SMILES CCCCCCCCCCCCCCCC(=O)[O-]
REMARK SMILES IDX 9 1 10 2 11 3 12 4 13 5 14 6 15 7 16 8 17 9 18 10 8 11 7 12
REMARK SMILES IDX 6 13 5 14 4 15 3 16 2 17 1 18
REMARK H PARENT
REMARK Flexibility Score: inf
ROOT
ATOM      1  C   UNL     1       5.454   4.581  50.417  1.00  0.00     0.000 C 
ENDROOT
BRANCH   1   2
ATOM      2  C   UNL     1       4.014   5.122  50.279  1.00  0.00     0.000 C 
BRANCH   2   3
ATOM      3  C   UNL     1       2.998   4.290  51.081  1.00  0.00     0.000 C 
BRANCH   3   4
ATOM      4  C   UNL     1       3.674   3.209  51.950  1.00  0.00     0.000 C 
BRANCH   4   5
ATOM      5  C   UNL     1       3.045   1.809  51.808  1.00  0.00     0.000 C 
BRANCH   5   6
ATOM      6  C   UNL     1       2.420   1.510  50.433  1.00  0.00     0.006 C 
BRANCH   6   7
ATOM      7  C   UNL     1       1.223   0.548  50.474  1.00  0.00     0.053 C 
BRANCH   7   8
ATOM      8  C   UNL     1       1.250  -0.426  49.336  1.00  0.00     0.041 C 
ATOM      9  O   UNL     1       1.972  -1.455  49.399  1.00  0.00    -0.550 OA
ATOM     10  O   UNL     1       0.452  -0.211  48.219  1.00  0.00    -0.550 OA
ENDBRANCH   7   8
ENDBRANCH   6   7
ENDBRANCH   5   6
ENDBRANCH   4   5
ENDBRANCH   3   4
ENDBRANCH   2   3
ENDBRANCH   1   2
BRANCH   1  11
ATOM     11  C   UNL     1       6.140   4.292  49.071  1.00  0.00     0.000 C 
BRANCH  11  12
ATOM     12  C   UNL     1       5.396   3.238  48.236  1.00  0.00    -0.000 C 
BRANCH  12  13
ATOM     13  C   UNL     1       6.351   2.262  47.531  1.00  0.00    -0.000 C 
BRANCH  13  14
ATOM     14  C   UNL     1       7.006   1.267  48.503  1.00  0.00    -0.000 C 
BRANCH  14  15
ATOM     15  C   UNL     1       5.989   0.229  48.992  1.00  0.00    -0.000 C 
BRANCH  15  16
ATOM     16  C   UNL     1       5.925   0.202  50.527  1.00  0.00    -0.000 C 
BRANCH  16  17
ATOM     17  C   UNL     1       6.839   1.254  51.173  1.00  0.00    -0.003 C 
ATOM     18  C   UNL     1       6.629   1.372  52.682  1.00  0.00     0.004 C 
ENDBRANCH  16  17
ENDBRANCH  15  16
ENDBRANCH  14  15
ENDBRANCH  13  14
ENDBRANCH  12  13
ENDBRANCH  11  12
ENDBRANCH   1  11
TORSDOF 14
ENDMDL
MODEL 7
REMARK VINA RESULT:    -3.451      1.264      2.911
REMARK INTER + INTRA:          -8.527
REMARK INTER:                  -6.391
REMARK INTRA:                  -2.136
REMARK UNBOUND:                -2.252
REMARK SMILES CCCCCCCCCCCCCCCC(=O)[O-]
REMARK SMILES IDX 9 1 10 2 11 3 12 4 13 5 14 6 15 7 16 8 17 9 18 10 8 11 7 12
REMARK SMILES IDX 6 13 5 14 4 15 3 16 2 17 1 18
REMARK H PARENT
REMARK Flexibility Score: inf
ROOT
ATOM      1  C   UNL     1       6.884   0.863  50.219  1.00  0.00     0.000 C 
ENDROOT
BRANCH   1   2
ATOM      2  C   UNL     1       6.174   0.813  48.849  1.00  0.00     0.000 C 
BRANCH   2   3
ATOM      3  C   UNL     1       6.798   1.784  47.831  1.00  0.00     0.000 C 
BRANCH   3   4
ATOM      4  C   UNL     1       6.041   3.127  47.755  1.00  0.00     0.000 C 
BRANCH   4   5
ATOM      5  C   UNL     1       6.439   4.132  48.853  1.00  0.00     0.000 C 
BRANCH   5   6
ATOM      6  C   UNL     1       7.167   5.393  48.352  1.00  0.00     0.006 C 
BRANCH   6   7
ATOM      7  C   UNL     1       7.402   6.462  49.430  1.00  0.00     0.053 C 
BRANCH   7   8
ATOM      8  C   UNL     1       7.760   7.788  48.833  1.00  0.00     0.041 C 
ATOM      9  O   UNL     1       8.113   8.743  49.574  1.00  0.00    -0.550 OA
ATOM     10  O   UNL     1       7.736   7.959  47.455  1.00  0.00    -0.550 OA
ENDBRANCH   7   8
ENDBRANCH   6   7
ENDBRANCH   5   6
ENDBRANCH   4   5
ENDBRANCH   3   4
ENDBRANCH   2   3
ENDBRANCH   1   2
BRANCH   1  11
ATOM     11  C   UNL     1       6.110   0.157  51.345  1.00  0.00     0.000 C 
BRANCH  11  12
ATOM     12  C   UNL     1       5.599   1.131  52.419  1.00  0.00    -0.000 C 
BRANCH  12  13
ATOM     13  C   UNL     1       6.288   2.503  52.347  1.00  0.00    -0.000 C 
BRANCH  13  14
ATOM     14  C   UNL     1       5.290   3.659  52.172  1.00  0.00    -0.000 C 
BRANCH  14  15
ATOM     15  C   UNL     1       3.856   3.130  52.048  1.00  0.00    -0.000 C 
BRANCH  15  16
ATOM     16  C   UNL     1       3.261   3.471  50.673  1.00  0.00    -0.000 C 
BRANCH  16  17
ATOM     17  C   UNL     1       3.157   2.244  49.755  1.00  0.00    -0.003 C 
ATOM     18  C   UNL     1       2.486   1.051  50.435  1.00  0.00     0.004 C 
ENDBRANCH  16  17
ENDBRANCH  15  16
ENDBRANCH  14  15
ENDBRANCH  13  14
ENDBRANCH  12  13
ENDBRANCH  11  12
ENDBRANCH   1  11
TORSDOF 14
ENDMDL
MODEL 8
REMARK VINA RESULT:    -3.424      3.451      5.841
REMARK INTER + INTRA:          -8.479
REMARK INTER:                  -6.295
REMARK INTRA:                  -2.184
REMARK UNBOUND:                -2.252
REMARK SMILES CCCCCCCCCCCCCCCC(=O)[O-]
REMARK SMILES IDX 9 1 10 2 11 3 12 4 13 5 14 6 15 7 16 8 17 9 18 10 8 11 7 12
REMARK SMILES IDX 6 13 5 14 4 15 3 16 2 17 1 18
REMARK H PARENT
REMARK Flexibility Score: inf
ROOT
ATOM      1  C   UNL     1       6.736   1.033  50.159  1.00  0.00     0.000 C 
ENDROOT
BRANCH   1   2
ATOM      2  C   UNL     1       6.721   1.430  48.666  1.00  0.00     0.000 C 
BRANCH   2   3
ATOM      3  C   UNL     1       6.372   2.914  48.460  1.00  0.00     0.000 C 
BRANCH   3   4
ATOM      4  C   UNL     1       4.850   3.160  48.394  1.00  0.00     0.000 C 
BRANCH   4   5
ATOM      5  C   UNL     1       4.266   3.813  49.662  1.00  0.00     0.000 C 
BRANCH   5   6
ATOM      6  C   UNL     1       3.250   2.950  50.432  1.00  0.00     0.006 C 
BRANCH   6   7
ATOM      7  C   UNL     1       3.016   1.556  49.832  1.00  0.00     0.053 C 
BRANCH   7   8
ATOM      8  C   UNL     1       1.738   0.945  50.319  1.00  0.00     0.041 C 
ATOM      9  O   UNL     1       1.104   1.475  51.270  1.00  0.00    -0.550 OA
ATOM     10  O   UNL     1       1.231  -0.190  49.702  1.00  0.00    -0.550 OA
ENDBRANCH   7   8
ENDBRANCH   6   7
ENDBRANCH   5   6
ENDBRANCH   4   5
ENDBRANCH   3   4
ENDBRANCH   2   3
ENDBRANCH   1   2
BRANCH   1  11
ATOM     11  C   UNL     1       7.397   2.080  51.072  1.00  0.00     0.000 C 
BRANCH  11  12
ATOM     12  C   UNL     1       6.499   2.498  52.247  1.00  0.00    -0.000 C 
BRANCH  12  13
ATOM     13  C   UNL     1       6.492   4.019  52.472  1.00  0.00    -0.000 C 
BRANCH  13  14
ATOM     14  C   UNL     1       7.511   4.754  51.586  1.00  0.00    -0.000 C 
BRANCH  14  15
ATOM     15  C   UNL     1       6.821   5.826  50.732  1.00  0.00    -0.000 C 
BRANCH  15  16
ATOM     16  C   UNL     1       7.849   6.625  49.918  1.00  0.00    -0.000 C 
BRANCH  16  17
ATOM     17  C   UNL     1       7.526   6.646  48.416  1.00  0.00    -0.003 C 
ATOM     18  C   UNL     1       7.082   8.024  47.926  1.00  0.00     0.004 C 
ENDBRANCH  16  17
ENDBRANCH  15  16
ENDBRANCH  14  15
ENDBRANCH  13  14
ENDBRANCH  12  13
ENDBRANCH  11  12
ENDBRANCH   1  11
TORSDOF 14
ENDMDL
MODEL 9
REMARK VINA RESULT:    -3.407      2.899      5.290
REMARK INTER + INTRA:          -8.448
REMARK INTER:                  -6.486
REMARK INTRA:                  -1.962
REMARK UNBOUND:                -2.252
REMARK SMILES CCCCCCCCCCCCCCCC(=O)[O-]
REMARK SMILES IDX 9 1 10 2 11 3 12 4 13 5 14 6 15 7 16 8 17 9 18 10 8 11 7 12
REMARK SMILES IDX 6 13 5 14 4 15 3 16 2 17 1 18
REMARK H PARENT
REMARK Flexibility Score: inf
ROOT
ATOM      1  C   UNL     1       7.062   1.274  48.504  1.00  0.00     0.000 C 
ENDROOT
BRANCH   1   2
ATOM      2  C   UNL     1       6.075   0.403  49.313  1.00  0.00     0.000 C 
BRANCH   2   3
ATOM      3  C   UNL     1       6.234   0.597  50.831  1.00  0.00     0.000 C 
BRANCH   3   4
ATOM      4  C   UNL     1       7.135   1.800  51.182  1.00  0.00     0.000 C 
BRANCH   4   5
ATOM      5  C   UNL     1       6.396   2.946  51.901  1.00  0.00     0.000 C 
BRANCH   5   6
ATOM      6  C   UNL     1       4.939   2.639  52.293  1.00  0.00     0.006 C 
BRANCH   6   7
ATOM      7  C   UNL     1       3.887   3.220  51.336  1.00  0.00     0.053 C 
BRANCH   7   8
ATOM      8  C   UNL     1       2.971   2.162  50.803  1.00  0.00     0.041 C 
ATOM      9  O   UNL     1       2.302   1.445  51.594  1.00  0.00    -0.550 OA
ATOM     10  O   UNL     1       2.832   1.988  49.433  1.00  0.00    -0.550 OA
ENDBRANCH   7   8
ENDBRANCH   6   7
ENDBRANCH   5   6
ENDBRANCH   4   5
ENDBRANCH   3   4
ENDBRANCH   2   3
ENDBRANCH   1   2
BRANCH   1  11
ATOM     11  C   UNL     1       6.377   2.220  47.502  1.00  0.00     0.000 C 
BRANCH  11  12
ATOM     12  C   UNL     1       5.784   3.470  48.171  1.00  0.00    -0.000 C 
BRANCH  12  13
ATOM     13  C   UNL     1       6.850   4.531  48.490  1.00  0.00    -0.000 C 
BRANCH  13  14
ATOM     14  C   UNL     1       6.346   5.602  49.471  1.00  0.00    -0.000 C 
BRANCH  14  15
ATOM     15  C   UNL     1       7.500   6.487  49.956  1.00  0.00    -0.000 C 
BRANCH  15  16
ATOM     16  C   UNL     1       7.352   7.922  49.426  1.00  0.00    -0.000 C 
BRANCH  16  17
ATOM     17  C   UNL     1       7.542   8.012  47.905  1.00  0.00    -0.003 C 
ATOM     18  C   UNL     1       9.014   8.003  47.491  1.00  0.00     0.004 C 
ENDBRANCH  16  17
ENDBRANCH  15  16
ENDBRANCH  14  15
ENDBRANCH  13  14
ENDBRANCH  12  13
ENDBRANCH  11  12
ENDBRANCH   1  11
TORSDOF 14
ENDMDL
