MODEL 1
REMARK VINA RESULT:    -5.944      0.000      0.000
REMARK INTER + INTRA:          -7.185
REMARK INTER:                  -7.160
REMARK INTRA:                  -0.025
REMARK UNBOUND:                -0.025
REMARK SMILES O=c1c(O)c(-c2ccc(O)c(O)c2)oc2cc(O)cc(O)c12
REMARK SMILES IDX 5 1 3 2 2 3 1 4 22 5 20 6 19 7 17 8 16 9 15 10 14 11 6 12
REMARK SMILES IDX 7 13 8 14 9 15 13 16 11 17 10 18 12 20 4 22 21 24 18 26
REMARK H PARENT 10 19 12 21 4 23 21 25 18 27
REMARK Flexibility Score: inf
ROOT
ATOM      1  C   UNL     1       6.621   8.902  14.164  1.00  0.00     0.180 A 
ATOM      2  C   UNL     1       5.932  10.127  14.184  1.00  0.00     0.208 A 
ATOM      3  C   UNL     1       5.609  10.746  12.966  1.00  0.00     0.238 A 
ATOM      4  O   UNL     1       4.945  11.815  12.990  1.00  0.00    -0.285 OA
ATOM      5  C   UNL     1       5.993  10.142  11.745  1.00  0.00     0.111 A 
ATOM      6  C   UNL     1       5.754  10.701  10.453  1.00  0.00     0.134 A 
ATOM      7  C   UNL     1       6.060   9.954   9.309  1.00  0.00     0.093 A 
ATOM      8  C   UNL     1       6.658   8.696   9.410  1.00  0.00     0.123 A 
ATOM      9  C   UNL     1       6.950   8.168  10.665  1.00  0.00     0.094 A 
ATOM     10  C   UNL     1       6.623   8.872  11.826  1.00  0.00     0.146 A 
ATOM     11  O   UNL     1       6.909   8.327  13.002  1.00  0.00    -0.452 OA
ENDROOT
BRANCH   1  12
ATOM     12  C   UNL     1       7.017   8.200  15.407  1.00  0.00     0.025 A 
ATOM     13  C   UNL     1       7.742   8.892  16.389  1.00  0.00     0.016 A 
ATOM     14  C   UNL     1       8.109   8.256  17.578  1.00  0.00     0.051 A 
ATOM     15  C   UNL     1       7.743   6.925  17.810  1.00  0.00     0.157 A 
ATOM     16  C   UNL     1       6.633   6.869  15.650  1.00  0.00     0.062 A 
ATOM     17  C   UNL     1       6.998   6.229  16.844  1.00  0.00     0.158 A 
BRANCH  15  18
ATOM     18  O   UNL     1       8.125   6.316  19.005  1.00  0.00    -0.504 OA
ATOM     19  H   UNL     1       8.688   6.795  19.696  1.00  0.00     0.293 HD
ENDBRANCH  15  18
BRANCH  17  20
ATOM     20  O   UNL     1       6.617   4.908  17.074  1.00  0.00    -0.504 OA
ATOM     21  H   UNL     1       5.966   4.664  17.812  1.00  0.00     0.293 HD
ENDBRANCH  17  20
ENDBRANCH   1  12
BRANCH   2  22
ATOM     22  O   UNL     1       5.544  10.695  15.400  1.00  0.00    -0.502 OA
ATOM     23  H   UNL     1       6.207  11.104  16.047  1.00  0.00     0.293 HD
ENDBRANCH   2  22
BRANCH   6  24
ATOM     24  O   UNL     1       5.246  11.987  10.241  1.00  0.00    -0.507 OA
ATOM     25  H   UNL     1       5.370  12.521   9.395  1.00  0.00     0.293 HD
ENDBRANCH   6  24
BRANCH   8  26
ATOM     26  O   UNL     1       6.974   7.966   8.266  1.00  0.00    -0.508 OA
ATOM     27  H   UNL     1       6.259   7.654   7.622  1.00  0.00     0.293 HD
ENDBRANCH   8  26
TORSDOF 6
ENDMDL
MODEL 2
REMARK VINA RESULT:    -5.464      1.299      6.743
REMARK INTER + INTRA:          -6.606
REMARK INTER:                  -6.646
REMARK INTRA:                   0.040
REMARK UNBOUND:                -0.025
REMARK SMILES O=c1c(O)c(-c2ccc(O)c(O)c2)oc2cc(O)cc(O)c12
REMARK SMILES IDX 5 1 3 2 2 3 1 4 22 5 20 6 19 7 17 8 16 9 15 10 14 11 6 12
REMARK SMILES IDX 7 13 8 14 9 15 13 16 11 17 10 18 12 20 4 22 21 24 18 26
REMARK H PARENT 10 19 12 21 4 23 21 25 18 27
REMARK Flexibility Score: inf
ROOT
ATOM      1  C   UNL     1       6.828   9.034  13.867  1.00  0.00     0.180 A 
ATOM      2  C   UNL     1       7.338   9.976  14.776  1.00  0.00     0.208 A 
ATOM      3  C   UNL     1       7.618   9.571  16.091  1.00  0.00     0.238 A 
ATOM      4  O   UNL     1       8.125  10.404  16.885  1.00  0.00    -0.285 OA
ATOM      5  C   UNL     1       7.369   8.234  16.484  1.00  0.00     0.111 A 
ATOM      6  C   UNL     1       7.576   7.724  17.802  1.00  0.00     0.134 A 
ATOM      7  C   UNL     1       7.421   6.354  18.045  1.00  0.00     0.093 A 
ATOM      8  C   UNL     1       7.000   5.486  17.034  1.00  0.00     0.123 A 
ATOM      9  C   UNL     1       6.737   5.984  15.760  1.00  0.00     0.094 A 
ATOM     10  C   UNL     1       6.919   7.340  15.477  1.00  0.00     0.146 A 
ATOM     11  O   UNL     1       6.667   7.771  14.247  1.00  0.00    -0.452 OA
ENDROOT
BRANCH   1  12
ATOM     12  C   UNL     1       6.486   9.391  12.470  1.00  0.00     0.025 A 
ATOM     13  C   UNL     1       5.711  10.533  12.220  1.00  0.00     0.016 A 
ATOM     14  C   UNL     1       5.394  10.900  10.910  1.00  0.00     0.051 A 
ATOM     15  C   UNL     1       5.860  10.143   9.830  1.00  0.00     0.157 A 
ATOM     16  C   UNL     1       6.972   8.641  11.384  1.00  0.00     0.062 A 
ATOM     17  C   UNL     1       6.656   9.010  10.067  1.00  0.00     0.158 A 
BRANCH  15  18
ATOM     18  O   UNL     1       5.526  10.532   8.534  1.00  0.00    -0.504 OA
ATOM     19  H   UNL     1       4.704  11.089   8.335  1.00  0.00     0.293 HD
ENDBRANCH  15  18
BRANCH  17  20
ATOM     20  O   UNL     1       7.137   8.258   8.996  1.00  0.00    -0.504 OA
ATOM     21  H   UNL     1       6.558   8.052   8.189  1.00  0.00     0.293 HD
ENDBRANCH  17  20
ENDBRANCH   1  12
BRANCH   2  22
ATOM     22  O   UNL     1       7.597  11.285  14.362  1.00  0.00    -0.502 OA
ATOM     23  H   UNL     1       7.230  11.665  13.498  1.00  0.00     0.293 HD
ENDBRANCH   2  22
BRANCH   6  24
ATOM     24  O   UNL     1       7.908   8.519  18.903  1.00  0.00    -0.507 OA
ATOM     25  H   UNL     1       8.745   9.076  18.978  1.00  0.00     0.293 HD
ENDBRANCH   6  24
BRANCH   8  26
ATOM     26  O   UNL     1       6.832   4.127  17.288  1.00  0.00    -0.508 OA
ATOM     27  H   UNL     1       7.056   3.725  18.191  1.00  0.00     0.293 HD
ENDBRANCH   8  26
TORSDOF 6
ENDMDL
MODEL 3
REMARK VINA RESULT:    -5.394      2.127      6.717
REMARK INTER + INTRA:          -6.523
REMARK INTER:                  -6.253
REMARK INTRA:                  -0.269
REMARK UNBOUND:                -0.025
REMARK SMILES O=c1c(O)c(-c2ccc(O)c(O)c2)oc2cc(O)cc(O)c12
REMARK SMILES IDX 5 1 3 2 2 3 1 4 22 5 20 6 19 7 17 8 16 9 15 10 14 11 6 12
REMARK SMILES IDX 7 13 8 14 9 15 13 16 11 17 10 18 12 20 4 22 21 24 18 26
REMARK H PARENT 10 19 12 21 4 23 21 25 18 27
REMARK Flexibility Score: inf
ROOT
ATOM      1  C   UNL     1       6.368   9.193  14.867  1.00  0.00     0.180 A 
ATOM      2  C   UNL     1       7.099   9.492  16.029  1.00  0.00     0.208 A 
ATOM      3  C   UNL     1       7.423   8.452  16.916  1.00  0.00     0.238 A 
ATOM      4  O   UNL     1       8.123   8.717  17.927  1.00  0.00    -0.285 OA
ATOM      5  C   UNL     1       6.998   7.131  16.638  1.00  0.00     0.111 A 
ATOM      6  C   UNL     1       7.235   6.007  17.486  1.00  0.00     0.134 A 
ATOM      7  C   UNL     1       6.884   4.725  17.049  1.00  0.00     0.093 A 
ATOM      8  C   UNL     1       6.245   4.532  15.821  1.00  0.00     0.123 A 
ATOM      9  C   UNL     1       5.955   5.629  15.013  1.00  0.00     0.094 A 
ATOM     10  C   UNL     1       6.326   6.917  15.405  1.00  0.00     0.146 A 
ATOM     11  O   UNL     1       6.041   7.934  14.600  1.00  0.00    -0.452 OA
ENDROOT
BRANCH   1  12
ATOM     12  C   UNL     1       5.969  10.238  13.896  1.00  0.00     0.025 A 
ATOM     13  C   UNL     1       6.587  10.285  12.638  1.00  0.00     0.016 A 
ATOM     14  C   UNL     1       6.211  11.249  11.700  1.00  0.00     0.051 A 
ATOM     15  C   UNL     1       5.201  12.171  11.998  1.00  0.00     0.157 A 
ATOM     16  C   UNL     1       4.940  11.152  14.188  1.00  0.00     0.062 A 
ATOM     17  C   UNL     1       4.559  12.120  13.246  1.00  0.00     0.158 A 
BRANCH  15  18
ATOM     18  O   UNL     1       4.848  13.123  11.043  1.00  0.00    -0.504 OA
ATOM     19  H   UNL     1       4.237  13.900  11.259  1.00  0.00     0.293 HD
ENDBRANCH  15  18
BRANCH  17  20
ATOM     20  O   UNL     1       3.542  13.025  13.545  1.00  0.00    -0.504 OA
ATOM     21  H   UNL     1       3.665  14.023  13.418  1.00  0.00     0.293 HD
ENDBRANCH  17  20
ENDBRANCH   1  12
BRANCH   2  22
ATOM     22  O   UNL     1       7.527  10.799  16.274  1.00  0.00    -0.502 OA
ATOM     23  H   UNL     1       8.055  11.053  17.100  1.00  0.00     0.293 HD
ENDBRANCH   2  22
BRANCH   6  24
ATOM     24  O   UNL     1       7.782   6.101  18.769  1.00  0.00    -0.507 OA
ATOM     25  H   UNL     1       7.877   5.328  19.411  1.00  0.00     0.293 HD
ENDBRANCH   6  24
BRANCH   8  26
ATOM     26  O   UNL     1       5.884   3.255  15.401  1.00  0.00    -0.508 OA
ATOM     27  H   UNL     1       5.303   2.653  15.971  1.00  0.00     0.293 HD
ENDBRANCH   8  26
TORSDOF 6
ENDMDL
MODEL 4
REMARK VINA RESULT:    -5.101      1.023      1.629
REMARK INTER + INTRA:          -6.169
REMARK INTER:                  -6.320
REMARK INTRA:                   0.151
REMARK UNBOUND:                -0.025
REMARK SMILES O=c1c(O)c(-c2ccc(O)c(O)c2)oc2cc(O)cc(O)c12
REMARK SMILES IDX 5 1 3 2 2 3 1 4 22 5 20 6 19 7 17 8 16 9 15 10 14 11 6 12
REMARK SMILES IDX 7 13 8 14 9 15 13 16 11 17 10 18 12 20 4 22 21 24 18 26
REMARK H PARENT 10 19 12 21 4 23 21 25 18 27
REMARK Flexibility Score: inf
ROOT
ATOM      1  C   UNL     1       6.902   8.651  14.535  1.00  0.00     0.180 A 
ATOM      2  C   UNL     1       6.608  10.021  14.647  1.00  0.00     0.208 A 
ATOM      3  C   UNL     1       6.580  10.808  13.485  1.00  0.00     0.238 A 
ATOM      4  O   UNL     1       6.262  12.022  13.586  1.00  0.00    -0.285 OA
ATOM      5  C   UNL     1       6.862  10.221  12.229  1.00  0.00     0.111 A 
ATOM      6  C   UNL     1       6.902  10.932  10.991  1.00  0.00     0.134 A 
ATOM      7  C   UNL     1       7.063  10.226   9.793  1.00  0.00     0.093 A 
ATOM      8  C   UNL     1       7.252   8.842   9.793  1.00  0.00     0.123 A 
ATOM      9  C   UNL     1       7.275   8.147  11.000  1.00  0.00     0.094 A 
ATOM     10  C   UNL     1       7.080   8.818  12.209  1.00  0.00     0.146 A 
ATOM     11  O   UNL     1       7.098   8.116  13.336  1.00  0.00    -0.452 OA
ENDROOT
BRANCH   1  12
ATOM     12  C   UNL     1       6.974   7.761  15.717  1.00  0.00     0.025 A 
ATOM     13  C   UNL     1       6.551   6.428  15.604  1.00  0.00     0.016 A 
ATOM     14  C   UNL     1       6.629   5.566  16.701  1.00  0.00     0.051 A 
ATOM     15  C   UNL     1       7.146   6.016  17.920  1.00  0.00     0.157 A 
ATOM     16  C   UNL     1       7.513   8.208  16.937  1.00  0.00     0.062 A 
ATOM     17  C   UNL     1       7.594   7.342  18.038  1.00  0.00     0.158 A 
BRANCH  15  18
ATOM     18  O   UNL     1       7.211   5.133  18.997  1.00  0.00    -0.504 OA
ATOM     19  H   UNL     1       6.451   4.502  19.220  1.00  0.00     0.293 HD
ENDBRANCH  15  18
BRANCH  17  20
ATOM     20  O   UNL     1       8.125   7.794  19.246  1.00  0.00    -0.504 OA
ATOM     21  H   UNL     1       7.943   8.731  19.588  1.00  0.00     0.293 HD
ENDBRANCH  17  20
ENDBRANCH   1  12
BRANCH   2  22
ATOM     22  O   UNL     1       6.310  10.576  15.894  1.00  0.00    -0.502 OA
ATOM     23  H   UNL     1       6.190  10.012  16.727  1.00  0.00     0.293 HD
ENDBRANCH   2  22
BRANCH   6  24
ATOM     24  O   UNL     1       6.816  12.324  10.889  1.00  0.00    -0.507 OA
ATOM     25  H   UNL     1       7.474  12.972  11.295  1.00  0.00     0.293 HD
ENDBRANCH   6  24
BRANCH   8  26
ATOM     26  O   UNL     1       7.428   8.149   8.598  1.00  0.00    -0.508 OA
ATOM     27  H   UNL     1       8.196   8.358   7.972  1.00  0.00     0.293 HD
ENDBRANCH   8  26
TORSDOF 6
ENDMDL
MODEL 5
REMARK VINA RESULT:    -4.590      2.097      7.271
REMARK INTER + INTRA:          -5.554
REMARK INTER:                  -5.235
REMARK INTRA:                  -0.319
REMARK UNBOUND:                -0.025
REMARK SMILES O=c1c(O)c(-c2ccc(O)c(O)c2)oc2cc(O)cc(O)c12
REMARK SMILES IDX 5 1 3 2 2 3 1 4 22 5 20 6 19 7 17 8 16 9 15 10 14 11 6 12
REMARK SMILES IDX 7 13 8 14 9 15 13 16 11 17 10 18 12 20 4 22 21 24 18 26
REMARK H PARENT 10 19 12 21 4 23 21 25 18 27
REMARK Flexibility Score: inf
ROOT
ATOM      1  C   UNL     1       6.863   8.837  14.677  1.00  0.00     0.180 A 
ATOM      2  C   UNL     1       6.419   7.545  14.348  1.00  0.00     0.208 A 
ATOM      3  C   UNL     1       6.445   6.544  15.333  1.00  0.00     0.238 A 
ATOM      4  O   UNL     1       5.996   5.404  15.048  1.00  0.00    -0.285 OA
ATOM      5  C   UNL     1       6.931   6.844  16.628  1.00  0.00     0.111 A 
ATOM      6  C   UNL     1       7.042   5.897  17.692  1.00  0.00     0.134 A 
ATOM      7  C   UNL     1       7.412   6.334  18.969  1.00  0.00     0.093 A 
ATOM      8  C   UNL     1       7.741   7.671  19.206  1.00  0.00     0.123 A 
ATOM      9  C   UNL     1       7.695   8.590  18.161  1.00  0.00     0.094 A 
ATOM     10  C   UNL     1       7.292   8.193  16.884  1.00  0.00     0.146 A 
ATOM     11  O   UNL     1       7.251   9.103  15.919  1.00  0.00    -0.452 OA
ENDROOT
BRANCH   1  12
ATOM     12  C   UNL     1       6.888   9.938  13.686  1.00  0.00     0.025 A 
ATOM     13  C   UNL     1       7.990  10.071  12.829  1.00  0.00     0.016 A 
ATOM     14  C   UNL     1       8.025  11.090  11.873  1.00  0.00     0.051 A 
ATOM     15  C   UNL     1       6.953  11.980  11.749  1.00  0.00     0.157 A 
ATOM     16  C   UNL     1       5.801  10.820  13.546  1.00  0.00     0.062 A 
ATOM     17  C   UNL     1       5.834  11.842  12.586  1.00  0.00     0.158 A 
BRANCH  15  18
ATOM     18  O   UNL     1       7.017  12.987  10.787  1.00  0.00    -0.504 OA
ATOM     19  H   UNL     1       7.266  13.940  11.023  1.00  0.00     0.293 HD
ENDBRANCH  15  18
BRANCH  17  20
ATOM     20  O   UNL     1       4.755  12.717  12.458  1.00  0.00    -0.504 OA
ATOM     21  H   UNL     1       4.452  13.057  11.553  1.00  0.00     0.293 HD
ENDBRANCH  17  20
ENDBRANCH   1  12
BRANCH   2  22
ATOM     22  O   UNL     1       5.923   7.276  13.070  1.00  0.00    -0.502 OA
ATOM     23  H   UNL     1       5.240   6.549  12.892  1.00  0.00     0.293 HD
ENDBRANCH   2  22
BRANCH   6  24
ATOM     24  O   UNL     1       6.826   4.524  17.540  1.00  0.00    -0.507 OA
ATOM     25  H   UNL     1       6.020   4.027  17.887  1.00  0.00     0.293 HD
ENDBRANCH   6  24
BRANCH   8  26
ATOM     26  O   UNL     1       8.125   8.093  20.477  1.00  0.00    -0.508 OA
ATOM     27  H   UNL     1       7.692   8.893  20.922  1.00  0.00     0.293 HD
ENDBRANCH   8  26
TORSDOF 6
ENDMDL
MODEL 6
REMARK VINA RESULT:    -4.216      1.785      2.800
REMARK INTER + INTRA:          -5.103
REMARK INTER:                  -5.569
REMARK INTRA:                   0.466
REMARK UNBOUND:                -0.025
REMARK SMILES O=c1c(O)c(-c2ccc(O)c(O)c2)oc2cc(O)cc(O)c12
REMARK SMILES IDX 5 1 3 2 2 3 1 4 22 5 20 6 19 7 17 8 16 9 15 10 14 11 6 12
REMARK SMILES IDX 7 13 8 14 9 15 13 16 11 17 10 18 12 20 4 22 21 24 18 26
REMARK H PARENT 10 19 12 21 4 23 21 25 18 27
REMARK Flexibility Score: inf
ROOT
ATOM      1  C   UNL     1       6.999   8.269  15.125  1.00  0.00     0.180 A 
ATOM      2  C   UNL     1       6.283   7.490  14.200  1.00  0.00     0.208 A 
ATOM      3  C   UNL     1       6.012   8.021  12.928  1.00  0.00     0.238 A 
ATOM      4  O   UNL     1       5.419   7.299  12.086  1.00  0.00    -0.285 OA
ATOM      5  C   UNL     1       6.445   9.330  12.605  1.00  0.00     0.111 A 
ATOM      6  C   UNL     1       6.190   9.984  11.361  1.00  0.00     0.134 A 
ATOM      7  C   UNL     1       6.778  11.228  11.101  1.00  0.00     0.093 A 
ATOM      8  C   UNL     1       7.557  11.871  12.066  1.00  0.00     0.123 A 
ATOM      9  C   UNL     1       7.762  11.268  13.304  1.00  0.00     0.094 A 
ATOM     10  C   UNL     1       7.220  10.011  13.580  1.00  0.00     0.146 A 
ATOM     11  O   UNL     1       7.449   9.467  14.769  1.00  0.00    -0.452 OA
ENDROOT
BRANCH   1  12
ATOM     12  C   UNL     1       7.303   7.787  16.492  1.00  0.00     0.025 A 
ATOM     13  C   UNL     1       7.809   8.685  17.444  1.00  0.00     0.016 A 
ATOM     14  C   UNL     1       8.083   8.257  18.746  1.00  0.00     0.051 A 
ATOM     15  C   UNL     1       7.840   6.931  19.120  1.00  0.00     0.157 A 
ATOM     16  C   UNL     1       7.039   6.460  16.876  1.00  0.00     0.062 A 
ATOM     17  C   UNL     1       7.312   6.029  18.183  1.00  0.00     0.158 A 
BRANCH  15  18
ATOM     18  O   UNL     1       8.125   6.532  20.426  1.00  0.00    -0.504 OA
ATOM     19  H   UNL     1       8.924   6.890  20.934  1.00  0.00     0.293 HD
ENDBRANCH  15  18
BRANCH  17  20
ATOM     20  O   UNL     1       7.053   4.709  18.553  1.00  0.00    -0.504 OA
ATOM     21  H   UNL     1       6.628   4.051  17.910  1.00  0.00     0.293 HD
ENDBRANCH  17  20
ENDBRANCH   1  12
BRANCH   2  22
ATOM     22  O   UNL     1       5.885   6.193  14.532  1.00  0.00    -0.502 OA
ATOM     23  H   UNL     1       5.442   5.572  13.865  1.00  0.00     0.293 HD
ENDBRANCH   2  22
BRANCH   6  24
ATOM     24  O   UNL     1       5.351   9.471  10.368  1.00  0.00    -0.507 OA
ATOM     25  H   UNL     1       5.648   8.853   9.628  1.00  0.00     0.293 HD
ENDBRANCH   6  24
BRANCH   8  26
ATOM     26  O   UNL     1       8.125  13.116  11.805  1.00  0.00    -0.508 OA
ATOM     27  H   UNL     1       7.564  13.899  11.493  1.00  0.00     0.293 HD
ENDBRANCH   8  26
TORSDOF 6
ENDMDL
MODEL 7
REMARK VINA RESULT:    -4.046     21.061     23.752
REMARK INTER + INTRA:          -4.898
REMARK INTER:                  -4.921
REMARK INTRA:                   0.023
REMARK UNBOUND:                -0.025
REMARK SMILES O=c1c(O)c(-c2ccc(O)c(O)c2)oc2cc(O)cc(O)c12
REMARK SMILES IDX 5 1 3 2 2 3 1 4 22 5 20 6 19 7 17 8 16 9 15 10 14 11 6 12
REMARK SMILES IDX 7 13 8 14 9 15 13 16 11 17 10 18 12 20 4 22 21 24 18 26
REMARK H PARENT 10 19 12 21 4 23 21 25 18 27
REMARK Flexibility Score: inf
ROOT
ATOM      1  C   UNL     1     -10.215  -2.160  25.616  1.00  0.00     0.180 A 
ATOM      2  C   UNL     1     -10.285  -3.370  26.327  1.00  0.00     0.208 A 
ATOM      3  C   UNL     1     -10.778  -4.514  25.678  1.00  0.00     0.238 A 
ATOM      4  O   UNL     1     -10.787  -5.606  26.302  1.00  0.00    -0.285 OA
ATOM      5  C   UNL     1     -11.210  -4.430  24.332  1.00  0.00     0.111 A 
ATOM      6  C   UNL     1     -11.765  -5.515  23.589  1.00  0.00     0.134 A 
ATOM      7  C   UNL     1     -12.037  -5.351  22.226  1.00  0.00     0.093 A 
ATOM      8  C   UNL     1     -11.836  -4.121  21.594  1.00  0.00     0.123 A 
ATOM      9  C   UNL     1     -11.352  -3.039  22.325  1.00  0.00     0.094 A 
ATOM     10  C   UNL     1     -11.036  -3.181  23.678  1.00  0.00     0.146 A 
ATOM     11  O   UNL     1     -10.566  -2.128  24.335  1.00  0.00    -0.452 OA
ENDROOT
BRANCH   1  12
ATOM     12  C   UNL     1      -9.730  -0.907  26.238  1.00  0.00     0.025 A 
ATOM     13  C   UNL     1     -10.250  -0.505  27.478  1.00  0.00     0.016 A 
ATOM     14  C   UNL     1      -9.792   0.662  28.093  1.00  0.00     0.051 A 
ATOM     15  C   UNL     1      -8.796   1.437  27.488  1.00  0.00     0.157 A 
ATOM     16  C   UNL     1      -8.714  -0.139  25.641  1.00  0.00     0.062 A 
ATOM     17  C   UNL     1      -8.251   1.033  26.258  1.00  0.00     0.158 A 
BRANCH  15  18
ATOM     18  O   UNL     1      -8.359   2.598  28.125  1.00  0.00    -0.504 OA
ATOM     19  H   UNL     1      -8.186   2.631  29.122  1.00  0.00     0.293 HD
ENDBRANCH  15  18
BRANCH  17  20
ATOM     20  O   UNL     1      -7.248   1.791  25.656  1.00  0.00    -0.504 OA
ATOM     21  H   UNL     1      -6.639   2.394  26.199  1.00  0.00     0.293 HD
ENDBRANCH  17  20
ENDBRANCH   1  12
BRANCH   2  22
ATOM     22  O   UNL     1      -9.833  -3.438  27.647  1.00  0.00    -0.502 OA
ATOM     23  H   UNL     1     -10.335  -3.938  28.370  1.00  0.00     0.293 HD
ENDBRANCH   2  22
BRANCH   6  24
ATOM     24  O   UNL     1     -12.090  -6.755  24.145  1.00  0.00    -0.507 OA
ATOM     25  H   UNL     1     -12.032  -7.637  23.658  1.00  0.00     0.293 HD
ENDBRANCH   6  24
BRANCH   8  26
ATOM     26  O   UNL     1     -12.125  -3.962  20.241  1.00  0.00    -0.508 OA
ATOM     27  H   UNL     1     -12.591  -3.133  19.892  1.00  0.00     0.293 HD
ENDBRANCH   8  26
TORSDOF 6
ENDMDL
MODEL 8
REMARK VINA RESULT:    -3.606     20.985     23.825
REMARK INTER + INTRA:          -4.368
REMARK INTER:                  -4.566
REMARK INTRA:                   0.198
REMARK UNBOUND:                -0.025
REMARK SMILES O=c1c(O)c(-c2ccc(O)c(O)c2)oc2cc(O)cc(O)c12
REMARK SMILES IDX 5 1 3 2 2 3 1 4 22 5 20 6 19 7 17 8 16 9 15 10 14 11 6 12
REMARK SMILES IDX 7 13 8 14 9 15 13 16 11 17 10 18 12 20 4 22 21 24 18 26
REMARK H PARENT 10 19 12 21 4 23 21 25 18 27
REMARK Flexibility Score: inf
ROOT
ATOM      1  C   UNL     1     -10.005  -1.734  25.511  1.00  0.00     0.180 A 
ATOM      2  C   UNL     1     -10.403  -1.723  24.163  1.00  0.00     0.208 A 
ATOM      3  C   UNL     1     -11.028  -2.861  23.628  1.00  0.00     0.238 A 
ATOM      4  O   UNL     1     -11.431  -2.825  22.437  1.00  0.00    -0.285 OA
ATOM      5  C   UNL     1     -11.232  -4.001  24.442  1.00  0.00     0.111 A 
ATOM      6  C   UNL     1     -11.817  -5.224  23.994  1.00  0.00     0.134 A 
ATOM      7  C   UNL     1     -12.089  -6.240  24.918  1.00  0.00     0.093 A 
ATOM      8  C   UNL     1     -11.736  -6.103  26.263  1.00  0.00     0.123 A 
ATOM      9  C   UNL     1     -11.109  -4.938  26.699  1.00  0.00     0.094 A 
ATOM     10  C   UNL     1     -10.858  -3.891  25.808  1.00  0.00     0.146 A 
ATOM     11  O   UNL     1     -10.269  -2.794  26.267  1.00  0.00    -0.452 OA
ENDROOT
BRANCH   1  12
ATOM     12  C   UNL     1      -9.319  -0.582  26.140  1.00  0.00     0.025 A 
ATOM     13  C   UNL     1      -9.509  -0.327  27.506  1.00  0.00     0.016 A 
ATOM     14  C   UNL     1      -8.856   0.743  28.124  1.00  0.00     0.051 A 
ATOM     15  C   UNL     1      -7.991   1.562  27.391  1.00  0.00     0.157 A 
ATOM     16  C   UNL     1      -8.433   0.230  25.408  1.00  0.00     0.062 A 
ATOM     17  C   UNL     1      -7.774   1.303  26.028  1.00  0.00     0.158 A 
BRANCH  15  18
ATOM     18  O   UNL     1      -7.354   2.623  28.035  1.00  0.00    -0.504 OA
ATOM     19  H   UNL     1      -6.379   2.841  27.873  1.00  0.00     0.293 HD
ENDBRANCH  15  18
BRANCH  17  20
ATOM     20  O   UNL     1      -6.902   2.106  25.294  1.00  0.00    -0.504 OA
ATOM     21  H   UNL     1      -6.917   3.116  25.373  1.00  0.00     0.293 HD
ENDBRANCH  17  20
ENDBRANCH   1  12
BRANCH   2  22
ATOM     22  O   UNL     1     -10.213  -0.580  23.383  1.00  0.00    -0.502 OA
ATOM     23  H   UNL     1      -9.769  -0.609  22.473  1.00  0.00     0.293 HD
ENDBRANCH   2  22
BRANCH   6  24
ATOM     24  O   UNL     1     -12.124  -5.498  22.658  1.00  0.00    -0.507 OA
ATOM     25  H   UNL     1     -11.474  -5.415  21.891  1.00  0.00     0.293 HD
ENDBRANCH   6  24
BRANCH   8  26
ATOM     26  O   UNL     1     -11.995  -7.125  27.173  1.00  0.00    -0.508 OA
ATOM     27  H   UNL     1     -11.365  -7.910  27.282  1.00  0.00     0.293 HD
ENDBRANCH   8  26
TORSDOF 6
ENDMDL
