MODEL 1
REMARK VINA RESULT:    -5.632      0.000      0.000
REMARK INTER + INTRA:          -5.632
REMARK INTER:                  -5.632
REMARK INTRA:                   0.000
REMARK UNBOUND:                 0.000
REMARK SMILES CC1=CC(=O)[C@H]2C[C@@H]1C2(C)C
REMARK SMILES IDX 1 1 2 2 3 3 4 4 5 5 6 6 7 7 8 8 9 9 10 10 11 11
REMARK H PARENT
REMARK Flexibility Score: inf
ROOT
ATOM      1  C   UNL     1      -7.506  30.263  44.897  1.00  0.00     0.040 C 
ATOM      2  C   UNL     1      -8.032  30.889  43.645  1.00  0.00    -0.066 C 
ATOM      3  C   UNL     1      -7.830  30.338  42.415  1.00  0.00     0.047 C 
ATOM      4  C   UNL     1      -8.417  31.080  41.252  1.00  0.00     0.159 C 
ATOM      5  O   UNL     1      -8.263  30.697  40.063  1.00  0.00    -0.295 OA
ATOM      6  C   UNL     1      -9.215  32.334  41.611  1.00  0.00     0.067 C 
ATOM      7  C   UNL     1     -10.104  31.890  42.792  1.00  0.00     0.021 C 
ATOM      8  C   UNL     1      -8.888  32.173  43.701  1.00  0.00     0.022 C 
ATOM      9  C   UNL     1      -8.386  33.176  42.622  1.00  0.00    -0.019 C 
ATOM     10  C   UNL     1      -6.854  33.305  42.394  1.00  0.00     0.012 C 
ATOM     11  C   UNL     1      -8.969  34.597  42.823  1.00  0.00     0.012 C 
ENDROOT
TORSDOF 0
ENDMDL
MODEL 2
REMARK VINA RESULT:    -5.520     16.088     17.583
REMARK INTER + INTRA:          -5.520
REMARK INTER:                  -5.520
REMARK INTRA:                   0.000
REMARK UNBOUND:                 0.000
REMARK SMILES CC1=CC(=O)[C@H]2C[C@@H]1C2(C)C
REMARK SMILES IDX 1 1 2 2 3 3 4 4 5 5 6 6 7 7 8 8 9 9 10 10 11 11
REMARK H PARENT
REMARK Flexibility Score: inf
ROOT
ATOM      1  C   UNL     1       6.928  30.703  39.772  1.00  0.00     0.040 C 
ATOM      2  C   UNL     1       7.434  31.369  38.533  1.00  0.00    -0.066 C 
ATOM      3  C   UNL     1       6.695  32.285  37.845  1.00  0.00     0.047 C 
ATOM      4  C   UNL     1       7.335  32.866  36.620  1.00  0.00     0.159 C 
ATOM      5  O   UNL     1       6.739  33.689  35.877  1.00  0.00    -0.295 OA
ATOM      6  C   UNL     1       8.760  32.391  36.337  1.00  0.00     0.067 C 
ATOM      7  C   UNL     1       9.465  32.473  37.709  1.00  0.00     0.021 C 
ATOM      8  C   UNL     1       8.857  31.084  38.007  1.00  0.00     0.022 C 
ATOM      9  C   UNL     1       8.801  30.842  36.470  1.00  0.00    -0.019 C 
ATOM     10  C   UNL     1       7.612  30.020  35.898  1.00  0.00     0.012 C 
ATOM     11  C   UNL     1      10.118  30.237  35.921  1.00  0.00     0.012 C 
ENDROOT
TORSDOF 0
ENDMDL
MODEL 3
REMARK VINA RESULT:    -5.488      1.844      2.895
REMARK INTER + INTRA:          -5.488
REMARK INTER:                  -5.488
REMARK INTRA:                   0.000
REMARK UNBOUND:                 0.000
REMARK SMILES CC1=CC(=O)[C@H]2C[C@@H]1C2(C)C
REMARK SMILES IDX 1 1 2 2 3 3 4 4 5 5 6 6 7 7 8 8 9 9 10 10 11 11
REMARK H PARENT
REMARK Flexibility Score: inf
ROOT
ATOM      1  C   UNL     1      -7.499  29.202  41.650  1.00  0.00     0.040 C 
ATOM      2  C   UNL     1      -7.986  30.536  42.118  1.00  0.00    -0.066 C 
ATOM      3  C   UNL     1      -8.789  30.675  43.210  1.00  0.00     0.047 C 
ATOM      4  C   UNL     1      -9.199  32.075  43.557  1.00  0.00     0.159 C 
ATOM      5  O   UNL     1      -9.973  32.331  44.516  1.00  0.00    -0.295 OA
ATOM      6  C   UNL     1      -8.611  33.169  42.665  1.00  0.00     0.067 C 
ATOM      7  C   UNL     1      -7.119  32.792  42.539  1.00  0.00     0.021 C 
ATOM      8  C   UNL     1      -7.547  31.833  41.406  1.00  0.00     0.022 C 
ATOM      9  C   UNL     1      -8.788  32.744  41.179  1.00  0.00    -0.019 C 
ATOM     10  C   UNL     1     -10.125  32.073  40.757  1.00  0.00     0.012 C 
ATOM     11  C   UNL     1      -8.494  33.904  40.195  1.00  0.00     0.012 C 
ENDROOT
TORSDOF 0
ENDMDL
MODEL 4
REMARK VINA RESULT:    -5.411      1.960      3.535
REMARK INTER + INTRA:          -5.411
REMARK INTER:                  -5.411
REMARK INTRA:                   0.000
REMARK UNBOUND:                 0.000
REMARK SMILES CC1=CC(=O)[C@H]2C[C@@H]1C2(C)C
REMARK SMILES IDX 1 1 2 2 3 3 4 4 5 5 6 6 7 7 8 8 9 9 10 10 11 11
REMARK H PARENT
REMARK Flexibility Score: inf
ROOT
ATOM      1  C   UNL     1      -6.607  33.636  41.565  1.00  0.00     0.040 C 
ATOM      2  C   UNL     1      -7.740  32.663  41.643  1.00  0.00    -0.066 C 
ATOM      3  C   UNL     1      -8.374  32.377  42.816  1.00  0.00     0.047 C 
ATOM      4  C   UNL     1      -9.491  31.380  42.739  1.00  0.00     0.159 C 
ATOM      5  O   UNL     1     -10.125  31.001  43.758  1.00  0.00    -0.295 OA
ATOM      6  C   UNL     1      -9.806  30.857  41.337  1.00  0.00     0.067 C 
ATOM      7  C   UNL     1      -9.818  32.124  40.455  1.00  0.00     0.021 C 
ATOM      8  C   UNL     1      -8.282  31.976  40.372  1.00  0.00     0.022 C 
ATOM      9  C   UNL     1      -8.471  30.456  40.647  1.00  0.00    -0.019 C 
ATOM     10  C   UNL     1      -7.393  29.722  41.494  1.00  0.00     0.012 C 
ATOM     11  C   UNL     1      -8.700  29.646  39.345  1.00  0.00     0.012 C 
ENDROOT
TORSDOF 0
ENDMDL
MODEL 5
REMARK VINA RESULT:    -5.291      1.155      1.293
REMARK INTER + INTRA:          -5.291
REMARK INTER:                  -5.291
REMARK INTRA:                   0.000
REMARK UNBOUND:                 0.000
REMARK SMILES CC1=CC(=O)[C@H]2C[C@@H]1C2(C)C
REMARK SMILES IDX 1 1 2 2 3 3 4 4 5 5 6 6 7 7 8 8 9 9 10 10 11 11
REMARK H PARENT
REMARK Flexibility Score: inf
ROOT
ATOM      1  C   UNL     1      -7.451  28.828  43.046  1.00  0.00     0.040 C 
ATOM      2  C   UNL     1      -8.028  29.965  42.264  1.00  0.00    -0.066 C 
ATOM      3  C   UNL     1      -7.891  30.061  40.911  1.00  0.00     0.047 C 
ATOM      4  C   UNL     1      -8.523  31.257  40.265  1.00  0.00     0.159 C 
ATOM      5  O   UNL     1      -8.431  31.482  39.030  1.00  0.00    -0.295 OA
ATOM      6  C   UNL     1      -9.287  32.185  41.211  1.00  0.00     0.067 C 
ATOM      7  C   UNL     1     -10.125  31.226  42.085  1.00  0.00     0.021 C 
ATOM      8  C   UNL     1      -8.862  31.060  42.960  1.00  0.00     0.022 C 
ATOM      9  C   UNL     1      -8.400  32.459  42.459  1.00  0.00    -0.019 C 
ATOM     10  C   UNL     1      -6.878  32.698  42.245  1.00  0.00     0.012 C 
ATOM     11  C   UNL     1      -8.954  33.611  43.334  1.00  0.00     0.012 C 
ENDROOT
TORSDOF 0
ENDMDL
MODEL 6
REMARK VINA RESULT:    -5.083     16.166     17.652
REMARK INTER + INTRA:          -5.083
REMARK INTER:                  -5.083
REMARK INTRA:                   0.000
REMARK UNBOUND:                 0.000
REMARK SMILES CC1=CC(=O)[C@H]2C[C@@H]1C2(C)C
REMARK SMILES IDX 1 1 2 2 3 3 4 4 5 5 6 6 7 7 8 8 9 9 10 10 11 11
REMARK H PARENT
REMARK Flexibility Score: inf
ROOT
ATOM      1  C   UNL     1       7.110  34.388  36.039  1.00  0.00     0.040 C 
ATOM      2  C   UNL     1       7.367  33.054  36.666  1.00  0.00    -0.066 C 
ATOM      3  C   UNL     1       6.954  32.752  37.929  1.00  0.00     0.047 C 
ATOM      4  C   UNL     1       7.285  31.376  38.423  1.00  0.00     0.159 C 
ATOM      5  O   UNL     1       6.996  30.991  39.585  1.00  0.00    -0.295 OA
ATOM      6  C   UNL     1       7.998  30.473  37.415  1.00  0.00     0.067 C 
ATOM      7  C   UNL     1       7.207  30.671  36.104  1.00  0.00     0.021 C 
ATOM      8  C   UNL     1       8.071  31.931  35.875  1.00  0.00     0.022 C 
ATOM      9  C   UNL     1       9.163  31.276  36.769  1.00  0.00    -0.019 C 
ATOM     10  C   UNL     1      10.019  32.200  37.682  1.00  0.00     0.012 C 
ATOM     11  C   UNL     1      10.124  30.371  35.957  1.00  0.00     0.012 C 
ENDROOT
TORSDOF 0
ENDMDL
MODEL 7
REMARK VINA RESULT:    -4.829      1.736      3.493
REMARK INTER + INTRA:          -4.829
REMARK INTER:                  -4.829
REMARK INTRA:                   0.000
REMARK UNBOUND:                 0.000
REMARK SMILES CC1=CC(=O)[C@H]2C[C@@H]1C2(C)C
REMARK SMILES IDX 1 1 2 2 3 3 4 4 5 5 6 6 7 7 8 8 9 9 10 10 11 11
REMARK H PARENT
REMARK Flexibility Score: inf
ROOT
ATOM      1  C   UNL     1     -10.125  31.788  39.316  1.00  0.00     0.040 C 
ATOM      2  C   UNL     1      -9.247  32.006  40.506  1.00  0.00    -0.066 C 
ATOM      3  C   UNL     1      -8.163  32.831  40.470  1.00  0.00     0.047 C 
ATOM      4  C   UNL     1      -7.377  32.949  41.741  1.00  0.00     0.159 C 
ATOM      5  O   UNL     1      -6.332  33.646  41.823  1.00  0.00    -0.295 OA
ATOM      6  C   UNL     1      -7.933  32.164  42.930  1.00  0.00     0.067 C 
ATOM      7  C   UNL     1      -9.447  32.469  42.908  1.00  0.00     0.021 C 
ATOM      8  C   UNL     1      -9.570  31.339  41.860  1.00  0.00     0.022 C 
ATOM      9  C   UNL     1      -8.271  30.722  42.456  1.00  0.00    -0.019 C 
ATOM     10  C   UNL     1      -7.284  30.012  41.488  1.00  0.00     0.012 C 
ATOM     11  C   UNL     1      -8.563  29.766  43.640  1.00  0.00     0.012 C 
ENDROOT
TORSDOF 0
ENDMDL
MODEL 8
REMARK VINA RESULT:    -4.824      2.150      3.714
REMARK INTER + INTRA:          -4.824
REMARK INTER:                  -4.824
REMARK INTRA:                   0.000
REMARK UNBOUND:                 0.000
REMARK SMILES CC1=CC(=O)[C@H]2C[C@@H]1C2(C)C
REMARK SMILES IDX 1 1 2 2 3 3 4 4 5 5 6 6 7 7 8 8 9 9 10 10 11 11
REMARK H PARENT
REMARK Flexibility Score: inf
ROOT
ATOM      1  C   UNL     1      -8.257  32.463  39.711  1.00  0.00     0.040 C 
ATOM      2  C   UNL     1      -8.349  31.148  40.417  1.00  0.00    -0.066 C 
ATOM      3  C   UNL     1      -9.001  30.078  39.879  1.00  0.00     0.047 C 
ATOM      4  C   UNL     1      -9.010  28.826  40.704  1.00  0.00     0.159 C 
ATOM      5  O   UNL     1      -9.614  27.784  40.338  1.00  0.00    -0.295 OA
ATOM      6  C   UNL     1      -8.235  28.903  42.020  1.00  0.00     0.067 C 
ATOM      7  C   UNL     1      -6.904  29.583  41.634  1.00  0.00     0.021 C 
ATOM      8  C   UNL     1      -7.651  30.928  41.775  1.00  0.00     0.022 C 
ATOM      9  C   UNL     1      -8.632  30.217  42.752  1.00  0.00    -0.019 C 
ATOM     10  C   UNL     1     -10.125  30.648  42.738  1.00  0.00     0.012 C 
ATOM     11  C   UNL     1      -8.130  30.249  44.218  1.00  0.00     0.012 C 
ENDROOT
TORSDOF 0
ENDMDL
