MODEL 1
REMARK VINA RESULT:    -5.704      0.000      0.000
REMARK INTER + INTRA:          -7.202
REMARK INTER:                  -6.871
REMARK INTRA:                  -0.330
REMARK UNBOUND:                -0.330
REMARK SMILES O=c1c(O)c(-c2ccc(O)c(O)c2)oc2cc(O)cc(O)c12
REMARK SMILES IDX 5 1 3 2 2 3 1 4 22 5 20 6 19 7 17 8 16 9 15 10 14 11 6 12
REMARK SMILES IDX 7 13 8 14 9 15 13 16 11 17 10 18 12 20 4 22 21 24 18 26
REMARK H PARENT 10 19 12 21 4 23 21 25 18 27
REMARK Flexibility Score: inf
ROOT
ATOM      1  C   UNL     1      37.068 184.009 171.969  1.00  0.00     0.180 A 
ATOM      2  C   UNL     1      36.871 185.241 172.617  1.00  0.00     0.208 A 
ATOM      3  C   UNL     1      37.988 186.022 172.951  1.00  0.00     0.238 A 
ATOM      4  O   UNL     1      37.808 187.097 173.578  1.00  0.00    -0.285 OA
ATOM      5  C   UNL     1      39.289 185.569 172.620  1.00  0.00     0.111 A 
ATOM      6  C   UNL     1      40.489 186.297 172.875  1.00  0.00     0.134 A 
ATOM      7  C   UNL     1      41.729 185.695 172.623  1.00  0.00     0.093 A 
ATOM      8  C   UNL     1      41.809 184.420 172.066  1.00  0.00     0.123 A 
ATOM      9  C   UNL     1      40.640 183.723 171.756  1.00  0.00     0.094 A 
ATOM     10  C   UNL     1      39.390 184.283 172.030  1.00  0.00     0.146 A 
ATOM     11  O   UNL     1      38.303 183.582 171.731  1.00  0.00    -0.452 OA
ENDROOT
BRANCH   1  12
ATOM     12  C   UNL     1      35.939 183.143 171.562  1.00  0.00     0.025 A 
ATOM     13  C   UNL     1      35.348 183.259 170.291  1.00  0.00     0.016 A 
ATOM     14  C   UNL     1      34.299 182.414 169.920  1.00  0.00     0.051 A 
ATOM     15  C   UNL     1      33.833 181.434 170.802  1.00  0.00     0.157 A 
ATOM     16  C   UNL     1      35.482 182.144 172.437  1.00  0.00     0.062 A 
ATOM     17  C   UNL     1      34.429 181.296 172.067  1.00  0.00     0.158 A 
BRANCH  15  18
ATOM     18  O   UNL     1      32.783 180.607 170.404  1.00  0.00    -0.504 OA
ATOM     19  H   UNL     1      31.828 180.943 170.343  1.00  0.00     0.293 HD
ENDBRANCH  15  18
BRANCH  17  20
ATOM     20  O   UNL     1      33.974 180.317 172.950  1.00  0.00    -0.504 OA
ATOM     21  H   UNL     1      34.205 179.339 172.822  1.00  0.00     0.293 HD
ENDBRANCH  17  20
ENDBRANCH   1  12
BRANCH   2  22
ATOM     22  O   UNL     1      35.580 185.659 172.953  1.00  0.00    -0.502 OA
ATOM     23  H   UNL     1      34.969 186.124 172.292  1.00  0.00     0.293 HD
ENDBRANCH   2  22
BRANCH   6  24
ATOM     24  O   UNL     1      40.520 187.613 173.346  1.00  0.00    -0.507 OA
ATOM     25  H   UNL     1      41.308 188.040 173.808  1.00  0.00     0.293 HD
ENDBRANCH   6  24
BRANCH   8  26
ATOM     26  O   UNL     1      43.059 183.858 171.814  1.00  0.00    -0.508 OA
ATOM     27  H   UNL     1      43.649 183.521 172.565  1.00  0.00     0.293 HD
ENDBRANCH   8  26
TORSDOF 6
ENDMDL
MODEL 2
REMARK VINA RESULT:    -5.526      1.844      2.472
REMARK INTER + INTRA:          -6.987
REMARK INTER:                  -6.701
REMARK INTRA:                  -0.286
REMARK UNBOUND:                -0.330
REMARK SMILES O=c1c(O)c(-c2ccc(O)c(O)c2)oc2cc(O)cc(O)c12
REMARK SMILES IDX 5 1 3 2 2 3 1 4 22 5 20 6 19 7 17 8 16 9 15 10 14 11 6 12
REMARK SMILES IDX 7 13 8 14 9 15 13 16 11 17 10 18 12 20 4 22 21 24 18 26
REMARK H PARENT 10 19 12 21 4 23 21 25 18 27
REMARK Flexibility Score: inf
ROOT
ATOM      1  C   UNL     1      38.165 183.534 172.970  1.00  0.00     0.180 A 
ATOM      2  C   UNL     1      38.469 184.886 173.210  1.00  0.00     0.208 A 
ATOM      3  C   UNL     1      39.808 185.259 173.401  1.00  0.00     0.238 A 
ATOM      4  O   UNL     1      40.068 186.461 173.669  1.00  0.00    -0.285 OA
ATOM      5  C   UNL     1      40.829 184.280 173.333  1.00  0.00     0.111 A 
ATOM      6  C   UNL     1      42.223 184.554 173.471  1.00  0.00     0.134 A 
ATOM      7  C   UNL     1      43.134 183.490 173.517  1.00  0.00     0.093 A 
ATOM      8  C   UNL     1      42.708 182.171 173.365  1.00  0.00     0.123 A 
ATOM      9  C   UNL     1      41.354 181.897 173.169  1.00  0.00     0.094 A 
ATOM     10  C   UNL     1      40.418 182.934 173.155  1.00  0.00     0.146 A 
ATOM     11  O   UNL     1      39.138 182.630 172.978  1.00  0.00    -0.452 OA
ENDROOT
BRANCH   1  12
ATOM     12  C   UNL     1      36.780 183.067 172.735  1.00  0.00     0.025 A 
ATOM     13  C   UNL     1      36.027 182.465 173.759  1.00  0.00     0.016 A 
ATOM     14  C   UNL     1      34.713 182.054 173.521  1.00  0.00     0.051 A 
ATOM     15  C   UNL     1      34.127 182.248 172.266  1.00  0.00     0.157 A 
ATOM     16  C   UNL     1      36.181 183.279 171.483  1.00  0.00     0.062 A 
ATOM     17  C   UNL     1      34.863 182.866 171.242  1.00  0.00     0.158 A 
BRANCH  15  18
ATOM     18  O   UNL     1      32.814 181.825 172.058  1.00  0.00    -0.504 OA
ATOM     19  H   UNL     1      32.504 181.452 171.168  1.00  0.00     0.293 HD
ENDBRANCH  15  18
BRANCH  17  20
ATOM     20  O   UNL     1      34.282 183.069 169.990  1.00  0.00    -0.504 OA
ATOM     21  H   UNL     1      33.945 183.981 169.704  1.00  0.00     0.293 HD
ENDBRANCH  17  20
ENDBRANCH   1  12
BRANCH   2  22
ATOM     22  O   UNL     1      37.443 185.832 173.294  1.00  0.00    -0.502 OA
ATOM     23  H   UNL     1      36.525 185.677 172.893  1.00  0.00     0.293 HD
ENDBRANCH   2  22
BRANCH   6  24
ATOM     24  O   UNL     1      42.764 185.841 173.538  1.00  0.00    -0.507 OA
ATOM     25  H   UNL     1      43.443 186.143 174.220  1.00  0.00     0.293 HD
ENDBRANCH   6  24
BRANCH   8  26
ATOM     26  O   UNL     1      43.643 181.139 173.401  1.00  0.00    -0.508 OA
ATOM     27  H   UNL     1      43.398 180.192 173.138  1.00  0.00     0.293 HD
ENDBRANCH   8  26
TORSDOF 6
ENDMDL
MODEL 3
REMARK VINA RESULT:    -4.810      6.580     10.001
REMARK INTER + INTRA:          -6.124
REMARK INTER:                  -5.862
REMARK INTRA:                  -0.262
REMARK UNBOUND:                -0.330
REMARK SMILES O=c1c(O)c(-c2ccc(O)c(O)c2)oc2cc(O)cc(O)c12
REMARK SMILES IDX 5 1 3 2 2 3 1 4 22 5 20 6 19 7 17 8 16 9 15 10 14 11 6 12
REMARK SMILES IDX 7 13 8 14 9 15 13 16 11 17 10 18 12 20 4 22 21 24 18 26
REMARK H PARENT 10 19 12 21 4 23 21 25 18 27
REMARK Flexibility Score: inf
ROOT
ATOM      1  C   UNL     1      33.862 176.163 171.890  1.00  0.00     0.180 A 
ATOM      2  C   UNL     1      32.668 175.831 171.228  1.00  0.00     0.208 A 
ATOM      3  C   UNL     1      31.759 176.852 170.909  1.00  0.00     0.238 A 
ATOM      4  O   UNL     1      30.668 176.542 170.364  1.00  0.00    -0.285 OA
ATOM      5  C   UNL     1      32.064 178.195 171.240  1.00  0.00     0.111 A 
ATOM      6  C   UNL     1      31.234 179.314 170.928  1.00  0.00     0.134 A 
ATOM      7  C   UNL     1      31.571 180.581 171.421  1.00  0.00     0.093 A 
ATOM      8  C   UNL     1      32.739 180.781 172.156  1.00  0.00     0.123 A 
ATOM      9  C   UNL     1      33.588 179.704 172.415  1.00  0.00     0.094 A 
ATOM     10  C   UNL     1      33.260 178.421 171.969  1.00  0.00     0.146 A 
ATOM     11  O   UNL     1      34.088 177.422 172.246  1.00  0.00    -0.452 OA
ENDROOT
BRANCH   1  12
ATOM     12  C   UNL     1      34.880 175.145 172.238  1.00  0.00     0.025 A 
ATOM     13  C   UNL     1      35.016 174.666 173.553  1.00  0.00     0.016 A 
ATOM     14  C   UNL     1      35.968 173.687 173.853  1.00  0.00     0.051 A 
ATOM     15  C   UNL     1      36.787 173.165 172.848  1.00  0.00     0.157 A 
ATOM     16  C   UNL     1      35.691 174.603 171.228  1.00  0.00     0.062 A 
ATOM     17  C   UNL     1      36.646 173.622 171.527  1.00  0.00     0.158 A 
BRANCH  15  18
ATOM     18  O   UNL     1      37.729 172.191 173.179  1.00  0.00    -0.504 OA
ATOM     19  H   UNL     1      38.258 172.227 174.043  1.00  0.00     0.293 HD
ENDBRANCH  15  18
BRANCH  17  20
ATOM     20  O   UNL     1      37.455 173.100 170.518  1.00  0.00    -0.504 OA
ATOM     21  H   UNL     1      38.046 173.696 169.951  1.00  0.00     0.293 HD
ENDBRANCH  17  20
ENDBRANCH   1  12
BRANCH   2  22
ATOM     22  O   UNL     1      32.378 174.496 170.929  1.00  0.00    -0.502 OA
ATOM     23  H   UNL     1      32.701 173.727 171.505  1.00  0.00     0.293 HD
ENDBRANCH   2  22
BRANCH   6  24
ATOM     24  O   UNL     1      30.094 179.240 170.123  1.00  0.00    -0.507 OA
ATOM     25  H   UNL     1      30.013 178.674 169.293  1.00  0.00     0.293 HD
ENDBRANCH   6  24
BRANCH   8  26
ATOM     26  O   UNL     1      33.051 182.058 172.616  1.00  0.00    -0.508 OA
ATOM     27  H   UNL     1      33.204 182.829 171.977  1.00  0.00     0.293 HD
ENDBRANCH   8  26
TORSDOF 6
ENDMDL
MODEL 4
REMARK VINA RESULT:    -4.620      4.551      9.421
REMARK INTER + INTRA:          -5.896
REMARK INTER:                  -5.655
REMARK INTRA:                  -0.241
REMARK UNBOUND:                -0.330
REMARK SMILES O=c1c(O)c(-c2ccc(O)c(O)c2)oc2cc(O)cc(O)c12
REMARK SMILES IDX 5 1 3 2 2 3 1 4 22 5 20 6 19 7 17 8 16 9 15 10 14 11 6 12
REMARK SMILES IDX 7 13 8 14 9 15 13 16 11 17 10 18 12 20 4 22 21 24 18 26
REMARK H PARENT 10 19 12 21 4 23 21 25 18 27
REMARK Flexibility Score: inf
ROOT
ATOM      1  C   UNL     1      33.055 179.063 171.506  1.00  0.00     0.180 A 
ATOM      2  C   UNL     1      31.816 178.768 170.910  1.00  0.00     0.208 A 
ATOM      3  C   UNL     1      31.426 177.427 170.778  1.00  0.00     0.238 A 
ATOM      4  O   UNL     1      30.341 177.167 170.196  1.00  0.00    -0.285 OA
ATOM      5  C   UNL     1      32.270 176.396 171.260  1.00  0.00     0.111 A 
ATOM      6  C   UNL     1      31.956 175.005 171.216  1.00  0.00     0.134 A 
ATOM      7  C   UNL     1      32.922 174.066 171.601  1.00  0.00     0.093 A 
ATOM      8  C   UNL     1      34.163 174.471 172.090  1.00  0.00     0.123 A 
ATOM      9  C   UNL     1      34.458 175.831 172.194  1.00  0.00     0.094 A 
ATOM     10  C   UNL     1      33.529 176.789 171.783  1.00  0.00     0.146 A 
ATOM     11  O   UNL     1      33.853 178.072 171.888  1.00  0.00    -0.452 OA
ENDROOT
BRANCH   1  12
ATOM     12  C   UNL     1      33.524 180.453 171.702  1.00  0.00     0.025 A 
ATOM     13  C   UNL     1      33.571 181.036 172.981  1.00  0.00     0.016 A 
ATOM     14  C   UNL     1      34.041 182.342 173.145  1.00  0.00     0.051 A 
ATOM     15  C   UNL     1      34.482 183.079 172.042  1.00  0.00     0.157 A 
ATOM     16  C   UNL     1      33.988 181.190 170.600  1.00  0.00     0.062 A 
ATOM     17  C   UNL     1      34.458 182.500 170.763  1.00  0.00     0.158 A 
BRANCH  15  18
ATOM     18  O   UNL     1      34.944 184.381 172.237  1.00  0.00    -0.504 OA
ATOM     19  H   UNL     1      35.921 184.584 172.413  1.00  0.00     0.293 HD
ENDBRANCH  15  18
BRANCH  17  20
ATOM     20  O   UNL     1      34.904 183.227 169.658  1.00  0.00    -0.504 OA
ATOM     21  H   UNL     1      34.383 184.018 169.300  1.00  0.00     0.293 HD
ENDBRANCH  17  20
ENDBRANCH   1  12
BRANCH   2  22
ATOM     22  O   UNL     1      31.008 179.799 170.423  1.00  0.00    -0.502 OA
ATOM     23  H   UNL     1      31.373 180.553 169.851  1.00  0.00     0.293 HD
ENDBRANCH   2  22
BRANCH   6  24
ATOM     24  O   UNL     1      30.711 174.497 170.831  1.00  0.00    -0.507 OA
ATOM     25  H   UNL     1      30.530 174.023 169.959  1.00  0.00     0.293 HD
ENDBRANCH   6  24
BRANCH   8  26
ATOM     26  O   UNL     1      35.094 173.510 172.479  1.00  0.00    -0.508 OA
ATOM     27  H   UNL     1      34.878 172.818 173.186  1.00  0.00     0.293 HD
ENDBRANCH   8  26
TORSDOF 6
ENDMDL
MODEL 5
REMARK VINA RESULT:    -4.580      1.611      2.660
REMARK INTER + INTRA:          -5.847
REMARK INTER:                  -5.536
REMARK INTRA:                  -0.312
REMARK UNBOUND:                -0.330
REMARK SMILES O=c1c(O)c(-c2ccc(O)c(O)c2)oc2cc(O)cc(O)c12
REMARK SMILES IDX 5 1 3 2 2 3 1 4 22 5 20 6 19 7 17 8 16 9 15 10 14 11 6 12
REMARK SMILES IDX 7 13 8 14 9 15 13 16 11 17 10 18 12 20 4 22 21 24 18 26
REMARK H PARENT 10 19 12 21 4 23 21 25 18 27
REMARK Flexibility Score: inf
ROOT
ATOM      1  C   UNL     1      35.483 183.082 172.840  1.00  0.00     0.180 A 
ATOM      2  C   UNL     1      34.889 184.293 173.235  1.00  0.00     0.208 A 
ATOM      3  C   UNL     1      35.666 185.462 173.241  1.00  0.00     0.238 A 
ATOM      4  O   UNL     1      35.144 186.533 173.645  1.00  0.00    -0.285 OA
ATOM      5  C   UNL     1      37.023 185.409 172.836  1.00  0.00     0.111 A 
ATOM      6  C   UNL     1      37.892 186.539 172.765  1.00  0.00     0.134 A 
ATOM      7  C   UNL     1      39.250 186.348 172.478  1.00  0.00     0.093 A 
ATOM      8  C   UNL     1      39.754 185.080 172.196  1.00  0.00     0.123 A 
ATOM      9  C   UNL     1      38.901 183.976 172.204  1.00  0.00     0.094 A 
ATOM     10  C   UNL     1      37.549 184.129 172.522  1.00  0.00     0.146 A 
ATOM     11  O   UNL     1      36.774 183.052 172.530  1.00  0.00    -0.452 OA
ENDROOT
BRANCH   1  12
ATOM     12  C   UNL     1      34.722 181.813 172.785  1.00  0.00     0.025 A 
ATOM     13  C   UNL     1      34.537 181.019 173.931  1.00  0.00     0.016 A 
ATOM     14  C   UNL     1      33.795 179.837 173.860  1.00  0.00     0.051 A 
ATOM     15  C   UNL     1      33.216 179.437 172.652  1.00  0.00     0.157 A 
ATOM     16  C   UNL     1      34.122 181.417 171.578  1.00  0.00     0.062 A 
ATOM     17  C   UNL     1      33.378 180.232 171.505  1.00  0.00     0.158 A 
BRANCH  15  18
ATOM     18  O   UNL     1      32.483 178.251 172.612  1.00  0.00    -0.504 OA
ATOM     19  H   UNL     1      31.479 178.235 172.754  1.00  0.00     0.293 HD
ENDBRANCH  15  18
BRANCH  17  20
ATOM     20  O   UNL     1      32.798 179.841 170.298  1.00  0.00    -0.504 OA
ATOM     21  H   UNL     1      31.836 179.529 170.249  1.00  0.00     0.293 HD
ENDBRANCH  17  20
ENDBRANCH   1  12
BRANCH   2  22
ATOM     22  O   UNL     1      33.555 184.320 173.650  1.00  0.00    -0.502 OA
ATOM     23  H   UNL     1      33.288 184.277 174.627  1.00  0.00     0.293 HD
ENDBRANCH   2  22
BRANCH   6  24
ATOM     24  O   UNL     1      37.470 187.860 172.939  1.00  0.00    -0.507 OA
ATOM     25  H   UNL     1      36.628 188.136 173.420  1.00  0.00     0.293 HD
ENDBRANCH   6  24
BRANCH   8  26
ATOM     26  O   UNL     1      41.107 184.930 171.899  1.00  0.00    -0.508 OA
ATOM     27  H   UNL     1      41.555 185.477 171.174  1.00  0.00     0.293 HD
ENDBRANCH   8  26
TORSDOF 6
ENDMDL
MODEL 6
REMARK VINA RESULT:    -4.551      3.999      9.335
REMARK INTER + INTRA:          -5.813
REMARK INTER:                  -5.485
REMARK INTRA:                  -0.328
REMARK UNBOUND:                -0.330
REMARK SMILES O=c1c(O)c(-c2ccc(O)c(O)c2)oc2cc(O)cc(O)c12
REMARK SMILES IDX 5 1 3 2 2 3 1 4 22 5 20 6 19 7 17 8 16 9 15 10 14 11 6 12
REMARK SMILES IDX 7 13 8 14 9 15 13 16 11 17 10 18 12 20 4 22 21 24 18 26
REMARK H PARENT 10 19 12 21 4 23 21 25 18 27
REMARK Flexibility Score: inf
ROOT
ATOM      1  C   UNL     1      32.711 180.053 171.825  1.00  0.00     0.180 A 
ATOM      2  C   UNL     1      31.414 180.302 172.306  1.00  0.00     0.208 A 
ATOM      3  C   UNL     1      30.522 179.227 172.446  1.00  0.00     0.238 A 
ATOM      4  O   UNL     1      29.346 179.463 172.825  1.00  0.00    -0.285 OA
ATOM      5  C   UNL     1      30.944 177.915 172.120  1.00  0.00     0.111 A 
ATOM      6  C   UNL     1      30.136 176.746 172.262  1.00  0.00     0.134 A 
ATOM      7  C   UNL     1      30.611 175.517 171.784  1.00  0.00     0.093 A 
ATOM      8  C   UNL     1      31.886 175.403 171.233  1.00  0.00     0.123 A 
ATOM      9  C   UNL     1      32.707 176.529 171.144  1.00  0.00     0.094 A 
ATOM     10  C   UNL     1      32.247 177.775 171.578  1.00  0.00     0.146 A 
ATOM     11  O   UNL     1      33.055 178.822 171.466  1.00  0.00    -0.452 OA
ENDROOT
BRANCH   1  12
ATOM     12  C   UNL     1      33.716 181.131 171.674  1.00  0.00     0.025 A 
ATOM     13  C   UNL     1      34.514 181.544 172.755  1.00  0.00     0.016 A 
ATOM     14  C   UNL     1      35.473 182.546 172.583  1.00  0.00     0.051 A 
ATOM     15  C   UNL     1      35.658 183.141 171.331  1.00  0.00     0.157 A 
ATOM     16  C   UNL     1      33.919 181.716 170.414  1.00  0.00     0.062 A 
ATOM     17  C   UNL     1      34.879 182.722 170.240  1.00  0.00     0.158 A 
BRANCH  15  18
ATOM     18  O   UNL     1      36.621 184.140 171.192  1.00  0.00    -0.504 OA
ATOM     19  H   UNL     1      36.422 185.111 171.405  1.00  0.00     0.293 HD
ENDBRANCH  15  18
BRANCH  17  20
ATOM     20  O   UNL     1      35.064 183.306 168.986  1.00  0.00    -0.504 OA
ATOM     21  H   UNL     1      35.555 184.185 168.879  1.00  0.00     0.293 HD
ENDBRANCH  17  20
ENDBRANCH   1  12
BRANCH   2  22
ATOM     22  O   UNL     1      31.013 181.607 172.602  1.00  0.00    -0.502 OA
ATOM     23  H   UNL     1      30.240 181.811 173.225  1.00  0.00     0.293 HD
ENDBRANCH   2  22
BRANCH   6  24
ATOM     24  O   UNL     1      28.884 176.733 172.883  1.00  0.00    -0.507 OA
ATOM     25  H   UNL     1      28.239 177.508 172.891  1.00  0.00     0.293 HD
ENDBRANCH   6  24
BRANCH   8  26
ATOM     26  O   UNL     1      32.331 174.163 170.783  1.00  0.00    -0.508 OA
ATOM     27  H   UNL     1      33.266 174.037 170.414  1.00  0.00     0.293 HD
ENDBRANCH   8  26
TORSDOF 6
ENDMDL
MODEL 7
REMARK VINA RESULT:    -4.519      7.725     10.873
REMARK INTER + INTRA:          -5.774
REMARK INTER:                  -5.502
REMARK INTRA:                  -0.272
REMARK UNBOUND:                -0.330
REMARK SMILES O=c1c(O)c(-c2ccc(O)c(O)c2)oc2cc(O)cc(O)c12
REMARK SMILES IDX 5 1 3 2 2 3 1 4 22 5 20 6 19 7 17 8 16 9 15 10 14 11 6 12
REMARK SMILES IDX 7 13 8 14 9 15 13 16 11 17 10 18 12 20 4 22 21 24 18 26
REMARK H PARENT 10 19 12 21 4 23 21 25 18 27
REMARK Flexibility Score: inf
ROOT
ATOM      1  C   UNL     1      33.904 175.208 172.078  1.00  0.00     0.180 A 
ATOM      2  C   UNL     1      33.248 174.280 172.906  1.00  0.00     0.208 A 
ATOM      3  C   UNL     1      33.879 173.059 173.193  1.00  0.00     0.238 A 
ATOM      4  O   UNL     1      33.265 172.211 173.890  1.00  0.00    -0.285 OA
ATOM      5  C   UNL     1      35.164 172.788 172.663  1.00  0.00     0.111 A 
ATOM      6  C   UNL     1      35.913 171.601 172.922  1.00  0.00     0.134 A 
ATOM      7  C   UNL     1      37.117 171.382 172.239  1.00  0.00     0.093 A 
ATOM      8  C   UNL     1      37.629 172.334 171.360  1.00  0.00     0.123 A 
ATOM      9  C   UNL     1      36.934 173.525 171.145  1.00  0.00     0.094 A 
ATOM     10  C   UNL     1      35.713 173.756 171.783  1.00  0.00     0.146 A 
ATOM     11  O   UNL     1      35.079 174.897 171.543  1.00  0.00    -0.452 OA
ENDROOT
BRANCH   1  12
ATOM     12  C   UNL     1      33.314 176.526 171.751  1.00  0.00     0.025 A 
ATOM     13  C   UNL     1      33.784 177.708 172.350  1.00  0.00     0.016 A 
ATOM     14  C   UNL     1      33.228 178.943 172.008  1.00  0.00     0.051 A 
ATOM     15  C   UNL     1      32.208 179.020 171.055  1.00  0.00     0.157 A 
ATOM     16  C   UNL     1      32.303 176.610 170.780  1.00  0.00     0.062 A 
ATOM     17  C   UNL     1      31.744 177.848 170.435  1.00  0.00     0.158 A 
BRANCH  15  18
ATOM     18  O   UNL     1      31.672 180.268 170.736  1.00  0.00    -0.504 OA
ATOM     19  H   UNL     1      31.413 180.940 171.449  1.00  0.00     0.293 HD
ENDBRANCH  15  18
BRANCH  17  20
ATOM     20  O   UNL     1      30.730 177.919 169.479  1.00  0.00    -0.504 OA
ATOM     21  H   UNL     1      30.851 177.534 168.550  1.00  0.00     0.293 HD
ENDBRANCH  17  20
ENDBRANCH   1  12
BRANCH   2  22
ATOM     22  O   UNL     1      31.971 174.559 173.401  1.00  0.00    -0.502 OA
ATOM     23  H   UNL     1      31.745 175.434 173.860  1.00  0.00     0.293 HD
ENDBRANCH   2  22
BRANCH   6  24
ATOM     24  O   UNL     1      35.537 170.627 173.852  1.00  0.00    -0.507 OA
ATOM     25  H   UNL     1      36.171 170.159 174.481  1.00  0.00     0.293 HD
ENDBRANCH   6  24
BRANCH   8  26
ATOM     26  O   UNL     1      38.837 172.090 170.710  1.00  0.00    -0.508 OA
ATOM     27  H   UNL     1      38.878 171.924 169.712  1.00  0.00     0.293 HD
ENDBRANCH   8  26
TORSDOF 6
ENDMDL
MODEL 8
REMARK VINA RESULT:    -4.503     17.684     20.432
REMARK INTER + INTRA:          -5.755
REMARK INTER:                  -5.451
REMARK INTRA:                  -0.303
REMARK UNBOUND:                -0.330
REMARK SMILES O=c1c(O)c(-c2ccc(O)c(O)c2)oc2cc(O)cc(O)c12
REMARK SMILES IDX 5 1 3 2 2 3 1 4 22 5 20 6 19 7 17 8 16 9 15 10 14 11 6 12
REMARK SMILES IDX 7 13 8 14 9 15 13 16 11 17 10 18 12 20 4 22 21 24 18 26
REMARK H PARENT 10 19 12 21 4 23 21 25 18 27
REMARK Flexibility Score: inf
ROOT
ATOM      1  C   UNL     1      31.963 169.754 159.421  1.00  0.00     0.180 A 
ATOM      2  C   UNL     1      32.623 168.914 160.335  1.00  0.00     0.208 A 
ATOM      3  C   UNL     1      32.244 168.945 161.685  1.00  0.00     0.238 A 
ATOM      4  O   UNL     1      32.874 168.231 162.507  1.00  0.00    -0.285 OA
ATOM      5  C   UNL     1      31.196 169.803 162.104  1.00  0.00     0.111 A 
ATOM      6  C   UNL     1      30.702 169.885 163.440  1.00  0.00     0.134 A 
ATOM      7  C   UNL     1      29.753 170.863 163.766  1.00  0.00     0.093 A 
ATOM      8  C   UNL     1      29.234 171.714 162.792  1.00  0.00     0.123 A 
ATOM      9  C   UNL     1      29.666 171.602 161.469  1.00  0.00     0.094 A 
ATOM     10  C   UNL     1      30.638 170.661 161.121  1.00  0.00     0.146 A 
ATOM     11  O   UNL     1      31.031 170.594 159.855  1.00  0.00    -0.452 OA
ENDROOT
BRANCH   1  12
ATOM     12  C   UNL     1      32.291 169.760 157.977  1.00  0.00     0.025 A 
ATOM     13  C   UNL     1      33.381 170.494 157.477  1.00  0.00     0.016 A 
ATOM     14  C   UNL     1      33.686 170.466 156.114  1.00  0.00     0.051 A 
ATOM     15  C   UNL     1      32.919 169.697 155.233  1.00  0.00     0.157 A 
ATOM     16  C   UNL     1      31.536 168.973 157.092  1.00  0.00     0.062 A 
ATOM     17  C   UNL     1      31.840 168.944 155.724  1.00  0.00     0.158 A 
BRANCH  15  18
ATOM     18  O   UNL     1      33.247 169.691 153.877  1.00  0.00    -0.504 OA
ATOM     19  H   UNL     1      32.791 169.072 153.216  1.00  0.00     0.293 HD
ENDBRANCH  15  18
BRANCH  17  20
ATOM     20  O   UNL     1      31.074 168.170 154.852  1.00  0.00    -0.504 OA
ATOM     21  H   UNL     1      31.252 168.163 153.855  1.00  0.00     0.293 HD
ENDBRANCH  17  20
ENDBRANCH   1  12
BRANCH   2  22
ATOM     22  O   UNL     1      33.668 168.091 159.904  1.00  0.00    -0.502 OA
ATOM     23  H   UNL     1      34.569 168.067 160.369  1.00  0.00     0.293 HD
ENDBRANCH   2  22
BRANCH   6  24
ATOM     24  O   UNL     1      31.086 169.021 164.470  1.00  0.00    -0.507 OA
ATOM     25  H   UNL     1      30.980 169.218 165.453  1.00  0.00     0.293 HD
ENDBRANCH   6  24
BRANCH   8  26
ATOM     26  O   UNL     1      28.280 172.664 163.148  1.00  0.00    -0.508 OA
ATOM     27  H   UNL     1      28.049 172.846 164.118  1.00  0.00     0.293 HD
ENDBRANCH   8  26
TORSDOF 6
ENDMDL
MODEL 9
REMARK VINA RESULT:    -4.413     11.383     14.673
REMARK INTER + INTRA:          -5.647
REMARK INTER:                  -5.339
REMARK INTRA:                  -0.308
REMARK UNBOUND:                -0.330
REMARK SMILES O=c1c(O)c(-c2ccc(O)c(O)c2)oc2cc(O)cc(O)c12
REMARK SMILES IDX 5 1 3 2 2 3 1 4 22 5 20 6 19 7 17 8 16 9 15 10 14 11 6 12
REMARK SMILES IDX 7 13 8 14 9 15 13 16 11 17 10 18 12 20 4 22 21 24 18 26
REMARK H PARENT 10 19 12 21 4 23 21 25 18 27
REMARK Flexibility Score: inf
ROOT
ATOM      1  C   UNL     1      39.825 171.000 170.933  1.00  0.00     0.180 A 
ATOM      2  C   UNL     1      39.201 169.746 170.818  1.00  0.00     0.208 A 
ATOM      3  C   UNL     1      37.800 169.676 170.854  1.00  0.00     0.238 A 
ATOM      4  O   UNL     1      37.250 168.545 170.803  1.00  0.00    -0.285 OA
ATOM      5  C   UNL     1      37.039 170.862 170.988  1.00  0.00     0.111 A 
ATOM      6  C   UNL     1      35.612 170.913 170.995  1.00  0.00     0.134 A 
ATOM      7  C   UNL     1      34.966 172.126 171.266  1.00  0.00     0.093 A 
ATOM      8  C   UNL     1      35.691 173.299 171.464  1.00  0.00     0.123 A 
ATOM      9  C   UNL     1      37.085 173.273 171.399  1.00  0.00     0.094 A 
ATOM     10  C   UNL     1      37.759 172.071 171.167  1.00  0.00     0.146 A 
ATOM     11  O   UNL     1      39.086 172.087 171.124  1.00  0.00    -0.452 OA
ENDROOT
BRANCH   1  12
ATOM     12  C   UNL     1      41.296 171.157 170.879  1.00  0.00     0.025 A 
ATOM     13  C   UNL     1      42.096 170.951 172.017  1.00  0.00     0.016 A 
ATOM     14  C   UNL     1      43.486 171.081 171.937  1.00  0.00     0.051 A 
ATOM     15  C   UNL     1      44.097 171.405 170.722  1.00  0.00     0.157 A 
ATOM     16  C   UNL     1      41.916 171.462 169.657  1.00  0.00     0.062 A 
ATOM     17  C   UNL     1      43.309 171.594 169.575  1.00  0.00     0.158 A 
BRANCH  15  18
ATOM     18  O   UNL     1      45.486 171.530 170.675  1.00  0.00    -0.504 OA
ATOM     19  H   UNL     1      46.011 171.976 171.418  1.00  0.00     0.293 HD
ENDBRANCH  15  18
BRANCH  17  20
ATOM     20  O   UNL     1      43.913 171.910 168.358  1.00  0.00    -0.504 OA
ATOM     21  H   UNL     1      44.230 172.850 168.152  1.00  0.00     0.293 HD
ENDBRANCH  17  20
ENDBRANCH   1  12
BRANCH   2  22
ATOM     22  O   UNL     1      39.973 168.585 170.707  1.00  0.00    -0.502 OA
ATOM     23  H   UNL     1      39.574 167.657 170.789  1.00  0.00     0.293 HD
ENDBRANCH   2  22
BRANCH   6  24
ATOM     24  O   UNL     1      34.790 169.816 170.718  1.00  0.00    -0.507 OA
ATOM     25  H   UNL     1      35.016 169.079 170.068  1.00  0.00     0.293 HD
ENDBRANCH   6  24
BRANCH   8  26
ATOM     26  O   UNL     1      35.015 174.491 171.715  1.00  0.00    -0.508 OA
ATOM     27  H   UNL     1      35.343 175.150 172.411  1.00  0.00     0.293 HD
ENDBRANCH   8  26
TORSDOF 6
ENDMDL
