MODEL 1
REMARK VINA RESULT:    -3.643      0.000      0.000
REMARK INTER + INTRA:          -9.064
REMARK INTER:                  -6.625
REMARK INTRA:                  -2.439
REMARK UNBOUND:                -2.439
REMARK SMILES CCCCCC=CCC=CCCCCCCCC(=O)[O-]
REMARK SMILES IDX 11 1 12 2 13 3 14 4 15 5 16 6 17 7 18 8 19 9 20 10 10 11
REMARK SMILES IDX 9 12 8 13 7 14 6 15 5 16 4 17 3 18 2 19 1 20
REMARK H PARENT
REMARK Flexibility Score: inf
ROOT
ATOM      1  C   UNL     1      18.372   0.952  43.392  1.00  0.00     0.027 C 
ENDROOT
BRANCH   1   2
ATOM      2  C   UNL     1      17.361   2.011  43.849  1.00  0.00     0.004 C 
BRANCH   2   3
ATOM      3  C   UNL     1      16.762   2.755  42.645  1.00  0.00     0.000 C 
BRANCH   3   4
ATOM      4  C   UNL     1      16.535   1.836  41.434  1.00  0.00     0.000 C 
BRANCH   4   5
ATOM      5  C   UNL     1      16.644   2.583  40.093  1.00  0.00     0.000 C 
BRANCH   5   6
ATOM      6  C   UNL     1      15.436   2.336  39.176  1.00  0.00     0.006 C 
BRANCH   6   7
ATOM      7  C   UNL     1      15.815   1.606  37.883  1.00  0.00     0.053 C 
BRANCH   7   8
ATOM      8  C   UNL     1      14.694   0.726  37.428  1.00  0.00     0.041 C 
ATOM      9  O   UNL     1      14.815   0.033  36.383  1.00  0.00    -0.550 OA
ATOM     10  O   UNL     1      13.504   0.691  38.144  1.00  0.00    -0.550 OA
ENDBRANCH   7   8
ENDBRANCH   6   7
ENDBRANCH   5   6
ENDBRANCH   4   5
ENDBRANCH   3   4
ENDBRANCH   2   3
ENDBRANCH   1   2
BRANCH   1  11
ATOM     11  C   UNL     1      19.786   1.413  43.637  1.00  0.00    -0.031 C 
ATOM     12  C   UNL     1      20.593   1.929  42.692  1.00  0.00    -0.027 C 
BRANCH  12  13
ATOM     13  C   UNL     1      20.198   2.080  41.244  1.00  0.00     0.054 C 
BRANCH  13  14
ATOM     14  C   UNL     1      21.054   1.212  40.359  1.00  0.00    -0.027 C 
ATOM     15  C   UNL     1      20.659   0.035  39.838  1.00  0.00    -0.031 C 
BRANCH  15  16
ATOM     16  C   UNL     1      19.276  -0.549  39.994  1.00  0.00     0.027 C 
BRANCH  16  17
ATOM     17  C   UNL     1      19.303  -1.917  40.695  1.00  0.00     0.004 C 
BRANCH  17  18
ATOM     18  C   UNL     1      20.066  -1.921  42.032  1.00  0.00     0.000 C 
BRANCH  18  19
ATOM     19  C   UNL     1      19.329  -2.697  43.134  1.00  0.00    -0.003 C 
ATOM     20  C   UNL     1      20.067  -2.589  44.466  1.00  0.00     0.004 C 
ENDBRANCH  18  19
ENDBRANCH  17  18
ENDBRANCH  16  17
ENDBRANCH  15  16
ENDBRANCH  13  14
ENDBRANCH  12  13
ENDBRANCH   1  11
TORSDOF 14
ENDMDL
MODEL 2
REMARK VINA RESULT:    -3.625      1.602      3.041
REMARK INTER + INTRA:          -9.031
REMARK INTER:                  -6.523
REMARK INTRA:                  -2.507
REMARK UNBOUND:                -2.439
REMARK SMILES CCCCCC=CCC=CCCCCCCCC(=O)[O-]
REMARK SMILES IDX 11 1 12 2 13 3 14 4 15 5 16 6 17 7 18 8 19 9 20 10 10 11
REMARK SMILES IDX 9 12 8 13 7 14 6 15 5 16 4 17 3 18 2 19 1 20
REMARK H PARENT
REMARK Flexibility Score: inf
ROOT
ATOM      1  C   UNL     1      18.549   4.186  40.199  1.00  0.00     0.027 C 
ENDROOT
BRANCH   1   2
ATOM      2  C   UNL     1      17.035   4.364  40.029  1.00  0.00     0.004 C 
BRANCH   2   3
ATOM      3  C   UNL     1      16.262   3.416  40.959  1.00  0.00     0.000 C 
BRANCH   3   4
ATOM      4  C   UNL     1      16.002   2.042  40.321  1.00  0.00     0.000 C 
BRANCH   4   5
ATOM      5  C   UNL     1      15.487   2.146  38.875  1.00  0.00     0.000 C 
BRANCH   5   6
ATOM      6  C   UNL     1      15.286   0.772  38.217  1.00  0.00     0.006 C 
BRANCH   6   7
ATOM      7  C   UNL     1      16.593   0.175  37.684  1.00  0.00     0.053 C 
BRANCH   7   8
ATOM      8  C   UNL     1      16.407  -0.338  36.291  1.00  0.00     0.041 C 
ATOM      9  O   UNL     1      17.401  -0.712  35.614  1.00  0.00    -0.550 OA
ATOM     10  O   UNL     1      15.136  -0.378  35.729  1.00  0.00    -0.550 OA
ENDBRANCH   7   8
ENDBRANCH   6   7
ENDBRANCH   5   6
ENDBRANCH   4   5
ENDBRANCH   3   4
ENDBRANCH   2   3
ENDBRANCH   1   2
BRANCH   1  11
ATOM     11  C   UNL     1      19.151   3.499  38.999  1.00  0.00    -0.031 C 
ATOM     12  C   UNL     1      19.565   2.220  38.983  1.00  0.00    -0.027 C 
BRANCH  12  13
ATOM     13  C   UNL     1      19.515   1.307  40.182  1.00  0.00     0.054 C 
BRANCH  13  14
ATOM     14  C   UNL     1      20.755   1.458  41.025  1.00  0.00    -0.027 C 
ATOM     15  C   UNL     1      20.758   1.872  42.306  1.00  0.00    -0.031 C 
BRANCH  15  16
ATOM     16  C   UNL     1      19.516   2.167  43.112  1.00  0.00     0.027 C 
BRANCH  16  17
ATOM     17  C   UNL     1      19.292   1.130  44.225  1.00  0.00     0.004 C 
BRANCH  17  18
ATOM     18  C   UNL     1      18.767  -0.226  43.721  1.00  0.00     0.000 C 
BRANCH  18  19
ATOM     19  C   UNL     1      19.839  -1.326  43.749  1.00  0.00    -0.003 C 
ATOM     20  C   UNL     1      20.018  -1.951  42.368  1.00  0.00     0.004 C 
ENDBRANCH  18  19
ENDBRANCH  17  18
ENDBRANCH  16  17
ENDBRANCH  15  16
ENDBRANCH  13  14
ENDBRANCH  12  13
ENDBRANCH   1  11
TORSDOF 14
ENDMDL
MODEL 3
REMARK VINA RESULT:    -3.610      3.618      6.677
REMARK INTER + INTRA:          -9.003
REMARK INTER:                  -5.960
REMARK INTRA:                  -3.043
REMARK UNBOUND:                -2.439
REMARK SMILES CCCCCC=CCC=CCCCCCCCC(=O)[O-]
REMARK SMILES IDX 11 1 12 2 13 3 14 4 15 5 16 6 17 7 18 8 19 9 20 10 10 11
REMARK SMILES IDX 9 12 8 13 7 14 6 15 5 16 4 17 3 18 2 19 1 20
REMARK H PARENT
REMARK Flexibility Score: inf
ROOT
ATOM      1  C   UNL     1      20.080   2.264  42.351  1.00  0.00     0.027 C 
ENDROOT
BRANCH   1   2
ATOM      2  C   UNL     1      20.644   1.223  41.376  1.00  0.00     0.004 C 
BRANCH   2   3
ATOM      3  C   UNL     1      19.552   0.717  40.420  1.00  0.00     0.000 C 
BRANCH   3   4
ATOM      4  C   UNL     1      19.252  -0.780  40.601  1.00  0.00     0.000 C 
BRANCH   4   5
ATOM      5  C   UNL     1      20.178  -1.451  41.631  1.00  0.00     0.000 C 
BRANCH   5   6
ATOM      6  C   UNL     1      19.405  -2.077  42.803  1.00  0.00     0.006 C 
BRANCH   6   7
ATOM      7  C   UNL     1      20.272  -2.253  44.054  1.00  0.00     0.053 C 
BRANCH   7   8
ATOM      8  C   UNL     1      20.932  -3.597  44.051  1.00  0.00     0.041 C 
ATOM      9  O   UNL     1      20.295  -4.616  43.676  1.00  0.00    -0.550 OA
ATOM     10  O   UNL     1      22.245  -3.727  44.489  1.00  0.00    -0.550 OA
ENDBRANCH   7   8
ENDBRANCH   6   7
ENDBRANCH   5   6
ENDBRANCH   4   5
ENDBRANCH   3   4
ENDBRANCH   2   3
ENDBRANCH   1   2
BRANCH   1  11
ATOM     11  C   UNL     1      19.935   1.686  43.736  1.00  0.00    -0.031 C 
ATOM     12  C   UNL     1      18.791   1.182  44.234  1.00  0.00    -0.027 C 
BRANCH  12  13
ATOM     13  C   UNL     1      17.484   1.164  43.481  1.00  0.00     0.054 C 
BRANCH  13  14
ATOM     14  C   UNL     1      16.426   1.939  44.223  1.00  0.00    -0.027 C 
ATOM     15  C   UNL     1      16.224   3.264  44.093  1.00  0.00    -0.031 C 
BRANCH  15  16
ATOM     16  C   UNL     1      16.970   4.153  43.127  1.00  0.00     0.027 C 
BRANCH  16  17
ATOM     17  C   UNL     1      16.309   4.179  41.739  1.00  0.00     0.004 C 
BRANCH  17  18
ATOM     18  C   UNL     1      17.292   3.975  40.573  1.00  0.00     0.000 C 
BRANCH  18  19
ATOM     19  C   UNL     1      16.734   3.052  39.479  1.00  0.00    -0.003 C 
ATOM     20  C   UNL     1      16.030   1.843  40.089  1.00  0.00     0.004 C 
ENDBRANCH  18  19
ENDBRANCH  17  18
ENDBRANCH  16  17
ENDBRANCH  15  16
ENDBRANCH  13  14
ENDBRANCH  12  13
ENDBRANCH   1  11
TORSDOF 14
ENDMDL
MODEL 4
REMARK VINA RESULT:    -3.609      1.449      3.299
REMARK INTER + INTRA:          -9.002
REMARK INTER:                  -6.222
REMARK INTRA:                  -2.781
REMARK UNBOUND:                -2.439
REMARK SMILES CCCCCC=CCC=CCCCCCCCC(=O)[O-]
REMARK SMILES IDX 11 1 12 2 13 3 14 4 15 5 16 6 17 7 18 8 19 9 20 10 10 11
REMARK SMILES IDX 9 12 8 13 7 14 6 15 5 16 4 17 3 18 2 19 1 20
REMARK H PARENT
REMARK Flexibility Score: inf
ROOT
ATOM      1  C   UNL     1      20.367   1.497  42.739  1.00  0.00     0.027 C 
ENDROOT
BRANCH   1   2
ATOM      2  C   UNL     1      19.518   2.669  42.228  1.00  0.00     0.004 C 
BRANCH   2   3
ATOM      3  C   UNL     1      18.670   2.247  41.018  1.00  0.00     0.000 C 
BRANCH   3   4
ATOM      4  C   UNL     1      17.181   2.088  41.365  1.00  0.00     0.000 C 
BRANCH   4   5
ATOM      5  C   UNL     1      16.296   1.910  40.118  1.00  0.00     0.000 C 
BRANCH   5   6
ATOM      6  C   UNL     1      17.097   1.475  38.881  1.00  0.00     0.006 C 
BRANCH   6   7
ATOM      7  C   UNL     1      16.363   0.421  38.044  1.00  0.00     0.053 C 
BRANCH   7   8
ATOM      8  C   UNL     1      15.409   1.075  37.094  1.00  0.00     0.041 C 
ATOM      9  O   UNL     1      14.437   0.427  36.625  1.00  0.00    -0.550 OA
ATOM     10  O   UNL     1      15.610   2.394  36.706  1.00  0.00    -0.550 OA
ENDBRANCH   7   8
ENDBRANCH   6   7
ENDBRANCH   5   6
ENDBRANCH   4   5
ENDBRANCH   3   4
ENDBRANCH   2   3
ENDBRANCH   1   2
BRANCH   1  11
ATOM     11  C   UNL     1      19.596   0.662  43.729  1.00  0.00    -0.031 C 
ATOM     12  C   UNL     1      19.485  -0.677  43.671  1.00  0.00    -0.027 C 
BRANCH  12  13
ATOM     13  C   UNL     1      20.089  -1.523  42.577  1.00  0.00     0.054 C 
BRANCH  13  14
ATOM     14  C   UNL     1      19.147  -1.643  41.407  1.00  0.00    -0.027 C 
ATOM     15  C   UNL     1      19.435  -1.239  40.155  1.00  0.00    -0.031 C 
BRANCH  15  16
ATOM     16  C   UNL     1      20.769  -0.684  39.721  1.00  0.00     0.027 C 
BRANCH  16  17
ATOM     17  C   UNL     1      20.633   0.281  38.531  1.00  0.00     0.004 C 
BRANCH  17  18
ATOM     18  C   UNL     1      21.468   1.566  38.668  1.00  0.00     0.000 C 
BRANCH  18  19
ATOM     19  C   UNL     1      22.588   1.439  39.712  1.00  0.00    -0.003 C 
ATOM     20  C   UNL     1      23.948   1.765  39.100  1.00  0.00     0.004 C 
ENDBRANCH  18  19
ENDBRANCH  17  18
ENDBRANCH  16  17
ENDBRANCH  15  16
ENDBRANCH  13  14
ENDBRANCH  12  13
ENDBRANCH   1  11
TORSDOF 14
ENDMDL
MODEL 5
REMARK VINA RESULT:    -3.598      1.699      4.425
REMARK INTER + INTRA:          -8.982
REMARK INTER:                  -6.173
REMARK INTRA:                  -2.809
REMARK UNBOUND:                -2.439
REMARK SMILES CCCCCC=CCC=CCCCCCCCC(=O)[O-]
REMARK SMILES IDX 11 1 12 2 13 3 14 4 15 5 16 6 17 7 18 8 19 9 20 10 10 11
REMARK SMILES IDX 9 12 8 13 7 14 6 15 5 16 4 17 3 18 2 19 1 20
REMARK H PARENT
REMARK Flexibility Score: inf
ROOT
ATOM      1  C   UNL     1      19.675   0.392  41.868  1.00  0.00     0.027 C 
ENDROOT
BRANCH   1   2
ATOM      2  C   UNL     1      19.091   0.467  40.452  1.00  0.00     0.004 C 
BRANCH   2   3
ATOM      3  C   UNL     1      19.536   1.755  39.741  1.00  0.00     0.000 C 
BRANCH   3   4
ATOM      4  C   UNL     1      18.410   2.393  38.911  1.00  0.00     0.000 C 
BRANCH   4   5
ATOM      5  C   UNL     1      17.132   1.537  38.885  1.00  0.00     0.000 C 
BRANCH   5   6
ATOM      6  C   UNL     1      15.858   2.378  38.709  1.00  0.00     0.006 C 
BRANCH   6   7
ATOM      7  C   UNL     1      15.231   2.216  37.319  1.00  0.00     0.053 C 
BRANCH   7   8
ATOM      8  C   UNL     1      14.565   0.882  37.195  1.00  0.00     0.041 C 
ATOM      9  O   UNL     1      14.813   0.138  36.210  1.00  0.00    -0.550 OA
ATOM     10  O   UNL     1      13.649   0.471  38.155  1.00  0.00    -0.550 OA
ENDBRANCH   7   8
ENDBRANCH   6   7
ENDBRANCH   5   6
ENDBRANCH   4   5
ENDBRANCH   3   4
ENDBRANCH   2   3
ENDBRANCH   1   2
BRANCH   1  11
ATOM     11  C   UNL     1      20.430   1.652  42.209  1.00  0.00    -0.031 C 
ATOM     12  C   UNL     1      20.449   2.221  43.428  1.00  0.00    -0.027 C 
BRANCH  12  13
ATOM     13  C   UNL     1      19.682   1.691  44.613  1.00  0.00     0.054 C 
BRANCH  13  14
ATOM     14  C   UNL     1      18.681   2.706  45.103  1.00  0.00    -0.027 C 
ATOM     15  C   UNL     1      17.401   2.772  44.689  1.00  0.00    -0.031 C 
BRANCH  15  16
ATOM     16  C   UNL     1      16.759   1.792  43.737  1.00  0.00     0.027 C 
BRANCH  16  17
ATOM     17  C   UNL     1      16.511   2.412  42.352  1.00  0.00     0.004 C 
BRANCH  17  18
ATOM     18  C   UNL     1      17.265   3.732  42.113  1.00  0.00     0.000 C 
BRANCH  18  19
ATOM     19  C   UNL     1      16.371   4.827  41.513  1.00  0.00    -0.003 C 
ATOM     20  C   UNL     1      15.378   5.352  42.547  1.00  0.00     0.004 C 
ENDBRANCH  18  19
ENDBRANCH  17  18
ENDBRANCH  16  17
ENDBRANCH  15  16
ENDBRANCH  13  14
ENDBRANCH  12  13
ENDBRANCH   1  11
TORSDOF 14
ENDMDL
MODEL 6
REMARK VINA RESULT:    -3.596      1.595      3.465
REMARK INTER + INTRA:          -8.977
REMARK INTER:                  -6.921
REMARK INTRA:                  -2.056
REMARK UNBOUND:                -2.439
REMARK SMILES CCCCCC=CCC=CCCCCCCCC(=O)[O-]
REMARK SMILES IDX 11 1 12 2 13 3 14 4 15 5 16 6 17 7 18 8 19 9 20 10 10 11
REMARK SMILES IDX 9 12 8 13 7 14 6 15 5 16 4 17 3 18 2 19 1 20
REMARK H PARENT
REMARK Flexibility Score: inf
ROOT
ATOM      1  C   UNL     1      17.274   2.841  40.317  1.00  0.00     0.027 C 
ENDROOT
BRANCH   1   2
ATOM      2  C   UNL     1      16.297   3.822  39.657  1.00  0.00     0.004 C 
BRANCH   2   3
ATOM      3  C   UNL     1      16.428   3.780  38.126  1.00  0.00     0.000 C 
BRANCH   3   4
ATOM      4  C   UNL     1      15.106   3.426  37.426  1.00  0.00     0.000 C 
BRANCH   4   5
ATOM      5  C   UNL     1      14.141   2.649  38.339  1.00  0.00     0.000 C 
BRANCH   5   6
ATOM      6  C   UNL     1      14.210   1.129  38.118  1.00  0.00     0.006 C 
BRANCH   6   7
ATOM      7  C   UNL     1      14.902   0.755  36.803  1.00  0.00     0.053 C 
BRANCH   7   8
ATOM      8  C   UNL     1      16.173   0.011  37.071  1.00  0.00     0.041 C 
ATOM      9  O   UNL     1      16.720   0.078  38.203  1.00  0.00    -0.550 OA
ATOM     10  O   UNL     1      16.768  -0.735  36.060  1.00  0.00    -0.550 OA
ENDBRANCH   7   8
ENDBRANCH   6   7
ENDBRANCH   5   6
ENDBRANCH   4   5
ENDBRANCH   3   4
ENDBRANCH   2   3
ENDBRANCH   1   2
BRANCH   1  11
ATOM     11  C   UNL     1      16.570   1.980  41.335  1.00  0.00    -0.031 C 
ATOM     12  C   UNL     1      16.683   2.129  42.667  1.00  0.00    -0.027 C 
BRANCH  12  13
ATOM     13  C   UNL     1      17.565   3.162  43.323  1.00  0.00     0.054 C 
BRANCH  13  14
ATOM     14  C   UNL     1      18.472   2.525  44.344  1.00  0.00    -0.027 C 
ATOM     15  C   UNL     1      19.661   1.963  44.057  1.00  0.00    -0.031 C 
BRANCH  15  16
ATOM     16  C   UNL     1      20.299   1.961  42.689  1.00  0.00     0.027 C 
BRANCH  16  17
ATOM     17  C   UNL     1      20.058   0.638  41.943  1.00  0.00     0.004 C 
BRANCH  17  18
ATOM     18  C   UNL     1      19.342  -0.434  42.784  1.00  0.00     0.000 C 
BRANCH  18  19
ATOM     19  C   UNL     1      20.036  -1.803  42.717  1.00  0.00    -0.003 C 
ATOM     20  C   UNL     1      20.255  -2.376  44.115  1.00  0.00     0.004 C 
ENDBRANCH  18  19
ENDBRANCH  17  18
ENDBRANCH  16  17
ENDBRANCH  15  16
ENDBRANCH  13  14
ENDBRANCH  12  13
ENDBRANCH   1  11
TORSDOF 14
ENDMDL
MODEL 7
REMARK VINA RESULT:    -3.594      1.715      2.843
REMARK INTER + INTRA:          -8.974
REMARK INTER:                  -6.184
REMARK INTRA:                  -2.790
REMARK UNBOUND:                -2.439
REMARK SMILES CCCCCC=CCC=CCCCCCCCC(=O)[O-]
REMARK SMILES IDX 11 1 12 2 13 3 14 4 15 5 16 6 17 7 18 8 19 9 20 10 10 11
REMARK SMILES IDX 9 12 8 13 7 14 6 15 5 16 4 17 3 18 2 19 1 20
REMARK H PARENT
REMARK Flexibility Score: inf
ROOT
ATOM      1  C   UNL     1      18.847   3.958  41.127  1.00  0.00     0.027 C 
ENDROOT
BRANCH   1   2
ATOM      2  C   UNL     1      17.679   4.501  41.961  1.00  0.00     0.004 C 
BRANCH   2   3
ATOM      3  C   UNL     1      16.358   3.822  41.564  1.00  0.00     0.000 C 
BRANCH   3   4
ATOM      4  C   UNL     1      16.501   2.301  41.392  1.00  0.00     0.000 C 
BRANCH   4   5
ATOM      5  C   UNL     1      16.050   1.815  40.004  1.00  0.00     0.000 C 
BRANCH   5   6
ATOM      6  C   UNL     1      15.442   2.939  39.151  1.00  0.00     0.006 C 
BRANCH   6   7
ATOM      7  C   UNL     1      14.377   2.429  38.174  1.00  0.00     0.053 C 
BRANCH   7   8
ATOM      8  C   UNL     1      15.011   1.642  37.069  1.00  0.00     0.041 C 
ATOM      9  O   UNL     1      15.769   2.211  36.240  1.00  0.00    -0.550 OA
ATOM     10  O   UNL     1      14.742   0.285  36.940  1.00  0.00    -0.550 OA
ENDBRANCH   7   8
ENDBRANCH   6   7
ENDBRANCH   5   6
ENDBRANCH   4   5
ENDBRANCH   3   4
ENDBRANCH   2   3
ENDBRANCH   1   2
BRANCH   1  11
ATOM     11  C   UNL     1      18.861   4.573  39.751  1.00  0.00    -0.031 C 
ATOM     12  C   UNL     1      19.049   3.884  38.611  1.00  0.00    -0.027 C 
BRANCH  12  13
ATOM     13  C   UNL     1      19.310   2.399  38.563  1.00  0.00     0.054 C 
BRANCH  13  14
ATOM     14  C   UNL     1      20.766   2.100  38.815  1.00  0.00    -0.027 C 
ATOM     15  C   UNL     1      21.214   1.246  39.754  1.00  0.00    -0.031 C 
BRANCH  15  16
ATOM     16  C   UNL     1      20.327   0.401  40.636  1.00  0.00     0.027 C 
BRANCH  16  17
ATOM     17  C   UNL     1      20.282   0.927  42.081  1.00  0.00     0.004 C 
BRANCH  17  18
ATOM     18  C   UNL     1      19.253   0.211  42.975  1.00  0.00     0.000 C 
BRANCH  18  19
ATOM     19  C   UNL     1      18.740   1.100  44.118  1.00  0.00    -0.003 C 
ATOM     20  C   UNL     1      19.707   2.249  44.395  1.00  0.00     0.004 C 
ENDBRANCH  18  19
ENDBRANCH  17  18
ENDBRANCH  16  17
ENDBRANCH  15  16
ENDBRANCH  13  14
ENDBRANCH  12  13
ENDBRANCH   1  11
TORSDOF 14
ENDMDL
MODEL 8
REMARK VINA RESULT:    -3.545      3.571      5.855
REMARK INTER + INTRA:          -8.886
REMARK INTER:                  -6.396
REMARK INTRA:                  -2.490
REMARK UNBOUND:                -2.439
REMARK SMILES CCCCCC=CCC=CCCCCCCCC(=O)[O-]
REMARK SMILES IDX 11 1 12 2 13 3 14 4 15 5 16 6 17 7 18 8 19 9 20 10 10 11
REMARK SMILES IDX 9 12 8 13 7 14 6 15 5 16 4 17 3 18 2 19 1 20
REMARK H PARENT
REMARK Flexibility Score: inf
ROOT
ATOM      1  C   UNL     1      20.706  -2.681  40.210  1.00  0.00     0.027 C 
ENDROOT
BRANCH   1   2
ATOM      2  C   UNL     1      20.974  -1.175  40.091  1.00  0.00     0.004 C 
BRANCH   2   3
ATOM      3  C   UNL     1      20.237  -0.397  41.193  1.00  0.00     0.000 C 
BRANCH   3   4
ATOM      4  C   UNL     1      20.522   1.112  41.145  1.00  0.00     0.000 C 
BRANCH   4   5
ATOM      5  C   UNL     1      20.294   1.803  42.501  1.00  0.00     0.000 C 
BRANCH   5   6
ATOM      6  C   UNL     1      19.814   0.829  43.589  1.00  0.00     0.006 C 
BRANCH   6   7
ATOM      7  C   UNL     1      19.098   1.540  44.743  1.00  0.00     0.053 C 
BRANCH   7   8
ATOM      8  C   UNL     1      17.870   2.239  44.249  1.00  0.00     0.041 C 
ATOM      9  O   UNL     1      17.769   3.490  44.348  1.00  0.00    -0.550 OA
ATOM     10  O   UNL     1      16.825   1.504  43.702  1.00  0.00    -0.550 OA
ENDBRANCH   7   8
ENDBRANCH   6   7
ENDBRANCH   5   6
ENDBRANCH   4   5
ENDBRANCH   3   4
ENDBRANCH   2   3
ENDBRANCH   1   2
BRANCH   1  11
ATOM     11  C   UNL     1      19.308  -3.019  39.760  1.00  0.00    -0.031 C 
ATOM     12  C   UNL     1      18.519  -3.935  40.350  1.00  0.00    -0.027 C 
BRANCH  12  13
ATOM     13  C   UNL     1      18.948  -4.779  41.525  1.00  0.00     0.054 C 
BRANCH  13  14
ATOM     14  C   UNL     1      17.870  -4.823  42.577  1.00  0.00    -0.027 C 
ATOM     15  C   UNL     1      17.688  -3.877  43.518  1.00  0.00    -0.031 C 
BRANCH  15  16
ATOM     16  C   UNL     1      18.480  -2.596  43.607  1.00  0.00     0.027 C 
BRANCH  16  17
ATOM     17  C   UNL     1      19.659  -2.714  44.586  1.00  0.00     0.004 C 
BRANCH  17  18
ATOM     18  C   UNL     1      21.022  -2.924  43.903  1.00  0.00     0.000 C 
BRANCH  18  19
ATOM     19  C   UNL     1      21.885  -3.979  44.611  1.00  0.00    -0.003 C 
ATOM     20  C   UNL     1      21.087  -5.254  44.872  1.00  0.00     0.004 C 
ENDBRANCH  18  19
ENDBRANCH  17  18
ENDBRANCH  16  17
ENDBRANCH  15  16
ENDBRANCH  13  14
ENDBRANCH  12  13
ENDBRANCH   1  11
TORSDOF 14
ENDMDL
MODEL 9
REMARK VINA RESULT:    -3.530      1.839      3.952
REMARK INTER + INTRA:          -8.858
REMARK INTER:                  -5.811
REMARK INTRA:                  -3.047
REMARK UNBOUND:                -2.439
REMARK SMILES CCCCCC=CCC=CCCCCCCCC(=O)[O-]
REMARK SMILES IDX 11 1 12 2 13 3 14 4 15 5 16 6 17 7 18 8 19 9 20 10 10 11
REMARK SMILES IDX 9 12 8 13 7 14 6 15 5 16 4 17 3 18 2 19 1 20
REMARK H PARENT
REMARK Flexibility Score: inf
ROOT
ATOM      1  C   UNL     1      16.556   4.061  40.785  1.00  0.00     0.027 C 
ENDROOT
BRANCH   1   2
ATOM      2  C   UNL     1      17.473   4.386  39.600  1.00  0.00     0.004 C 
BRANCH   2   3
ATOM      3  C   UNL     1      16.670   4.486  38.294  1.00  0.00     0.000 C 
BRANCH   3   4
ATOM      4  C   UNL     1      17.083   3.425  37.261  1.00  0.00     0.000 C 
BRANCH   4   5
ATOM      5  C   UNL     1      15.877   2.797  36.540  1.00  0.00     0.000 C 
BRANCH   5   6
ATOM      6  C   UNL     1      15.040   1.895  37.460  1.00  0.00     0.006 C 
BRANCH   6   7
ATOM      7  C   UNL     1      15.755   0.586  37.814  1.00  0.00     0.053 C 
BRANCH   7   8
ATOM      8  C   UNL     1      16.148  -0.150  36.572  1.00  0.00     0.041 C 
ATOM      9  O   UNL     1      17.359  -0.406  36.342  1.00  0.00    -0.550 OA
ATOM     10  O   UNL     1      15.177  -0.531  35.654  1.00  0.00    -0.550 OA
ENDBRANCH   7   8
ENDBRANCH   6   7
ENDBRANCH   5   6
ENDBRANCH   4   5
ENDBRANCH   3   4
ENDBRANCH   2   3
ENDBRANCH   1   2
BRANCH   1  11
ATOM     11  C   UNL     1      16.322   2.576  40.898  1.00  0.00    -0.031 C 
ATOM     12  C   UNL     1      16.649   1.833  41.970  1.00  0.00    -0.027 C 
BRANCH  12  13
ATOM     13  C   UNL     1      17.332   2.386  43.197  1.00  0.00     0.054 C 
BRANCH  13  14
ATOM     14  C   UNL     1      18.161   1.326  43.874  1.00  0.00    -0.027 C 
ATOM     15  C   UNL     1      19.459   1.089  43.604  1.00  0.00    -0.031 C 
BRANCH  15  16
ATOM     16  C   UNL     1      20.296   1.902  42.646  1.00  0.00     0.027 C 
BRANCH  16  17
ATOM     17  C   UNL     1      20.592   1.135  41.346  1.00  0.00     0.004 C 
BRANCH  17  18
ATOM     18  C   UNL     1      20.175   1.885  40.068  1.00  0.00     0.000 C 
BRANCH  18  19
ATOM     19  C   UNL     1      19.173   1.093  39.215  1.00  0.00    -0.003 C 
ATOM     20  C   UNL     1      18.874  -0.266  39.842  1.00  0.00     0.004 C 
ENDBRANCH  18  19
ENDBRANCH  17  18
ENDBRANCH  16  17
ENDBRANCH  15  16
ENDBRANCH  13  14
ENDBRANCH  12  13
ENDBRANCH   1  11
TORSDOF 14
ENDMDL
