MODEL 1
REMARK VINA RESULT:    -3.634      0.000      0.000
REMARK INTER + INTRA:          -4.705
REMARK INTER:                  -4.484
REMARK INTRA:                  -0.221
REMARK UNBOUND:                -0.221
REMARK SMILES C=CC[C@H](C)C(=O)CC
REMARK SMILES IDX 4 1 5 2 6 3 7 4 8 5 9 6 3 7 2 8 1 9
REMARK H PARENT
REMARK Flexibility Score: inf
ROOT
ATOM      1  C   UNL     1      19.909  23.786  27.047  1.00  0.00     0.057 C 
ATOM      2  C   UNL     1      18.843  22.925  26.354  1.00  0.00     0.016 C 
ENDROOT
BRANCH   1   3
ATOM      3  C   UNL     1      19.261  24.846  27.914  1.00  0.00     0.135 C 
ATOM      4  O   UNL     1      19.845  25.230  28.917  1.00  0.00    -0.299 OA
BRANCH   3   5
ATOM      5  C   UNL     1      17.928  25.462  27.566  1.00  0.00     0.072 C 
ATOM      6  C   UNL     1      18.021  26.984  27.540  1.00  0.00     0.012 C 
ENDBRANCH   3   5
ENDBRANCH   1   3
BRANCH   1   7
ATOM      7  C   UNL     1      20.879  24.431  26.034  1.00  0.00     0.038 C 
BRANCH   7   8
ATOM      8  C   UNL     1      21.071  23.580  24.806  1.00  0.00    -0.034 C 
ATOM      9  C   UNL     1      21.780  24.007  23.757  1.00  0.00     0.004 C 
ENDBRANCH   7   8
ENDBRANCH   1   7
TORSDOF 4
ENDMDL
MODEL 2
REMARK VINA RESULT:    -3.435      1.937      3.601
REMARK INTER + INTRA:          -4.459
REMARK INTER:                  -4.028
REMARK INTRA:                  -0.431
REMARK UNBOUND:                -0.221
REMARK SMILES C=CC[C@H](C)C(=O)CC
REMARK SMILES IDX 4 1 5 2 6 3 7 4 8 5 9 6 3 7 2 8 1 9
REMARK H PARENT
REMARK Flexibility Score: inf
ROOT
ATOM      1  C   UNL     1      19.339  24.817  27.267  1.00  0.00     0.057 C 
ATOM      2  C   UNL     1      19.145  23.474  26.547  1.00  0.00     0.016 C 
ENDROOT
BRANCH   1   3
ATOM      3  C   UNL     1      20.594  24.793  28.115  1.00  0.00     0.135 C 
ATOM      4  O   UNL     1      21.492  24.016  27.824  1.00  0.00    -0.299 OA
BRANCH   3   5
ATOM      5  C   UNL     1      20.783  25.716  29.294  1.00  0.00     0.072 C 
ATOM      6  C   UNL     1      21.501  26.995  28.875  1.00  0.00     0.012 C 
ENDBRANCH   3   5
ENDBRANCH   1   3
BRANCH   1   7
ATOM      7  C   UNL     1      18.112  25.196  28.123  1.00  0.00     0.038 C 
BRANCH   7   8
ATOM      8  C   UNL     1      17.427  26.440  27.620  1.00  0.00    -0.034 C 
ATOM      9  C   UNL     1      18.078  27.599  27.491  1.00  0.00     0.004 C 
ENDBRANCH   7   8
ENDBRANCH   1   7
TORSDOF 4
ENDMDL
MODEL 3
REMARK VINA RESULT:    -3.426      1.725      3.162
REMARK INTER + INTRA:          -4.447
REMARK INTER:                  -3.988
REMARK INTRA:                  -0.460
REMARK UNBOUND:                -0.221
REMARK SMILES C=CC[C@H](C)C(=O)CC
REMARK SMILES IDX 4 1 5 2 6 3 7 4 8 5 9 6 3 7 2 8 1 9
REMARK H PARENT
REMARK Flexibility Score: inf
ROOT
ATOM      1  C   UNL     1      18.269  25.848  27.462  1.00  0.00     0.057 C 
ATOM      2  C   UNL     1      18.033  27.366  27.437  1.00  0.00     0.016 C 
ENDROOT
BRANCH   1   3
ATOM      3  C   UNL     1      17.061  25.128  28.026  1.00  0.00     0.135 C 
ATOM      4  O   UNL     1      16.828  25.210  29.224  1.00  0.00    -0.299 OA
BRANCH   3   5
ATOM      5  C   UNL     1      16.122  24.333  27.153  1.00  0.00     0.072 C 
ATOM      6  C   UNL     1      16.855  23.186  26.467  1.00  0.00     0.012 C 
ENDBRANCH   3   5
ENDBRANCH   1   3
BRANCH   1   7
ATOM      7  C   UNL     1      19.542  25.476  28.252  1.00  0.00     0.038 C 
BRANCH   7   8
ATOM      8  C   UNL     1      20.250  24.283  27.665  1.00  0.00    -0.034 C 
ATOM      9  C   UNL     1      20.523  24.198  26.360  1.00  0.00     0.004 C 
ENDBRANCH   7   8
ENDBRANCH   1   7
TORSDOF 4
ENDMDL
MODEL 4
REMARK VINA RESULT:    -3.394      2.224      3.632
REMARK INTER + INTRA:          -4.409
REMARK INTER:                  -4.171
REMARK INTRA:                  -0.238
REMARK UNBOUND:                -0.221
REMARK SMILES C=CC[C@H](C)C(=O)CC
REMARK SMILES IDX 4 1 5 2 6 3 7 4 8 5 9 6 3 7 2 8 1 9
REMARK H PARENT
REMARK Flexibility Score: inf
ROOT
ATOM      1  C   UNL     1      19.499  23.683  26.773  1.00  0.00     0.057 C 
ATOM      2  C   UNL     1      20.571  23.677  25.673  1.00  0.00     0.016 C 
ENDROOT
BRANCH   1   3
ATOM      3  C   UNL     1      18.268  22.922  26.325  1.00  0.00     0.135 C 
ATOM      4  O   UNL     1      18.410  21.886  25.692  1.00  0.00    -0.299 OA
BRANCH   3   5
ATOM      5  C   UNL     1      16.872  23.389  26.657  1.00  0.00     0.072 C 
ATOM      6  C   UNL     1      15.876  22.925  25.599  1.00  0.00     0.012 C 
ENDBRANCH   3   5
ENDBRANCH   1   3
BRANCH   1   7
ATOM      7  C   UNL     1      19.124  25.117  27.206  1.00  0.00     0.038 C 
BRANCH   7   8
ATOM      8  C   UNL     1      20.195  25.758  28.049  1.00  0.00    -0.034 C 
ATOM      9  C   UNL     1      20.680  25.163  29.142  1.00  0.00     0.004 C 
ENDBRANCH   7   8
ENDBRANCH   1   7
TORSDOF 4
ENDMDL
MODEL 5
REMARK VINA RESULT:    -3.385      3.785      5.103
REMARK INTER + INTRA:          -4.398
REMARK INTER:                  -4.037
REMARK INTRA:                  -0.360
REMARK UNBOUND:                -0.221
REMARK SMILES C=CC[C@H](C)C(=O)CC
REMARK SMILES IDX 4 1 5 2 6 3 7 4 8 5 9 6 3 7 2 8 1 9
REMARK H PARENT
REMARK Flexibility Score: inf
ROOT
ATOM      1  C   UNL     1      15.336  23.866  26.914  1.00  0.00     0.057 C 
ATOM      2  C   UNL     1      16.371  24.700  27.683  1.00  0.00     0.016 C 
ENDROOT
BRANCH   1   3
ATOM      3  C   UNL     1      14.516  23.019  27.867  1.00  0.00     0.135 C 
ATOM      4  O   UNL     1      14.067  23.535  28.881  1.00  0.00    -0.299 OA
BRANCH   3   5
ATOM      5  C   UNL     1      14.214  21.567  27.592  1.00  0.00     0.072 C 
ATOM      6  C   UNL     1      15.004  20.659  28.529  1.00  0.00     0.012 C 
ENDBRANCH   3   5
ENDBRANCH   1   3
BRANCH   1   7
ATOM      7  C   UNL     1      15.994  22.983  25.832  1.00  0.00     0.038 C 
BRANCH   7   8
ATOM      8  C   UNL     1      17.433  22.668  26.150  1.00  0.00    -0.034 C 
ATOM      9  C   UNL     1      18.203  21.971  25.309  1.00  0.00     0.004 C 
ENDBRANCH   7   8
ENDBRANCH   1   7
TORSDOF 4
ENDMDL
MODEL 6
REMARK VINA RESULT:    -3.378      1.864      3.741
REMARK INTER + INTRA:          -4.389
REMARK INTER:                  -3.931
REMARK INTRA:                  -0.458
REMARK UNBOUND:                -0.221
REMARK SMILES C=CC[C@H](C)C(=O)CC
REMARK SMILES IDX 4 1 5 2 6 3 7 4 8 5 9 6 3 7 2 8 1 9
REMARK H PARENT
REMARK Flexibility Score: inf
ROOT
ATOM      1  C   UNL     1      19.125  25.760  27.626  1.00  0.00     0.057 C 
ATOM      2  C   UNL     1      18.072  26.870  27.495  1.00  0.00     0.016 C 
ENDROOT
BRANCH   1   3
ATOM      3  C   UNL     1      18.587  24.446  27.097  1.00  0.00     0.135 C 
ATOM      4  O   UNL     1      17.378  24.267  27.075  1.00  0.00    -0.299 OA
BRANCH   3   5
ATOM      5  C   UNL     1      19.494  23.361  26.573  1.00  0.00     0.072 C 
ATOM      6  C   UNL     1      20.705  23.958  25.865  1.00  0.00     0.012 C 
ENDBRANCH   3   5
ENDBRANCH   1   3
BRANCH   1   7
ATOM      7  C   UNL     1      19.618  25.600  29.080  1.00  0.00     0.038 C 
BRANCH   7   8
ATOM      8  C   UNL     1      21.027  26.100  29.264  1.00  0.00    -0.034 C 
ATOM      9  C   UNL     1      21.758  26.539  28.236  1.00  0.00     0.004 C 
ENDBRANCH   7   8
ENDBRANCH   1   7
TORSDOF 4
ENDMDL
MODEL 7
REMARK VINA RESULT:    -3.315      1.715      4.179
REMARK INTER + INTRA:          -4.311
REMARK INTER:                  -3.804
REMARK INTRA:                  -0.506
REMARK UNBOUND:                -0.221
REMARK SMILES C=CC[C@H](C)C(=O)CC
REMARK SMILES IDX 4 1 5 2 6 3 7 4 8 5 9 6 3 7 2 8 1 9
REMARK H PARENT
REMARK Flexibility Score: inf
ROOT
ATOM      1  C   UNL     1      18.299  26.332  28.629  1.00  0.00     0.057 C 
ATOM      2  C   UNL     1      18.083  27.295  27.452  1.00  0.00     0.016 C 
ENDROOT
BRANCH   1   3
ATOM      3  C   UNL     1      19.527  25.474  28.400  1.00  0.00     0.135 C 
ATOM      4  O   UNL     1      20.166  25.085  29.367  1.00  0.00    -0.299 OA
BRANCH   3   5
ATOM      5  C   UNL     1      19.971  25.062  27.018  1.00  0.00     0.072 C 
ATOM      6  C   UNL     1      19.598  23.610  26.736  1.00  0.00     0.012 C 
ENDBRANCH   3   5
ENDBRANCH   1   3
BRANCH   1   7
ATOM      7  C   UNL     1      17.059  25.450  28.888  1.00  0.00     0.038 C 
BRANCH   7   8
ATOM      8  C   UNL     1      16.176  25.335  27.672  1.00  0.00    -0.034 C 
ATOM      9  C   UNL     1      15.921  24.157  27.096  1.00  0.00     0.004 C 
ENDBRANCH   7   8
ENDBRANCH   1   7
TORSDOF 4
ENDMDL
MODEL 8
REMARK VINA RESULT:    -3.296      1.792      2.708
REMARK INTER + INTRA:          -4.287
REMARK INTER:                  -3.896
REMARK INTRA:                  -0.391
REMARK UNBOUND:                -0.221
REMARK SMILES C=CC[C@H](C)C(=O)CC
REMARK SMILES IDX 4 1 5 2 6 3 7 4 8 5 9 6 3 7 2 8 1 9
REMARK H PARENT
REMARK Flexibility Score: inf
ROOT
ATOM      1  C   UNL     1      20.891  25.997  27.982  1.00  0.00     0.057 C 
ATOM      2  C   UNL     1      22.231  26.604  28.425  1.00  0.00     0.016 C 
ENDROOT
BRANCH   1   3
ATOM      3  C   UNL     1      19.784  26.386  28.941  1.00  0.00     0.135 C 
ATOM      4  O   UNL     1      20.080  26.908  30.007  1.00  0.00    -0.299 OA
BRANCH   3   5
ATOM      5  C   UNL     1      18.327  26.174  28.612  1.00  0.00     0.072 C 
ATOM      6  C   UNL     1      17.878  27.110  27.496  1.00  0.00     0.012 C 
ENDBRANCH   3   5
ENDBRANCH   1   3
BRANCH   1   7
ATOM      7  C   UNL     1      20.971  24.462  27.839  1.00  0.00     0.038 C 
BRANCH   7   8
ATOM      8  C   UNL     1      20.443  23.984  26.511  1.00  0.00    -0.034 C 
ATOM      9  C   UNL     1      19.322  23.264  26.417  1.00  0.00     0.004 C 
ENDBRANCH   7   8
ENDBRANCH   1   7
TORSDOF 4
ENDMDL
MODEL 9
REMARK VINA RESULT:    -3.230      2.867      4.113
REMARK INTER + INTRA:          -4.206
REMARK INTER:                  -3.933
REMARK INTRA:                  -0.273
REMARK UNBOUND:                -0.221
REMARK SMILES C=CC[C@H](C)C(=O)CC
REMARK SMILES IDX 4 1 5 2 6 3 7 4 8 5 9 6 3 7 2 8 1 9
REMARK H PARENT
REMARK Flexibility Score: inf
ROOT
ATOM      1  C   UNL     1      20.366  26.663  29.157  1.00  0.00     0.057 C 
ATOM      2  C   UNL     1      19.393  27.615  28.445  1.00  0.00     0.016 C 
ENDROOT
BRANCH   1   3
ATOM      3  C   UNL     1      21.791  26.924  28.714  1.00  0.00     0.135 C 
ATOM      4  O   UNL     1      22.587  25.996  28.701  1.00  0.00    -0.299 OA
BRANCH   3   5
ATOM      5  C   UNL     1      22.253  28.288  28.263  1.00  0.00     0.072 C 
ATOM      6  C   UNL     1      23.538  28.186  27.448  1.00  0.00     0.012 C 
ENDBRANCH   3   5
ENDBRANCH   1   3
BRANCH   1   7
ATOM      7  C   UNL     1      19.990  25.182  28.936  1.00  0.00     0.038 C 
BRANCH   7   8
ATOM      8  C   UNL     1      19.462  24.928  27.548  1.00  0.00    -0.034 C 
ATOM      9  C   UNL     1      19.959  23.961  26.771  1.00  0.00     0.004 C 
ENDBRANCH   7   8
ENDBRANCH   1   7
TORSDOF 4
ENDMDL
