MODEL 1
REMARK VINA RESULT:    -4.484      0.000      0.000
REMARK INTER + INTRA:          -5.406
REMARK INTER:                  -4.877
REMARK INTRA:                  -0.529
REMARK UNBOUND:                -0.529
REMARK SMILES C=C(C)[C@H]1CC[C@@]2(C)CC[C@@]3(C)[C@@H](CC[C@H]4[C@]5(C)CC[C@@H](O)C(C)(C)[C@H]5CC[C@@]43C)[C@H]12
REMARK SMILES IDX 4 1 5 2 6 3 7 4 31 5 13 6 14 7 15 8 16 9 17 10 19 11 20 12
REMARK SMILES IDX 21 13 23 14 26 15 27 16 28 17 29 18 11 19 10 20 9 21 12 22
REMARK SMILES IDX 30 23 24 24 25 25 18 26 8 27 2 28 3 29 1 30 22 31
REMARK H PARENT 22 32
REMARK Flexibility Score: inf
ROOT
ATOM      1  C   UNL     1    -121.221  39.764  13.981  1.00  0.00     0.018 C 
ATOM      2  C   UNL     1    -119.752  39.276  13.887  1.00  0.00     0.009 C 
ATOM      3  C   UNL     1    -119.615  38.092  14.863  1.00  0.00     0.008 C 
ATOM      4  C   UNL     1    -121.053  37.621  15.106  1.00  0.00    -0.029 C 
ATOM      5  C   UNL     1    -121.802  38.964  15.163  1.00  0.00     0.006 C 
ATOM      6  C   UNL     1    -123.334  38.741  15.292  1.00  0.00    -0.000 C 
ATOM      7  C   UNL     1    -124.149  40.044  15.195  1.00  0.00     0.005 C 
ATOM      8  C   UNL     1    -125.662  39.779  15.230  1.00  0.00     0.005 C 
ATOM      9  C   UNL     1    -126.107  38.926  16.457  1.00  0.00     0.002 C 
ATOM     10  C   UNL     1    -127.688  38.817  16.663  1.00  0.00    -0.026 C 
ATOM     11  C   UNL     1    -128.277  40.260  16.823  1.00  0.00     0.010 C 
ATOM     12  C   UNL     1    -129.726  40.297  17.327  1.00  0.00     0.033 C 
ATOM     13  C   UNL     1    -129.900  39.552  18.653  1.00  0.00     0.120 C 
ATOM     14  C   UNL     1    -129.408  38.070  18.588  1.00  0.00    -0.006 C 
ATOM     15  C   UNL     1    -127.929  38.053  18.024  1.00  0.00     0.003 C 
ATOM     16  C   UNL     1    -127.238  36.665  18.030  1.00  0.00     0.005 C 
ATOM     17  C   UNL     1    -125.717  36.808  17.860  1.00  0.00     0.008 C 
ATOM     18  C   UNL     1    -125.276  37.573  16.568  1.00  0.00    -0.024 C 
ATOM     19  C   UNL     1    -123.691  37.930  16.611  1.00  0.00    -0.024 C 
ATOM     20  C   UNL     1    -122.779  36.640  16.717  1.00  0.00     0.008 C 
ATOM     21  C   UNL     1    -121.268  36.881  16.444  1.00  0.00     0.007 C 
ATOM     22  C   UNL     1    -123.323  38.781  17.891  1.00  0.00     0.012 C 
ATOM     23  C   UNL     1    -125.602  36.626  15.357  1.00  0.00     0.012 C 
ATOM     24  C   UNL     1    -129.424  37.522  20.043  1.00  0.00     0.014 C 
ATOM     25  C   UNL     1    -130.388  37.195  17.764  1.00  0.00     0.014 C 
ATOM     26  C   UNL     1    -128.390  38.139  15.440  1.00  0.00     0.012 C 
ATOM     27  C   UNL     1    -121.454  36.690  13.916  1.00  0.00     0.011 C 
ENDROOT
BRANCH   1  28
ATOM     28  C   UNL     1    -121.305  41.283  14.136  1.00  0.00    -0.077 C 
ATOM     29  C   UNL     1    -121.853  42.125  13.012  1.00  0.00     0.039 C 
ATOM     30  C   UNL     1    -120.857  41.907  15.241  1.00  0.00     0.008 C 
ENDBRANCH   1  28
BRANCH  13  31
ATOM     31  O   UNL     1    -131.259  39.613  19.020  1.00  0.00    -0.393 OA
ATOM     32  H   UNL     1    -131.795  39.332  18.234  1.00  0.00     0.210 HD
ENDBRANCH  13  31
TORSDOF 2
ENDMDL
MODEL 2
REMARK VINA RESULT:    -4.238      1.174      1.494
REMARK INTER + INTRA:          -5.139
REMARK INTER:                  -4.610
REMARK INTRA:                  -0.529
REMARK UNBOUND:                -0.529
REMARK SMILES C=C(C)[C@H]1CC[C@@]2(C)CC[C@@]3(C)[C@@H](CC[C@H]4[C@]5(C)CC[C@@H](O)C(C)(C)[C@H]5CC[C@@]43C)[C@H]12
REMARK SMILES IDX 4 1 5 2 6 3 7 4 31 5 13 6 14 7 15 8 16 9 17 10 19 11 20 12
REMARK SMILES IDX 21 13 23 14 26 15 27 16 28 17 29 18 11 19 10 20 9 21 12 22
REMARK SMILES IDX 30 23 24 24 25 25 18 26 8 27 2 28 3 29 1 30 22 31
REMARK H PARENT 22 32
REMARK Flexibility Score: inf
ROOT
ATOM      1  C   UNL     1    -120.928  37.663  14.261  1.00  0.00     0.018 C 
ATOM      2  C   UNL     1    -119.586  36.933  14.528  1.00  0.00     0.009 C 
ATOM      3  C   UNL     1    -119.754  36.166  15.853  1.00  0.00     0.008 C 
ATOM      4  C   UNL     1    -121.270  36.062  16.052  1.00  0.00    -0.029 C 
ATOM      5  C   UNL     1    -121.733  37.443  15.557  1.00  0.00     0.006 C 
ATOM      6  C   UNL     1    -123.283  37.543  15.552  1.00  0.00    -0.000 C 
ATOM      7  C   UNL     1    -123.807  38.845  14.919  1.00  0.00     0.005 C 
ATOM      8  C   UNL     1    -125.342  38.869  14.844  1.00  0.00     0.005 C 
ATOM      9  C   UNL     1    -126.027  38.594  16.217  1.00  0.00     0.002 C 
ATOM     10  C   UNL     1    -127.607  38.835  16.241  1.00  0.00    -0.026 C 
ATOM     11  C   UNL     1    -127.898  40.318  15.830  1.00  0.00     0.010 C 
ATOM     12  C   UNL     1    -129.339  40.776  16.100  1.00  0.00     0.033 C 
ATOM     13  C   UNL     1    -129.744  40.589  17.564  1.00  0.00     0.120 C 
ATOM     14  C   UNL     1    -129.560  39.120  18.064  1.00  0.00    -0.006 C 
ATOM     15  C   UNL     1    -128.083  38.655  17.736  1.00  0.00     0.003 C 
ATOM     16  C   UNL     1    -127.692  37.263  18.297  1.00  0.00     0.005 C 
ATOM     17  C   UNL     1    -126.165  37.077  18.288  1.00  0.00     0.008 C 
ATOM     18  C   UNL     1    -125.498  37.249  16.883  1.00  0.00    -0.024 C 
ATOM     19  C   UNL     1    -123.879  37.325  17.009  1.00  0.00    -0.024 C 
ATOM     20  C   UNL     1    -123.258  36.022  17.659  1.00  0.00     0.008 C 
ATOM     21  C   UNL     1    -121.715  35.891  17.520  1.00  0.00     0.007 C 
ATOM     22  C   UNL     1    -123.427  38.499  17.966  1.00  0.00     0.012 C 
ATOM     23  C   UNL     1    -125.933  36.004  16.029  1.00  0.00     0.012 C 
ATOM     24  C   UNL     1    -129.778  39.134  19.604  1.00  0.00     0.014 C 
ATOM     25  C   UNL     1    -130.645  38.189  17.462  1.00  0.00     0.014 C 
ATOM     26  C   UNL     1    -128.354  37.896  15.236  1.00  0.00     0.012 C 
ATOM     27  C   UNL     1    -121.777  34.852  15.201  1.00  0.00     0.011 C 
ENDROOT
BRANCH   1  28
ATOM     28  C   UNL     1    -120.710  39.129  13.885  1.00  0.00    -0.077 C 
ATOM     29  C   UNL     1    -121.016  39.600  12.486  1.00  0.00     0.039 C 
ATOM     30  C   UNL     1    -120.204  40.016  14.761  1.00  0.00     0.008 C 
ENDBRANCH   1  28
BRANCH  13  31
ATOM     31  O   UNL     1    -131.081  41.005  17.710  1.00  0.00    -0.393 OA
ATOM     32  H   UNL     1    -131.583  40.689  16.914  1.00  0.00     0.210 HD
ENDBRANCH  13  31
TORSDOF 2
ENDMDL
MODEL 3
REMARK VINA RESULT:    -4.083     11.021     14.386
REMARK INTER + INTRA:          -4.971
REMARK INTER:                  -4.485
REMARK INTRA:                  -0.485
REMARK UNBOUND:                -0.529
REMARK SMILES C=C(C)[C@H]1CC[C@@]2(C)CC[C@@]3(C)[C@@H](CC[C@H]4[C@]5(C)CC[C@@H](O)C(C)(C)[C@H]5CC[C@@]43C)[C@H]12
REMARK SMILES IDX 4 1 5 2 6 3 7 4 31 5 13 6 14 7 15 8 16 9 17 10 19 11 20 12
REMARK SMILES IDX 21 13 23 14 26 15 27 16 28 17 29 18 11 19 10 20 9 21 12 22
REMARK SMILES IDX 30 23 24 24 25 25 18 26 8 27 2 28 3 29 1 30 22 31
REMARK H PARENT 22 32
REMARK Flexibility Score: inf
ROOT
ATOM      1  C   UNL     1    -129.109  39.547   6.273  1.00  0.00     0.018 C 
ATOM      2  C   UNL     1    -130.487  38.851   6.413  1.00  0.00     0.009 C 
ATOM      3  C   UNL     1    -130.406  37.541   5.608  1.00  0.00     0.008 C 
ATOM      4  C   UNL     1    -128.905  37.274   5.451  1.00  0.00    -0.029 C 
ATOM      5  C   UNL     1    -128.370  38.698   5.220  1.00  0.00     0.006 C 
ATOM      6  C   UNL     1    -126.819  38.704   5.144  1.00  0.00    -0.000 C 
ATOM      7  C   UNL     1    -126.219  40.120   5.072  1.00  0.00     0.005 C 
ATOM      8  C   UNL     1    -124.683  40.095   5.095  1.00  0.00     0.005 C 
ATOM      9  C   UNL     1    -124.069  39.167   4.003  1.00  0.00     0.002 C 
ATOM     10  C   UNL     1    -122.484  39.282   3.835  1.00  0.00    -0.026 C 
ATOM     11  C   UNL     1    -122.120  40.765   3.486  1.00  0.00     0.010 C 
ATOM     12  C   UNL     1    -120.676  40.962   3.001  1.00  0.00     0.033 C 
ATOM     13  C   UNL     1    -120.343  40.084   1.792  1.00  0.00     0.120 C 
ATOM     14  C   UNL     1    -120.603  38.565   2.054  1.00  0.00    -0.006 C 
ATOM     15  C   UNL     1    -122.081  38.391   2.595  1.00  0.00     0.003 C 
ATOM     16  C   UNL     1    -122.548  36.922   2.771  1.00  0.00     0.005 C 
ATOM     17  C   UNL     1    -124.078  36.845   2.899  1.00  0.00     0.008 C 
ATOM     18  C   UNL     1    -124.676  37.697   4.067  1.00  0.00    -0.024 C 
ATOM     19  C   UNL     1    -126.295  37.790   3.954  1.00  0.00    -0.024 C 
ATOM     20  C   UNL     1    -126.992  36.371   4.014  1.00  0.00     0.008 C 
ATOM     21  C   UNL     1    -128.532  36.405   4.231  1.00  0.00     0.007 C 
ATOM     22  C   UNL     1    -126.745  38.394   2.564  1.00  0.00     0.012 C 
ATOM     23  C   UNL     1    -124.251  36.984   5.401  1.00  0.00     0.012 C 
ATOM     24  C   UNL     1    -120.452  37.837   0.689  1.00  0.00     0.014 C 
ATOM     25  C   UNL     1    -119.529  37.974   3.004  1.00  0.00     0.014 C 
ATOM     26  C   UNL     1    -121.728  38.893   5.149  1.00  0.00     0.012 C 
ATOM     27  C   UNL     1    -128.407  36.585   6.763  1.00  0.00     0.011 C 
ENDROOT
BRANCH   1  28
ATOM     28  C   UNL     1    -129.255  41.026   5.912  1.00  0.00    -0.077 C 
ATOM     29  C   UNL     1    -128.669  42.082   6.814  1.00  0.00     0.039 C 
ATOM     30  C   UNL     1    -129.939  41.423   4.824  1.00  0.00     0.008 C 
ENDBRANCH   1  28
BRANCH  13  31
ATOM     31  O   UNL     1    -118.999  40.309   1.439  1.00  0.00    -0.393 OA
ATOM     32  H   UNL     1    -118.977  40.546   0.475  1.00  0.00     0.210 HD
ENDBRANCH  13  31
TORSDOF 2
ENDMDL
MODEL 4
REMARK VINA RESULT:    -3.910     10.544     13.205
REMARK INTER + INTRA:          -4.782
REMARK INTER:                  -4.252
REMARK INTRA:                  -0.530
REMARK UNBOUND:                -0.529
REMARK SMILES C=C(C)[C@H]1CC[C@@]2(C)CC[C@@]3(C)[C@@H](CC[C@H]4[C@]5(C)CC[C@@H](O)C(C)(C)[C@H]5CC[C@@]43C)[C@H]12
REMARK SMILES IDX 4 1 5 2 6 3 7 4 31 5 13 6 14 7 15 8 16 9 17 10 19 11 20 12
REMARK SMILES IDX 21 13 23 14 26 15 27 16 28 17 29 18 11 19 10 20 9 21 12 22
REMARK SMILES IDX 30 23 24 24 25 25 18 26 8 27 2 28 3 29 1 30 22 31
REMARK H PARENT 22 32
REMARK Flexibility Score: inf
ROOT
ATOM      1  C   UNL     1    -118.075  37.152   2.319  1.00  0.00     0.018 C 
ATOM      2  C   UNL     1    -116.574  37.538   2.274  1.00  0.00     0.009 C 
ATOM      3  C   UNL     1    -116.450  38.914   2.956  1.00  0.00     0.008 C 
ATOM      4  C   UNL     1    -117.730  39.052   3.788  1.00  0.00    -0.029 C 
ATOM      5  C   UNL     1    -118.770  38.423   2.844  1.00  0.00     0.006 C 
ATOM      6  C   UNL     1    -120.163  38.341   3.526  1.00  0.00    -0.000 C 
ATOM      7  C   UNL     1    -121.206  37.579   2.688  1.00  0.00     0.005 C 
ATOM      8  C   UNL     1    -122.543  37.433   3.431  1.00  0.00     0.005 C 
ATOM      9  C   UNL     1    -123.113  38.791   3.940  1.00  0.00     0.002 C 
ATOM     10  C   UNL     1    -124.603  38.724   4.513  1.00  0.00    -0.026 C 
ATOM     11  C   UNL     1    -125.551  38.178   3.392  1.00  0.00     0.010 C 
ATOM     12  C   UNL     1    -127.047  38.344   3.695  1.00  0.00     0.033 C 
ATOM     13  C   UNL     1    -127.425  39.799   3.984  1.00  0.00     0.120 C 
ATOM     14  C   UNL     1    -126.585  40.427   5.142  1.00  0.00    -0.006 C 
ATOM     15  C   UNL     1    -125.049  40.206   4.830  1.00  0.00     0.003 C 
ATOM     16  C   UNL     1    -124.071  40.897   5.816  1.00  0.00     0.005 C 
ATOM     17  C   UNL     1    -122.655  40.972   5.221  1.00  0.00     0.008 C 
ATOM     18  C   UNL     1    -122.047  39.590   4.812  1.00  0.00    -0.024 C 
ATOM     19  C   UNL     1    -120.690  39.783   3.937  1.00  0.00    -0.024 C 
ATOM     20  C   UNL     1    -119.564  40.566   4.727  1.00  0.00     0.008 C 
ATOM     21  C   UNL     1    -118.150  40.507   4.083  1.00  0.00     0.007 C 
ATOM     22  C   UNL     1    -120.951  40.658   2.648  1.00  0.00     0.012 C 
ATOM     23  C   UNL     1    -121.745  38.823   6.149  1.00  0.00     0.012 C 
ATOM     24  C   UNL     1    -126.904  41.948   5.162  1.00  0.00     0.014 C 
ATOM     25  C   UNL     1    -127.020  39.855   6.517  1.00  0.00     0.014 C 
ATOM     26  C   UNL     1    -124.711  37.768   5.747  1.00  0.00     0.012 C 
ATOM     27  C   UNL     1    -117.508  38.282   5.131  1.00  0.00     0.011 C 
ENDROOT
BRANCH   1  28
ATOM     28  C   UNL     1    -118.576  36.666   0.958  1.00  0.00    -0.077 C 
ATOM     29  C   UNL     1    -118.900  37.663  -0.124  1.00  0.00     0.039 C 
ATOM     30  C   UNL     1    -118.785  35.361   0.707  1.00  0.00     0.008 C 
ENDBRANCH   1  28
BRANCH  13  31
ATOM     31  O   UNL     1    -128.801  39.849   4.279  1.00  0.00    -0.393 OA
ATOM     32  H   UNL     1    -128.898  40.202   5.201  1.00  0.00     0.210 HD
ENDBRANCH  13  31
TORSDOF 2
ENDMDL
MODEL 5
REMARK VINA RESULT:    -3.897     11.153     14.613
REMARK INTER + INTRA:          -4.768
REMARK INTER:                  -4.231
REMARK INTRA:                  -0.537
REMARK UNBOUND:                -0.529
REMARK SMILES C=C(C)[C@H]1CC[C@@]2(C)CC[C@@]3(C)[C@@H](CC[C@H]4[C@]5(C)CC[C@@H](O)C(C)(C)[C@H]5CC[C@@]43C)[C@H]12
REMARK SMILES IDX 4 1 5 2 6 3 7 4 31 5 13 6 14 7 15 8 16 9 17 10 19 11 20 12
REMARK SMILES IDX 21 13 23 14 26 15 27 16 28 17 29 18 11 19 10 20 9 21 12 22
REMARK SMILES IDX 30 23 24 24 25 25 18 26 8 27 2 28 3 29 1 30 22 31
REMARK H PARENT 22 32
REMARK Flexibility Score: inf
ROOT
ATOM      1  C   UNL     1    -129.087  37.388   5.924  1.00  0.00     0.018 C 
ATOM      2  C   UNL     1    -130.343  36.499   5.730  1.00  0.00     0.009 C 
ATOM      3  C   UNL     1    -130.059  35.589   4.520  1.00  0.00     0.008 C 
ATOM      4  C   UNL     1    -128.534  35.613   4.366  1.00  0.00    -0.029 C 
ATOM      5  C   UNL     1    -128.224  37.085   4.684  1.00  0.00     0.006 C 
ATOM      6  C   UNL     1    -126.691  37.339   4.705  1.00  0.00    -0.000 C 
ATOM      7  C   UNL     1    -126.316  38.758   5.172  1.00  0.00     0.005 C 
ATOM      8  C   UNL     1    -124.794  38.945   5.272  1.00  0.00     0.005 C 
ATOM      9  C   UNL     1    -124.042  38.566   3.961  1.00  0.00     0.002 C 
ATOM     10  C   UNL     1    -122.493  38.958   3.936  1.00  0.00    -0.026 C 
ATOM     11  C   UNL     1    -122.359  40.503   4.154  1.00  0.00     0.010 C 
ATOM     12  C   UNL     1    -120.962  41.064   3.854  1.00  0.00     0.033 C 
ATOM     13  C   UNL     1    -120.494  40.732   2.435  1.00  0.00     0.120 C 
ATOM     14  C   UNL     1    -120.518  39.201   2.129  1.00  0.00    -0.006 C 
ATOM     15  C   UNL     1    -121.954  38.636   2.487  1.00  0.00     0.003 C 
ATOM     16  C   UNL     1    -122.190  37.151   2.106  1.00  0.00     0.005 C 
ATOM     17  C   UNL     1    -123.691  36.816   2.110  1.00  0.00     0.008 C 
ATOM     18  C   UNL     1    -124.416  37.099   3.467  1.00  0.00    -0.024 C 
ATOM     19  C   UNL     1    -126.030  36.996   3.301  1.00  0.00    -0.024 C 
ATOM     20  C   UNL     1    -126.501  35.565   2.816  1.00  0.00     0.008 C 
ATOM     21  C   UNL     1    -128.028  35.300   2.941  1.00  0.00     0.007 C 
ATOM     22  C   UNL     1    -126.563  37.986   2.190  1.00  0.00     0.012 C 
ATOM     23  C   UNL     1    -123.891  36.025   4.486  1.00  0.00     0.012 C 
ATOM     24  C   UNL     1    -120.253  39.038   0.605  1.00  0.00     0.014 C 
ATOM     25  C   UNL     1    -119.369  38.468   2.869  1.00  0.00     0.014 C 
ATOM     26  C   UNL     1    -121.690  38.236   5.069  1.00  0.00     0.012 C 
ATOM     27  C   UNL     1    -127.940  34.579   5.377  1.00  0.00     0.011 C 
ENDROOT
BRANCH   1  28
ATOM     28  C   UNL     1    -129.457  38.861   6.100  1.00  0.00    -0.077 C 
ATOM     29  C   UNL     1    -129.852  39.686   4.902  1.00  0.00     0.039 C 
ATOM     30  C   UNL     1    -129.397  39.467   7.300  1.00  0.00     0.008 C 
ENDBRANCH   1  28
BRANCH  13  31
ATOM     31  O   UNL     1    -119.199  41.258   2.262  1.00  0.00    -0.393 OA
ATOM     32  H   UNL     1    -118.555  40.510   2.364  1.00  0.00     0.210 HD
ENDBRANCH  13  31
TORSDOF 2
ENDMDL
MODEL 6
REMARK VINA RESULT:    -3.813      2.145      4.284
REMARK INTER + INTRA:          -4.677
REMARK INTER:                  -4.147
REMARK INTRA:                  -0.530
REMARK UNBOUND:                -0.529
REMARK SMILES C=C(C)[C@H]1CC[C@@]2(C)CC[C@@]3(C)[C@@H](CC[C@H]4[C@]5(C)CC[C@@H](O)C(C)(C)[C@H]5CC[C@@]43C)[C@H]12
REMARK SMILES IDX 4 1 5 2 6 3 7 4 31 5 13 6 14 7 15 8 16 9 17 10 19 11 20 12
REMARK SMILES IDX 21 13 23 14 26 15 27 16 28 17 29 18 11 19 10 20 9 21 12 22
REMARK SMILES IDX 30 23 24 24 25 25 18 26 8 27 2 28 3 29 1 30 22 31
REMARK H PARENT 22 32
REMARK Flexibility Score: inf
ROOT
ATOM      1  C   UNL     1    -124.084  37.267  16.226  1.00  0.00     0.018 C 
ATOM      2  C   UNL     1    -123.106  36.077  16.401  1.00  0.00     0.009 C 
ATOM      3  C   UNL     1    -123.912  34.930  17.039  1.00  0.00     0.008 C 
ATOM      4  C   UNL     1    -125.377  35.287  16.766  1.00  0.00    -0.029 C 
ATOM      5  C   UNL     1    -125.357  36.812  16.966  1.00  0.00     0.006 C 
ATOM      6  C   UNL     1    -126.738  37.437  16.624  1.00  0.00    -0.000 C 
ATOM      7  C   UNL     1    -126.733  38.976  16.655  1.00  0.00     0.005 C 
ATOM      8  C   UNL     1    -128.085  39.563  16.220  1.00  0.00     0.005 C 
ATOM      9  C   UNL     1    -129.290  38.987  17.024  1.00  0.00     0.002 C 
ATOM     10  C   UNL     1    -130.684  39.727  16.771  1.00  0.00    -0.026 C 
ATOM     11  C   UNL     1    -130.524  41.242  17.136  1.00  0.00     0.010 C 
ATOM     12  C   UNL     1    -131.849  42.011  17.232  1.00  0.00     0.033 C 
ATOM     13  C   UNL     1    -132.821  41.373  18.227  1.00  0.00     0.120 C 
ATOM     14  C   UNL     1    -133.111  39.869  17.915  1.00  0.00    -0.006 C 
ATOM     15  C   UNL     1    -131.731  39.106  17.777  1.00  0.00     0.003 C 
ATOM     16  C   UNL     1    -131.843  37.569  17.607  1.00  0.00     0.005 C 
ATOM     17  C   UNL     1    -130.494  36.886  17.887  1.00  0.00     0.008 C 
ATOM     18  C   UNL     1    -129.311  37.395  16.999  1.00  0.00    -0.024 C 
ATOM     19  C   UNL     1    -127.885  36.841  17.549  1.00  0.00    -0.024 C 
ATOM     20  C   UNL     1    -127.809  35.260  17.556  1.00  0.00     0.008 C 
ATOM     21  C   UNL     1    -126.384  34.673  17.762  1.00  0.00     0.007 C 
ATOM     22  C   UNL     1    -127.644  37.256  19.054  1.00  0.00     0.012 C 
ATOM     23  C   UNL     1    -129.589  36.872  15.543  1.00  0.00     0.012 C 
ATOM     24  C   UNL     1    -133.908  39.300  19.123  1.00  0.00     0.014 C 
ATOM     25  C   UNL     1    -134.019  39.726  16.666  1.00  0.00     0.014 C 
ATOM     26  C   UNL     1    -131.131  39.633  15.275  1.00  0.00     0.012 C 
ATOM     27  C   UNL     1    -125.716  34.815  15.314  1.00  0.00     0.011 C 
ENDROOT
BRANCH   1  28
ATOM     28  C   UNL     1    -123.481  38.576  16.738  1.00  0.00    -0.077 C 
ATOM     29  C   UNL     1    -123.152  39.683  15.770  1.00  0.00     0.039 C 
ATOM     30  C   UNL     1    -123.187  38.757  18.039  1.00  0.00     0.008 C 
ENDBRANCH   1  28
BRANCH  13  31
ATOM     31  O   UNL     1    -134.013  42.124  18.226  1.00  0.00    -0.393 OA
ATOM     32  H   UNL     1    -133.804  43.018  18.601  1.00  0.00     0.210 HD
ENDBRANCH  13  31
TORSDOF 2
ENDMDL
MODEL 7
REMARK VINA RESULT:    -3.764      2.873      9.018
REMARK INTER + INTRA:          -4.623
REMARK INTER:                  -4.120
REMARK INTRA:                  -0.503
REMARK UNBOUND:                -0.529
REMARK SMILES C=C(C)[C@H]1CC[C@@]2(C)CC[C@@]3(C)[C@@H](CC[C@H]4[C@]5(C)CC[C@@H](O)C(C)(C)[C@H]5CC[C@@]43C)[C@H]12
REMARK SMILES IDX 4 1 5 2 6 3 7 4 31 5 13 6 14 7 15 8 16 9 17 10 19 11 20 12
REMARK SMILES IDX 21 13 23 14 26 15 27 16 28 17 29 18 11 19 10 20 9 21 12 22
REMARK SMILES IDX 30 23 24 24 25 25 18 26 8 27 2 28 3 29 1 30 22 31
REMARK H PARENT 22 32
REMARK Flexibility Score: inf
ROOT
ATOM      1  C   UNL     1    -133.030  37.456  17.757  1.00  0.00     0.018 C 
ATOM      2  C   UNL     1    -134.526  37.848  17.649  1.00  0.00     0.009 C 
ATOM      3  C   UNL     1    -134.586  39.146  16.822  1.00  0.00     0.008 C 
ATOM      4  C   UNL     1    -133.246  39.194  16.079  1.00  0.00    -0.029 C 
ATOM      5  C   UNL     1    -132.286  38.665  17.159  1.00  0.00     0.006 C 
ATOM      6  C   UNL     1    -130.846  38.510  16.596  1.00  0.00    -0.000 C 
ATOM      7  C   UNL     1    -129.876  37.836  17.584  1.00  0.00     0.005 C 
ATOM      8  C   UNL     1    -128.489  37.611  16.962  1.00  0.00     0.005 C 
ATOM      9  C   UNL     1    -127.869  38.909  16.360  1.00  0.00     0.002 C 
ATOM     10  C   UNL     1    -126.341  38.779  15.911  1.00  0.00    -0.026 C 
ATOM     11  C   UNL     1    -125.485  38.351  17.150  1.00  0.00     0.010 C 
ATOM     12  C   UNL     1    -123.969  38.481  16.945  1.00  0.00     0.033 C 
ATOM     13  C   UNL     1    -123.557  39.897  16.537  1.00  0.00     0.120 C 
ATOM     14  C   UNL     1    -124.302  40.404  15.260  1.00  0.00    -0.006 C 
ATOM     15  C   UNL     1    -125.859  40.220  15.477  1.00  0.00     0.003 C 
ATOM     16  C   UNL     1    -126.754  40.807  14.355  1.00  0.00     0.005 C 
ATOM     17  C   UNL     1    -128.210  40.946  14.830  1.00  0.00     0.008 C 
ATOM     18  C   UNL     1    -128.859  39.615  15.333  1.00  0.00    -0.024 C 
ATOM     19  C   UNL     1    -130.276  39.900  16.078  1.00  0.00    -0.024 C 
ATOM     20  C   UNL     1    -131.332  40.599  15.129  1.00  0.00     0.008 C 
ATOM     21  C   UNL     1    -132.791  40.611  15.668  1.00  0.00     0.007 C 
ATOM     22  C   UNL     1    -130.104  40.903  17.287  1.00  0.00     0.012 C 
ATOM     23  C   UNL     1    -129.069  38.714  14.062  1.00  0.00     0.012 C 
ATOM     24  C   UNL     1    -123.967  41.915  15.108  1.00  0.00     0.014 C 
ATOM     25  C   UNL     1    -123.771  39.693  13.988  1.00  0.00     0.014 C 
ATOM     26  C   UNL     1    -126.152  37.700  14.793  1.00  0.00     0.012 C 
ATOM     27  C   UNL     1    -133.375  38.291  14.810  1.00  0.00     0.011 C 
ENDROOT
BRANCH   1  28
ATOM     28  C   UNL     1    -132.637  37.112  19.195  1.00  0.00    -0.077 C 
ATOM     29  C   UNL     1    -132.497  35.670  19.612  1.00  0.00     0.039 C 
ATOM     30  C   UNL     1    -132.454  38.066  20.125  1.00  0.00     0.008 C 
ENDBRANCH   1  28
BRANCH  13  31
ATOM     31  O   UNL     1    -122.162  39.914  16.343  1.00  0.00    -0.393 OA
ATOM     32  H   UNL     1    -121.926  40.783  15.927  1.00  0.00     0.210 HD
ENDBRANCH  13  31
TORSDOF 2
ENDMDL
MODEL 8
REMARK VINA RESULT:    -3.756      2.700      7.735
REMARK INTER + INTRA:          -4.614
REMARK INTER:                  -4.088
REMARK INTRA:                  -0.526
REMARK UNBOUND:                -0.529
REMARK SMILES C=C(C)[C@H]1CC[C@@]2(C)CC[C@@]3(C)[C@@H](CC[C@H]4[C@]5(C)CC[C@@H](O)C(C)(C)[C@H]5CC[C@@]43C)[C@H]12
REMARK SMILES IDX 4 1 5 2 6 3 7 4 31 5 13 6 14 7 15 8 16 9 17 10 19 11 20 12
REMARK SMILES IDX 21 13 23 14 26 15 27 16 28 17 29 18 11 19 10 20 9 21 12 22
REMARK SMILES IDX 30 23 24 24 25 25 18 26 8 27 2 28 3 29 1 30 22 31
REMARK H PARENT 22 32
REMARK Flexibility Score: inf
ROOT
ATOM      1  C   UNL     1    -129.787  39.403  17.781  1.00  0.00     0.018 C 
ATOM      2  C   UNL     1    -130.989  38.703  18.467  1.00  0.00     0.009 C 
ATOM      3  C   UNL     1    -130.621  37.212  18.593  1.00  0.00     0.008 C 
ATOM      4  C   UNL     1    -129.095  37.176  18.450  1.00  0.00    -0.029 C 
ATOM      5  C   UNL     1    -128.871  38.238  17.360  1.00  0.00     0.006 C 
ATOM      6  C   UNL     1    -127.355  38.471  17.113  1.00  0.00    -0.000 C 
ATOM      7  C   UNL     1    -127.068  39.634  16.145  1.00  0.00     0.005 C 
ATOM      8  C   UNL     1    -125.562  39.900  15.998  1.00  0.00     0.005 C 
ATOM      9  C   UNL     1    -124.750  38.628  15.607  1.00  0.00     0.002 C 
ATOM     10  C   UNL     1    -123.224  38.896  15.219  1.00  0.00    -0.026 C 
ATOM     11  C   UNL     1    -123.177  39.902  14.019  1.00  0.00     0.010 C 
ATOM     12  C   UNL     1    -121.802  40.018  13.346  1.00  0.00     0.033 C 
ATOM     13  C   UNL     1    -121.273  38.664  12.865  1.00  0.00     0.120 C 
ATOM     14  C   UNL     1    -121.209  37.597  14.004  1.00  0.00    -0.006 C 
ATOM     15  C   UNL     1    -122.624  37.526  14.712  1.00  0.00     0.003 C 
ATOM     16  C   UNL     1    -122.772  36.409  15.777  1.00  0.00     0.005 C 
ATOM     17  C   UNL     1    -124.252  36.156  16.105  1.00  0.00     0.008 C 
ATOM     18  C   UNL     1    -125.033  37.417  16.601  1.00  0.00    -0.024 C 
ATOM     19  C   UNL     1    -126.634  37.135  16.645  1.00  0.00    -0.024 C 
ATOM     20  C   UNL     1    -127.015  35.945  17.616  1.00  0.00     0.008 C 
ATOM     21  C   UNL     1    -128.529  35.830  17.950  1.00  0.00     0.007 C 
ATOM     22  C   UNL     1    -127.182  36.684  15.233  1.00  0.00     0.012 C 
ATOM     23  C   UNL     1    -124.485  37.744  18.037  1.00  0.00     0.012 C 
ATOM     24  C   UNL     1    -120.889  36.232  13.331  1.00  0.00     0.014 C 
ATOM     25  C   UNL     1    -120.047  37.901  14.986  1.00  0.00     0.014 C 
ATOM     26  C   UNL     1    -122.421  39.521  16.408  1.00  0.00     0.012 C 
ATOM     27  C   UNL     1    -128.480  37.522  19.846  1.00  0.00     0.011 C 
ENDROOT
BRANCH   1  28
ATOM     28  C   UNL     1    -130.238  40.308  16.634  1.00  0.00    -0.077 C 
ATOM     29  C   UNL     1    -130.592  39.708  15.297  1.00  0.00     0.039 C 
ATOM     30  C   UNL     1    -130.286  41.645  16.766  1.00  0.00     0.008 C 
ENDBRANCH   1  28
BRANCH  13  31
ATOM     31  O   UNL     1    -120.002  38.863  12.292  1.00  0.00    -0.393 OA
ATOM     32  H   UNL     1    -119.338  38.867  13.029  1.00  0.00     0.210 HD
ENDBRANCH  13  31
TORSDOF 2
ENDMDL
MODEL 9
REMARK VINA RESULT:    -3.725      2.125      4.946
REMARK INTER + INTRA:          -4.581
REMARK INTER:                  -4.057
REMARK INTRA:                  -0.524
REMARK UNBOUND:                -0.529
REMARK SMILES C=C(C)[C@H]1CC[C@@]2(C)CC[C@@]3(C)[C@@H](CC[C@H]4[C@]5(C)CC[C@@H](O)C(C)(C)[C@H]5CC[C@@]43C)[C@H]12
REMARK SMILES IDX 4 1 5 2 6 3 7 4 31 5 13 6 14 7 15 8 16 9 17 10 19 11 20 12
REMARK SMILES IDX 21 13 23 14 26 15 27 16 28 17 29 18 11 19 10 20 9 21 12 22
REMARK SMILES IDX 30 23 24 24 25 25 18 26 8 27 2 28 3 29 1 30 22 31
REMARK H PARENT 22 32
REMARK Flexibility Score: inf
ROOT
ATOM      1  C   UNL     1    -123.724  37.858  17.345  1.00  0.00     0.018 C 
ATOM      2  C   UNL     1    -122.535  38.128  16.387  1.00  0.00     0.009 C 
ATOM      3  C   UNL     1    -123.143  38.522  15.027  1.00  0.00     0.008 C 
ATOM      4  C   UNL     1    -124.580  38.943  15.351  1.00  0.00    -0.029 C 
ATOM      5  C   UNL     1    -124.960  37.910  16.426  1.00  0.00     0.006 C 
ATOM      6  C   UNL     1    -126.369  38.205  17.009  1.00  0.00    -0.000 C 
ATOM      7  C   UNL     1    -126.738  37.299  18.197  1.00  0.00     0.005 C 
ATOM      8  C   UNL     1    -128.094  37.680  18.810  1.00  0.00     0.005 C 
ATOM      9  C   UNL     1    -129.248  37.732  17.763  1.00  0.00     0.002 C 
ATOM     10  C   UNL     1    -130.712  37.897  18.381  1.00  0.00    -0.026 C 
ATOM     11  C   UNL     1    -130.985  36.703  19.358  1.00  0.00     0.010 C 
ATOM     12  C   UNL     1    -132.451  36.564  19.790  1.00  0.00     0.033 C 
ATOM     13  C   UNL     1    -133.400  36.439  18.595  1.00  0.00     0.120 C 
ATOM     14  C   UNL     1    -133.264  37.622  17.584  1.00  0.00    -0.006 C 
ATOM     15  C   UNL     1    -131.739  37.775  17.187  1.00  0.00     0.003 C 
ATOM     16  C   UNL     1    -131.449  38.818  16.076  1.00  0.00     0.005 C 
ATOM     17  C   UNL     1    -130.045  38.612  15.483  1.00  0.00     0.008 C 
ATOM     18  C   UNL     1    -128.883  38.669  16.529  1.00  0.00    -0.024 C 
ATOM     19  C   UNL     1    -127.483  38.160  15.876  1.00  0.00    -0.024 C 
ATOM     20  C   UNL     1    -127.034  39.038  14.639  1.00  0.00     0.008 C 
ATOM     21  C   UNL     1    -125.568  38.812  14.172  1.00  0.00     0.007 C 
ATOM     22  C   UNL     1    -127.613  36.695  15.296  1.00  0.00     0.012 C 
ATOM     23  C   UNL     1    -128.771  40.167  16.989  1.00  0.00     0.012 C 
ATOM     24  C   UNL     1    -134.099  37.244  16.328  1.00  0.00     0.014 C 
ATOM     25  C   UNL     1    -133.880  38.922  18.163  1.00  0.00     0.014 C 
ATOM     26  C   UNL     1    -130.857  39.229  19.189  1.00  0.00     0.012 C 
ATOM     27  C   UNL     1    -124.539  40.426  15.845  1.00  0.00     0.011 C 
ENDROOT
BRANCH   1  28
ATOM     28  C   UNL     1    -123.550  36.543  18.107  1.00  0.00    -0.077 C 
ATOM     29  C   UNL     1    -123.377  36.559  19.604  1.00  0.00     0.039 C 
ATOM     30  C   UNL     1    -123.499  35.359  17.471  1.00  0.00     0.008 C 
ENDBRANCH   1  28
BRANCH  13  31
ATOM     31  O   UNL     1    -134.718  36.347  19.084  1.00  0.00    -0.393 OA
ATOM     32  H   UNL     1    -134.750  36.826  19.952  1.00  0.00     0.210 HD
ENDBRANCH  13  31
TORSDOF 2
ENDMDL
