MODEL 1
REMARK VINA RESULT:    -5.255      0.000      0.000
REMARK INTER + INTRA:          -9.287
REMARK INTER:                  -8.019
REMARK INTRA:                  -1.268
REMARK UNBOUND:                -1.268
REMARK SMILES OC[C@@H]1O[C@@](CO)(O[C@H]2O[C@H](CO)[C@H](O)[C@H](O)[C@H]2O)[C@@H](O)[C@H]1O
REMARK SMILES IDX 8 1 9 2 11 3 14 4 10 5 16 6 18 7 12 8 13 9 15 11 17 13 19 15
REMARK SMILES IDX 5 17 20 18 4 19 22 20 3 21 6 22 7 23 21 25 23 27 2 29 1 30
REMARK H PARENT 13 10 15 12 17 14 19 16 7 24 21 26 23 28 1 31
REMARK Flexibility Score: inf
ROOT
ATOM      1  O   UNL     1      22.861  46.963  37.012  1.00  0.00    -0.313 OA
ENDROOT
BRANCH   1   2
ATOM      2  C   UNL     1      23.569  48.090  37.528  1.00  0.00     0.285 C 
ATOM      3  C   UNL     1      21.603  49.376  37.736  1.00  0.00     0.178 C 
ATOM      4  C   UNL     1      21.646  49.361  39.279  1.00  0.00     0.177 C 
ATOM      5  O   UNL     1      22.914  49.308  37.189  1.00  0.00    -0.341 OA
ATOM      6  C   UNL     1      22.361  48.082  39.752  1.00  0.00     0.179 C 
ATOM      7  C   UNL     1      23.726  47.968  39.061  1.00  0.00     0.202 C 
BRANCH   3   8
ATOM      8  C   UNL     1      20.917  50.654  37.229  1.00  0.00     0.191 C 
BRANCH   8   9
ATOM      9  O   UNL     1      21.850  51.687  37.073  1.00  0.00    -0.394 OA
ATOM     10  H   UNL     1      22.745  51.291  37.245  1.00  0.00     0.210 HD
ENDBRANCH   8   9
ENDBRANCH   3   8
BRANCH   4  11
ATOM     11  O   UNL     1      22.324  50.501  39.750  1.00  0.00    -0.387 OA
ATOM     12  H   UNL     1      21.840  50.811  40.559  1.00  0.00     0.211 HD
ENDBRANCH   4  11
BRANCH   6  13
ATOM     13  O   UNL     1      22.539  48.103  41.145  1.00  0.00    -0.387 OA
ATOM     14  H   UNL     1      21.942  47.404  41.519  1.00  0.00     0.211 HD
ENDBRANCH   6  13
BRANCH   7  15
ATOM     15  O   UNL     1      24.315  46.739  39.401  1.00  0.00    -0.385 OA
ATOM     16  H   UNL     1      24.859  46.898  40.216  1.00  0.00     0.211 HD
ENDBRANCH   7  15
ENDBRANCH   1   2
BRANCH   1  17
ATOM     17  C   UNL     1      23.490  46.319  35.902  1.00  0.00     0.224 C 
ATOM     18  C   UNL     1      22.497  46.024  34.755  1.00  0.00     0.208 C 
ATOM     19  O   UNL     1      24.454  47.221  35.389  1.00  0.00    -0.337 OA
ATOM     20  C   UNL     1      23.350  46.190  33.521  1.00  0.00     0.180 C 
ATOM     21  C   UNL     1      24.392  47.214  33.976  1.00  0.00     0.179 C 
BRANCH  17  22
ATOM     22  C   UNL     1      24.253  45.032  36.327  1.00  0.00     0.225 C 
BRANCH  22  23
ATOM     23  O   UNL     1      23.826  44.597  37.590  1.00  0.00    -0.391 OA
ATOM     24  H   UNL     1      23.634  45.410  38.125  1.00  0.00     0.210 HD
ENDBRANCH  22  23
ENDBRANCH  17  22
BRANCH  18  25
ATOM     25  O   UNL     1      21.410  46.921  34.751  1.00  0.00    -0.385 OA
ATOM     26  H   UNL     1      21.731  47.801  35.084  1.00  0.00     0.211 HD
ENDBRANCH  18  25
BRANCH  20  27
ATOM     27  O   UNL     1      22.596  46.660  32.433  1.00  0.00    -0.387 OA
ATOM     28  H   UNL     1      21.803  47.118  32.815  1.00  0.00     0.211 HD
ENDBRANCH  20  27
BRANCH  21  29
ATOM     29  C   UNL     1      25.786  46.926  33.407  1.00  0.00     0.191 C 
BRANCH  29  30
ATOM     30  O   UNL     1      26.583  48.076  33.480  1.00  0.00    -0.394 OA
ATOM     31  H   UNL     1      26.474  48.428  34.402  1.00  0.00     0.210 HD
ENDBRANCH  29  30
ENDBRANCH  21  29
ENDBRANCH   1  17
TORSDOF 13
ENDMDL
MODEL 2
REMARK VINA RESULT:    -5.120      1.913      5.784
REMARK INTER + INTRA:          -9.081
REMARK INTER:                  -7.675
REMARK INTRA:                  -1.406
REMARK UNBOUND:                -1.268
REMARK SMILES OC[C@@H]1O[C@@](CO)(O[C@H]2O[C@H](CO)[C@H](O)[C@H](O)[C@H]2O)[C@@H](O)[C@H]1O
REMARK SMILES IDX 8 1 9 2 11 3 14 4 10 5 16 6 18 7 12 8 13 9 15 11 17 13 19 15
REMARK SMILES IDX 5 17 20 18 4 19 22 20 3 21 6 22 7 23 21 25 23 27 2 29 1 30
REMARK H PARENT 13 10 15 12 17 14 19 16 7 24 21 26 23 28 1 31
REMARK Flexibility Score: inf
ROOT
ATOM      1  O   UNL     1      22.576  47.683  35.773  1.00  0.00    -0.313 OA
ENDROOT
BRANCH   1   2
ATOM      2  C   UNL     1      23.453  48.711  35.312  1.00  0.00     0.285 C 
ATOM      3  C   UNL     1      24.256  47.387  33.533  1.00  0.00     0.178 C 
ATOM      4  C   UNL     1      23.584  48.265  32.455  1.00  0.00     0.177 C 
ATOM      5  O   UNL     1      24.601  48.159  34.676  1.00  0.00    -0.341 OA
ATOM      6  C   UNL     1      22.332  48.930  33.054  1.00  0.00     0.179 C 
ATOM      7  C   UNL     1      22.705  49.662  34.349  1.00  0.00     0.202 C 
BRANCH   3   8
ATOM      8  C   UNL     1      25.525  46.726  32.974  1.00  0.00     0.191 C 
BRANCH   8   9
ATOM      9  O   UNL     1      26.639  47.555  33.166  1.00  0.00    -0.394 OA
ATOM     10  H   UNL     1      26.746  48.084  32.332  1.00  0.00     0.210 HD
ENDBRANCH   8   9
ENDBRANCH   3   8
BRANCH   4  11
ATOM     11  O   UNL     1      24.489  49.244  32.004  1.00  0.00    -0.387 OA
ATOM     12  H   UNL     1      24.537  49.940  32.711  1.00  0.00     0.211 HD
ENDBRANCH   4  11
BRANCH   6  13
ATOM     13  O   UNL     1      21.776  49.843  32.142  1.00  0.00    -0.387 OA
ATOM     14  H   UNL     1      22.165  49.631  31.253  1.00  0.00     0.211 HD
ENDBRANCH   6  13
BRANCH   7  15
ATOM     15  O   UNL     1      21.539  50.158  34.953  1.00  0.00    -0.385 OA
ATOM     16  H   UNL     1      20.988  50.554  34.228  1.00  0.00     0.211 HD
ENDBRANCH   7  15
ENDBRANCH   1   2
BRANCH   1  17
ATOM     17  C   UNL     1      22.476  47.576  37.194  1.00  0.00     0.224 C 
ATOM     18  C   UNL     1      22.934  46.193  37.712  1.00  0.00     0.208 C 
ATOM     19  O   UNL     1      23.360  48.534  37.747  1.00  0.00    -0.337 OA
ATOM     20  C   UNL     1      23.557  46.524  39.046  1.00  0.00     0.180 C 
ATOM     21  C   UNL     1      24.058  47.953  38.831  1.00  0.00     0.179 C 
BRANCH  17  22
ATOM     22  C   UNL     1      21.050  47.922  37.709  1.00  0.00     0.225 C 
BRANCH  22  23
ATOM     23  O   UNL     1      20.879  49.310  37.798  1.00  0.00    -0.391 OA
ATOM     24  H   UNL     1      21.703  49.727  37.433  1.00  0.00     0.210 HD
ENDBRANCH  22  23
ENDBRANCH  17  22
BRANCH  18  25
ATOM     25  O   UNL     1      23.867  45.586  36.847  1.00  0.00    -0.385 OA
ATOM     26  H   UNL     1      23.884  46.100  35.996  1.00  0.00     0.211 HD
ENDBRANCH  18  25
BRANCH  20  27
ATOM     27  O   UNL     1      24.607  45.643  39.356  1.00  0.00    -0.387 OA
ATOM     28  H   UNL     1      24.856  45.820  40.300  1.00  0.00     0.211 HD
ENDBRANCH  20  27
BRANCH  21  29
ATOM     29  C   UNL     1      23.885  48.830  40.076  1.00  0.00     0.191 C 
BRANCH  29  30
ATOM     30  O   UNL     1      25.134  49.116  40.643  1.00  0.00    -0.394 OA
ATOM     31  H   UNL     1      25.508  49.869  40.116  1.00  0.00     0.210 HD
ENDBRANCH  29  30
ENDBRANCH  21  29
ENDBRANCH   1  17
TORSDOF 13
ENDMDL
MODEL 3
REMARK VINA RESULT:    -4.908      1.537      3.697
REMARK INTER + INTRA:          -8.757
REMARK INTER:                  -7.764
REMARK INTRA:                  -0.994
REMARK UNBOUND:                -1.268
REMARK SMILES OC[C@@H]1O[C@@](CO)(O[C@H]2O[C@H](CO)[C@H](O)[C@H](O)[C@H]2O)[C@@H](O)[C@H]1O
REMARK SMILES IDX 8 1 9 2 11 3 14 4 10 5 16 6 18 7 12 8 13 9 15 11 17 13 19 15
REMARK SMILES IDX 5 17 20 18 4 19 22 20 3 21 6 22 7 23 21 25 23 27 2 29 1 30
REMARK H PARENT 13 10 15 12 17 14 19 16 7 24 21 26 23 28 1 31
REMARK Flexibility Score: inf
ROOT
ATOM      1  O   UNL     1      24.259  47.691  35.927  1.00  0.00    -0.313 OA
ENDROOT
BRANCH   1   2
ATOM      2  C   UNL     1      22.989  47.617  36.575  1.00  0.00     0.285 C 
ATOM      3  C   UNL     1      23.904  46.625  38.509  1.00  0.00     0.178 C 
ATOM      4  C   UNL     1      23.639  47.870  39.384  1.00  0.00     0.177 C 
ATOM      5  O   UNL     1      22.935  46.515  37.474  1.00  0.00    -0.341 OA
ATOM      6  C   UNL     1      23.656  49.125  38.494  1.00  0.00     0.179 C 
ATOM      7  C   UNL     1      22.688  48.939  37.318  1.00  0.00     0.202 C 
BRANCH   3   8
ATOM      8  C   UNL     1      23.869  45.349  39.364  1.00  0.00     0.191 C 
BRANCH   8   9
ATOM      9  O   UNL     1      23.829  44.210  38.549  1.00  0.00    -0.394 OA
ATOM     10  H   UNL     1      22.984  43.734  38.766  1.00  0.00     0.210 HD
ENDBRANCH   8   9
ENDBRANCH   3   8
BRANCH   4  11
ATOM     11  O   UNL     1      22.394  47.745  40.029  1.00  0.00    -0.387 OA
ATOM     12  H   UNL     1      21.901  47.019  39.566  1.00  0.00     0.211 HD
ENDBRANCH   4  11
BRANCH   6  13
ATOM     13  O   UNL     1      23.282  50.259  39.234  1.00  0.00    -0.387 OA
ATOM     14  H   UNL     1      23.205  49.968  40.181  1.00  0.00     0.211 HD
ENDBRANCH   6  13
BRANCH   7  15
ATOM     15  O   UNL     1      22.803  50.032  36.446  1.00  0.00    -0.385 OA
ATOM     16  H   UNL     1      21.967  50.060  35.910  1.00  0.00     0.211 HD
ENDBRANCH   7  15
ENDBRANCH   1   2
BRANCH   1  17
ATOM     17  C   UNL     1      24.213  47.563  34.505  1.00  0.00     0.224 C 
ATOM     18  C   UNL     1      24.549  46.130  34.033  1.00  0.00     0.208 C 
ATOM     19  O   UNL     1      22.879  47.824  34.106  1.00  0.00    -0.337 OA
ATOM     20  C   UNL     1      23.678  45.966  32.811  1.00  0.00     0.180 C 
ATOM     21  C   UNL     1      22.494  46.882  33.125  1.00  0.00     0.179 C 
BRANCH  17  22
ATOM     22  C   UNL     1      25.114  48.612  33.793  1.00  0.00     0.225 C 
BRANCH  22  23
ATOM     23  O   UNL     1      26.372  48.068  33.502  1.00  0.00    -0.391 OA
ATOM     24  H   UNL     1      26.246  47.090  33.390  1.00  0.00     0.210 HD
ENDBRANCH  22  23
ENDBRANCH  17  22
BRANCH  18  25
ATOM     25  O   UNL     1      24.243  45.165  35.013  1.00  0.00    -0.385 OA
ATOM     26  H   UNL     1      25.085  44.704  35.272  1.00  0.00     0.211 HD
ENDBRANCH  18  25
BRANCH  20  27
ATOM     27  O   UNL     1      23.276  44.630  32.642  1.00  0.00    -0.387 OA
ATOM     28  H   UNL     1      22.360  44.657  32.260  1.00  0.00     0.211 HD
ENDBRANCH  20  27
BRANCH  21  29
ATOM     29  C   UNL     1      21.977  47.620  31.885  1.00  0.00     0.191 C 
BRANCH  29  30
ATOM     30  O   UNL     1      21.995  49.003  32.105  1.00  0.00    -0.394 OA
ATOM     31  H   UNL     1      22.589  49.149  32.887  1.00  0.00     0.210 HD
ENDBRANCH  29  30
ENDBRANCH  21  29
ENDBRANCH   1  17
TORSDOF 13
ENDMDL
MODEL 4
REMARK VINA RESULT:    -4.806      1.957      5.730
REMARK INTER + INTRA:          -8.603
REMARK INTER:                  -7.571
REMARK INTRA:                  -1.031
REMARK UNBOUND:                -1.268
REMARK SMILES OC[C@@H]1O[C@@](CO)(O[C@H]2O[C@H](CO)[C@H](O)[C@H](O)[C@H]2O)[C@@H](O)[C@H]1O
REMARK SMILES IDX 8 1 9 2 11 3 14 4 10 5 16 6 18 7 12 8 13 9 15 11 17 13 19 15
REMARK SMILES IDX 5 17 20 18 4 19 22 20 3 21 6 22 7 23 21 25 23 27 2 29 1 30
REMARK H PARENT 13 10 15 12 17 14 19 16 7 24 21 26 23 28 1 31
REMARK Flexibility Score: inf
ROOT
ATOM      1  O   UNL     1      24.231  47.212  35.574  1.00  0.00    -0.313 OA
ENDROOT
BRANCH   1   2
ATOM      2  C   UNL     1      23.645  47.633  34.343  1.00  0.00     0.285 C 
ATOM      3  C   UNL     1      24.880  49.642  34.307  1.00  0.00     0.178 C 
ATOM      4  C   UNL     1      25.730  49.205  33.094  1.00  0.00     0.177 C 
ATOM      5  O   UNL     1      23.586  49.053  34.260  1.00  0.00    -0.341 OA
ATOM      6  C   UNL     1      25.836  47.669  33.079  1.00  0.00     0.179 C 
ATOM      7  C   UNL     1      24.433  47.052  33.147  1.00  0.00     0.202 C 
BRANCH   3   8
ATOM      8  C   UNL     1      24.732  51.170  34.338  1.00  0.00     0.191 C 
BRANCH   8   9
ATOM      9  O   UNL     1      25.965  51.790  34.092  1.00  0.00    -0.394 OA
ATOM     10  H   UNL     1      26.447  51.217  33.441  1.00  0.00     0.210 HD
ENDBRANCH   8   9
ENDBRANCH   3   8
BRANCH   4  11
ATOM     11  O   UNL     1      25.136  49.664  31.903  1.00  0.00    -0.387 OA
ATOM     12  H   UNL     1      24.182  49.847  32.108  1.00  0.00     0.211 HD
ENDBRANCH   4  11
BRANCH   6  13
ATOM     13  O   UNL     1      26.487  47.232  31.914  1.00  0.00    -0.387 OA
ATOM     14  H   UNL     1      25.938  47.545  31.147  1.00  0.00     0.211 HD
ENDBRANCH   6  13
BRANCH   7  15
ATOM     15  O   UNL     1      24.546  45.658  33.260  1.00  0.00    -0.385 OA
ATOM     16  H   UNL     1      25.069  45.348  32.475  1.00  0.00     0.211 HD
ENDBRANCH   7  15
ENDBRANCH   1   2
BRANCH   1  17
ATOM     17  C   UNL     1      23.363  47.285  36.706  1.00  0.00     0.224 C 
ATOM     18  C   UNL     1      23.432  46.013  37.582  1.00  0.00     0.208 C 
ATOM     19  O   UNL     1      23.814  48.361  37.509  1.00  0.00    -0.337 OA
ATOM     20  C   UNL     1      23.223  46.554  38.976  1.00  0.00     0.180 C 
ATOM     21  C   UNL     1      23.788  47.971  38.868  1.00  0.00     0.179 C 
BRANCH  17  22
ATOM     22  C   UNL     1      21.896  47.605  36.300  1.00  0.00     0.225 C 
BRANCH  22  23
ATOM     23  O   UNL     1      21.607  48.960  36.518  1.00  0.00    -0.391 OA
ATOM     24  H   UNL     1      22.160  49.480  35.879  1.00  0.00     0.210 HD
ENDBRANCH  22  23
ENDBRANCH  17  22
BRANCH  18  25
ATOM     25  O   UNL     1      24.675  45.358  37.467  1.00  0.00    -0.385 OA
ATOM     26  H   UNL     1      24.784  45.059  36.526  1.00  0.00     0.211 HD
ENDBRANCH  18  25
BRANCH  20  27
ATOM     27  O   UNL     1      23.911  45.788  39.932  1.00  0.00    -0.387 OA
ATOM     28  H   UNL     1      24.678  45.370  39.462  1.00  0.00     0.211 HD
ENDBRANCH  20  27
BRANCH  21  29
ATOM     29  C   UNL     1      22.975  48.990  39.674  1.00  0.00     0.191 C 
BRANCH  29  30
ATOM     30  O   UNL     1      21.605  48.723  39.548  1.00  0.00    -0.394 OA
ATOM     31  H   UNL     1      21.270  49.337  38.844  1.00  0.00     0.210 HD
ENDBRANCH  29  30
ENDBRANCH  21  29
ENDBRANCH   1  17
TORSDOF 13
ENDMDL
MODEL 5
REMARK VINA RESULT:    -4.707      1.652      3.393
REMARK INTER + INTRA:          -8.451
REMARK INTER:                  -7.188
REMARK INTRA:                  -1.263
REMARK UNBOUND:                -1.268
REMARK SMILES OC[C@@H]1O[C@@](CO)(O[C@H]2O[C@H](CO)[C@H](O)[C@H](O)[C@H]2O)[C@@H](O)[C@H]1O
REMARK SMILES IDX 8 1 9 2 11 3 14 4 10 5 16 6 18 7 12 8 13 9 15 11 17 13 19 15
REMARK SMILES IDX 5 17 20 18 4 19 22 20 3 21 6 22 7 23 21 25 23 27 2 29 1 30
REMARK H PARENT 13 10 15 12 17 14 19 16 7 24 21 26 23 28 1 31
REMARK Flexibility Score: inf
ROOT
ATOM      1  O   UNL     1      23.892  48.103  36.270  1.00  0.00    -0.313 OA
ENDROOT
BRANCH   1   2
ATOM      2  C   UNL     1      22.749  48.061  37.123  1.00  0.00     0.285 C 
ATOM      3  C   UNL     1      23.888  46.825  38.778  1.00  0.00     0.178 C 
ATOM      4  C   UNL     1      23.887  47.996  39.784  1.00  0.00     0.177 C 
ATOM      5  O   UNL     1      22.751  46.885  37.926  1.00  0.00    -0.341 OA
ATOM      6  C   UNL     1      23.863  49.326  39.010  1.00  0.00     0.179 C 
ATOM      7  C   UNL     1      22.697  49.324  38.013  1.00  0.00     0.202 C 
BRANCH   3   8
ATOM      8  C   UNL     1      23.887  45.479  39.519  1.00  0.00     0.191 C 
BRANCH   8   9
ATOM      9  O   UNL     1      23.624  44.427  38.632  1.00  0.00    -0.394 OA
ATOM     10  H   UNL     1      24.483  44.214  38.181  1.00  0.00     0.210 HD
ENDBRANCH   8   9
ENDBRANCH   3   8
BRANCH   4  11
ATOM     11  O   UNL     1      22.763  47.902  40.627  1.00  0.00    -0.387 OA
ATOM     12  H   UNL     1      22.214  47.145  40.293  1.00  0.00     0.211 HD
ENDBRANCH   4  11
BRANCH   6  13
ATOM     13  O   UNL     1      23.722  50.409  39.895  1.00  0.00    -0.387 OA
ATOM     14  H   UNL     1      22.810  50.775  39.754  1.00  0.00     0.211 HD
ENDBRANCH   6  13
BRANCH   7  15
ATOM     15  O   UNL     1      22.758  50.485  37.226  1.00  0.00    -0.385 OA
ATOM     16  H   UNL     1      22.454  50.229  36.316  1.00  0.00     0.211 HD
ENDBRANCH   7  15
ENDBRANCH   1   2
BRANCH   1  17
ATOM     17  C   UNL     1      23.623  47.818  34.895  1.00  0.00     0.224 C 
ATOM     18  C   UNL     1      23.492  49.102  34.045  1.00  0.00     0.208 C 
ATOM     19  O   UNL     1      24.738  47.105  34.392  1.00  0.00    -0.337 OA
ATOM     20  C   UNL     1      24.061  48.681  32.711  1.00  0.00     0.180 C 
ATOM     21  C   UNL     1      25.067  47.600  33.109  1.00  0.00     0.179 C 
BRANCH  17  22
ATOM     22  C   UNL     1      22.380  46.901  34.720  1.00  0.00     0.225 C 
BRANCH  22  23
ATOM     23  O   UNL     1      22.715  45.561  34.961  1.00  0.00    -0.391 OA
ATOM     24  H   UNL     1      23.701  45.525  35.073  1.00  0.00     0.210 HD
ENDBRANCH  22  23
ENDBRANCH  17  22
BRANCH  18  25
ATOM     25  O   UNL     1      24.217  50.178  34.594  1.00  0.00    -0.385 OA
ATOM     26  H   UNL     1      24.898  49.811  35.217  1.00  0.00     0.211 HD
ENDBRANCH  18  25
BRANCH  20  27
ATOM     27  O   UNL     1      24.681  49.756  32.054  1.00  0.00    -0.387 OA
ATOM     28  H   UNL     1      24.273  50.584  32.419  1.00  0.00     0.211 HD
ENDBRANCH  20  27
BRANCH  21  29
ATOM     29  C   UNL     1      25.108  46.438  32.111  1.00  0.00     0.191 C 
BRANCH  29  30
ATOM     30  O   UNL     1      24.621  45.269  32.710  1.00  0.00    -0.394 OA
ATOM     31  H   UNL     1      25.072  44.516  32.247  1.00  0.00     0.210 HD
ENDBRANCH  29  30
ENDBRANCH  21  29
ENDBRANCH   1  17
TORSDOF 13
ENDMDL
MODEL 6
REMARK VINA RESULT:    -4.635      1.530      5.947
REMARK INTER + INTRA:          -8.342
REMARK INTER:                  -6.974
REMARK INTRA:                  -1.367
REMARK UNBOUND:                -1.268
REMARK SMILES OC[C@@H]1O[C@@](CO)(O[C@H]2O[C@H](CO)[C@H](O)[C@H](O)[C@H]2O)[C@@H](O)[C@H]1O
REMARK SMILES IDX 8 1 9 2 11 3 14 4 10 5 16 6 18 7 12 8 13 9 15 11 17 13 19 15
REMARK SMILES IDX 5 17 20 18 4 19 22 20 3 21 6 22 7 23 21 25 23 27 2 29 1 30
REMARK H PARENT 13 10 15 12 17 14 19 16 7 24 21 26 23 28 1 31
REMARK Flexibility Score: inf
ROOT
ATOM      1  O   UNL     1      23.411  47.621  36.942  1.00  0.00    -0.313 OA
ENDROOT
BRANCH   1   2
ATOM      2  C   UNL     1      22.797  46.522  36.269  1.00  0.00     0.285 C 
ATOM      3  C   UNL     1      23.537  47.256  34.153  1.00  0.00     0.178 C 
ATOM      4  C   UNL     1      24.517  46.074  33.984  1.00  0.00     0.177 C 
ATOM      5  O   UNL     1      22.417  46.879  34.944  1.00  0.00    -0.341 OA
ATOM      6  C   UNL     1      24.975  45.596  35.374  1.00  0.00     0.179 C 
ATOM      7  C   UNL     1      23.750  45.305  36.250  1.00  0.00     0.202 C 
BRANCH   3   8
ATOM      8  C   UNL     1      23.040  47.742  32.783  1.00  0.00     0.191 C 
BRANCH   8   9
ATOM      9  O   UNL     1      22.097  46.851  32.255  1.00  0.00    -0.394 OA
ATOM     10  H   UNL     1      22.088  46.996  31.272  1.00  0.00     0.210 HD
ENDBRANCH   8   9
ENDBRANCH   3   8
BRANCH   4  11
ATOM     11  O   UNL     1      23.886  45.025  33.290  1.00  0.00    -0.387 OA
ATOM     12  H   UNL     1      24.294  44.990  32.386  1.00  0.00     0.211 HD
ENDBRANCH   4  11
BRANCH   6  13
ATOM     13  O   UNL     1      25.758  44.435  35.262  1.00  0.00    -0.387 OA
ATOM     14  H   UNL     1      25.342  43.753  35.850  1.00  0.00     0.211 HD
ENDBRANCH   6  13
BRANCH   7  15
ATOM     15  O   UNL     1      24.175  44.991  37.551  1.00  0.00    -0.385 OA
ATOM     16  H   UNL     1      24.828  45.692  37.815  1.00  0.00     0.211 HD
ENDBRANCH   7  15
ENDBRANCH   1   2
BRANCH   1  17
ATOM     17  C   UNL     1      22.577  48.277  37.899  1.00  0.00     0.224 C 
ATOM     18  C   UNL     1      22.737  47.688  39.319  1.00  0.00     0.208 C 
ATOM     19  O   UNL     1      23.001  49.627  37.965  1.00  0.00    -0.337 OA
ATOM     20  C   UNL     1      22.548  48.893  40.207  1.00  0.00     0.180 C 
ATOM     21  C   UNL     1      23.038  50.037  39.318  1.00  0.00     0.179 C 
BRANCH  17  22
ATOM     22  C   UNL     1      21.084  48.291  37.465  1.00  0.00     0.225 C 
BRANCH  22  23
ATOM     23  O   UNL     1      20.875  49.224  36.440  1.00  0.00    -0.391 OA
ATOM     24  H   UNL     1      20.768  48.710  35.598  1.00  0.00     0.210 HD
ENDBRANCH  22  23
ENDBRANCH  17  22
BRANCH  18  25
ATOM     25  O   UNL     1      24.006  47.105  39.510  1.00  0.00    -0.385 OA
ATOM     26  H   UNL     1      24.191  47.072  40.486  1.00  0.00     0.211 HD
ENDBRANCH  18  25
BRANCH  20  27
ATOM     27  O   UNL     1      23.304  48.788  41.387  1.00  0.00    -0.387 OA
ATOM     28  H   UNL     1      23.844  49.617  41.452  1.00  0.00     0.211 HD
ENDBRANCH  20  27
BRANCH  21  29
ATOM     29  C   UNL     1      22.203  51.312  39.485  1.00  0.00     0.191 C 
BRANCH  29  30
ATOM     30  O   UNL     1      21.672  51.374  40.780  1.00  0.00    -0.394 OA
ATOM     31  H   UNL     1      21.396  50.449  41.008  1.00  0.00     0.210 HD
ENDBRANCH  29  30
ENDBRANCH  21  29
ENDBRANCH   1  17
TORSDOF 13
ENDMDL
MODEL 7
REMARK VINA RESULT:    -4.543      1.959      6.122
REMARK INTER + INTRA:          -8.200
REMARK INTER:                  -7.151
REMARK INTRA:                  -1.049
REMARK UNBOUND:                -1.268
REMARK SMILES OC[C@@H]1O[C@@](CO)(O[C@H]2O[C@H](CO)[C@H](O)[C@H](O)[C@H]2O)[C@@H](O)[C@H]1O
REMARK SMILES IDX 8 1 9 2 11 3 14 4 10 5 16 6 18 7 12 8 13 9 15 11 17 13 19 15
REMARK SMILES IDX 5 17 20 18 4 19 22 20 3 21 6 22 7 23 21 25 23 27 2 29 1 30
REMARK H PARENT 13 10 15 12 17 14 19 16 7 24 21 26 23 28 1 31
REMARK Flexibility Score: inf
ROOT
ATOM      1  O   UNL     1      23.087  48.328  38.282  1.00  0.00    -0.313 OA
ENDROOT
BRANCH   1   2
ATOM      2  C   UNL     1      22.436  47.087  38.013  1.00  0.00     0.285 C 
ATOM      3  C   UNL     1      22.229  47.562  35.713  1.00  0.00     0.178 C 
ATOM      4  C   UNL     1      23.239  46.468  35.302  1.00  0.00     0.177 C 
ATOM      5  O   UNL     1      21.547  47.202  36.907  1.00  0.00    -0.341 OA
ATOM      6  C   UNL     1      24.241  46.250  36.450  1.00  0.00     0.179 C 
ATOM      7  C   UNL     1      23.482  45.978  37.755  1.00  0.00     0.202 C 
BRANCH   3   8
ATOM      8  C   UNL     1      21.197  47.788  34.597  1.00  0.00     0.191 C 
BRANCH   8   9
ATOM      9  O   UNL     1      21.754  47.496  33.344  1.00  0.00    -0.394 OA
ATOM     10  H   UNL     1      21.641  46.520  33.202  1.00  0.00     0.210 HD
ENDBRANCH   8   9
ENDBRANCH   3   8
BRANCH   4  11
ATOM     11  O   UNL     1      22.557  45.271  35.016  1.00  0.00    -0.387 OA
ATOM     12  H   UNL     1      21.826  45.188  35.682  1.00  0.00     0.211 HD
ENDBRANCH   4  11
BRANCH   6  13
ATOM     13  O   UNL     1      25.089  45.167  36.165  1.00  0.00    -0.387 OA
ATOM     14  H   UNL     1      25.111  45.076  35.176  1.00  0.00     0.211 HD
ENDBRANCH   6  13
BRANCH   7  15
ATOM     15  O   UNL     1      24.397  45.906  38.817  1.00  0.00    -0.385 OA
ATOM     16  H   UNL     1      23.925  46.239  39.624  1.00  0.00     0.211 HD
ENDBRANCH   7  15
ENDBRANCH   1   2
BRANCH   1  17
ATOM     17  C   UNL     1      22.689  48.961  39.500  1.00  0.00     0.224 C 
ATOM     18  C   UNL     1      23.751  48.815  40.613  1.00  0.00     0.208 C 
ATOM     19  O   UNL     1      22.567  50.346  39.229  1.00  0.00    -0.337 OA
ATOM     20  C   UNL     1      23.622  50.112  41.373  1.00  0.00     0.180 C 
ATOM     21  C   UNL     1      23.138  51.081  40.293  1.00  0.00     0.179 C 
BRANCH  17  22
ATOM     22  C   UNL     1      21.297  48.470  39.988  1.00  0.00     0.225 C 
BRANCH  22  23
ATOM     23  O   UNL     1      21.256  48.405  41.388  1.00  0.00    -0.391 OA
ATOM     24  H   UNL     1      20.717  47.607  41.625  1.00  0.00     0.210 HD
ENDBRANCH  22  23
ENDBRANCH  17  22
BRANCH  18  25
ATOM     25  O   UNL     1      25.050  48.657  40.088  1.00  0.00    -0.385 OA
ATOM     26  H   UNL     1      25.063  47.835  39.529  1.00  0.00     0.211 HD
ENDBRANCH  18  25
BRANCH  20  27
ATOM     27  O   UNL     1      24.853  50.512  41.921  1.00  0.00    -0.387 OA
ATOM     28  H   UNL     1      24.667  51.310  42.481  1.00  0.00     0.211 HD
ENDBRANCH  20  27
BRANCH  21  29
ATOM     29  C   UNL     1      22.112  52.089  40.824  1.00  0.00     0.191 C 
BRANCH  29  30
ATOM     30  O   UNL     1      21.319  51.494  41.814  1.00  0.00    -0.394 OA
ATOM     31  H   UNL     1      21.003  52.235  42.394  1.00  0.00     0.210 HD
ENDBRANCH  29  30
ENDBRANCH  21  29
ENDBRANCH   1  17
TORSDOF 13
ENDMDL
MODEL 8
REMARK VINA RESULT:    -4.276     19.582     21.932
REMARK INTER + INTRA:          -7.794
REMARK INTER:                  -6.449
REMARK INTRA:                  -1.345
REMARK UNBOUND:                -1.268
REMARK SMILES OC[C@@H]1O[C@@](CO)(O[C@H]2O[C@H](CO)[C@H](O)[C@H](O)[C@H]2O)[C@@H](O)[C@H]1O
REMARK SMILES IDX 8 1 9 2 11 3 14 4 10 5 16 6 18 7 12 8 13 9 15 11 17 13 19 15
REMARK SMILES IDX 5 17 20 18 4 19 22 20 3 21 6 22 7 23 21 25 23 27 2 29 1 30
REMARK H PARENT 13 10 15 12 17 14 19 16 7 24 21 26 23 28 1 31
REMARK Flexibility Score: inf
ROOT
ATOM      1  O   UNL     1      39.405  34.317  44.545  1.00  0.00    -0.313 OA
ENDROOT
BRANCH   1   2
ATOM      2  C   UNL     1      38.008  34.541  44.731  1.00  0.00     0.285 C 
ATOM      3  C   UNL     1      37.425  32.500  43.704  1.00  0.00     0.178 C 
ATOM      4  C   UNL     1      36.921  31.875  45.023  1.00  0.00     0.177 C 
ATOM      5  O   UNL     1      37.245  33.910  43.708  1.00  0.00    -0.341 OA
ATOM      6  C   UNL     1      37.675  32.511  46.204  1.00  0.00     0.179 C 
ATOM      7  C   UNL     1      37.565  34.040  46.124  1.00  0.00     0.202 C 
BRANCH   3   8
ATOM      8  C   UNL     1      36.674  31.903  42.504  1.00  0.00     0.191 C 
BRANCH   8   9
ATOM      9  O   UNL     1      35.495  32.618  42.255  1.00  0.00    -0.394 OA
ATOM     10  H   UNL     1      34.769  32.149  42.743  1.00  0.00     0.210 HD
ENDBRANCH   8   9
ENDBRANCH   3   8
BRANCH   4  11
ATOM     11  O   UNL     1      35.536  32.090  45.155  1.00  0.00    -0.387 OA
ATOM     12  H   UNL     1      35.138  31.231  45.453  1.00  0.00     0.211 HD
ENDBRANCH   4  11
BRANCH   6  13
ATOM     13  O   UNL     1      37.144  32.065  47.425  1.00  0.00    -0.387 OA
ATOM     14  H   UNL     1      36.159  32.011  47.305  1.00  0.00     0.211 HD
ENDBRANCH   6  13
BRANCH   7  15
ATOM     15  O   UNL     1      38.359  34.614  47.130  1.00  0.00    -0.385 OA
ATOM     16  H   UNL     1      39.149  35.012  46.679  1.00  0.00     0.211 HD
ENDBRANCH   7  15
ENDBRANCH   1   2
BRANCH   1  17
ATOM     17  C   UNL     1      40.132  35.445  44.052  1.00  0.00     0.224 C 
ATOM     18  C   UNL     1      40.851  35.142  42.718  1.00  0.00     0.208 C 
ATOM     19  O   UNL     1      39.186  36.465  43.786  1.00  0.00    -0.337 OA
ATOM     20  C   UNL     1      40.784  36.464  41.993  1.00  0.00     0.180 C 
ATOM     21  C   UNL     1      39.503  37.083  42.554  1.00  0.00     0.179 C 
BRANCH  17  22
ATOM     22  C   UNL     1      41.124  36.009  45.107  1.00  0.00     0.225 C 
BRANCH  22  23
ATOM     23  O   UNL     1      41.073  35.255  46.289  1.00  0.00    -0.391 OA
ATOM     24  H   UNL     1      41.999  34.956  46.481  1.00  0.00     0.210 HD
ENDBRANCH  22  23
ENDBRANCH  17  22
BRANCH  18  25
ATOM     25  O   UNL     1      40.206  34.124  41.987  1.00  0.00    -0.385 OA
ATOM     26  H   UNL     1      39.295  33.999  42.363  1.00  0.00     0.211 HD
ENDBRANCH  18  25
BRANCH  20  27
ATOM     27  O   UNL     1      40.711  36.285  40.601  1.00  0.00    -0.387 OA
ATOM     28  H   UNL     1      40.818  37.183  40.194  1.00  0.00     0.211 HD
ENDBRANCH  20  27
BRANCH  21  29
ATOM     29  C   UNL     1      39.623  38.597  42.761  1.00  0.00     0.191 C 
BRANCH  29  30
ATOM     30  O   UNL     1      39.239  39.275  41.597  1.00  0.00    -0.394 OA
ATOM     31  H   UNL     1      39.852  38.962  40.882  1.00  0.00     0.210 HD
ENDBRANCH  29  30
ENDBRANCH  21  29
ENDBRANCH   1  17
TORSDOF 13
ENDMDL
MODEL 9
REMARK VINA RESULT:    -4.182      1.735      5.959
REMARK INTER + INTRA:          -7.649
REMARK INTER:                  -6.552
REMARK INTRA:                  -1.097
REMARK UNBOUND:                -1.268
REMARK SMILES OC[C@@H]1O[C@@](CO)(O[C@H]2O[C@H](CO)[C@H](O)[C@H](O)[C@H]2O)[C@@H](O)[C@H]1O
REMARK SMILES IDX 8 1 9 2 11 3 14 4 10 5 16 6 18 7 12 8 13 9 15 11 17 13 19 15
REMARK SMILES IDX 5 17 20 18 4 19 22 20 3 21 6 22 7 23 21 25 23 27 2 29 1 30
REMARK H PARENT 13 10 15 12 17 14 19 16 7 24 21 26 23 28 1 31
REMARK Flexibility Score: inf
ROOT
ATOM      1  O   UNL     1      23.505  48.253  36.903  1.00  0.00    -0.313 OA
ENDROOT
BRANCH   1   2
ATOM      2  C   UNL     1      22.882  48.080  35.631  1.00  0.00     0.285 C 
ATOM      3  C   UNL     1      24.679  49.088  34.483  1.00  0.00     0.178 C 
ATOM      4  C   UNL     1      25.113  47.766  33.814  1.00  0.00     0.177 C 
ATOM      5  O   UNL     1      23.277  49.101  34.722  1.00  0.00    -0.341 OA
ATOM      6  C   UNL     1      24.708  46.586  34.716  1.00  0.00     0.179 C 
ATOM      7  C   UNL     1      23.215  46.684  35.056  1.00  0.00     0.202 C 
BRANCH   3   8
ATOM      8  C   UNL     1      25.047  50.286  33.596  1.00  0.00     0.191 C 
BRANCH   8   9
ATOM      9  O   UNL     1      26.431  50.504  33.610  1.00  0.00    -0.394 OA
ATOM     10  H   UNL     1      26.730  50.501  32.663  1.00  0.00     0.210 HD
ENDBRANCH   8   9
ENDBRANCH   3   8
BRANCH   4  11
ATOM     11  O   UNL     1      24.502  47.646  32.552  1.00  0.00    -0.387 OA
ATOM     12  H   UNL     1      24.067  46.754  32.525  1.00  0.00     0.211 HD
ENDBRANCH   4  11
BRANCH   6  13
ATOM     13  O   UNL     1      24.964  45.364  34.074  1.00  0.00    -0.387 OA
ATOM     14  H   UNL     1      24.101  44.874  34.038  1.00  0.00     0.211 HD
ENDBRANCH   6  13
BRANCH   7  15
ATOM     15  O   UNL     1      22.883  45.679  35.979  1.00  0.00    -0.385 OA
ATOM     16  H   UNL     1      22.527  46.137  36.785  1.00  0.00     0.211 HD
ENDBRANCH   7  15
ENDBRANCH   1   2
BRANCH   1  17
ATOM     17  C   UNL     1      22.612  48.590  37.966  1.00  0.00     0.224 C 
ATOM     18  C   UNL     1      23.035  47.959  39.312  1.00  0.00     0.208 C 
ATOM     19  O   UNL     1      22.675  49.995  38.134  1.00  0.00    -0.337 OA
ATOM     20  C   UNL     1      22.614  49.000  40.319  1.00  0.00     0.180 C 
ATOM     21  C   UNL     1      22.716  50.297  39.515  1.00  0.00     0.179 C 
BRANCH  17  22
ATOM     22  C   UNL     1      21.136  48.240  37.624  1.00  0.00     0.225 C 
BRANCH  22  23
ATOM     23  O   UNL     1      20.875  46.887  37.881  1.00  0.00    -0.391 OA
ATOM     24  H   UNL     1      20.902  46.417  37.007  1.00  0.00     0.210 HD
ENDBRANCH  22  23
ENDBRANCH  17  22
BRANCH  18  25
ATOM     25  O   UNL     1      24.423  47.721  39.371  1.00  0.00    -0.385 OA
ATOM     26  H   UNL     1      24.889  48.468  38.911  1.00  0.00     0.211 HD
ENDBRANCH  18  25
BRANCH  20  27
ATOM     27  O   UNL     1      23.466  49.009  41.437  1.00  0.00    -0.387 OA
ATOM     28  H   UNL     1      23.792  48.080  41.552  1.00  0.00     0.211 HD
ENDBRANCH  20  27
BRANCH  21  29
ATOM     29  C   UNL     1      21.596  51.288  39.852  1.00  0.00     0.191 C 
BRANCH  29  30
ATOM     30  O   UNL     1      21.351  51.289  41.232  1.00  0.00    -0.394 OA
ATOM     31  H   UNL     1      20.418  50.970  41.345  1.00  0.00     0.210 HD
ENDBRANCH  29  30
ENDBRANCH  21  29
ENDBRANCH   1  17
TORSDOF 13
ENDMDL
