MODEL 1
REMARK VINA RESULT:    -5.463      0.000      0.000
REMARK INTER + INTRA:          -8.551
REMARK INTER:                  -7.379
REMARK INTRA:                  -1.173
REMARK UNBOUND:                -1.173
REMARK SMILES O=c1c(-c2ccc(O)cc2)coc2c([C@H]3O[C@H](CO)[C@H](O)[C@@H](O)[C@@H]3O)c(O)ccc12
REMARK SMILES IDX 3 1 11 2 12 3 13 4 30 5 2 6 1 7 29 8 28 9 26 10 14 11 4 12
REMARK SMILES IDX 5 13 6 14 7 15 10 16 9 17 8 18 15 20 24 21 16 22 22 23 17 24
REMARK SMILES IDX 20 25 25 26 23 28 18 30 19 31 21 33 27 35
REMARK H PARENT 8 19 25 27 23 29 19 32 21 34 27 36
REMARK Flexibility Score: inf
ROOT
ATOM      1  C   UNL     1      -1.201   7.880   8.633  1.00  0.00     0.065 A 
ATOM      2  C   UNL     1      -0.697   7.034   9.631  1.00  0.00     0.208 A 
ATOM      3  O   UNL     1       0.570   6.637   9.612  1.00  0.00    -0.463 OA
ATOM      4  C   UNL     1       1.434   7.003   8.668  1.00  0.00     0.147 A 
ATOM      5  C   UNL     1       1.009   7.855   7.622  1.00  0.00     0.066 A 
ATOM      6  C   UNL     1      -0.329   8.288   7.607  1.00  0.00     0.200 A 
ATOM      7  O   UNL     1      -0.750   9.023   6.671  1.00  0.00    -0.288 OA
ATOM      8  C   UNL     1       1.923   8.245   6.631  1.00  0.00     0.020 A 
ATOM      9  C   UNL     1       3.245   7.805   6.683  1.00  0.00     0.047 A 
ATOM     10  C   UNL     1       3.677   6.965   7.716  1.00  0.00     0.125 A 
ATOM     11  C   UNL     1       2.771   6.542   8.714  1.00  0.00     0.069 A 
ENDROOT
BRANCH   1  12
ATOM     12  C   UNL     1      -2.619   8.315   8.680  1.00  0.00    -0.011 A 
ATOM     13  C   UNL     1      -2.953   9.593   9.162  1.00  0.00     0.013 A 
ATOM     14  C   UNL     1      -4.287  10.010   9.199  1.00  0.00     0.047 A 
ATOM     15  C   UNL     1      -5.303   9.159   8.752  1.00  0.00     0.115 A 
ATOM     16  C   UNL     1      -3.645   7.467   8.226  1.00  0.00     0.013 A 
ATOM     17  C   UNL     1      -4.979   7.886   8.263  1.00  0.00     0.047 A 
BRANCH  15  18
ATOM     18  O   UNL     1      -6.627   9.587   8.795  1.00  0.00    -0.508 OA
ATOM     19  H   UNL     1      -6.864  10.557   8.969  1.00  0.00     0.293 HD
ENDBRANCH  15  18
ENDBRANCH   1  12
BRANCH  11  20
ATOM     20  C   UNL     1       3.242   5.646   9.850  1.00  0.00     0.188 C 
ATOM     21  C   UNL     1       3.979   6.490  10.930  1.00  0.00     0.179 C 
ATOM     22  O   UNL     1       4.009   4.572   9.306  1.00  0.00    -0.362 OA
ATOM     23  C   UNL     1       4.450   5.595  12.101  1.00  0.00     0.177 C 
ATOM     24  C   UNL     1       5.104   4.155  10.113  1.00  0.00     0.176 C 
ATOM     25  C   UNL     1       4.771   4.154  11.624  1.00  0.00     0.177 C 
BRANCH  21  26
ATOM     26  O   UNL     1       3.171   7.540  11.405  1.00  0.00    -0.387 OA
ATOM     27  H   UNL     1       3.569   7.866  12.254  1.00  0.00     0.211 HD
ENDBRANCH  21  26
BRANCH  23  28
ATOM     28  O   UNL     1       5.589   6.177  12.684  1.00  0.00    -0.387 OA
ATOM     29  H   UNL     1       6.018   5.474  13.240  1.00  0.00     0.211 HD
ENDBRANCH  23  28
BRANCH  24  30
ATOM     30  C   UNL     1       5.589   2.778   9.634  1.00  0.00     0.191 C 
BRANCH  30  31
ATOM     31  O   UNL     1       5.844   1.920  10.714  1.00  0.00    -0.394 OA
ATOM     32  H   UNL     1       5.266   2.222  11.462  1.00  0.00     0.210 HD
ENDBRANCH  30  31
ENDBRANCH  24  30
BRANCH  25  33
ATOM     33  O   UNL     1       3.669   3.316  11.864  1.00  0.00    -0.388 OA
ATOM     34  H   UNL     1       3.025   3.835  12.413  1.00  0.00     0.211 HD
ENDBRANCH  25  33
ENDBRANCH  11  20
BRANCH  10  35
ATOM     35  O   UNL     1       5.009   6.554   7.752  1.00  0.00    -0.507 OA
ATOM     36  H   UNL     1       5.582   6.671   8.579  1.00  0.00     0.293 HD
ENDBRANCH  10  35
TORSDOF 9
ENDMDL
MODEL 2
REMARK VINA RESULT:    -5.168      2.543      4.140
REMARK INTER + INTRA:          -8.153
REMARK INTER:                  -7.063
REMARK INTRA:                  -1.090
REMARK UNBOUND:                -1.173
REMARK SMILES O=c1c(-c2ccc(O)cc2)coc2c([C@H]3O[C@H](CO)[C@H](O)[C@@H](O)[C@@H]3O)c(O)ccc12
REMARK SMILES IDX 3 1 11 2 12 3 13 4 30 5 2 6 1 7 29 8 28 9 26 10 14 11 4 12
REMARK SMILES IDX 5 13 6 14 7 15 10 16 9 17 8 18 15 20 24 21 16 22 22 23 17 24
REMARK SMILES IDX 20 25 25 26 23 28 18 30 19 31 21 33 27 35
REMARK H PARENT 8 19 25 27 23 29 19 32 21 34 27 36
REMARK Flexibility Score: inf
ROOT
ATOM      1  C   UNL     1       0.405   7.495   9.181  1.00  0.00     0.065 A 
ATOM      2  C   UNL     1       0.602   8.114  10.423  1.00  0.00     0.208 A 
ATOM      3  O   UNL     1       1.696   7.876  11.137  1.00  0.00    -0.463 OA
ATOM      4  C   UNL     1       2.663   7.054  10.737  1.00  0.00     0.147 A 
ATOM      5  C   UNL     1       2.546   6.387   9.495  1.00  0.00     0.066 A 
ATOM      6  C   UNL     1       1.394   6.609   8.717  1.00  0.00     0.200 A 
ATOM      7  O   UNL     1       1.242   6.004   7.619  1.00  0.00    -0.288 OA
ATOM      8  C   UNL     1       3.568   5.525   9.071  1.00  0.00     0.020 A 
ATOM      9  C   UNL     1       4.700   5.336   9.863  1.00  0.00     0.047 A 
ATOM     10  C   UNL     1       4.829   5.996  11.092  1.00  0.00     0.125 A 
ATOM     11  C   UNL     1       3.803   6.852  11.549  1.00  0.00     0.069 A 
ENDROOT
BRANCH   1  12
ATOM     12  C   UNL     1      -0.824   7.781   8.399  1.00  0.00    -0.011 A 
ATOM     13  C   UNL     1      -1.916   6.896   8.445  1.00  0.00     0.013 A 
ATOM     14  C   UNL     1      -3.078   7.167   7.717  1.00  0.00     0.047 A 
ATOM     15  C   UNL     1      -3.165   8.325   6.937  1.00  0.00     0.115 A 
ATOM     16  C   UNL     1      -0.921   8.946   7.617  1.00  0.00     0.013 A 
ATOM     17  C   UNL     1      -2.085   9.215   6.890  1.00  0.00     0.047 A 
BRANCH  15  18
ATOM     18  O   UNL     1      -4.330   8.581   6.216  1.00  0.00    -0.508 OA
ATOM     19  H   UNL     1      -4.372   9.320   5.524  1.00  0.00     0.293 HD
ENDBRANCH  15  18
ENDBRANCH   1  12
BRANCH  11  20
ATOM     20  C   UNL     1       3.949   7.586  12.874  1.00  0.00     0.188 C 
ATOM     21  C   UNL     1       4.964   8.758  12.731  1.00  0.00     0.179 C 
ATOM     22  O   UNL     1       4.269   6.641  13.895  1.00  0.00    -0.362 OA
ATOM     23  C   UNL     1       5.110   9.525  14.066  1.00  0.00     0.177 C 
ATOM     24  C   UNL     1       5.162   7.123  14.893  1.00  0.00     0.176 C 
ATOM     25  C   UNL     1       4.885   8.595  15.287  1.00  0.00     0.177 C 
BRANCH  21  26
ATOM     26  O   UNL     1       4.595   9.635  11.695  1.00  0.00    -0.387 OA
ATOM     27  H   UNL     1       4.524  10.547  12.083  1.00  0.00     0.211 HD
ENDBRANCH  21  26
BRANCH  23  28
ATOM     28  O   UNL     1       6.395  10.093  14.121  1.00  0.00    -0.387 OA
ATOM     29  H   UNL     1       6.273  11.065  14.287  1.00  0.00     0.211 HD
ENDBRANCH  23  28
BRANCH  24  30
ATOM     30  C   UNL     1       5.112   6.187  16.111  1.00  0.00     0.191 C 
BRANCH  30  31
ATOM     31  O   UNL     1       4.839   6.895  17.291  1.00  0.00    -0.394 OA
ATOM     32  H   UNL     1       3.893   7.189  17.236  1.00  0.00     0.210 HD
ENDBRANCH  30  31
ENDBRANCH  24  30
BRANCH  25  33
ATOM     33  O   UNL     1       3.562   8.719  15.744  1.00  0.00    -0.388 OA
ATOM     34  H   UNL     1       3.252   7.806  15.983  1.00  0.00     0.211 HD
ENDBRANCH  25  33
ENDBRANCH  11  20
BRANCH  10  35
ATOM     35  O   UNL     1       5.979   5.800  11.856  1.00  0.00    -0.507 OA
ATOM     36  H   UNL     1       6.830   6.321  11.682  1.00  0.00     0.293 HD
ENDBRANCH  10  35
TORSDOF 9
ENDMDL
MODEL 3
REMARK VINA RESULT:    -5.027      1.844      3.389
REMARK INTER + INTRA:          -7.963
REMARK INTER:                  -6.901
REMARK INTRA:                  -1.062
REMARK UNBOUND:                -1.173
REMARK SMILES O=c1c(-c2ccc(O)cc2)coc2c([C@H]3O[C@H](CO)[C@H](O)[C@@H](O)[C@@H]3O)c(O)ccc12
REMARK SMILES IDX 3 1 11 2 12 3 13 4 30 5 2 6 1 7 29 8 28 9 26 10 14 11 4 12
REMARK SMILES IDX 5 13 6 14 7 15 10 16 9 17 8 18 15 20 24 21 16 22 22 23 17 24
REMARK SMILES IDX 20 25 25 26 23 28 18 30 19 31 21 33 27 35
REMARK H PARENT 8 19 25 27 23 29 19 32 21 34 27 36
REMARK Flexibility Score: inf
ROOT
ATOM      1  C   UNL     1       0.202   7.368   9.174  1.00  0.00     0.065 A 
ATOM      2  C   UNL     1       0.968   6.383   8.535  1.00  0.00     0.208 A 
ATOM      3  O   UNL     1       2.149   6.017   9.019  1.00  0.00    -0.463 OA
ATOM      4  C   UNL     1       2.681   6.544  10.119  1.00  0.00     0.147 A 
ATOM      5  C   UNL     1       1.976   7.546  10.827  1.00  0.00     0.066 A 
ATOM      6  C   UNL     1       0.725   7.964  10.337  1.00  0.00     0.200 A 
ATOM      7  O   UNL     1       0.084   8.879  10.925  1.00  0.00    -0.288 OA
ATOM      8  C   UNL     1       2.535   8.097  11.990  1.00  0.00     0.020 A 
ATOM      9  C   UNL     1       3.772   7.651  12.453  1.00  0.00     0.047 A 
ATOM     10  C   UNL     1       4.476   6.656  11.763  1.00  0.00     0.125 A 
ATOM     11  C   UNL     1       3.943   6.102  10.578  1.00  0.00     0.069 A 
ENDROOT
BRANCH   1  12
ATOM     12  C   UNL     1      -1.118   7.757   8.618  1.00  0.00    -0.011 A 
ATOM     13  C   UNL     1      -1.205   8.750   7.627  1.00  0.00     0.013 A 
ATOM     14  C   UNL     1      -2.445   9.113   7.094  1.00  0.00     0.047 A 
ATOM     15  C   UNL     1      -3.613   8.485   7.540  1.00  0.00     0.115 A 
ATOM     16  C   UNL     1      -2.295   7.125   9.057  1.00  0.00     0.013 A 
ATOM     17  C   UNL     1      -3.536   7.489   8.522  1.00  0.00     0.047 A 
BRANCH  15  18
ATOM     18  O   UNL     1      -4.842   8.857   7.000  1.00  0.00    -0.508 OA
ATOM     19  H   UNL     1      -5.528   9.365   7.546  1.00  0.00     0.293 HD
ENDBRANCH  15  18
ENDBRANCH   1  12
BRANCH  11  20
ATOM     20  C   UNL     1       4.696   5.007   9.836  1.00  0.00     0.188 C 
ATOM     21  C   UNL     1       4.868   3.759  10.751  1.00  0.00     0.179 C 
ATOM     22  O   UNL     1       5.915   5.545   9.326  1.00  0.00    -0.362 OA
ATOM     23  C   UNL     1       5.617   2.629  10.005  1.00  0.00     0.177 C 
ATOM     24  C   UNL     1       7.015   4.643   9.339  1.00  0.00     0.176 C 
ATOM     25  C   UNL     1       6.612   3.197   8.960  1.00  0.00     0.177 C 
BRANCH  21  26
ATOM     26  O   UNL     1       3.629   3.297  11.231  1.00  0.00    -0.387 OA
ATOM     27  H   UNL     1       3.603   3.463  12.210  1.00  0.00     0.211 HD
ENDBRANCH  21  26
BRANCH  23  28
ATOM     28  O   UNL     1       6.302   1.843  10.948  1.00  0.00    -0.387 OA
ATOM     29  H   UNL     1       7.109   2.356  11.217  1.00  0.00     0.211 HD
ENDBRANCH  23  28
BRANCH  24  30
ATOM     30  C   UNL     1       8.125   5.185   8.425  1.00  0.00     0.191 C 
BRANCH  30  31
ATOM     31  O   UNL     1       7.619   5.558   7.171  1.00  0.00    -0.394 OA
ATOM     32  H   UNL     1       7.981   6.461   6.973  1.00  0.00     0.210 HD
ENDBRANCH  30  31
ENDBRANCH  24  30
BRANCH  25  33
ATOM     33  O   UNL     1       6.020   3.193   7.685  1.00  0.00    -0.388 OA
ATOM     34  H   UNL     1       6.556   2.576   7.120  1.00  0.00     0.211 HD
ENDBRANCH  25  33
ENDBRANCH  11  20
BRANCH  10  35
ATOM     35  O   UNL     1       5.704   6.219  12.257  1.00  0.00    -0.507 OA
ATOM     36  H   UNL     1       6.576   6.433  11.787  1.00  0.00     0.293 HD
ENDBRANCH  10  35
TORSDOF 9
ENDMDL
MODEL 4
REMARK VINA RESULT:    -4.976      2.258      3.973
REMARK INTER + INTRA:          -7.895
REMARK INTER:                  -8.138
REMARK INTRA:                   0.244
REMARK UNBOUND:                -1.173
REMARK SMILES O=c1c(-c2ccc(O)cc2)coc2c([C@H]3O[C@H](CO)[C@H](O)[C@@H](O)[C@@H]3O)c(O)ccc12
REMARK SMILES IDX 3 1 11 2 12 3 13 4 30 5 2 6 1 7 29 8 28 9 26 10 14 11 4 12
REMARK SMILES IDX 5 13 6 14 7 15 10 16 9 17 8 18 15 20 24 21 16 22 22 23 17 24
REMARK SMILES IDX 20 25 25 26 23 28 18 30 19 31 21 33 27 35
REMARK H PARENT 8 19 25 27 23 29 19 32 21 34 27 36
REMARK Flexibility Score: inf
ROOT
ATOM      1  C   UNL     1       0.334   7.120   9.496  1.00  0.00     0.065 A 
ATOM      2  C   UNL     1       0.741   7.460  10.794  1.00  0.00     0.208 A 
ATOM      3  O   UNL     1       2.016   7.372  11.153  1.00  0.00    -0.463 OA
ATOM      4  C   UNL     1       2.979   6.965  10.329  1.00  0.00     0.147 A 
ATOM      5  C   UNL     1       2.656   6.601   9.000  1.00  0.00     0.066 A 
ATOM      6  C   UNL     1       1.312   6.674   8.588  1.00  0.00     0.200 A 
ATOM      7  O   UNL     1       0.984   6.326   7.421  1.00  0.00    -0.288 OA
ATOM      8  C   UNL     1       3.672   6.178   8.130  1.00  0.00     0.020 A 
ATOM      9  C   UNL     1       4.995   6.128   8.568  1.00  0.00     0.047 A 
ATOM     10  C   UNL     1       5.326   6.490   9.879  1.00  0.00     0.125 A 
ATOM     11  C   UNL     1       4.317   6.899  10.780  1.00  0.00     0.069 A 
ENDROOT
BRANCH   1  12
ATOM     12  C   UNL     1      -1.098   7.232   9.117  1.00  0.00    -0.011 A 
ATOM     13  C   UNL     1      -2.018   7.832   9.994  1.00  0.00     0.013 A 
ATOM     14  C   UNL     1      -3.365   7.947   9.636  1.00  0.00     0.047 A 
ATOM     15  C   UNL     1      -3.807   7.469   8.398  1.00  0.00     0.115 A 
ATOM     16  C   UNL     1      -1.548   6.760   7.871  1.00  0.00     0.013 A 
ATOM     17  C   UNL     1      -2.896   6.877   7.515  1.00  0.00     0.047 A 
BRANCH  15  18
ATOM     18  O   UNL     1      -5.152   7.591   8.056  1.00  0.00    -0.508 OA
ATOM     19  H   UNL     1      -5.730   8.332   8.436  1.00  0.00     0.293 HD
ENDBRANCH  15  18
ENDBRANCH   1  12
BRANCH  11  20
ATOM     20  C   UNL     1       4.677   7.313  12.199  1.00  0.00     0.188 C 
ATOM     21  C   UNL     1       4.550   6.097  13.162  1.00  0.00     0.179 C 
ATOM     22  O   UNL     1       3.893   8.449  12.565  1.00  0.00    -0.362 OA
ATOM     23  C   UNL     1       4.930   6.498  14.608  1.00  0.00     0.177 C 
ATOM     24  C   UNL     1       3.492   8.480  13.930  1.00  0.00     0.176 C 
ATOM     25  C   UNL     1       4.599   7.986  14.892  1.00  0.00     0.177 C 
BRANCH  21  26
ATOM     26  O   UNL     1       5.334   5.012  12.729  1.00  0.00    -0.387 OA
ATOM     27  H   UNL     1       5.571   4.472  13.529  1.00  0.00     0.211 HD
ENDBRANCH  21  26
BRANCH  23  28
ATOM     28  O   UNL     1       4.234   5.668  15.503  1.00  0.00    -0.387 OA
ATOM     29  H   UNL     1       3.381   6.129  15.720  1.00  0.00     0.211 HD
ENDBRANCH  23  28
BRANCH  24  30
ATOM     30  C   UNL     1       3.017   9.897  14.284  1.00  0.00     0.191 C 
BRANCH  30  31
ATOM     31  O   UNL     1       3.063  10.123  15.668  1.00  0.00    -0.394 OA
ATOM     32  H   UNL     1       2.123  10.163  15.983  1.00  0.00     0.210 HD
ENDBRANCH  30  31
ENDBRANCH  24  30
BRANCH  25  33
ATOM     33  O   UNL     1       5.753   8.772  14.726  1.00  0.00    -0.388 OA
ATOM     34  H   UNL     1       6.448   8.183  14.331  1.00  0.00     0.211 HD
ENDBRANCH  25  33
ENDBRANCH  11  20
BRANCH  10  35
ATOM     35  O   UNL     1       6.660   6.445  10.286  1.00  0.00    -0.507 OA
ATOM     36  H   UNL     1       6.991   6.968  11.088  1.00  0.00     0.293 HD
ENDBRANCH  10  35
TORSDOF 9
ENDMDL
MODEL 5
REMARK VINA RESULT:    -4.785      2.435      3.116
REMARK INTER + INTRA:          -7.636
REMARK INTER:                  -6.759
REMARK INTRA:                  -0.877
REMARK UNBOUND:                -1.173
REMARK SMILES O=c1c(-c2ccc(O)cc2)coc2c([C@H]3O[C@H](CO)[C@H](O)[C@@H](O)[C@@H]3O)c(O)ccc12
REMARK SMILES IDX 3 1 11 2 12 3 13 4 30 5 2 6 1 7 29 8 28 9 26 10 14 11 4 12
REMARK SMILES IDX 5 13 6 14 7 15 10 16 9 17 8 18 15 20 24 21 16 22 22 23 17 24
REMARK SMILES IDX 20 25 25 26 23 28 18 30 19 31 21 33 27 35
REMARK H PARENT 8 19 25 27 23 29 19 32 21 34 27 36
REMARK Flexibility Score: inf
ROOT
ATOM      1  C   UNL     1      -0.142   7.885   9.539  1.00  0.00     0.065 A 
ATOM      2  C   UNL     1       0.162   7.433  10.831  1.00  0.00     0.208 A 
ATOM      3  O   UNL     1       1.409   7.455  11.285  1.00  0.00    -0.463 OA
ATOM      4  C   UNL     1       2.438   7.898  10.567  1.00  0.00     0.147 A 
ATOM      5  C   UNL     1       2.222   8.372   9.252  1.00  0.00     0.066 A 
ATOM      6  C   UNL     1       0.913   8.354   8.735  1.00  0.00     0.200 A 
ATOM      7  O   UNL     1       0.689   8.739   7.554  1.00  0.00    -0.288 OA
ATOM      8  C   UNL     1       3.307   8.844   8.497  1.00  0.00     0.020 A 
ATOM      9  C   UNL     1       4.589   8.857   9.044  1.00  0.00     0.047 A 
ATOM     10  C   UNL     1       4.814   8.395  10.346  1.00  0.00     0.125 A 
ATOM     11  C   UNL     1       3.741   7.895  11.118  1.00  0.00     0.069 A 
ENDROOT
BRANCH   1  12
ATOM     12  C   UNL     1      -1.546   7.855   9.056  1.00  0.00    -0.011 A 
ATOM     13  C   UNL     1      -1.931   6.948   8.054  1.00  0.00     0.013 A 
ATOM     14  C   UNL     1      -3.254   6.911   7.602  1.00  0.00     0.047 A 
ATOM     15  C   UNL     1      -4.208   7.775   8.149  1.00  0.00     0.115 A 
ATOM     16  C   UNL     1      -2.511   8.717   9.606  1.00  0.00     0.013 A 
ATOM     17  C   UNL     1      -3.834   8.678   9.153  1.00  0.00     0.047 A 
BRANCH  15  18
ATOM     18  O   UNL     1      -5.522   7.727   7.689  1.00  0.00    -0.508 OA
ATOM     19  H   UNL     1      -6.135   8.532   7.753  1.00  0.00     0.293 HD
ENDBRANCH  15  18
ENDBRANCH   1  12
BRANCH  11  20
ATOM     20  C   UNL     1       3.978   7.411  12.541  1.00  0.00     0.188 C 
ATOM     21  C   UNL     1       3.938   8.611  13.531  1.00  0.00     0.179 C 
ATOM     22  O   UNL     1       5.184   6.648  12.576  1.00  0.00    -0.362 OA
ATOM     23  C   UNL     1       4.161   8.132  14.985  1.00  0.00     0.177 C 
ATOM     24  C   UNL     1       5.946   6.795  13.768  1.00  0.00     0.176 C 
ATOM     25  C   UNL     1       5.065   6.873  15.039  1.00  0.00     0.177 C 
BRANCH  21  26
ATOM     26  O   UNL     1       2.731   9.326  13.426  1.00  0.00    -0.387 OA
ATOM     27  H   UNL     1       2.152   8.848  12.775  1.00  0.00     0.211 HD
ENDBRANCH  21  26
BRANCH  23  28
ATOM     28  O   UNL     1       4.744   9.179  15.720  1.00  0.00    -0.387 OA
ATOM     29  H   UNL     1       5.659   8.881  15.968  1.00  0.00     0.211 HD
ENDBRANCH  23  28
BRANCH  24  30
ATOM     30  C   UNL     1       6.974   5.657  13.855  1.00  0.00     0.191 C 
BRANCH  30  31
ATOM     31  O   UNL     1       7.006   4.903  12.672  1.00  0.00    -0.394 OA
ATOM     32  H   UNL     1       7.952   4.639  12.526  1.00  0.00     0.210 HD
ENDBRANCH  30  31
ENDBRANCH  24  30
BRANCH  25  33
ATOM     33  O   UNL     1       4.270   5.718  15.133  1.00  0.00    -0.388 OA
ATOM     34  H   UNL     1       4.876   4.970  15.379  1.00  0.00     0.211 HD
ENDBRANCH  25  33
ENDBRANCH  11  20
BRANCH  10  35
ATOM     35  O   UNL     1       6.104   8.434  10.873  1.00  0.00    -0.507 OA
ATOM     36  H   UNL     1       6.295   8.825  11.788  1.00  0.00     0.293 HD
ENDBRANCH  10  35
TORSDOF 9
ENDMDL
MODEL 6
REMARK VINA RESULT:    -4.659     18.780     20.459
REMARK INTER + INTRA:          -7.466
REMARK INTER:                  -6.480
REMARK INTRA:                  -0.986
REMARK UNBOUND:                -1.173
REMARK SMILES O=c1c(-c2ccc(O)cc2)coc2c([C@H]3O[C@H](CO)[C@H](O)[C@@H](O)[C@@H]3O)c(O)ccc12
REMARK SMILES IDX 3 1 11 2 12 3 13 4 30 5 2 6 1 7 29 8 28 9 26 10 14 11 4 12
REMARK SMILES IDX 5 13 6 14 7 15 10 16 9 17 8 18 15 20 24 21 16 22 22 23 17 24
REMARK SMILES IDX 20 25 25 26 23 28 18 30 19 31 21 33 27 35
REMARK H PARENT 8 19 25 27 23 29 19 32 21 34 27 36
REMARK Flexibility Score: inf
ROOT
ATOM      1  C   UNL     1      -7.133  -2.048  23.682  1.00  0.00     0.065 A 
ATOM      2  C   UNL     1      -6.808  -3.201  24.410  1.00  0.00     0.208 A 
ATOM      3  O   UNL     1      -6.883  -4.404  23.851  1.00  0.00    -0.463 OA
ATOM      4  C   UNL     1      -7.263  -4.599  22.591  1.00  0.00     0.147 A 
ATOM      5  C   UNL     1      -7.611  -3.490  21.784  1.00  0.00     0.066 A 
ATOM      6  C   UNL     1      -7.551  -2.201  22.347  1.00  0.00     0.200 A 
ATOM      7  O   UNL     1      -7.886  -1.193  21.666  1.00  0.00    -0.288 OA
ATOM      8  C   UNL     1      -8.006  -3.697  20.454  1.00  0.00     0.020 A 
ATOM      9  C   UNL     1      -8.044  -4.986  19.925  1.00  0.00     0.047 A 
ATOM     10  C   UNL     1      -7.697  -6.090  20.713  1.00  0.00     0.125 A 
ATOM     11  C   UNL     1      -7.316  -5.909  22.062  1.00  0.00     0.069 A 
ENDROOT
BRANCH   1  12
ATOM     12  C   UNL     1      -7.036  -0.714  24.327  1.00  0.00    -0.011 A 
ATOM     13  C   UNL     1      -5.778  -0.135  24.571  1.00  0.00     0.013 A 
ATOM     14  C   UNL     1      -5.683   1.124  25.170  1.00  0.00     0.047 A 
ATOM     15  C   UNL     1      -6.841   1.822  25.528  1.00  0.00     0.115 A 
ATOM     16  C   UNL     1      -8.196  -0.005  24.684  1.00  0.00     0.013 A 
ATOM     17  C   UNL     1      -8.098   1.256  25.283  1.00  0.00     0.047 A 
BRANCH  15  18
ATOM     18  O   UNL     1      -6.731   3.076  26.125  1.00  0.00    -0.508 OA
ATOM     19  H   UNL     1      -7.491   3.746  26.094  1.00  0.00     0.293 HD
ENDBRANCH  15  18
ENDBRANCH   1  12
BRANCH  11  20
ATOM     20  C   UNL     1      -6.919  -7.105  22.915  1.00  0.00     0.188 C 
ATOM     21  C   UNL     1      -5.655  -7.793  22.321  1.00  0.00     0.179 C 
ATOM     22  O   UNL     1      -8.050  -7.963  23.067  1.00  0.00    -0.362 OA
ATOM     23  C   UNL     1      -5.228  -9.002  23.187  1.00  0.00     0.177 C 
ATOM     24  C   UNL     1      -7.743  -9.352  23.094  1.00  0.00     0.176 C 
ATOM     25  C   UNL     1      -6.447  -9.666  23.880  1.00  0.00     0.177 C 
BRANCH  21  26
ATOM     26  O   UNL     1      -4.590  -6.884  22.182  1.00  0.00    -0.387 OA
ATOM     27  H   UNL     1      -4.483  -6.691  21.213  1.00  0.00     0.211 HD
ENDBRANCH  21  26
BRANCH  23  28
ATOM     28  O   UNL     1      -4.570  -9.934  22.367  1.00  0.00    -0.387 OA
ATOM     29  H   UNL     1      -3.598  -9.739  22.432  1.00  0.00     0.211 HD
ENDBRANCH  23  28
BRANCH  24  30
ATOM     30  C   UNL     1      -8.949 -10.125  23.649  1.00  0.00     0.191 C 
BRANCH  30  31
ATOM     31  O   UNL     1      -9.568  -9.426  24.696  1.00  0.00    -0.394 OA
ATOM     32  H   UNL     1      -8.851  -8.938  25.179  1.00  0.00     0.210 HD
ENDBRANCH  30  31
ENDBRANCH  24  30
BRANCH  25  33
ATOM     33  O   UNL     1      -6.566  -9.188  25.196  1.00  0.00    -0.388 OA
ATOM     34  H   UNL     1      -5.917  -8.443  25.293  1.00  0.00     0.211 HD
ENDBRANCH  25  33
ENDBRANCH  11  20
BRANCH  10  35
ATOM     35  O   UNL     1      -7.729  -7.368  20.154  1.00  0.00    -0.507 OA
ATOM     36  H   UNL     1      -7.258  -8.152  20.588  1.00  0.00     0.293 HD
ENDBRANCH  10  35
TORSDOF 9
ENDMDL
MODEL 7
REMARK VINA RESULT:    -4.646      2.562      7.984
REMARK INTER + INTRA:          -7.448
REMARK INTER:                  -6.795
REMARK INTRA:                  -0.653
REMARK UNBOUND:                -1.173
REMARK SMILES O=c1c(-c2ccc(O)cc2)coc2c([C@H]3O[C@H](CO)[C@H](O)[C@@H](O)[C@@H]3O)c(O)ccc12
REMARK SMILES IDX 3 1 11 2 12 3 13 4 30 5 2 6 1 7 29 8 28 9 26 10 14 11 4 12
REMARK SMILES IDX 5 13 6 14 7 15 10 16 9 17 8 18 15 20 24 21 16 22 22 23 17 24
REMARK SMILES IDX 20 25 25 26 23 28 18 30 19 31 21 33 27 35
REMARK H PARENT 8 19 25 27 23 29 19 32 21 34 27 36
REMARK Flexibility Score: inf
ROOT
ATOM      1  C   UNL     1       4.762   6.668  12.855  1.00  0.00     0.065 A 
ATOM      2  C   UNL     1       3.634   7.198  12.215  1.00  0.00     0.208 A 
ATOM      3  O   UNL     1       3.256   6.756  11.021  1.00  0.00    -0.463 OA
ATOM      4  C   UNL     1       3.905   5.802  10.359  1.00  0.00     0.147 A 
ATOM      5  C   UNL     1       5.057   5.211  10.932  1.00  0.00     0.066 A 
ATOM      6  C   UNL     1       5.490   5.662  12.193  1.00  0.00     0.200 A 
ATOM      7  O   UNL     1       6.532   5.181  12.717  1.00  0.00    -0.288 OA
ATOM      8  C   UNL     1       5.737   4.201  10.236  1.00  0.00     0.020 A 
ATOM      9  C   UNL     1       5.274   3.771   8.993  1.00  0.00     0.047 A 
ATOM     10  C   UNL     1       4.133   4.344   8.419  1.00  0.00     0.125 A 
ATOM     11  C   UNL     1       3.443   5.378   9.091  1.00  0.00     0.069 A 
ENDROOT
BRANCH   1  12
ATOM     12  C   UNL     1       5.161   7.175  14.193  1.00  0.00    -0.011 A 
ATOM     13  C   UNL     1       5.914   8.356  14.308  1.00  0.00     0.013 A 
ATOM     14  C   UNL     1       6.284   8.841  15.566  1.00  0.00     0.047 A 
ATOM     15  C   UNL     1       5.902   8.155  16.724  1.00  0.00     0.115 A 
ATOM     16  C   UNL     1       4.775   6.493  15.361  1.00  0.00     0.013 A 
ATOM     17  C   UNL     1       5.146   6.981  16.619  1.00  0.00     0.047 A 
BRANCH  15  18
ATOM     18  O   UNL     1       6.278   8.649  17.970  1.00  0.00    -0.508 OA
ATOM     19  H   UNL     1       5.610   8.737  18.728  1.00  0.00     0.293 HD
ENDBRANCH  15  18
ENDBRANCH   1  12
BRANCH  11  20
ATOM     20  C   UNL     1       2.191   5.990   8.480  1.00  0.00     0.188 C 
ATOM     21  C   UNL     1       2.542   7.321   7.754  1.00  0.00     0.179 C 
ATOM     22  O   UNL     1       1.191   6.106   9.492  1.00  0.00    -0.362 OA
ATOM     23  C   UNL     1       1.281   7.946   7.112  1.00  0.00     0.177 C 
ATOM     24  C   UNL     1       0.365   7.260   9.381  1.00  0.00     0.176 C 
ATOM     25  C   UNL     1       0.000   7.600   7.915  1.00  0.00     0.177 C 
BRANCH  21  26
ATOM     26  O   UNL     1       3.546   7.133   6.788  1.00  0.00    -0.387 OA
ATOM     27  H   UNL     1       4.109   6.368   7.081  1.00  0.00     0.211 HD
ENDBRANCH  21  26
BRANCH  23  28
ATOM     28  O   UNL     1       1.451   9.340   7.050  1.00  0.00    -0.387 OA
ATOM     29  H   UNL     1       2.141   9.577   7.725  1.00  0.00     0.211 HD
ENDBRANCH  23  28
BRANCH  24  30
ATOM     30  C   UNL     1      -0.886   7.072  10.253  1.00  0.00     0.191 C 
BRANCH  30  31
ATOM     31  O   UNL     1      -2.037   7.544   9.606  1.00  0.00    -0.394 OA
ATOM     32  H   UNL     1      -2.661   7.847  10.316  1.00  0.00     0.210 HD
ENDBRANCH  30  31
ENDBRANCH  24  30
BRANCH  25  33
ATOM     33  O   UNL     1      -0.650   6.502   7.326  1.00  0.00    -0.388 OA
ATOM     34  H   UNL     1      -1.608   6.750   7.232  1.00  0.00     0.211 HD
ENDBRANCH  25  33
ENDBRANCH  11  20
BRANCH  10  35
ATOM     35  O   UNL     1       3.683   3.884   7.182  1.00  0.00    -0.507 OA
ATOM     36  H   UNL     1       4.015   4.283   6.312  1.00  0.00     0.293 HD
ENDBRANCH  10  35
TORSDOF 9
ENDMDL
MODEL 8
REMARK VINA RESULT:    -4.557      2.397      3.788
REMARK INTER + INTRA:          -7.328
REMARK INTER:                  -6.757
REMARK INTRA:                  -0.571
REMARK UNBOUND:                -1.173
REMARK SMILES O=c1c(-c2ccc(O)cc2)coc2c([C@H]3O[C@H](CO)[C@H](O)[C@@H](O)[C@@H]3O)c(O)ccc12
REMARK SMILES IDX 3 1 11 2 12 3 13 4 30 5 2 6 1 7 29 8 28 9 26 10 14 11 4 12
REMARK SMILES IDX 5 13 6 14 7 15 10 16 9 17 8 18 15 20 24 21 16 22 22 23 17 24
REMARK SMILES IDX 20 25 25 26 23 28 18 30 19 31 21 33 27 35
REMARK H PARENT 8 19 25 27 23 29 19 32 21 34 27 36
REMARK Flexibility Score: inf
ROOT
ATOM      1  C   UNL     1       0.374   8.071   9.761  1.00  0.00     0.065 A 
ATOM      2  C   UNL     1       1.485   7.245   9.539  1.00  0.00     0.208 A 
ATOM      3  O   UNL     1       2.474   7.179  10.422  1.00  0.00    -0.463 OA
ATOM      4  C   UNL     1       2.485   7.876  11.556  1.00  0.00     0.147 A 
ATOM      5  C   UNL     1       1.403   8.736  11.860  1.00  0.00     0.066 A 
ATOM      6  C   UNL     1       0.342   8.836  10.941  1.00  0.00     0.200 A 
ATOM      7  O   UNL     1      -0.622   9.619  11.165  1.00  0.00    -0.288 OA
ATOM      8  C   UNL     1       1.413   9.466  13.059  1.00  0.00     0.020 A 
ATOM      9  C   UNL     1       2.476   9.334  13.951  1.00  0.00     0.047 A 
ATOM     10  C   UNL     1       3.549   8.482  13.663  1.00  0.00     0.125 A 
ATOM     11  C   UNL     1       3.572   7.753  12.453  1.00  0.00     0.069 A 
ENDROOT
BRANCH   1  12
ATOM     12  C   UNL     1      -0.722   8.123   8.761  1.00  0.00    -0.011 A 
ATOM     13  C   UNL     1      -1.682   7.097   8.708  1.00  0.00     0.013 A 
ATOM     14  C   UNL     1      -2.720   7.147   7.773  1.00  0.00     0.047 A 
ATOM     15  C   UNL     1      -2.815   8.222   6.883  1.00  0.00     0.115 A 
ATOM     16  C   UNL     1      -0.826   9.204   7.867  1.00  0.00     0.013 A 
ATOM     17  C   UNL     1      -1.867   9.251   6.933  1.00  0.00     0.047 A 
BRANCH  15  18
ATOM     18  O   UNL     1      -3.855   8.258   5.957  1.00  0.00    -0.508 OA
ATOM     19  H   UNL     1      -4.577   7.546   5.945  1.00  0.00     0.293 HD
ENDBRANCH  15  18
ENDBRANCH   1  12
BRANCH  11  20
ATOM     20  C   UNL     1       4.726   6.811  12.146  1.00  0.00     0.188 C 
ATOM     21  C   UNL     1       5.797   7.536  11.280  1.00  0.00     0.179 C 
ATOM     22  O   UNL     1       4.206   5.612  11.571  1.00  0.00    -0.362 OA
ATOM     23  C   UNL     1       6.986   6.596  10.974  1.00  0.00     0.177 C 
ATOM     24  C   UNL     1       5.028   5.029  10.566  1.00  0.00     0.176 C 
ATOM     25  C   UNL     1       6.537   5.113  10.901  1.00  0.00     0.177 C 
BRANCH  21  26
ATOM     26  O   UNL     1       6.248   8.716  11.900  1.00  0.00    -0.387 OA
ATOM     27  H   UNL     1       5.821   8.769  12.795  1.00  0.00     0.211 HD
ENDBRANCH  21  26
BRANCH  23  28
ATOM     28  O   UNL     1       7.568   6.986   9.755  1.00  0.00    -0.387 OA
ATOM     29  H   UNL     1       8.481   7.316   9.964  1.00  0.00     0.211 HD
ENDBRANCH  23  28
BRANCH  24  30
ATOM     30  C   UNL     1       4.576   3.581  10.321  1.00  0.00     0.191 C 
BRANCH  30  31
ATOM     31  O   UNL     1       4.053   3.003  11.486  1.00  0.00    -0.394 OA
ATOM     32  H   UNL     1       3.092   3.251  11.523  1.00  0.00     0.210 HD
ENDBRANCH  30  31
ENDBRANCH  24  30
BRANCH  25  33
ATOM     33  O   UNL     1       6.783   4.478  12.130  1.00  0.00    -0.388 OA
ATOM     34  H   UNL     1       7.768   4.467  12.257  1.00  0.00     0.211 HD
ENDBRANCH  25  33
ENDBRANCH  11  20
BRANCH  10  35
ATOM     35  O   UNL     1       4.591   8.358  14.581  1.00  0.00    -0.507 OA
ATOM     36  H   UNL     1       4.428   8.066  15.537  1.00  0.00     0.293 HD
ENDBRANCH  10  35
TORSDOF 9
ENDMDL
