MODEL 1
REMARK VINA RESULT:    -0.533      0.000      0.000
REMARK INTER + INTRA:          -2.993
REMARK INTER:                  -0.922
REMARK INTRA:                  -2.071
REMARK UNBOUND:                -2.071
REMARK SMILES OC[C@@H]1O[C@H](O[C@H]2[C@H](O)[C@@H](O)[C@@H](O[C@@H]3[C@@H](O)[C@H](O)[C@H](O)O[C@H]3CO)O[C@@H]2CO)[C@@H](O)[C@H](O)[C@H]1O
REMARK SMILES IDX 7 1 26 2 25 3 12 4 10 5 8 6 6 7 5 8 3 9 33 10 4 11 31 12
REMARK SMILES IDX 29 13 2 14 1 15 34 17 32 19 30 21 27 23 28 24 9 26 11 28
REMARK SMILES IDX 13 30 14 31 22 32 15 33 21 34 17 35 19 36 23 37 24 38 16 40
REMARK SMILES IDX 18 42 20 44
REMARK H PARENT 1 16 34 18 32 20 30 22 28 25 9 27 11 29 24 39 16 41 18 43
REMARK H PARENT 20 45
REMARK Flexibility Score: inf
ROOT
ATOM      1  C   UNL     1      29.744  14.523  20.750  1.00  0.00     0.184 C 
ATOM      2  C   UNL     1      28.871  15.800  20.676  1.00  0.00     0.178 C 
ATOM      3  O   UNL     1      29.029  16.431  19.421  1.00  0.00    -0.341 OA
ATOM      4  C   UNL     1      30.313  16.979  19.171  1.00  0.00     0.282 C 
ATOM      5  C   UNL     1      31.484  16.201  19.861  1.00  0.00     0.202 C 
ATOM      6  C   UNL     1      31.138  14.720  20.083  1.00  0.00     0.180 C 
ENDROOT
BRANCH   1   7
ATOM      7  O   UNL     1      29.060  13.525  20.011  1.00  0.00    -0.341 OA
BRANCH   7   8
ATOM      8  C   UNL     1      28.146  12.744  20.758  1.00  0.00     0.282 C 
ATOM      9  C   UNL     1      27.651  10.454  20.997  1.00  0.00     0.178 C 
ATOM     10  C   UNL     1      28.814  10.121  21.967  1.00  0.00     0.177 C 
ATOM     11  O   UNL     1      28.060  11.477  20.113  1.00  0.00    -0.341 OA
ATOM     12  C   UNL     1      29.573  11.416  22.390  1.00  0.00     0.179 C 
ATOM     13  C   UNL     1      28.691  12.667  22.212  1.00  0.00     0.202 C 
BRANCH   9  14
ATOM     14  C   UNL     1      27.233   9.223  20.169  1.00  0.00     0.191 C 
BRANCH  14  15
ATOM     15  O   UNL     1      27.227   8.080  20.982  1.00  0.00    -0.394 OA
ATOM     16  H   UNL     1      27.968   8.203  21.635  1.00  0.00     0.210 HD
ENDBRANCH  14  15
ENDBRANCH   9  14
BRANCH  10  17
ATOM     17  O   UNL     1      28.288   9.479  23.103  1.00  0.00    -0.387 OA
ATOM     18  H   UNL     1      27.387   9.875  23.257  1.00  0.00     0.211 HD
ENDBRANCH  10  17
BRANCH  12  19
ATOM     19  O   UNL     1      30.786  11.560  21.673  1.00  0.00    -0.387 OA
ATOM     20  H   UNL     1      31.490  11.875  22.306  1.00  0.00     0.211 HD
ENDBRANCH  12  19
BRANCH  13  21
ATOM     21  O   UNL     1      27.622  12.630  23.125  1.00  0.00    -0.385 OA
ATOM     22  H   UNL     1      26.786  12.762  22.604  1.00  0.00     0.211 HD
ENDBRANCH  13  21
ENDBRANCH   7   8
ENDBRANCH   1   7
BRANCH   2  23
ATOM     23  C   UNL     1      28.979  16.773  21.873  1.00  0.00     0.191 C 
BRANCH  23  24
ATOM     24  O   UNL     1      27.772  16.813  22.587  1.00  0.00    -0.394 OA
ATOM     25  H   UNL     1      28.003  16.977  23.538  1.00  0.00     0.210 HD
ENDBRANCH  23  24
ENDBRANCH   2  23
BRANCH   6  26
ATOM     26  O   UNL     1      32.135  14.130  20.877  1.00  0.00    -0.387 OA
ATOM     27  H   UNL     1      32.192  13.184  20.605  1.00  0.00     0.211 HD
ENDBRANCH   6  26
BRANCH   5  28
ATOM     28  O   UNL     1      32.660  16.298  19.094  1.00  0.00    -0.385 OA
ATOM     29  H   UNL     1      32.945  15.366  18.895  1.00  0.00     0.211 HD
ENDBRANCH   5  28
BRANCH   4  30
ATOM     30  O   UNL     1      30.591  17.112  17.779  1.00  0.00    -0.341 OA
BRANCH  30  31
ATOM     31  C   UNL     1      29.887  16.294  16.843  1.00  0.00     0.184 C 
ATOM     32  C   UNL     1      29.454  17.048  15.530  1.00  0.00     0.178 C 
ATOM     33  C   UNL     1      30.496  14.865  16.653  1.00  0.00     0.180 C 
ATOM     34  O   UNL     1      30.281  16.754  14.413  1.00  0.00    -0.342 OA
ATOM     35  C   UNL     1      31.161  14.633  15.280  1.00  0.00     0.201 C 
ATOM     36  C   UNL     1      30.393  15.359  14.162  1.00  0.00     0.279 C 
BRANCH  32  37
ATOM     37  C   UNL     1      27.953  16.996  15.142  1.00  0.00     0.191 C 
BRANCH  37  38
ATOM     38  O   UNL     1      27.164  16.416  16.159  1.00  0.00    -0.394 OA
ATOM     39  H   UNL     1      26.686  15.648  15.742  1.00  0.00     0.210 HD
ENDBRANCH  37  38
ENDBRANCH  32  37
BRANCH  33  40
ATOM     40  O   UNL     1      29.480  13.893  16.813  1.00  0.00    -0.387 OA
ATOM     41  H   UNL     1      29.555  13.274  16.048  1.00  0.00     0.211 HD
ENDBRANCH  33  40
BRANCH  35  42
ATOM     42  O   UNL     1      32.509  15.021  15.291  1.00  0.00    -0.385 OA
ATOM     43  H   UNL     1      32.881  14.786  16.180  1.00  0.00     0.211 HD
ENDBRANCH  35  42
BRANCH  36  44
ATOM     44  O   UNL     1      31.026  15.161  12.929  1.00  0.00    -0.366 OA
ATOM     45  H   UNL     1      31.717  15.882  12.852  1.00  0.00     0.213 HD
ENDBRANCH  36  44
ENDBRANCH  30  31
ENDBRANCH   4  30
TORSDOF 18
ENDMDL
MODEL 2
REMARK VINA RESULT:     2.048      1.606      7.003
REMARK INTER + INTRA:           1.473
REMARK INTER:                  -2.437
REMARK INTRA:                   3.909
REMARK UNBOUND:                -2.071
REMARK SMILES OC[C@@H]1O[C@H](O[C@H]2[C@H](O)[C@@H](O)[C@@H](O[C@@H]3[C@@H](O)[C@H](O)[C@H](O)O[C@H]3CO)O[C@@H]2CO)[C@@H](O)[C@H](O)[C@H]1O
REMARK SMILES IDX 7 1 26 2 25 3 12 4 10 5 8 6 6 7 5 8 3 9 33 10 4 11 31 12
REMARK SMILES IDX 29 13 2 14 1 15 34 17 32 19 30 21 27 23 28 24 9 26 11 28
REMARK SMILES IDX 13 30 14 31 22 32 15 33 21 34 17 35 19 36 23 37 24 38 16 40
REMARK SMILES IDX 18 42 20 44
REMARK H PARENT 1 16 34 18 32 20 30 22 28 25 9 27 11 29 24 39 16 41 18 43
REMARK H PARENT 20 45
REMARK Flexibility Score: inf
ROOT
ATOM      1  C   UNL     1      30.721  15.680  18.173  1.00  0.00     0.184 C 
ATOM      2  C   UNL     1      31.125  15.516  19.658  1.00  0.00     0.178 C 
ATOM      3  O   UNL     1      30.065  14.941  20.396  1.00  0.00    -0.341 OA
ATOM      4  C   UNL     1      28.907  15.748  20.530  1.00  0.00     0.282 C 
ATOM      5  C   UNL     1      28.649  16.701  19.315  1.00  0.00     0.202 C 
ATOM      6  C   UNL     1      29.241  16.143  18.011  1.00  0.00     0.180 C 
ENDROOT
BRANCH   1   7
ATOM      7  O   UNL     1      30.827  14.396  17.582  1.00  0.00    -0.341 OA
BRANCH   7   8
ATOM      8  C   UNL     1      30.446  14.328  16.220  1.00  0.00     0.282 C 
ATOM      9  C   UNL     1      29.347  15.731  14.681  1.00  0.00     0.178 C 
ATOM     10  C   UNL     1      30.570  16.626  14.352  1.00  0.00     0.177 C 
ATOM     11  O   UNL     1      29.429  15.306  16.026  1.00  0.00    -0.341 OA
ATOM     12  C   UNL     1      31.860  16.080  15.039  1.00  0.00     0.179 C 
ATOM     13  C   UNL     1      31.725  14.582  15.375  1.00  0.00     0.202 C 
BRANCH   9  14
ATOM     14  C   UNL     1      28.021  16.490  14.483  1.00  0.00     0.191 C 
BRANCH  14  15
ATOM     15  O   UNL     1      27.002  15.875  15.226  1.00  0.00    -0.394 OA
ATOM     16  H   UNL     1      26.886  14.967  14.835  1.00  0.00     0.210 HD
ENDBRANCH  14  15
ENDBRANCH   9  14
BRANCH  10  17
ATOM     17  O   UNL     1      30.745  16.660  12.957  1.00  0.00    -0.387 OA
ATOM     18  H   UNL     1      31.725  16.750  12.800  1.00  0.00     0.211 HD
ENDBRANCH  10  17
BRANCH  12  19
ATOM     19  O   UNL     1      32.176  16.821  16.205  1.00  0.00    -0.387 OA
ATOM     20  H   UNL     1      31.355  17.301  16.505  1.00  0.00     0.211 HD
ENDBRANCH  12  19
BRANCH  13  21
ATOM     21  O   UNL     1      31.673  13.831  14.186  1.00  0.00    -0.385 OA
ATOM     22  H   UNL     1      31.354  14.439  13.468  1.00  0.00     0.211 HD
ENDBRANCH  13  21
ENDBRANCH   7   8
ENDBRANCH   1   7
BRANCH   2  23
ATOM     23  C   UNL     1      31.747  16.758  20.340  1.00  0.00     0.191 C 
BRANCH  23  24
ATOM     24  O   UNL     1      33.121  16.836  20.064  1.00  0.00    -0.394 OA
ATOM     25  H   UNL     1      33.563  16.122  20.593  1.00  0.00     0.210 HD
ENDBRANCH  23  24
ENDBRANCH   2  23
BRANCH   6  26
ATOM     26  O   UNL     1      29.155  17.125  17.010  1.00  0.00    -0.387 OA
ATOM     27  H   UNL     1      30.078  17.414  16.817  1.00  0.00     0.211 HD
ENDBRANCH   6  26
BRANCH   5  28
ATOM     28  O   UNL     1      27.270  16.924  19.145  1.00  0.00    -0.385 OA
ATOM     29  H   UNL     1      27.007  17.599  19.827  1.00  0.00     0.211 HD
ENDBRANCH   5  28
BRANCH   4  30
ATOM     30  O   UNL     1      27.731  14.983  20.786  1.00  0.00    -0.341 OA
BRANCH  30  31
ATOM     31  C   UNL     1      27.855  13.599  21.119  1.00  0.00     0.184 C 
ATOM     32  C   UNL     1      28.703  12.764  20.087  1.00  0.00     0.178 C 
ATOM     33  C   UNL     1      28.139  13.326  22.633  1.00  0.00     0.180 C 
ATOM     34  O   UNL     1      30.020  12.482  20.540  1.00  0.00    -0.342 OA
ATOM     35  C   UNL     1      29.559  12.797  22.929  1.00  0.00     0.201 C 
ATOM     36  C   UNL     1      30.043  11.853  21.814  1.00  0.00     0.279 C 
BRANCH  32  37
ATOM     37  C   UNL     1      28.040  11.501  19.479  1.00  0.00     0.191 C 
BRANCH  37  38
ATOM     38  O   UNL     1      26.988  11.015  20.286  1.00  0.00    -0.394 OA
ATOM     39  H   UNL     1      26.909  11.643  21.055  1.00  0.00     0.210 HD
ENDBRANCH  37  38
ENDBRANCH  32  37
BRANCH  33  40
ATOM     40  O   UNL     1      27.211  12.378  23.125  1.00  0.00    -0.387 OA
ATOM     41  H   UNL     1      26.979  12.656  24.043  1.00  0.00     0.211 HD
ENDBRANCH  33  40
BRANCH  35  42
ATOM     42  O   UNL     1      30.468  13.847  23.122  1.00  0.00    -0.385 OA
ATOM     43  H   UNL     1      29.948  14.692  23.146  1.00  0.00     0.211 HD
ENDBRANCH  35  42
BRANCH  36  44
ATOM     44  O   UNL     1      31.342  11.405  22.086  1.00  0.00    -0.366 OA
ATOM     45  H   UNL     1      31.379  10.455  21.772  1.00  0.00     0.213 HD
ENDBRANCH  36  44
ENDBRANCH  30  31
ENDBRANCH   4  30
TORSDOF 18
ENDMDL
MODEL 3
REMARK VINA RESULT:     2.370      1.575      2.514
REMARK INTER + INTRA:           2.031
REMARK INTER:                   0.942
REMARK INTRA:                   1.089
REMARK UNBOUND:                -2.071
REMARK SMILES OC[C@@H]1O[C@H](O[C@H]2[C@H](O)[C@@H](O)[C@@H](O[C@@H]3[C@@H](O)[C@H](O)[C@H](O)O[C@H]3CO)O[C@@H]2CO)[C@@H](O)[C@H](O)[C@H]1O
REMARK SMILES IDX 7 1 26 2 25 3 12 4 10 5 8 6 6 7 5 8 3 9 33 10 4 11 31 12
REMARK SMILES IDX 29 13 2 14 1 15 34 17 32 19 30 21 27 23 28 24 9 26 11 28
REMARK SMILES IDX 13 30 14 31 22 32 15 33 21 34 17 35 19 36 23 37 24 38 16 40
REMARK SMILES IDX 18 42 20 44
REMARK H PARENT 1 16 34 18 32 20 30 22 28 25 9 27 11 29 24 39 16 41 18 43
REMARK H PARENT 20 45
REMARK Flexibility Score: inf
ROOT
ATOM      1  C   UNL     1      28.744  15.183  19.891  1.00  0.00     0.184 C 
ATOM      2  C   UNL     1      27.430  15.705  19.261  1.00  0.00     0.178 C 
ATOM      3  O   UNL     1      27.515  15.677  17.850  1.00  0.00    -0.341 OA
ATOM      4  C   UNL     1      28.451  16.576  17.279  1.00  0.00     0.282 C 
ATOM      5  C   UNL     1      29.701  16.854  18.179  1.00  0.00     0.202 C 
ATOM      6  C   UNL     1      30.005  15.677  19.119  1.00  0.00     0.180 C 
ENDROOT
BRANCH   1   7
ATOM      7  O   UNL     1      28.710  13.770  19.781  1.00  0.00    -0.341 OA
BRANCH   7   8
ATOM      8  C   UNL     1      28.603  13.075  21.011  1.00  0.00     0.282 C 
ATOM      9  C   UNL     1      28.622  10.826  21.708  1.00  0.00     0.178 C 
ATOM     10  C   UNL     1      30.161  10.642  21.674  1.00  0.00     0.177 C 
ATOM     11  O   UNL     1      28.239  11.734  20.697  1.00  0.00    -0.341 OA
ATOM     12  C   UNL     1      30.876  11.994  21.370  1.00  0.00     0.179 C 
ATOM     13  C   UNL     1      29.979  13.195  21.725  1.00  0.00     0.202 C 
BRANCH   9  14
ATOM     14  C   UNL     1      27.886   9.491  21.479  1.00  0.00     0.191 C 
BRANCH  14  15
ATOM     15  O   UNL     1      27.807   8.775  22.682  1.00  0.00    -0.394 OA
ATOM     16  H   UNL     1      28.197   7.879  22.495  1.00  0.00     0.210 HD
ENDBRANCH  14  15
ENDBRANCH   9  14
BRANCH  10  17
ATOM     17  O   UNL     1      30.586  10.141  22.918  1.00  0.00    -0.387 OA
ATOM     18  H   UNL     1      31.579  10.079  22.870  1.00  0.00     0.211 HD
ENDBRANCH  10  17
BRANCH  12  19
ATOM     19  O   UNL     1      31.288  12.067  20.016  1.00  0.00    -0.387 OA
ATOM     20  H   UNL     1      30.633  11.560  19.461  1.00  0.00     0.211 HD
ENDBRANCH  12  19
BRANCH  13  21
ATOM     21  O   UNL     1      29.793  13.256  23.118  1.00  0.00    -0.385 OA
ATOM     22  H   UNL     1      29.693  14.214  23.359  1.00  0.00     0.211 HD
ENDBRANCH  13  21
ENDBRANCH   7   8
ENDBRANCH   1   7
BRANCH   2  23
ATOM     23  C   UNL     1      26.886  17.041  19.819  1.00  0.00     0.191 C 
BRANCH  23  24
ATOM     24  O   UNL     1      27.108  17.125  21.202  1.00  0.00    -0.394 OA
ATOM     25  H   UNL     1      27.096  16.197  21.554  1.00  0.00     0.210 HD
ENDBRANCH  23  24
ENDBRANCH   2  23
BRANCH   6  26
ATOM     26  O   UNL     1      31.001  16.063  20.032  1.00  0.00    -0.387 OA
ATOM     27  H   UNL     1      30.775  16.976  20.329  1.00  0.00     0.211 HD
ENDBRANCH   6  26
BRANCH   5  28
ATOM     28  O   UNL     1      30.832  17.124  17.386  1.00  0.00    -0.385 OA
ATOM     29  H   UNL     1      31.225  17.969  17.732  1.00  0.00     0.211 HD
ENDBRANCH   5  28
BRANCH   4  30
ATOM     30  O   UNL     1      28.886  16.165  15.984  1.00  0.00    -0.341 OA
BRANCH  30  31
ATOM     31  C   UNL     1      30.248  15.783  15.791  1.00  0.00     0.184 C 
ATOM     32  C   UNL     1      30.471  14.228  15.686  1.00  0.00     0.178 C 
ATOM     33  C   UNL     1      31.023  16.666  14.757  1.00  0.00     0.180 C 
ATOM     34  O   UNL     1      30.673  13.777  14.355  1.00  0.00    -0.342 OA
ATOM     35  C   UNL     1      31.372  15.944  13.438  1.00  0.00     0.201 C 
ATOM     36  C   UNL     1      31.724  14.467  13.692  1.00  0.00     0.279 C 
BRANCH  32  37
ATOM     37  C   UNL     1      31.503  13.590  16.654  1.00  0.00     0.191 C 
BRANCH  37  38
ATOM     38  O   UNL     1      30.887  13.064  17.810  1.00  0.00    -0.394 OA
ATOM     39  H   UNL     1      31.519  13.224  18.564  1.00  0.00     0.210 HD
ENDBRANCH  37  38
ENDBRANCH  32  37
BRANCH  33  40
ATOM     40  O   UNL     1      32.231  17.123  15.335  1.00  0.00    -0.387 OA
ATOM     41  H   UNL     1      31.985  17.626  16.149  1.00  0.00     0.211 HD
ENDBRANCH  33  40
BRANCH  35  42
ATOM     42  O   UNL     1      30.335  16.054  12.502  1.00  0.00    -0.385 OA
ATOM     43  H   UNL     1      30.281  17.006  12.225  1.00  0.00     0.211 HD
ENDBRANCH  35  42
BRANCH  36  44
ATOM     44  O   UNL     1      32.011  13.821  12.483  1.00  0.00    -0.366 OA
ATOM     45  H   UNL     1      31.457  12.987  12.475  1.00  0.00     0.213 HD
ENDBRANCH  36  44
ENDBRANCH  30  31
ENDBRANCH   4  30
TORSDOF 18
ENDMDL
