MODEL 1
REMARK VINA RESULT:    -3.223      0.000      0.000
REMARK INTER + INTRA:          -2.229
REMARK INTER:                  -4.541
REMARK INTRA:                   2.312
REMARK UNBOUND:                 2.312
REMARK SMILES CC1=CCCC(C)=CCC(C)(C)C=CC1
REMARK SMILES IDX 2 1 3 2 1 3 4 4 5 5 6 6 7 7 8 8 15 10 14 11 13 12 10 13
REMARK SMILES IDX 11 14 12 15 9 16
REMARK H PARENT
REMARK Flexibility Score: 60.00
ROOT
ATOM      1  C   UNL     1     139.068 135.164 124.577  1.00  0.00    -0.074 C 
ATOM      2  C   UNL     1     139.883 135.338 123.507  1.00  0.00    -0.027 C 
ATOM      3  C   UNL     1     139.686 135.313 125.946  1.00  0.00     0.039 C 
ENDROOT
BRANCH   2   4
ATOM      4  C   UNL     1     139.481 135.275 122.051  1.00  0.00     0.032 C 
BRANCH   4   5
ATOM      5  C   UNL     1     138.043 135.770 121.792  1.00  0.00     0.034 C 
BRANCH   5   6
ATOM      6  C   UNL     1     137.935 137.238 121.407  1.00  0.00    -0.077 C 
ATOM      7  C   UNL     1     137.912 137.606 119.945  1.00  0.00     0.039 C 
ATOM      8  C   UNL     1     137.875 138.240 122.312  1.00  0.00    -0.027 CG0
ATOM      9  G   UNL     1     137.876 138.052 123.814  1.00  0.00     0.000 G0
ENDBRANCH   5   6
ENDBRANCH   4   5
ENDBRANCH   2   4
BRANCH   1  10
ATOM     10  C   UNL     1     137.574 134.882 124.489  1.00  0.00     0.057 C 
BRANCH  10  11
ATOM     11  C   UNL     1     136.818 135.615 125.573  1.00  0.00    -0.026 C 
ATOM     12  C   UNL     1     136.354 136.884 125.551  1.00  0.00    -0.024 C 
BRANCH  12  13
ATOM     13  C   UNL     1     136.437 137.925 124.423  1.00  0.00    -0.014 C 
ATOM     14  C   UNL     1     135.914 139.286 124.927  1.00  0.00     0.016 C 
ATOM     15  C   UNL     1     135.489 137.465 123.287  1.00  0.00     0.016 C 
BRANCH  13  16
ATOM     16  C   UNL     1     137.872 138.080 123.824  1.00  0.00     0.038 CG0
ATOM     17  G   UNL     1     137.867 138.245 122.319  1.00  0.00     0.000 G0
ENDBRANCH  13  16
ENDBRANCH  12  13
ENDBRANCH  10  11
ENDBRANCH   1  10
TORSDOF 0
ENDMDL
MODEL 2
REMARK VINA RESULT:    -1.453      1.435      4.712
REMARK INTER + INTRA:           0.265
REMARK INTER:                  -1.742
REMARK INTRA:                   2.007
REMARK UNBOUND:                 2.312
REMARK SMILES CC1=CCCC(C)=CCC(C)(C)C=CC1
REMARK SMILES IDX 2 1 3 2 1 3 4 4 5 5 6 6 7 7 8 8 15 10 14 11 13 12 10 13
REMARK SMILES IDX 11 14 12 15 9 16
REMARK H PARENT
REMARK Flexibility Score: 60.00
ROOT
ATOM      1  C   UNL     1     135.935 138.430 124.185  1.00  0.00    -0.074 C 
ATOM      2  C   UNL     1     136.169 137.796 125.361  1.00  0.00    -0.027 C 
ATOM      3  C   UNL     1     135.681 139.917 124.241  1.00  0.00     0.039 C 
ENDROOT
BRANCH   2   4
ATOM      4  C   UNL     1     136.484 136.329 125.543  1.00  0.00     0.032 C 
BRANCH   4   5
ATOM      5  C   UNL     1     137.672 136.071 126.494  1.00  0.00     0.034 C 
BRANCH   5   6
ATOM      6  C   UNL     1     138.881 135.419 125.840  1.00  0.00    -0.077 C 
ATOM      7  C   UNL     1     140.129 135.215 126.660  1.00  0.00     0.039 C 
ATOM      8  C   UNL     1     138.902 135.026 124.547  1.00  0.00    -0.027 CG0
ATOM      9  G   UNL     1     137.740 135.144 123.585  1.00  0.00     0.000 G0
ENDBRANCH   5   6
ENDBRANCH   4   5
ENDBRANCH   2   4
BRANCH   1  10
ATOM     10  C   UNL     1     135.963 137.757 122.819  1.00  0.00     0.057 C 
BRANCH  10  11
ATOM     11  C   UNL     1     137.299 137.954 122.142  1.00  0.00    -0.026 C 
ATOM     12  C   UNL     1     138.238 137.021 121.866  1.00  0.00    -0.024 C 
BRANCH  12  13
ATOM     13  C   UNL     1     138.206 135.508 122.133  1.00  0.00    -0.014 C 
ATOM     14  C   UNL     1     139.591 134.895 121.836  1.00  0.00     0.016 C 
ATOM     15  C   UNL     1     137.204 134.875 121.136  1.00  0.00     0.016 C 
BRANCH  13  16
ATOM     16  C   UNL     1     137.746 135.141 123.581  1.00  0.00     0.038 CG0
ATOM     17  G   UNL     1     138.900 135.027 124.553  1.00  0.00     0.000 G0
ENDBRANCH  13  16
ENDBRANCH  12  13
ENDBRANCH  10  11
ENDBRANCH   1  10
TORSDOF 0
ENDMDL
MODEL 3
REMARK VINA RESULT:    -0.515      1.531      3.199
REMARK INTER + INTRA:           1.587
REMARK INTER:                  -0.893
REMARK INTRA:                   2.480
REMARK UNBOUND:                 2.312
REMARK SMILES CC1=CCCC(C)=CCC(C)(C)C=CC1
REMARK SMILES IDX 2 1 3 2 1 3 4 4 5 5 6 6 7 7 8 8 15 10 14 11 13 12 10 13
REMARK SMILES IDX 11 14 12 15 9 16
REMARK H PARENT
REMARK Flexibility Score: 60.00
ROOT
ATOM      1  C   UNL     1     140.036 137.041 123.913  1.00  0.00    -0.074 C 
ATOM      2  C   UNL     1     139.724 135.834 123.378  1.00  0.00    -0.027 C 
ATOM      3  C   UNL     1     141.310 137.131 124.718  1.00  0.00     0.039 C 
ENDROOT
BRANCH   2   4
ATOM      4  C   UNL     1     138.527 135.518 122.511  1.00  0.00     0.032 C 
BRANCH   4   5
ATOM      5  C   UNL     1     137.359 134.877 123.288  1.00  0.00     0.034 C 
BRANCH   5   6
ATOM      6  C   UNL     1     137.124 135.456 124.675  1.00  0.00    -0.077 C 
ATOM      7  C   UNL     1     137.884 134.879 125.842  1.00  0.00     0.039 C 
ATOM      8  C   UNL     1     136.251 136.457 124.922  1.00  0.00    -0.027 CG0
ATOM      9  G   UNL     1     135.416 137.158 123.873  1.00  0.00     0.000 G0
ENDBRANCH   5   6
ENDBRANCH   4   5
ENDBRANCH   2   4
BRANCH   1  10
ATOM     10  C   UNL     1     139.220 138.311 123.715  1.00  0.00     0.057 C 
BRANCH  10  11
ATOM     11  C   UNL     1     138.425 138.252 122.431  1.00  0.00    -0.026 C 
ATOM     12  C   UNL     1     137.083 138.323 122.279  1.00  0.00    -0.024 C 
BRANCH  12  13
ATOM     13  C   UNL     1     135.997 138.508 123.351  1.00  0.00    -0.014 C 
ATOM     14  C   UNL     1     134.875 139.418 122.806  1.00  0.00     0.016 C 
ATOM     15  C   UNL     1     136.640 139.246 124.551  1.00  0.00     0.016 C 
BRANCH  13  16
ATOM     16  C   UNL     1     135.401 137.161 123.873  1.00  0.00     0.038 CG0
ATOM     17  G   UNL     1     136.282 136.488 124.903  1.00  0.00     0.000 G0
ENDBRANCH  13  16
ENDBRANCH  12  13
ENDBRANCH  10  11
ENDBRANCH   1  10
TORSDOF 0
ENDMDL
