MODEL 1
REMARK VINA RESULT:    -4.500      0.000      0.000
REMARK INTER + INTRA:          -6.896
REMARK INTER:                  -6.604
REMARK INTRA:                  -0.292
REMARK UNBOUND:                -0.292
REMARK SMILES O=C([O-])CCCCCCCC(=O)[O-]
REMARK SMILES IDX 7 1 6 2 5 3 4 4 2 5 1 6 3 7 8 8 9 9 10 10 11 11 12 12 13 13
REMARK H PARENT
REMARK Flexibility Score: inf
ROOT
ATOM      1  C   UNL     1      38.671 -24.909  -4.488  1.00  0.00     0.000 C 
ENDROOT
BRANCH   1   2
ATOM      2  C   UNL     1      38.911 -24.857  -2.972  1.00  0.00     0.000 C 
BRANCH   2   3
ATOM      3  C   UNL     1      39.451 -23.498  -2.503  1.00  0.00     0.006 C 
BRANCH   3   4
ATOM      4  C   UNL     1      40.664 -23.632  -1.572  1.00  0.00     0.053 C 
BRANCH   4   5
ATOM      5  C   UNL     1      40.229 -24.055  -0.204  1.00  0.00     0.041 C 
ATOM      6  O   UNL     1      40.952 -24.825   0.481  1.00  0.00    -0.550 OA
ATOM      7  O   UNL     1      39.000 -23.640   0.294  1.00  0.00    -0.550 OA
ENDBRANCH   4   5
ENDBRANCH   3   4
ENDBRANCH   2   3
ENDBRANCH   1   2
BRANCH   1   8
ATOM      8  C   UNL     1      39.803 -25.665  -5.198  1.00  0.00     0.000 C 
BRANCH   8   9
ATOM      9  C   UNL     1      40.320 -24.931  -6.450  1.00  0.00     0.006 C 
BRANCH   9  10
ATOM     10  C   UNL     1      41.753 -25.305  -6.855  1.00  0.00     0.053 C 
BRANCH  10  11
ATOM     11  C   UNL     1      42.157 -24.663  -8.147  1.00  0.00     0.041 C 
ATOM     12  O   UNL     1      43.175 -23.923  -8.197  1.00  0.00    -0.550 OA
ATOM     13  O   UNL     1      41.427 -24.909  -9.302  1.00  0.00    -0.550 OA
ENDBRANCH  10  11
ENDBRANCH   9  10
ENDBRANCH   8   9
ENDBRANCH   1   8
TORSDOF 8
ENDMDL
MODEL 2
REMARK VINA RESULT:    -4.451      1.016      7.046
REMARK INTER + INTRA:          -6.825
REMARK INTER:                  -6.523
REMARK INTRA:                  -0.302
REMARK UNBOUND:                -0.292
REMARK SMILES O=C([O-])CCCCCCCC(=O)[O-]
REMARK SMILES IDX 7 1 6 2 5 3 4 4 2 5 1 6 3 7 8 8 9 9 10 10 11 11 12 12 13 13
REMARK H PARENT
REMARK Flexibility Score: inf
ROOT
ATOM      1  C   UNL     1      38.895 -24.978  -3.601  1.00  0.00     0.000 C 
ENDROOT
BRANCH   1   2
ATOM      2  C   UNL     1      39.295 -25.778  -4.850  1.00  0.00     0.000 C 
BRANCH   2   3
ATOM      3  C   UNL     1      39.886 -24.892  -5.957  1.00  0.00     0.006 C 
BRANCH   3   4
ATOM      4  C   UNL     1      41.280 -25.354  -6.403  1.00  0.00     0.053 C 
BRANCH   4   5
ATOM      5  C   UNL     1      41.626 -24.762  -7.733  1.00  0.00     0.041 C 
ATOM      6  O   UNL     1      40.758 -24.696  -8.643  1.00  0.00    -0.550 OA
ATOM      7  O   UNL     1      42.923 -24.331  -7.985  1.00  0.00    -0.550 OA
ENDBRANCH   4   5
ENDBRANCH   3   4
ENDBRANCH   2   3
ENDBRANCH   1   2
BRANCH   1   8
ATOM      8  C   UNL     1      40.109 -24.250  -3.005  1.00  0.00     0.000 C 
BRANCH   8   9
ATOM      9  C   UNL     1      39.847 -23.715  -1.585  1.00  0.00     0.006 C 
BRANCH   9  10
ATOM     10  C   UNL     1      39.089 -24.690  -0.672  1.00  0.00     0.053 C 
BRANCH  10  11
ATOM     11  C   UNL     1      39.837 -24.968   0.596  1.00  0.00     0.041 C 
ATOM     12  O   UNL     1      39.213 -25.261   1.650  1.00  0.00    -0.550 OA
ATOM     13  O   UNL     1      41.226 -24.937   0.604  1.00  0.00    -0.550 OA
ENDBRANCH  10  11
ENDBRANCH   9  10
ENDBRANCH   8   9
ENDBRANCH   1   8
TORSDOF 8
ENDMDL
MODEL 3
REMARK VINA RESULT:    -4.344      2.358      3.203
REMARK INTER + INTRA:          -6.667
REMARK INTER:                  -6.403
REMARK INTRA:                  -0.264
REMARK UNBOUND:                -0.292
REMARK SMILES O=C([O-])CCCCCCCC(=O)[O-]
REMARK SMILES IDX 7 1 6 2 5 3 4 4 2 5 1 6 3 7 8 8 9 9 10 10 11 11 12 12 13 13
REMARK H PARENT
REMARK Flexibility Score: inf
ROOT
ATOM      1  C   UNL     1      38.986 -24.634  -2.091  1.00  0.00     0.000 C 
ENDROOT
BRANCH   1   2
ATOM      2  C   UNL     1      39.761 -23.720  -1.129  1.00  0.00     0.000 C 
BRANCH   2   3
ATOM      3  C   UNL     1      40.459 -24.498  -0.004  1.00  0.00     0.006 C 
BRANCH   3   4
ATOM      4  C   UNL     1      39.468 -25.126   0.984  1.00  0.00     0.053 C 
BRANCH   4   5
ATOM      5  C   UNL     1      40.162 -26.118   1.862  1.00  0.00     0.041 C 
ATOM      6  O   UNL     1      41.364 -26.425   1.645  1.00  0.00    -0.550 OA
ATOM      7  O   UNL     1      39.467 -26.744   2.890  1.00  0.00    -0.550 OA
ENDBRANCH   4   5
ENDBRANCH   3   4
ENDBRANCH   2   3
ENDBRANCH   1   2
BRANCH   1   8
ATOM      8  C   UNL     1      39.274 -24.260  -3.553  1.00  0.00     0.000 C 
BRANCH   8   9
ATOM      9  C   UNL     1      39.565 -25.487  -4.438  1.00  0.00     0.006 C 
BRANCH   9  10
ATOM     10  C   UNL     1      39.941 -25.145  -5.887  1.00  0.00     0.053 C 
BRANCH  10  11
ATOM     11  C   UNL     1      38.847 -24.400  -6.590  1.00  0.00     0.041 C 
ATOM     12  O   UNL     1      37.709 -24.921  -6.723  1.00  0.00    -0.550 OA
ATOM     13  O   UNL     1      39.078 -23.117  -7.069  1.00  0.00    -0.550 OA
ENDBRANCH  10  11
ENDBRANCH   9  10
ENDBRANCH   8   9
ENDBRANCH   1   8
TORSDOF 8
ENDMDL
MODEL 4
REMARK VINA RESULT:    -4.326     14.087     16.357
REMARK INTER + INTRA:          -6.641
REMARK INTER:                  -5.920
REMARK INTRA:                  -0.721
REMARK UNBOUND:                -0.292
REMARK SMILES O=C([O-])CCCCCCCC(=O)[O-]
REMARK SMILES IDX 7 1 6 2 5 3 4 4 2 5 1 6 3 7 8 8 9 9 10 10 11 11 12 12 13 13
REMARK H PARENT
REMARK Flexibility Score: inf
ROOT
ATOM      1  C   UNL     1      50.268 -37.055  -5.702  1.00  0.00     0.000 C 
ENDROOT
BRANCH   1   2
ATOM      2  C   UNL     1      49.682 -37.547  -7.034  1.00  0.00     0.000 C 
BRANCH   2   3
ATOM      3  C   UNL     1      50.667 -38.416  -7.831  1.00  0.00     0.006 C 
BRANCH   3   4
ATOM      4  C   UNL     1      51.272 -37.675  -9.030  1.00  0.00     0.053 C 
BRANCH   4   5
ATOM      5  C   UNL     1      52.630 -37.147  -8.688  1.00  0.00     0.041 C 
ATOM      6  O   UNL     1      53.224 -37.548  -7.653  1.00  0.00    -0.550 OA
ATOM      7  O   UNL     1      53.218 -36.172  -9.485  1.00  0.00    -0.550 OA
ENDBRANCH   4   5
ENDBRANCH   3   4
ENDBRANCH   2   3
ENDBRANCH   1   2
BRANCH   1   8
ATOM      8  C   UNL     1      50.216 -35.522  -5.613  1.00  0.00     0.000 C 
BRANCH   8   9
ATOM      9  C   UNL     1      49.775 -34.862  -6.933  1.00  0.00     0.006 C 
BRANCH   9  10
ATOM     10  C   UNL     1      50.830 -33.940  -7.562  1.00  0.00     0.053 C 
BRANCH  10  11
ATOM     11  C   UNL     1      50.210 -32.758  -8.242  1.00  0.00     0.041 C 
ATOM     12  O   UNL     1      49.156 -32.243  -7.782  1.00  0.00    -0.550 OA
ATOM     13  O   UNL     1      50.814 -32.205  -9.363  1.00  0.00    -0.550 OA
ENDBRANCH  10  11
ENDBRANCH   9  10
ENDBRANCH   8   9
ENDBRANCH   1   8
TORSDOF 8
ENDMDL
MODEL 5
REMARK VINA RESULT:    -4.311     12.437     14.481
REMARK INTER + INTRA:          -6.619
REMARK INTER:                  -5.829
REMARK INTRA:                  -0.790
REMARK UNBOUND:                -0.292
REMARK SMILES O=C([O-])CCCCCCCC(=O)[O-]
REMARK SMILES IDX 7 1 6 2 5 3 4 4 2 5 1 6 3 7 8 8 9 9 10 10 11 11 12 12 13 13
REMARK H PARENT
REMARK Flexibility Score: inf
ROOT
ATOM      1  C   UNL     1      45.463 -28.550   9.588  1.00  0.00     0.000 C 
ENDROOT
BRANCH   1   2
ATOM      2  C   UNL     1      46.122 -27.172   9.755  1.00  0.00     0.000 C 
BRANCH   2   3
ATOM      3  C   UNL     1      47.639 -27.206   9.515  1.00  0.00     0.006 C 
BRANCH   3   4
ATOM      4  C   UNL     1      48.157 -25.942   8.818  1.00  0.00     0.053 C 
BRANCH   4   5
ATOM      5  C   UNL     1      49.565 -26.140   8.352  1.00  0.00     0.041 C 
ATOM      6  O   UNL     1      50.429 -26.619   9.133  1.00  0.00    -0.550 OA
ATOM      7  O   UNL     1      49.935 -25.749   7.072  1.00  0.00    -0.550 OA
ENDBRANCH   4   5
ENDBRANCH   3   4
ENDBRANCH   2   3
ENDBRANCH   1   2
BRANCH   1   8
ATOM      8  C   UNL     1      44.713 -28.640   8.251  1.00  0.00     0.000 C 
BRANCH   8   9
ATOM      9  C   UNL     1      45.629 -29.029   7.076  1.00  0.00     0.006 C 
BRANCH   9  10
ATOM     10  C   UNL     1      45.778 -27.939   6.004  1.00  0.00     0.053 C 
BRANCH  10  11
ATOM     11  C   UNL     1      47.213 -27.692   5.650  1.00  0.00     0.041 C 
ATOM     12  O   UNL     1      47.529 -26.710   4.928  1.00  0.00    -0.550 OA
ATOM     13  O   UNL     1      48.204 -28.529   6.147  1.00  0.00    -0.550 OA
ENDBRANCH  10  11
ENDBRANCH   9  10
ENDBRANCH   8   9
ENDBRANCH   1   8
TORSDOF 8
ENDMDL
MODEL 6
REMARK VINA RESULT:    -4.278     13.083     15.174
REMARK INTER + INTRA:          -6.571
REMARK INTER:                  -6.024
REMARK INTRA:                  -0.547
REMARK UNBOUND:                -0.292
REMARK SMILES O=C([O-])CCCCCCCC(=O)[O-]
REMARK SMILES IDX 7 1 6 2 5 3 4 4 2 5 1 6 3 7 8 8 9 9 10 10 11 11 12 12 13 13
REMARK H PARENT
REMARK Flexibility Score: inf
ROOT
ATOM      1  C   UNL     1      46.900 -27.268   5.791  1.00  0.00     0.000 C 
ENDROOT
BRANCH   1   2
ATOM      2  C   UNL     1      47.928 -27.823   6.790  1.00  0.00     0.000 C 
BRANCH   2   3
ATOM      3  C   UNL     1      48.528 -26.733   7.691  1.00  0.00     0.006 C 
BRANCH   3   4
ATOM      4  C   UNL     1      49.944 -27.075   8.171  1.00  0.00     0.053 C 
BRANCH   4   5
ATOM      5  C   UNL     1      50.955 -26.681   7.140  1.00  0.00     0.041 C 
ATOM      6  O   UNL     1      50.819 -25.606   6.498  1.00  0.00    -0.550 OA
ATOM      7  O   UNL     1      52.019 -27.526   6.852  1.00  0.00    -0.550 OA
ENDBRANCH   4   5
ENDBRANCH   3   4
ENDBRANCH   2   3
ENDBRANCH   1   2
BRANCH   1   8
ATOM      8  C   UNL     1      45.524 -27.916   6.004  1.00  0.00     0.000 C 
BRANCH   8   9
ATOM      9  C   UNL     1      45.482 -28.838   7.237  1.00  0.00     0.006 C 
BRANCH   9  10
ATOM     10  C   UNL     1      44.358 -28.512   8.232  1.00  0.00     0.053 C 
BRANCH  10  11
ATOM     11  C   UNL     1      44.872 -27.794   9.443  1.00  0.00     0.041 C 
ATOM     12  O   UNL     1      46.025 -28.042   9.886  1.00  0.00    -0.550 OA
ATOM     13  O   UNL     1      44.089 -26.828  10.062  1.00  0.00    -0.550 OA
ENDBRANCH  10  11
ENDBRANCH   9  10
ENDBRANCH   8   9
ENDBRANCH   1   8
TORSDOF 8
ENDMDL
MODEL 7
REMARK VINA RESULT:    -4.249     11.156     12.425
REMARK INTER + INTRA:          -6.528
REMARK INTER:                  -6.231
REMARK INTRA:                  -0.297
REMARK UNBOUND:                -0.292
REMARK SMILES O=C([O-])CCCCCCCC(=O)[O-]
REMARK SMILES IDX 7 1 6 2 5 3 4 4 2 5 1 6 3 7 8 8 9 9 10 10 11 11 12 12 13 13
REMARK H PARENT
REMARK Flexibility Score: inf
ROOT
ATOM      1  C   UNL     1      47.597 -28.107   6.058  1.00  0.00     0.000 C 
ENDROOT
BRANCH   1   2
ATOM      2  C   UNL     1      46.301 -28.924   6.180  1.00  0.00     0.000 C 
BRANCH   2   3
ATOM      3  C   UNL     1      45.172 -28.146   6.871  1.00  0.00     0.006 C 
BRANCH   3   4
ATOM      4  C   UNL     1      44.753 -28.774   8.207  1.00  0.00     0.053 C 
BRANCH   4   5
ATOM      5  C   UNL     1      45.078 -27.856   9.342  1.00  0.00     0.041 C 
ATOM      6  O   UNL     1      46.232 -27.857   9.847  1.00  0.00    -0.550 OA
ATOM      7  O   UNL     1      44.093 -27.035   9.877  1.00  0.00    -0.550 OA
ENDBRANCH   4   5
ENDBRANCH   3   4
ENDBRANCH   2   3
ENDBRANCH   1   2
BRANCH   1   8
ATOM      8  C   UNL     1      47.497 -27.088   4.914  1.00  0.00     0.000 C 
BRANCH   8   9
ATOM      9  C   UNL     1      48.834 -26.381   4.624  1.00  0.00     0.006 C 
BRANCH   9  10
ATOM     10  C   UNL     1      49.582 -26.923   3.396  1.00  0.00     0.053 C 
BRANCH  10  11
ATOM     11  C   UNL     1      49.000 -26.413   2.114  1.00  0.00     0.041 C 
ATOM     12  O   UNL     1      49.085 -25.191   1.819  1.00  0.00    -0.550 OA
ATOM     13  O   UNL     1      48.392 -27.294   1.229  1.00  0.00    -0.550 OA
ENDBRANCH  10  11
ENDBRANCH   9  10
ENDBRANCH   8   9
ENDBRANCH   1   8
TORSDOF 8
ENDMDL
MODEL 8
REMARK VINA RESULT:    -4.206     14.044     15.453
REMARK INTER + INTRA:          -6.465
REMARK INTER:                  -5.512
REMARK INTRA:                  -0.953
REMARK UNBOUND:                -0.292
REMARK SMILES O=C([O-])CCCCCCCC(=O)[O-]
REMARK SMILES IDX 7 1 6 2 5 3 4 4 2 5 1 6 3 7 8 8 9 9 10 10 11 11 12 12 13 13
REMARK H PARENT
REMARK Flexibility Score: inf
ROOT
ATOM      1  C   UNL     1      49.051 -33.642  -7.103  1.00  0.00     0.000 C 
ENDROOT
BRANCH   1   2
ATOM      2  C   UNL     1      50.003 -33.922  -5.931  1.00  0.00     0.000 C 
BRANCH   2   3
ATOM      3  C   UNL     1      50.452 -35.390  -5.869  1.00  0.00     0.006 C 
BRANCH   3   4
ATOM      4  C   UNL     1      50.015 -36.194  -7.101  1.00  0.00     0.053 C 
BRANCH   4   5
ATOM      5  C   UNL     1      51.094 -37.142  -7.517  1.00  0.00     0.041 C 
ATOM      6  O   UNL     1      52.174 -37.195  -6.872  1.00  0.00    -0.550 OA
ATOM      7  O   UNL     1      50.929 -37.930  -8.650  1.00  0.00    -0.550 OA
ENDBRANCH   4   5
ENDBRANCH   3   4
ENDBRANCH   2   3
ENDBRANCH   1   2
BRANCH   1   8
ATOM      8  C   UNL     1      49.451 -32.354  -7.838  1.00  0.00     0.000 C 
BRANCH   8   9
ATOM      9  C   UNL     1      50.925 -31.970  -7.612  1.00  0.00     0.006 C 
BRANCH   9  10
ATOM     10  C   UNL     1      51.842 -32.251  -8.812  1.00  0.00     0.053 C 
BRANCH  10  11
ATOM     11  C   UNL     1      52.259 -33.689  -8.875  1.00  0.00     0.041 C 
ATOM     12  O   UNL     1      53.074 -34.151  -8.034  1.00  0.00    -0.550 OA
ATOM     13  O   UNL     1      51.720 -34.526  -9.844  1.00  0.00    -0.550 OA
ENDBRANCH  10  11
ENDBRANCH   9  10
ENDBRANCH   8   9
ENDBRANCH   1   8
TORSDOF 8
ENDMDL
MODEL 9
REMARK VINA RESULT:    -4.197     13.020     15.121
REMARK INTER + INTRA:          -6.452
REMARK INTER:                  -5.951
REMARK INTRA:                  -0.501
REMARK UNBOUND:                -0.292
REMARK SMILES O=C([O-])CCCCCCCC(=O)[O-]
REMARK SMILES IDX 7 1 6 2 5 3 4 4 2 5 1 6 3 7 8 8 9 9 10 10 11 11 12 12 13 13
REMARK H PARENT
REMARK Flexibility Score: inf
ROOT
ATOM      1  C   UNL     1      47.175 -27.441   5.630  1.00  0.00     0.000 C 
ENDROOT
BRANCH   1   2
ATOM      2  C   UNL     1      48.094 -27.009   6.784  1.00  0.00     0.000 C 
BRANCH   2   3
ATOM      3  C   UNL     1      49.441 -27.748   6.778  1.00  0.00     0.006 C 
BRANCH   3   4
ATOM      4  C   UNL     1      50.030 -27.893   5.369  1.00  0.00     0.053 C 
BRANCH   4   5
ATOM      5  C   UNL     1      50.849 -29.141   5.270  1.00  0.00     0.041 C 
ATOM      6  O   UNL     1      51.427 -29.436   4.191  1.00  0.00    -0.550 OA
ATOM      7  O   UNL     1      50.931 -30.006   6.354  1.00  0.00    -0.550 OA
ENDBRANCH   4   5
ENDBRANCH   3   4
ENDBRANCH   2   3
ENDBRANCH   1   2
BRANCH   1   8
ATOM      8  C   UNL     1      45.795 -27.861   6.157  1.00  0.00     0.000 C 
BRANCH   8   9
ATOM      9  C   UNL     1      45.874 -28.978   7.215  1.00  0.00     0.006 C 
BRANCH   9  10
ATOM     10  C   UNL     1      44.790 -28.898   8.300  1.00  0.00     0.053 C 
BRANCH  10  11
ATOM     11  C   UNL     1      45.122 -27.883   9.351  1.00  0.00     0.041 C 
ATOM     12  O   UNL     1      44.225 -27.125   9.807  1.00  0.00    -0.550 OA
ATOM     13  O   UNL     1      46.415 -27.798   9.850  1.00  0.00    -0.550 OA
ENDBRANCH  10  11
ENDBRANCH   9  10
ENDBRANCH   8   9
ENDBRANCH   1   8
TORSDOF 8
ENDMDL
