MODEL 1
REMARK VINA RESULT:    -4.977      0.000      0.000
REMARK INTER + INTRA:          -5.894
REMARK INTER:                  -5.850
REMARK INTRA:                  -0.044
REMARK UNBOUND:                -0.044
REMARK SMILES CCCCC(=O)[O-]
REMARK SMILES IDX 4 1 5 2 6 3 7 4 3 5 2 6 1 7
REMARK H PARENT
REMARK Flexibility Score: inf
ROOT
ATOM      1  C   UNL     1       7.277  -4.015  20.272  1.00  0.00     0.053 C 
ENDROOT
BRANCH   1   2
ATOM      2  C   UNL     1       6.777  -2.867  21.090  1.00  0.00     0.041 C 
ATOM      3  O   UNL     1       6.488  -3.031  22.304  1.00  0.00    -0.550 OA
ATOM      4  O   UNL     1       6.584  -1.624  20.499  1.00  0.00    -0.550 OA
ENDBRANCH   1   2
BRANCH   1   5
ATOM      5  C   UNL     1       7.780  -5.142  21.184  1.00  0.00     0.006 C 
BRANCH   5   6
ATOM      6  C   UNL     1       6.850  -6.365  21.176  1.00  0.00    -0.003 C 
ATOM      7  C   UNL     1       7.574  -7.659  21.544  1.00  0.00     0.004 C 
ENDBRANCH   5   6
ENDBRANCH   1   5
TORSDOF 3
ENDMDL
MODEL 2
REMARK VINA RESULT:    -4.954      0.265      1.247
REMARK INTER + INTRA:          -5.868
REMARK INTER:                  -5.822
REMARK INTRA:                  -0.046
REMARK UNBOUND:                -0.044
REMARK SMILES CCCCC(=O)[O-]
REMARK SMILES IDX 4 1 5 2 6 3 7 4 3 5 2 6 1 7
REMARK H PARENT
REMARK Flexibility Score: inf
ROOT
ATOM      1  C   UNL     1       7.111  -3.785  20.284  1.00  0.00     0.053 C 
ENDROOT
BRANCH   1   2
ATOM      2  C   UNL     1       6.621  -2.656  21.134  1.00  0.00     0.041 C 
ATOM      3  O   UNL     1       6.616  -1.480  20.686  1.00  0.00    -0.550 OA
ATOM      4  O   UNL     1       6.213  -2.896  22.441  1.00  0.00    -0.550 OA
ENDBRANCH   1   2
BRANCH   1   5
ATOM      5  C   UNL     1       7.692  -4.902  21.161  1.00  0.00     0.006 C 
BRANCH   5   6
ATOM      6  C   UNL     1       6.811  -6.160  21.174  1.00  0.00    -0.003 C 
ATOM      7  C   UNL     1       7.580  -7.416  21.578  1.00  0.00     0.004 C 
ENDBRANCH   5   6
ENDBRANCH   1   5
TORSDOF 3
ENDMDL
MODEL 3
REMARK VINA RESULT:    -4.941      0.934      1.524
REMARK INTER + INTRA:          -5.852
REMARK INTER:                  -5.828
REMARK INTRA:                  -0.024
REMARK UNBOUND:                -0.044
REMARK SMILES CCCCC(=O)[O-]
REMARK SMILES IDX 4 1 5 2 6 3 7 4 3 5 2 6 1 7
REMARK H PARENT
REMARK Flexibility Score: inf
ROOT
ATOM      1  C   UNL     1       7.483  -4.655  21.060  1.00  0.00     0.053 C 
ENDROOT
BRANCH   1   2
ATOM      2  C   UNL     1       6.523  -3.546  21.353  1.00  0.00     0.041 C 
ATOM      3  O   UNL     1       6.885  -2.346  21.235  1.00  0.00    -0.550 OA
ATOM      4  O   UNL     1       5.241  -3.837  21.804  1.00  0.00    -0.550 OA
ENDBRANCH   1   2
BRANCH   1   5
ATOM      5  C   UNL     1       6.766  -6.010  21.110  1.00  0.00     0.006 C 
BRANCH   5   6
ATOM      6  C   UNL     1       7.703  -7.158  21.517  1.00  0.00    -0.003 C 
ATOM      7  C   UNL     1       6.950  -8.372  22.058  1.00  0.00     0.004 C 
ENDBRANCH   5   6
ENDBRANCH   1   5
TORSDOF 3
ENDMDL
MODEL 4
REMARK VINA RESULT:    -4.762      3.634      4.997
REMARK INTER + INTRA:          -5.642
REMARK INTER:                  -5.600
REMARK INTRA:                  -0.042
REMARK UNBOUND:                -0.044
REMARK SMILES CCCCC(=O)[O-]
REMARK SMILES IDX 4 1 5 2 6 3 7 4 3 5 2 6 1 7
REMARK H PARENT
REMARK Flexibility Score: inf
ROOT
ATOM      1  C   UNL     1       7.274  -8.025  21.206  1.00  0.00     0.053 C 
ENDROOT
BRANCH   1   2
ATOM      2  C   UNL     1       6.947  -8.818  22.431  1.00  0.00     0.041 C 
ATOM      3  O   UNL     1       7.288  -8.399  23.568  1.00  0.00    -0.550 OA
ATOM      4  O   UNL     1       6.307 -10.046  22.314  1.00  0.00    -0.550 OA
ENDBRANCH   1   2
BRANCH   1   5
ATOM      5  C   UNL     1       7.693  -6.599  21.588  1.00  0.00     0.006 C 
BRANCH   5   6
ATOM      6  C   UNL     1       6.699  -5.539  21.090  1.00  0.00    -0.003 C 
ATOM      7  C   UNL     1       7.388  -4.359  20.406  1.00  0.00     0.004 C 
ENDBRANCH   5   6
ENDBRANCH   1   5
TORSDOF 3
ENDMDL
MODEL 5
REMARK VINA RESULT:    -4.622      1.302      1.899
REMARK INTER + INTRA:          -5.478
REMARK INTER:                  -5.461
REMARK INTRA:                  -0.016
REMARK UNBOUND:                -0.044
REMARK SMILES CCCCC(=O)[O-]
REMARK SMILES IDX 4 1 5 2 6 3 7 4 3 5 2 6 1 7
REMARK H PARENT
REMARK Flexibility Score: inf
ROOT
ATOM      1  C   UNL     1       6.589  -3.052  21.967  1.00  0.00     0.053 C 
ENDROOT
BRANCH   1   2
ATOM      2  C   UNL     1       5.737  -1.907  21.520  1.00  0.00     0.041 C 
ATOM      3  O   UNL     1       6.255  -0.923  20.930  1.00  0.00    -0.550 OA
ATOM      4  O   UNL     1       4.375  -1.903  21.798  1.00  0.00    -0.550 OA
ENDBRANCH   1   2
BRANCH   1   5
ATOM      5  C   UNL     1       6.294  -4.299  21.124  1.00  0.00     0.006 C 
BRANCH   5   6
ATOM      6  C   UNL     1       7.482  -5.272  21.076  1.00  0.00    -0.003 C 
ATOM      7  C   UNL     1       7.057  -6.731  21.244  1.00  0.00     0.004 C 
ENDBRANCH   5   6
ENDBRANCH   1   5
TORSDOF 3
ENDMDL
MODEL 6
REMARK VINA RESULT:    -4.501      2.036      2.810
REMARK INTER + INTRA:          -5.335
REMARK INTER:                  -5.250
REMARK INTRA:                  -0.085
REMARK UNBOUND:                -0.044
REMARK SMILES CCCCC(=O)[O-]
REMARK SMILES IDX 4 1 5 2 6 3 7 4 3 5 2 6 1 7
REMARK H PARENT
REMARK Flexibility Score: inf
ROOT
ATOM      1  C   UNL     1       7.915  -6.713  21.733  1.00  0.00     0.053 C 
ENDROOT
BRANCH   1   2
ATOM      2  C   UNL     1       7.208  -5.506  21.203  1.00  0.00     0.041 C 
ATOM      3  O   UNL     1       5.955  -5.417  21.286  1.00  0.00    -0.550 OA
ATOM      4  O   UNL     1       7.928  -4.499  20.572  1.00  0.00    -0.550 OA
ENDBRANCH   1   2
BRANCH   1   5
ATOM      5  C   UNL     1       7.292  -7.992  21.160  1.00  0.00     0.006 C 
BRANCH   5   6
ATOM      6  C   UNL     1       6.635  -8.863  22.241  1.00  0.00    -0.003 C 
ATOM      7  C   UNL     1       7.225  -8.626  23.630  1.00  0.00     0.004 C 
ENDBRANCH   5   6
ENDBRANCH   1   5
TORSDOF 3
ENDMDL
MODEL 7
REMARK VINA RESULT:    -4.465      2.250      4.194
REMARK INTER + INTRA:          -5.293
REMARK INTER:                  -5.246
REMARK INTRA:                  -0.047
REMARK UNBOUND:                -0.044
REMARK SMILES CCCCC(=O)[O-]
REMARK SMILES IDX 4 1 5 2 6 3 7 4 3 5 2 6 1 7
REMARK H PARENT
REMARK Flexibility Score: inf
ROOT
ATOM      1  C   UNL     1       5.932  -4.580  21.117  1.00  0.00     0.053 C 
ENDROOT
BRANCH   1   2
ATOM      2  C   UNL     1       7.065  -5.552  21.209  1.00  0.00     0.041 C 
ATOM      3  O   UNL     1       8.254  -5.140  21.234  1.00  0.00    -0.550 OA
ATOM      4  O   UNL     1       6.810  -6.918  21.219  1.00  0.00    -0.550 OA
ENDBRANCH   1   2
BRANCH   1   5
ATOM      5  C   UNL     1       6.419  -3.245  20.538  1.00  0.00     0.006 C 
BRANCH   5   6
ATOM      6  C   UNL     1       6.177  -2.066  21.492  1.00  0.00    -0.003 C 
ATOM      7  C   UNL     1       6.170  -0.717  20.775  1.00  0.00     0.004 C 
ENDBRANCH   5   6
ENDBRANCH   1   5
TORSDOF 3
ENDMDL
MODEL 8
REMARK VINA RESULT:    -4.440      2.386      3.090
REMARK INTER + INTRA:          -5.263
REMARK INTER:                  -5.178
REMARK INTRA:                  -0.086
REMARK UNBOUND:                -0.044
REMARK SMILES CCCCC(=O)[O-]
REMARK SMILES IDX 4 1 5 2 6 3 7 4 3 5 2 6 1 7
REMARK H PARENT
REMARK Flexibility Score: inf
ROOT
ATOM      1  C   UNL     1       6.484  -1.607  20.815  1.00  0.00     0.053 C 
ENDROOT
BRANCH   1   2
ATOM      2  C   UNL     1       5.275  -1.083  20.107  1.00  0.00     0.041 C 
ATOM      3  O   UNL     1       5.288   0.067  19.596  1.00  0.00    -0.550 OA
ATOM      4  O   UNL     1       4.115  -1.847  20.054  1.00  0.00    -0.550 OA
ENDBRANCH   1   2
BRANCH   1   5
ATOM      5  C   UNL     1       6.082  -2.670  21.846  1.00  0.00     0.006 C 
BRANCH   5   6
ATOM      6  C   UNL     1       6.485  -4.088  21.417  1.00  0.00    -0.003 C 
ATOM      7  C   UNL     1       7.556  -4.094  20.327  1.00  0.00     0.004 C 
ENDBRANCH   5   6
ENDBRANCH   1   5
TORSDOF 3
ENDMDL
MODEL 9
REMARK VINA RESULT:    -4.258      2.770      4.344
REMARK INTER + INTRA:          -5.049
REMARK INTER:                  -4.923
REMARK INTRA:                  -0.127
REMARK UNBOUND:                -0.044
REMARK SMILES CCCCC(=O)[O-]
REMARK SMILES IDX 4 1 5 2 6 3 7 4 3 5 2 6 1 7
REMARK H PARENT
REMARK Flexibility Score: inf
ROOT
ATOM      1  C   UNL     1       4.991  -3.823  20.825  1.00  0.00     0.053 C 
ENDROOT
BRANCH   1   2
ATOM      2  C   UNL     1       5.391  -2.840  21.878  1.00  0.00     0.041 C 
ATOM      3  O   UNL     1       4.786  -2.810  22.981  1.00  0.00    -0.550 OA
ATOM      4  O   UNL     1       6.402  -1.921  21.623  1.00  0.00    -0.550 OA
ENDBRANCH   1   2
BRANCH   1   5
ATOM      5  C   UNL     1       4.408  -3.095  19.607  1.00  0.00     0.006 C 
BRANCH   5   6
ATOM      6  C   UNL     1       3.107  -2.346  19.935  1.00  0.00    -0.003 C 
ATOM      7  C   UNL     1       3.176  -0.861  19.582  1.00  0.00     0.004 C 
ENDBRANCH   5   6
ENDBRANCH   1   5
TORSDOF 3
ENDMDL
