MODEL 1
REMARK VINA RESULT:    -4.040      0.000      0.000
REMARK INTER + INTRA:          -6.466
REMARK INTER:                  -6.166
REMARK INTRA:                  -0.300
REMARK UNBOUND:                -0.300
REMARK SMILES CC1=CCC[C@@H](C)C(=O)C[C@@H](C(C)C)C(=O)C1
REMARK SMILES IDX 8 1 9 2 6 3 7 4 5 5 4 6 3 7 2 8 1 9 10 11 11 12 15 13 16 14
REMARK SMILES IDX 17 15 12 17 13 18 14 19
REMARK H PARENT
REMARK Flexibility Score: 70.00
ROOT
ATOM      1  C   UNL     1     -14.151  -6.769   6.927  1.00  0.00     0.136 C 
ATOM      2  O   UNL     1     -12.940  -6.654   7.043  1.00  0.00    -0.299 OA
ENDROOT
BRANCH   1   3
ATOM      3  C   UNL     1     -14.708  -7.394   5.659  1.00  0.00     0.053 C 
ATOM      4  C   UNL     1     -14.351  -8.883   5.600  1.00  0.00     0.016 C 
BRANCH   3   5
ATOM      5  C   UNL     1     -14.233  -6.664   4.386  1.00  0.00     0.015 C 
BRANCH   5   6
ATOM      6  C   UNL     1     -14.773  -5.226   4.312  1.00  0.00     0.028 C 
BRANCH   6   7
ATOM      7  C   UNL     1     -13.699  -4.189   4.518  1.00  0.00    -0.028 C 
ATOM      8  C   UNL     1     -13.794  -3.091   5.309  1.00  0.00    -0.070 CG0
ATOM      9  C   UNL     1     -12.632  -2.127   5.286  1.00  0.00     0.039 C 
ATOM     10  G   UNL     1     -14.958  -2.803   6.256  1.00  0.00     0.000 G0
ENDBRANCH   6   7
ENDBRANCH   5   6
ENDBRANCH   3   5
ENDBRANCH   1   3
BRANCH   1  11
ATOM     11  C   UNL     1     -15.046  -6.222   8.017  1.00  0.00     0.087 C 
BRANCH  11  12
ATOM     12  C   UNL     1     -15.845  -4.967   7.572  1.00  0.00     0.066 C 
BRANCH  12  13
ATOM     13  C   UNL     1     -15.011  -3.687   7.511  1.00  0.00     0.140 C 
ATOM     14  O   UNL     1     -14.270  -3.431   8.450  1.00  0.00    -0.299 OA
BRANCH  13  15
ATOM     15  C   UNL     1     -14.957  -2.798   6.290  1.00  0.00     0.106 CG0
ATOM     16  G   UNL     1     -13.803  -3.104   5.336  1.00  0.00     0.000 G0
ENDBRANCH  13  15
ENDBRANCH  12  13
BRANCH  12  17
ATOM     17  C   UNL     1     -17.174  -4.802   8.375  1.00  0.00    -0.006 C 
ATOM     18  C   UNL     1     -18.322  -4.151   7.587  1.00  0.00     0.008 C 
ATOM     19  C   UNL     1     -17.639  -6.131   8.988  1.00  0.00     0.008 C 
ENDBRANCH  12  17
ENDBRANCH  11  12
ENDBRANCH   1  11
TORSDOF 1
ENDMDL
MODEL 2
REMARK VINA RESULT:    -3.789      2.136      2.805
REMARK INTER + INTRA:          -6.083
REMARK INTER:                  -5.496
REMARK INTRA:                  -0.587
REMARK UNBOUND:                -0.300
REMARK SMILES CC1=CCC[C@@H](C)C(=O)C[C@@H](C(C)C)C(=O)C1
REMARK SMILES IDX 8 1 9 2 6 3 7 4 5 5 4 6 3 7 2 8 1 9 10 11 11 12 15 13 16 14
REMARK SMILES IDX 17 15 12 17 13 18 14 19
REMARK H PARENT
REMARK Flexibility Score: 70.00
ROOT
ATOM      1  C   UNL     1     -15.137  -4.907   7.932  1.00  0.00     0.136 C 
ATOM      2  O   UNL     1     -14.258  -4.399   8.612  1.00  0.00    -0.299 OA
ENDROOT
BRANCH   1   3
ATOM      3  C   UNL     1     -14.743  -5.903   6.853  1.00  0.00     0.053 C 
ATOM      4  C   UNL     1     -13.995  -7.088   7.473  1.00  0.00     0.016 C 
BRANCH   3   5
ATOM      5  C   UNL     1     -13.910  -5.254   5.730  1.00  0.00     0.015 C 
BRANCH   5   6
ATOM      6  C   UNL     1     -14.764  -4.937   4.491  1.00  0.00     0.028 C 
BRANCH   6   7
ATOM      7  C   UNL     1     -15.188  -3.492   4.430  1.00  0.00    -0.028 C 
ATOM      8  C   UNL     1     -16.467  -3.037   4.443  1.00  0.00    -0.070 CG0
ATOM      9  C   UNL     1     -16.667  -1.551   4.266  1.00  0.00     0.039 C 
ATOM     10  G   UNL     1     -17.696  -3.912   4.682  1.00  0.00     0.000 G0
ENDBRANCH   6   7
ENDBRANCH   5   6
ENDBRANCH   3   5
ENDBRANCH   1   3
BRANCH   1  11
ATOM     11  C   UNL     1     -16.571  -4.474   8.145  1.00  0.00     0.087 C 
BRANCH  11  12
ATOM     12  C   UNL     1     -17.544  -5.059   7.085  1.00  0.00     0.066 C 
BRANCH  12  13
ATOM     13  C   UNL     1     -18.130  -4.015   6.134  1.00  0.00     0.140 C 
ATOM     14  O   UNL     1     -18.882  -3.167   6.594  1.00  0.00    -0.299 OA
BRANCH  13  15
ATOM     15  C   UNL     1     -17.716  -3.898   4.685  1.00  0.00     0.106 CG0
ATOM     16  G   UNL     1     -16.468  -3.049   4.450  1.00  0.00     0.000 G0
ENDBRANCH  13  15
ENDBRANCH  12  13
BRANCH  12  17
ATOM     17  C   UNL     1     -18.624  -5.984   7.728  1.00  0.00    -0.006 C 
ATOM     18  C   UNL     1     -18.447  -7.482   7.426  1.00  0.00     0.008 C 
ATOM     19  C   UNL     1     -18.739  -5.759   9.244  1.00  0.00     0.008 C 
ENDBRANCH  12  17
ENDBRANCH  11  12
ENDBRANCH   1  11
TORSDOF 1
ENDMDL
MODEL 3
REMARK VINA RESULT:    -3.781      1.531      3.578
REMARK INTER + INTRA:          -6.070
REMARK INTER:                  -6.018
REMARK INTRA:                  -0.052
REMARK UNBOUND:                -0.300
REMARK SMILES CC1=CCC[C@@H](C)C(=O)C[C@@H](C(C)C)C(=O)C1
REMARK SMILES IDX 8 1 9 2 6 3 7 4 5 5 4 6 3 7 2 8 1 9 10 11 11 12 15 13 16 14
REMARK SMILES IDX 17 15 12 17 13 18 14 19
REMARK H PARENT
REMARK Flexibility Score: 70.00
ROOT
ATOM      1  C   UNL     1     -14.461  -3.412   7.224  1.00  0.00     0.136 C 
ATOM      2  O   UNL     1     -13.947  -2.931   8.224  1.00  0.00    -0.299 OA
ENDROOT
BRANCH   1   3
ATOM      3  C   UNL     1     -13.916  -3.019   5.862  1.00  0.00     0.053 C 
ATOM      4  C   UNL     1     -13.139  -1.702   5.960  1.00  0.00     0.016 C 
BRANCH   3   5
ATOM      5  C   UNL     1     -15.021  -2.926   4.790  1.00  0.00     0.015 C 
BRANCH   5   6
ATOM      6  C   UNL     1     -15.189  -4.247   4.021  1.00  0.00     0.028 C 
BRANCH   6   7
ATOM      7  C   UNL     1     -13.891  -4.993   3.854  1.00  0.00    -0.028 C 
ATOM      8  C   UNL     1     -13.497  -6.076   4.572  1.00  0.00    -0.070 CG0
ATOM      9  C   UNL     1     -12.106  -6.603   4.310  1.00  0.00     0.039 C 
ATOM     10  G   UNL     1     -14.380  -6.822   5.571  1.00  0.00     0.000 G0
ENDBRANCH   6   7
ENDBRANCH   5   6
ENDBRANCH   3   5
ENDBRANCH   1   3
BRANCH   1  11
ATOM     11  C   UNL     1     -15.659  -4.321   7.383  1.00  0.00     0.087 C 
BRANCH  11  12
ATOM     12  C   UNL     1     -15.278  -5.751   7.854  1.00  0.00     0.066 C 
BRANCH  12  13
ATOM     13  C   UNL     1     -14.177  -6.407   7.021  1.00  0.00     0.140 C 
ATOM     14  O   UNL     1     -13.129  -6.707   7.576  1.00  0.00    -0.299 OA
BRANCH  13  15
ATOM     15  C   UNL     1     -14.373  -6.828   5.583  1.00  0.00     0.106 CG0
ATOM     16  G   UNL     1     -13.508  -6.069   4.578  1.00  0.00     0.000 G0
ENDBRANCH  13  15
ENDBRANCH  12  13
BRANCH  12  17
ATOM     17  C   UNL     1     -16.532  -6.659   8.047  1.00  0.00    -0.006 C 
ATOM     18  C   UNL     1     -16.244  -8.017   8.709  1.00  0.00     0.008 C 
ATOM     19  C   UNL     1     -17.654  -5.930   8.801  1.00  0.00     0.008 C 
ENDBRANCH  12  17
ENDBRANCH  11  12
ENDBRANCH   1  11
TORSDOF 1
ENDMDL
MODEL 4
REMARK VINA RESULT:    -3.707      2.297      4.567
REMARK INTER + INTRA:          -5.958
REMARK INTER:                  -5.896
REMARK INTRA:                  -0.062
REMARK UNBOUND:                -0.300
REMARK SMILES CC1=CCC[C@@H](C)C(=O)C[C@@H](C(C)C)C(=O)C1
REMARK SMILES IDX 8 1 9 2 6 3 7 4 5 5 4 6 3 7 2 8 1 9 10 11 11 12 15 13 16 14
REMARK SMILES IDX 17 15 12 17 13 18 14 19
REMARK H PARENT
REMARK Flexibility Score: 70.00
ROOT
ATOM      1  C   UNL     1     -14.733  -3.759   7.211  1.00  0.00     0.136 C 
ATOM      2  O   UNL     1     -14.289  -3.504   8.321  1.00  0.00    -0.299 OA
ENDROOT
BRANCH   1   3
ATOM      3  C   UNL     1     -16.048  -4.513   7.105  1.00  0.00     0.053 C 
ATOM      4  C   UNL     1     -16.616  -4.787   8.502  1.00  0.00     0.016 C 
BRANCH   3   5
ATOM      5  C   UNL     1     -15.913  -5.822   6.301  1.00  0.00     0.015 C 
BRANCH   5   6
ATOM      6  C   UNL     1     -16.279  -5.626   4.820  1.00  0.00     0.028 C 
BRANCH   6   7
ATOM      7  C   UNL     1     -17.355  -4.590   4.617  1.00  0.00    -0.028 C 
ATOM      8  C   UNL     1     -17.161  -3.310   4.211  1.00  0.00    -0.070 CG0
ATOM      9  C   UNL     1     -18.373  -2.411   4.176  1.00  0.00     0.039 C 
ATOM     10  G   UNL     1     -15.824  -2.746   3.734  1.00  0.00     0.000 G0
ENDBRANCH   6   7
ENDBRANCH   5   6
ENDBRANCH   3   5
ENDBRANCH   1   3
BRANCH   1  11
ATOM     11  C   UNL     1     -13.923  -3.375   5.992  1.00  0.00     0.087 C 
BRANCH  11  12
ATOM     12  C   UNL     1     -14.100  -1.886   5.591  1.00  0.00     0.066 C 
BRANCH  12  13
ATOM     13  C   UNL     1     -15.231  -1.639   4.594  1.00  0.00     0.140 C 
ATOM     14  O   UNL     1     -15.608  -0.489   4.415  1.00  0.00    -0.299 OA
BRANCH  13  15
ATOM     15  C   UNL     1     -15.810  -2.728   3.721  1.00  0.00     0.106 CG0
ATOM     16  G   UNL     1     -17.141  -3.294   4.212  1.00  0.00     0.000 G0
ENDBRANCH  13  15
ENDBRANCH  12  13
BRANCH  12  17
ATOM     17  C   UNL     1     -12.749  -1.228   5.168  1.00  0.00    -0.006 C 
ATOM     18  C   UNL     1     -12.377   0.038   5.960  1.00  0.00     0.008 C 
ATOM     19  C   UNL     1     -11.588  -2.234   5.203  1.00  0.00     0.008 C 
ENDBRANCH  12  17
ENDBRANCH  11  12
ENDBRANCH   1  11
TORSDOF 1
ENDMDL
MODEL 5
REMARK VINA RESULT:    -3.700      1.669      2.576
REMARK INTER + INTRA:          -5.947
REMARK INTER:                  -5.423
REMARK INTRA:                  -0.524
REMARK UNBOUND:                -0.300
REMARK SMILES CC1=CCC[C@@H](C)C(=O)C[C@@H](C(C)C)C(=O)C1
REMARK SMILES IDX 8 1 9 2 6 3 7 4 5 5 4 6 3 7 2 8 1 9 10 11 11 12 15 13 16 14
REMARK SMILES IDX 17 15 12 17 13 18 14 19
REMARK H PARENT
REMARK Flexibility Score: 70.00
ROOT
ATOM      1  C   UNL     1     -14.939  -4.910   7.803  1.00  0.00     0.136 C 
ATOM      2  O   UNL     1     -14.252  -5.061   8.802  1.00  0.00    -0.299 OA
ENDROOT
BRANCH   1   3
ATOM      3  C   UNL     1     -15.107  -6.080   6.848  1.00  0.00     0.053 C 
ATOM      4  C   UNL     1     -15.873  -7.217   7.532  1.00  0.00     0.016 C 
BRANCH   3   5
ATOM      5  C   UNL     1     -13.760  -6.582   6.289  1.00  0.00     0.015 C 
BRANCH   5   6
ATOM      6  C   UNL     1     -13.395  -5.894   4.963  1.00  0.00     0.028 C 
BRANCH   6   7
ATOM      7  C   UNL     1     -12.293  -4.878   5.118  1.00  0.00    -0.028 C 
ATOM      8  C   UNL     1     -12.367  -3.565   4.781  1.00  0.00    -0.070 CG0
ATOM      9  C   UNL     1     -11.105  -2.749   4.923  1.00  0.00     0.039 C 
ATOM     10  G   UNL     1     -13.643  -2.857   4.330  1.00  0.00     0.000 G0
ENDBRANCH   6   7
ENDBRANCH   5   6
ENDBRANCH   3   5
ENDBRANCH   1   3
BRANCH   1  11
ATOM     11  C   UNL     1     -15.535  -3.548   7.524  1.00  0.00     0.087 C 
BRANCH  11  12
ATOM     12  C   UNL     1     -15.676  -3.248   6.006  1.00  0.00     0.066 C 
BRANCH  12  13
ATOM     13  C   UNL     1     -14.556  -2.377   5.437  1.00  0.00     0.140 C 
ATOM     14  O   UNL     1     -14.310  -1.314   5.989  1.00  0.00    -0.299 OA
BRANCH  13  15
ATOM     15  C   UNL     1     -13.653  -2.829   4.313  1.00  0.00     0.106 CG0
ATOM     16  G   UNL     1     -12.387  -3.551   4.771  1.00  0.00     0.000 G0
ENDBRANCH  13  15
ENDBRANCH  12  13
BRANCH  12  17
ATOM     17  C   UNL     1     -17.105  -2.737   5.640  1.00  0.00    -0.006 C 
ATOM     18  C   UNL     1     -17.236  -2.169   4.216  1.00  0.00     0.008 C 
ATOM     19  C   UNL     1     -18.175  -3.811   5.883  1.00  0.00     0.008 C 
ENDBRANCH  12  17
ENDBRANCH  11  12
ENDBRANCH   1  11
TORSDOF 1
ENDMDL
MODEL 6
REMARK VINA RESULT:    -3.563      2.228      4.057
REMARK INTER + INTRA:          -5.737
REMARK INTER:                  -5.460
REMARK INTRA:                  -0.277
REMARK UNBOUND:                -0.300
REMARK SMILES CC1=CCC[C@@H](C)C(=O)C[C@@H](C(C)C)C(=O)C1
REMARK SMILES IDX 8 1 9 2 6 3 7 4 5 5 4 6 3 7 2 8 1 9 10 11 11 12 15 13 16 14
REMARK SMILES IDX 17 15 12 17 13 18 14 19
REMARK H PARENT
REMARK Flexibility Score: 70.00
ROOT
ATOM      1  C   UNL     1     -14.826  -3.519   7.251  1.00  0.00     0.136 C 
ATOM      2  O   UNL     1     -14.126  -3.099   8.160  1.00  0.00    -0.299 OA
ENDROOT
BRANCH   1   3
ATOM      3  C   UNL     1     -15.553  -4.840   7.439  1.00  0.00     0.053 C 
ATOM      4  C   UNL     1     -16.622  -4.708   8.529  1.00  0.00     0.016 C 
BRANCH   3   5
ATOM      5  C   UNL     1     -14.589  -6.003   7.753  1.00  0.00     0.015 C 
BRANCH   5   6
ATOM      6  C   UNL     1     -14.181  -6.769   6.483  1.00  0.00     0.028 C 
BRANCH   6   7
ATOM      7  C   UNL     1     -12.839  -6.339   5.949  1.00  0.00    -0.028 C 
ATOM      8  C   UNL     1     -12.602  -5.825   4.716  1.00  0.00    -0.070 CG0
ATOM      9  C   UNL     1     -11.161  -5.559   4.350  1.00  0.00     0.039 C 
ATOM     10  G   UNL     1     -13.688  -5.446   3.711  1.00  0.00     0.000 G0
ENDBRANCH   6   7
ENDBRANCH   5   6
ENDBRANCH   3   5
ENDBRANCH   1   3
BRANCH   1  11
ATOM     11  C   UNL     1     -14.886  -2.743   5.953  1.00  0.00     0.087 C 
BRANCH  11  12
ATOM     12  C   UNL     1     -15.335  -3.613   4.748  1.00  0.00     0.066 C 
BRANCH  12  13
ATOM     13  C   UNL     1     -14.193  -4.033   3.823  1.00  0.00     0.140 C 
ATOM     14  O   UNL     1     -13.582  -3.162   3.221  1.00  0.00    -0.299 OA
BRANCH  13  15
ATOM     15  C   UNL     1     -13.696  -5.457   3.725  1.00  0.00     0.106 CG0
ATOM     16  G   UNL     1     -12.600  -5.815   4.728  1.00  0.00     0.000 G0
ENDBRANCH  13  15
ENDBRANCH  12  13
BRANCH  12  17
ATOM     17  C   UNL     1     -16.545  -2.982   3.988  1.00  0.00    -0.006 C 
ATOM     18  C   UNL     1     -17.863  -2.969   4.781  1.00  0.00     0.008 C 
ATOM     19  C   UNL     1     -16.223  -1.572   3.473  1.00  0.00     0.008 C 
ENDBRANCH  12  17
ENDBRANCH  11  12
ENDBRANCH   1  11
TORSDOF 1
ENDMDL
MODEL 7
REMARK VINA RESULT:    -3.469     15.677     18.483
REMARK INTER + INTRA:          -5.593
REMARK INTER:                  -5.170
REMARK INTRA:                  -0.424
REMARK UNBOUND:                -0.300
REMARK SMILES CC1=CCC[C@@H](C)C(=O)C[C@@H](C(C)C)C(=O)C1
REMARK SMILES IDX 8 1 9 2 6 3 7 4 5 5 4 6 3 7 2 8 1 9 10 11 11 12 15 13 16 14
REMARK SMILES IDX 17 15 12 17 13 18 14 19
REMARK H PARENT
REMARK Flexibility Score: 70.00
ROOT
ATOM      1  C   UNL     1      -3.337   8.652  12.195  1.00  0.00     0.136 C 
ATOM      2  O   UNL     1      -3.468   9.805  11.812  1.00  0.00    -0.299 OA
ENDROOT
BRANCH   1   3
ATOM      3  C   UNL     1      -3.622   8.329  13.652  1.00  0.00     0.053 C 
ATOM      4  C   UNL     1      -4.893   9.048  14.117  1.00  0.00     0.016 C 
BRANCH   3   5
ATOM      5  C   UNL     1      -2.432   8.667  14.574  1.00  0.00     0.015 C 
BRANCH   5   6
ATOM      6  C   UNL     1      -1.133   7.988  14.108  1.00  0.00     0.028 C 
BRANCH   6   7
ATOM      7  C   UNL     1      -0.989   6.584  14.636  1.00  0.00    -0.028 C 
ATOM      8  C   UNL     1      -0.920   5.455  13.886  1.00  0.00    -0.070 CG0
ATOM      9  C   UNL     1      -0.883   4.140  14.628  1.00  0.00     0.039 C 
ATOM     10  G   UNL     1      -0.819   5.431  12.362  1.00  0.00     0.000 G0
ENDBRANCH   6   7
ENDBRANCH   5   6
ENDBRANCH   3   5
ENDBRANCH   1   3
BRANCH   1  11
ATOM     11  C   UNL     1      -2.832   7.609  11.222  1.00  0.00     0.087 C 
BRANCH  11  12
ATOM     12  C   UNL     1      -3.285   6.170  11.588  1.00  0.00     0.066 C 
BRANCH  12  13
ATOM     13  C   UNL     1      -2.142   5.157  11.659  1.00  0.00     0.140 C 
ATOM     14  O   UNL     1      -2.248   4.115  11.025  1.00  0.00    -0.299 OA
BRANCH  13  15
ATOM     15  C   UNL     1      -0.834   5.441  12.360  1.00  0.00     0.106 CG0
ATOM     16  G   UNL     1      -0.923   5.453  13.885  1.00  0.00     0.000 G0
ENDBRANCH  13  15
ENDBRANCH  12  13
BRANCH  12  17
ATOM     17  C   UNL     1      -4.482   5.690  10.709  1.00  0.00    -0.006 C 
ATOM     18  C   UNL     1      -5.871   5.978  11.305  1.00  0.00     0.008 C 
ATOM     19  C   UNL     1      -4.396   6.240   9.277  1.00  0.00     0.008 C 
ENDBRANCH  12  17
ENDBRANCH  11  12
ENDBRANCH   1  11
TORSDOF 1
ENDMDL
MODEL 8
REMARK VINA RESULT:    -3.449      2.415      5.322
REMARK INTER + INTRA:          -5.564
REMARK INTER:                  -5.428
REMARK INTRA:                  -0.136
REMARK UNBOUND:                -0.300
REMARK SMILES CC1=CCC[C@@H](C)C(=O)C[C@@H](C(C)C)C(=O)C1
REMARK SMILES IDX 8 1 9 2 6 3 7 4 5 5 4 6 3 7 2 8 1 9 10 11 11 12 15 13 16 14
REMARK SMILES IDX 17 15 12 17 13 18 14 19
REMARK H PARENT
REMARK Flexibility Score: 70.00
ROOT
ATOM      1  C   UNL     1     -14.817  -0.945   4.351  1.00  0.00     0.136 C 
ATOM      2  O   UNL     1     -14.824   0.258   4.140  1.00  0.00    -0.299 OA
ENDROOT
BRANCH   1   3
ATOM      3  C   UNL     1     -15.828  -1.820   3.630  1.00  0.00     0.053 C 
ATOM      4  C   UNL     1     -16.138  -1.242   2.244  1.00  0.00     0.016 C 
BRANCH   3   5
ATOM      5  C   UNL     1     -17.123  -2.019   4.444  1.00  0.00     0.015 C 
BRANCH   5   6
ATOM      6  C   UNL     1     -17.443  -3.508   4.660  1.00  0.00     0.028 C 
BRANCH   6   7
ATOM      7  C   UNL     1     -17.799  -3.825   6.089  1.00  0.00    -0.028 C 
ATOM      8  C   UNL     1     -16.991  -4.434   6.994  1.00  0.00    -0.070 CG0
ATOM      9  C   UNL     1     -17.590  -4.751   8.344  1.00  0.00     0.039 C 
ATOM     10  G   UNL     1     -15.517  -4.761   6.759  1.00  0.00     0.000 G0
ENDBRANCH   6   7
ENDBRANCH   5   6
ENDBRANCH   3   5
ENDBRANCH   1   3
BRANCH   1  11
ATOM     11  C   UNL     1     -13.851  -1.504   5.373  1.00  0.00     0.087 C 
BRANCH  11  12
ATOM     12  C   UNL     1     -13.911  -3.052   5.480  1.00  0.00     0.066 C 
BRANCH  12  13
ATOM     13  C   UNL     1     -14.604  -3.562   6.744  1.00  0.00     0.140 C 
ATOM     14  O   UNL     1     -14.504  -2.902   7.769  1.00  0.00    -0.299 OA
BRANCH  13  15
ATOM     15  C   UNL     1     -15.518  -4.766   6.751  1.00  0.00     0.106 CG0
ATOM     16  G   UNL     1     -16.989  -4.443   7.008  1.00  0.00     0.000 G0
ENDBRANCH  13  15
ENDBRANCH  12  13
BRANCH  12  17
ATOM     17  C   UNL     1     -12.518  -3.711   5.230  1.00  0.00    -0.006 C 
ATOM     18  C   UNL     1     -12.552  -4.960   4.333  1.00  0.00     0.008 C 
ATOM     19  C   UNL     1     -11.496  -2.699   4.691  1.00  0.00     0.008 C 
ENDBRANCH  12  17
ENDBRANCH  11  12
ENDBRANCH   1  11
TORSDOF 1
ENDMDL
MODEL 9
REMARK VINA RESULT:    -3.442      2.850      5.538
REMARK INTER + INTRA:          -5.553
REMARK INTER:                  -5.511
REMARK INTRA:                  -0.043
REMARK UNBOUND:                -0.300
REMARK SMILES CC1=CCC[C@@H](C)C(=O)C[C@@H](C(C)C)C(=O)C1
REMARK SMILES IDX 8 1 9 2 6 3 7 4 5 5 4 6 3 7 2 8 1 9 10 11 11 12 15 13 16 14
REMARK SMILES IDX 17 15 12 17 13 18 14 19
REMARK H PARENT
REMARK Flexibility Score: 70.00
ROOT
ATOM      1  C   UNL     1     -14.975  -5.306   7.834  1.00  0.00     0.136 C 
ATOM      2  O   UNL     1     -14.423  -4.570   8.638  1.00  0.00    -0.299 OA
ENDROOT
BRANCH   1   3
ATOM      3  C   UNL     1     -16.381  -4.962   7.373  1.00  0.00     0.053 C 
ATOM      4  C   UNL     1     -16.345  -3.788   6.388  1.00  0.00     0.016 C 
BRANCH   3   5
ATOM      5  C   UNL     1     -17.330  -4.661   8.551  1.00  0.00     0.015 C 
BRANCH   5   6
ATOM      6  C   UNL     1     -18.249  -5.853   8.868  1.00  0.00     0.028 C 
BRANCH   6   7
ATOM      7  C   UNL     1     -18.727  -6.565   7.629  1.00  0.00    -0.028 C 
ATOM      8  C   UNL     1     -18.324  -7.792   7.211  1.00  0.00    -0.070 CG0
ATOM      9  C   UNL     1     -18.854  -8.271   5.881  1.00  0.00     0.039 C 
ATOM     10  G   UNL     1     -17.428  -8.732   8.017  1.00  0.00     0.000 G0
ENDBRANCH   6   7
ENDBRANCH   5   6
ENDBRANCH   3   5
ENDBRANCH   1   3
BRANCH   1  11
ATOM     11  C   UNL     1     -14.264  -6.564   7.385  1.00  0.00     0.087 C 
BRANCH  11  12
ATOM     12  C   UNL     1     -15.241  -7.684   6.935  1.00  0.00     0.066 C 
BRANCH  12  13
ATOM     13  C   UNL     1     -15.975  -8.370   8.087  1.00  0.00     0.140 C 
ATOM     14  O   UNL     1     -15.384  -8.515   9.148  1.00  0.00    -0.299 OA
BRANCH  13  15
ATOM     15  C   UNL     1     -17.436  -8.752   8.021  1.00  0.00     0.106 CG0
ATOM     16  G   UNL     1     -18.305  -7.789   7.214  1.00  0.00     0.000 G0
ENDBRANCH  13  15
ENDBRANCH  12  13
BRANCH  12  17
ATOM     17  C   UNL     1     -14.568  -8.687   5.946  1.00  0.00    -0.006 C 
ATOM     18  C   UNL     1     -15.490  -9.198   4.825  1.00  0.00     0.008 C 
ATOM     19  C   UNL     1     -13.274  -8.117   5.347  1.00  0.00     0.008 C 
ENDBRANCH  12  17
ENDBRANCH  11  12
ENDBRANCH   1  11
TORSDOF 1
ENDMDL
