MODEL 1
REMARK VINA RESULT:    -4.665      0.000      0.000
REMARK INTER + INTRA:          -8.231
REMARK INTER:                  -7.391
REMARK INTRA:                  -0.839
REMARK UNBOUND:                -0.839
REMARK SMILES CCCCCCCCCCCC(=O)[O-]
REMARK SMILES IDX 7 1 8 2 9 3 10 4 11 5 12 6 13 7 14 8 6 9 5 10 4 11 3 12 2 13
REMARK SMILES IDX 1 14
REMARK H PARENT
REMARK Flexibility Score: inf
ROOT
ATOM      1  C   UNL     1      -6.463   9.828  -6.556  1.00  0.00     0.000 C 
ENDROOT
BRANCH   1   2
ATOM      2  C   UNL     1      -6.208   9.351  -7.996  1.00  0.00     0.000 C 
BRANCH   2   3
ATOM      3  C   UNL     1      -5.681  10.476  -8.903  1.00  0.00     0.000 C 
BRANCH   3   4
ATOM      4  C   UNL     1      -4.145  10.523  -8.952  1.00  0.00     0.006 C 
BRANCH   4   5
ATOM      5  C   UNL     1      -3.584  11.907  -8.597  1.00  0.00     0.053 C 
BRANCH   5   6
ATOM      6  C   UNL     1      -3.424  12.040  -7.115  1.00  0.00     0.041 C 
ATOM      7  O   UNL     1      -4.258  12.705  -6.446  1.00  0.00    -0.550 OA
ATOM      8  O   UNL     1      -2.328  11.471  -6.479  1.00  0.00    -0.550 OA
ENDBRANCH   5   6
ENDBRANCH   4   5
ENDBRANCH   3   4
ENDBRANCH   2   3
ENDBRANCH   1   2
BRANCH   1   9
ATOM      9  C   UNL     1      -7.340  11.091  -6.495  1.00  0.00     0.000 C 
BRANCH   9  10
ATOM     10  C   UNL     1      -8.809  10.776  -6.132  1.00  0.00    -0.000 C 
BRANCH  10  11
ATOM     11  C   UNL     1      -8.972   9.519  -5.258  1.00  0.00    -0.000 C 
BRANCH  11  12
ATOM     12  C   UNL     1     -10.125   8.591  -5.681  1.00  0.00    -0.000 C 
BRANCH  12  13
ATOM     13  C   UNL     1      -9.763   7.089  -5.630  1.00  0.00    -0.003 C 
ATOM     14  C   UNL     1     -10.092   6.353  -6.927  1.00  0.00     0.004 C 
ENDBRANCH  12  13
ENDBRANCH  11  12
ENDBRANCH  10  11
ENDBRANCH   9  10
ENDBRANCH   1   9
TORSDOF 10
ENDMDL
MODEL 2
REMARK VINA RESULT:    -4.516     17.633     19.729
REMARK INTER + INTRA:          -7.996
REMARK INTER:                  -6.799
REMARK INTRA:                  -1.196
REMARK UNBOUND:                -0.839
REMARK SMILES CCCCCCCCCCCC(=O)[O-]
REMARK SMILES IDX 7 1 8 2 9 3 10 4 11 5 12 6 13 7 14 8 6 9 5 10 4 11 3 12 2 13
REMARK SMILES IDX 1 14
REMARK H PARENT
REMARK Flexibility Score: inf
ROOT
ATOM      1  C   UNL     1       5.401  10.948   5.111  1.00  0.00     0.000 C 
ENDROOT
BRANCH   1   2
ATOM      2  C   UNL     1       4.852  11.088   6.541  1.00  0.00     0.000 C 
BRANCH   2   3
ATOM      3  C   UNL     1       4.959   9.779   7.343  1.00  0.00     0.000 C 
BRANCH   3   4
ATOM      4  C   UNL     1       4.860  10.008   8.860  1.00  0.00     0.006 C 
BRANCH   4   5
ATOM      5  C   UNL     1       4.578  11.473   9.221  1.00  0.00     0.053 C 
BRANCH   5   6
ATOM      6  C   UNL     1       3.142  11.649   9.601  1.00  0.00     0.041 C 
ATOM      7  O   UNL     1       2.617  12.794   9.582  1.00  0.00    -0.550 OA
ATOM      8  O   UNL     1       2.395  10.556  10.022  1.00  0.00    -0.550 OA
ENDBRANCH   5   6
ENDBRANCH   4   5
ENDBRANCH   3   4
ENDBRANCH   2   3
ENDBRANCH   1   2
BRANCH   1   9
ATOM      9  C   UNL     1       6.238  12.162   4.674  1.00  0.00     0.000 C 
BRANCH   9  10
ATOM     10  C   UNL     1       7.659  11.766   4.210  1.00  0.00    -0.000 C 
BRANCH  10  11
ATOM     11  C   UNL     1       8.780  12.378   5.069  1.00  0.00    -0.000 C 
BRANCH  11  12
ATOM     12  C   UNL     1       9.409  11.409   6.086  1.00  0.00    -0.000 C 
BRANCH  12  13
ATOM     13  C   UNL     1       8.472  11.050   7.262  1.00  0.00    -0.003 C 
ATOM     14  C   UNL     1       8.058  12.268   8.086  1.00  0.00     0.004 C 
ENDBRANCH  12  13
ENDBRANCH  11  12
ENDBRANCH  10  11
ENDBRANCH   9  10
ENDBRANCH   1   9
TORSDOF 10
ENDMDL
MODEL 3
REMARK VINA RESULT:    -4.497     17.222     19.699
REMARK INTER + INTRA:          -7.965
REMARK INTER:                  -6.636
REMARK INTRA:                  -1.329
REMARK UNBOUND:                -0.839
REMARK SMILES CCCCCCCCCCCC(=O)[O-]
REMARK SMILES IDX 7 1 8 2 9 3 10 4 11 5 12 6 13 7 14 8 6 9 5 10 4 11 3 12 2 13
REMARK SMILES IDX 1 14
REMARK H PARENT
REMARK Flexibility Score: inf
ROOT
ATOM      1  C   UNL     1       7.299  10.949   8.016  1.00  0.00     0.000 C 
ENDROOT
BRANCH   1   2
ATOM      2  C   UNL     1       6.871  12.399   8.299  1.00  0.00     0.000 C 
BRANCH   2   3
ATOM      3  C   UNL     1       5.352  12.533   8.509  1.00  0.00     0.000 C 
BRANCH   3   4
ATOM      4  C   UNL     1       4.833  11.636   9.644  1.00  0.00     0.006 C 
BRANCH   4   5
ATOM      5  C   UNL     1       3.419  11.102   9.377  1.00  0.00     0.053 C 
BRANCH   5   6
ATOM      6  C   UNL     1       3.452  10.055   8.308  1.00  0.00     0.041 C 
ATOM      7  O   UNL     1       2.659  10.121   7.332  1.00  0.00    -0.550 OA
ATOM      8  O   UNL     1       4.324   8.979   8.415  1.00  0.00    -0.550 OA
ENDBRANCH   5   6
ENDBRANCH   4   5
ENDBRANCH   3   4
ENDBRANCH   2   3
ENDBRANCH   1   2
BRANCH   1   9
ATOM      9  C   UNL     1       8.410  10.855   6.955  1.00  0.00     0.000 C 
BRANCH   9  10
ATOM     10  C   UNL     1       8.959  12.241   6.547  1.00  0.00    -0.000 C 
BRANCH  10  11
ATOM     11  C   UNL     1       8.707  12.593   5.070  1.00  0.00    -0.000 C 
BRANCH  11  12
ATOM     12  C   UNL     1       7.638  11.727   4.380  1.00  0.00    -0.000 C 
BRANCH  12  13
ATOM     13  C   UNL     1       6.200  12.272   4.541  1.00  0.00    -0.003 C 
ATOM     14  C   UNL     1       5.212  11.211   5.021  1.00  0.00     0.004 C 
ENDBRANCH  12  13
ENDBRANCH  11  12
ENDBRANCH  10  11
ENDBRANCH   9  10
ENDBRANCH   1   9
TORSDOF 10
ENDMDL
MODEL 4
REMARK VINA RESULT:    -4.445     17.292     19.599
REMARK INTER + INTRA:          -7.882
REMARK INTER:                  -6.798
REMARK INTRA:                  -1.084
REMARK UNBOUND:                -0.839
REMARK SMILES CCCCCCCCCCCC(=O)[O-]
REMARK SMILES IDX 7 1 8 2 9 3 10 4 11 5 12 6 13 7 14 8 6 9 5 10 4 11 3 12 2 13
REMARK SMILES IDX 1 14
REMARK H PARENT
REMARK Flexibility Score: inf
ROOT
ATOM      1  C   UNL     1       6.128  11.090   6.693  1.00  0.00     0.000 C 
ENDROOT
BRANCH   1   2
ATOM      2  C   UNL     1       6.180  12.382   7.527  1.00  0.00     0.000 C 
BRANCH   2   3
ATOM      3  C   UNL     1       5.861  12.135   9.013  1.00  0.00     0.000 C 
BRANCH   3   4
ATOM      4  C   UNL     1       4.357  12.230   9.316  1.00  0.00     0.006 C 
BRANCH   4   5
ATOM      5  C   UNL     1       3.772  10.906   9.828  1.00  0.00     0.053 C 
BRANCH   5   6
ATOM      6  C   UNL     1       3.412  10.017   8.680  1.00  0.00     0.041 C 
ATOM      7  O   UNL     1       2.662  10.441   7.761  1.00  0.00    -0.550 OA
ATOM      8  O   UNL     1       3.866   8.704   8.648  1.00  0.00    -0.550 OA
ENDBRANCH   5   6
ENDBRANCH   4   5
ENDBRANCH   3   4
ENDBRANCH   2   3
ENDBRANCH   1   2
BRANCH   1   9
ATOM      9  C   UNL     1       5.247  11.228   5.439  1.00  0.00     0.000 C 
BRANCH   9  10
ATOM     10  C   UNL     1       6.068  11.185   4.130  1.00  0.00    -0.000 C 
BRANCH  10  11
ATOM     11  C   UNL     1       7.589  11.122   4.359  1.00  0.00    -0.000 C 
BRANCH  11  12
ATOM     12  C   UNL     1       8.352  12.392   3.943  1.00  0.00    -0.000 C 
BRANCH  12  13
ATOM     13  C   UNL     1       9.450  12.812   4.946  1.00  0.00    -0.003 C 
ATOM     14  C   UNL     1       9.690  11.772   6.038  1.00  0.00     0.004 C 
ENDBRANCH  12  13
ENDBRANCH  11  12
ENDBRANCH  10  11
ENDBRANCH   9  10
ENDBRANCH   1   9
TORSDOF 10
ENDMDL
MODEL 5
REMARK VINA RESULT:    -4.389     17.486     19.129
REMARK INTER + INTRA:          -7.793
REMARK INTER:                  -6.680
REMARK INTRA:                  -1.114
REMARK UNBOUND:                -0.839
REMARK SMILES CCCCCCCCCCCC(=O)[O-]
REMARK SMILES IDX 7 1 8 2 9 3 10 4 11 5 12 6 13 7 14 8 6 9 5 10 4 11 3 12 2 13
REMARK SMILES IDX 1 14
REMARK H PARENT
REMARK Flexibility Score: inf
ROOT
ATOM      1  C   UNL     1       6.812  12.581   9.043  1.00  0.00     0.000 C 
ENDROOT
BRANCH   1   2
ATOM      2  C   UNL     1       7.955  12.223   8.077  1.00  0.00     0.000 C 
BRANCH   2   3
ATOM      3  C   UNL     1       7.685  10.919   7.306  1.00  0.00     0.000 C 
BRANCH   3   4
ATOM      4  C   UNL     1       8.224  10.963   5.867  1.00  0.00     0.006 C 
BRANCH   4   5
ATOM      5  C   UNL     1       7.165  10.573   4.826  1.00  0.00     0.053 C 
BRANCH   5   6
ATOM      6  C   UNL     1       6.032  11.549   4.846  1.00  0.00     0.041 C 
ATOM      7  O   UNL     1       6.253  12.781   4.705  1.00  0.00    -0.550 OA
ATOM      8  O   UNL     1       4.734  11.105   5.068  1.00  0.00    -0.550 OA
ENDBRANCH   5   6
ENDBRANCH   4   5
ENDBRANCH   3   4
ENDBRANCH   2   3
ENDBRANCH   1   2
BRANCH   1   9
ATOM      9  C   UNL     1       5.491  12.883   8.314  1.00  0.00     0.000 C 
BRANCH   9  10
ATOM     10  C   UNL     1       4.286  12.963   9.279  1.00  0.00    -0.000 C 
BRANCH  10  11
ATOM     11  C   UNL     1       3.403  11.702   9.267  1.00  0.00    -0.000 C 
BRANCH  11  12
ATOM     12  C   UNL     1       4.015  10.485   9.983  1.00  0.00    -0.000 C 
BRANCH  12  13
ATOM     13  C   UNL     1       4.674   9.468   9.025  1.00  0.00    -0.003 C 
ATOM     14  C   UNL     1       3.844   9.207   7.770  1.00  0.00     0.004 C 
ENDBRANCH  12  13
ENDBRANCH  11  12
ENDBRANCH  10  11
ENDBRANCH   9  10
ENDBRANCH   1   9
TORSDOF 10
ENDMDL
MODEL 6
REMARK VINA RESULT:    -4.255     17.859     19.190
REMARK INTER + INTRA:          -7.582
REMARK INTER:                  -6.703
REMARK INTRA:                  -0.880
REMARK UNBOUND:                -0.839
REMARK SMILES CCCCCCCCCCCC(=O)[O-]
REMARK SMILES IDX 7 1 8 2 9 3 10 4 11 5 12 6 13 7 14 8 6 9 5 10 4 11 3 12 2 13
REMARK SMILES IDX 1 14
REMARK H PARENT
REMARK Flexibility Score: inf
ROOT
ATOM      1  C   UNL     1       5.594  11.837   5.917  1.00  0.00     0.000 C 
ENDROOT
BRANCH   1   2
ATOM      2  C   UNL     1       6.017  11.781   4.440  1.00  0.00     0.000 C 
BRANCH   2   3
ATOM      3  C   UNL     1       7.527  11.537   4.269  1.00  0.00     0.000 C 
BRANCH   3   4
ATOM      4  C   UNL     1       8.379  12.623   4.946  1.00  0.00     0.006 C 
BRANCH   4   5
ATOM      5  C   UNL     1       9.477  12.038   5.845  1.00  0.00     0.053 C 
BRANCH   5   6
ATOM      6  C   UNL     1       8.929  11.725   7.202  1.00  0.00     0.041 C 
ATOM      7  O   UNL     1       8.466  10.580   7.449  1.00  0.00    -0.550 OA
ATOM      8  O   UNL     1       8.883  12.712   8.178  1.00  0.00    -0.550 OA
ENDBRANCH   5   6
ENDBRANCH   4   5
ENDBRANCH   3   4
ENDBRANCH   2   3
ENDBRANCH   1   2
BRANCH   1   9
ATOM      9  C   UNL     1       4.940  10.530   6.399  1.00  0.00     0.000 C 
BRANCH   9  10
ATOM     10  C   UNL     1       5.053  10.339   7.929  1.00  0.00    -0.000 C 
BRANCH  10  11
ATOM     11  C   UNL     1       5.277  11.653   8.698  1.00  0.00    -0.000 C 
BRANCH  11  12
ATOM     12  C   UNL     1       4.001  12.264   9.305  1.00  0.00    -0.000 C 
BRANCH  12  13
ATOM     13  C   UNL     1       2.875  11.233   9.548  1.00  0.00    -0.003 C 
ATOM     14  C   UNL     1       1.511  11.883   9.775  1.00  0.00     0.004 C 
ENDBRANCH  12  13
ENDBRANCH  11  12
ENDBRANCH  10  11
ENDBRANCH   9  10
ENDBRANCH   1   9
TORSDOF 10
ENDMDL
MODEL 7
REMARK VINA RESULT:    -4.250     17.158     18.945
REMARK INTER + INTRA:          -7.574
REMARK INTER:                  -6.742
REMARK INTRA:                  -0.832
REMARK UNBOUND:                -0.839
REMARK SMILES CCCCCCCCCCCC(=O)[O-]
REMARK SMILES IDX 7 1 8 2 9 3 10 4 11 5 12 6 13 7 14 8 6 9 5 10 4 11 3 12 2 13
REMARK SMILES IDX 1 14
REMARK H PARENT
REMARK Flexibility Score: inf
ROOT
ATOM      1  C   UNL     1       7.377  11.162   8.158  1.00  0.00     0.000 C 
ENDROOT
BRANCH   1   2
ATOM      2  C   UNL     1       8.555  11.578   7.261  1.00  0.00     0.000 C 
BRANCH   2   3
ATOM      3  C   UNL     1       8.305  11.261   5.776  1.00  0.00     0.000 C 
BRANCH   3   4
ATOM      4  C   UNL     1       7.831  12.489   4.983  1.00  0.00     0.006 C 
BRANCH   4   5
ATOM      5  C   UNL     1       6.309  12.681   5.043  1.00  0.00     0.053 C 
BRANCH   5   6
ATOM      6  C   UNL     1       5.610  11.385   4.781  1.00  0.00     0.041 C 
ATOM      7  O   UNL     1       5.744  10.806   3.670  1.00  0.00    -0.550 OA
ATOM      8  O   UNL     1       4.770  10.840   5.744  1.00  0.00    -0.550 OA
ENDBRANCH   5   6
ENDBRANCH   4   5
ENDBRANCH   3   4
ENDBRANCH   2   3
ENDBRANCH   1   2
BRANCH   1   9
ATOM      9  C   UNL     1       6.784  12.342   8.947  1.00  0.00     0.000 C 
BRANCH   9  10
ATOM     10  C   UNL     1       5.253  12.463   8.771  1.00  0.00    -0.000 C 
BRANCH  10  11
ATOM     11  C   UNL     1       4.464  11.327   9.446  1.00  0.00    -0.000 C 
BRANCH  11  12
ATOM     12  C   UNL     1       3.060  11.089   8.863  1.00  0.00    -0.000 C 
BRANCH  12  13
ATOM     13  C   UNL     1       1.930  11.170   9.915  1.00  0.00    -0.003 C 
ATOM     14  C   UNL     1       1.116  12.459   9.818  1.00  0.00     0.004 C 
ENDBRANCH  12  13
ENDBRANCH  11  12
ENDBRANCH  10  11
ENDBRANCH   9  10
ENDBRANCH   1   9
TORSDOF 10
ENDMDL
MODEL 8
REMARK VINA RESULT:    -4.239     17.329     19.180
REMARK INTER + INTRA:          -7.556
REMARK INTER:                  -6.383
REMARK INTRA:                  -1.173
REMARK UNBOUND:                -0.839
REMARK SMILES CCCCCCCCCCCC(=O)[O-]
REMARK SMILES IDX 7 1 8 2 9 3 10 4 11 5 12 6 13 7 14 8 6 9 5 10 4 11 3 12 2 13
REMARK SMILES IDX 1 14
REMARK H PARENT
REMARK Flexibility Score: inf
ROOT
ATOM      1  C   UNL     1       6.382  12.410   9.246  1.00  0.00     0.000 C 
ENDROOT
BRANCH   1   2
ATOM      2  C   UNL     1       7.041  12.386   7.856  1.00  0.00     0.000 C 
BRANCH   2   3
ATOM      3  C   UNL     1       7.645  11.011   7.516  1.00  0.00     0.000 C 
BRANCH   3   4
ATOM      4  C   UNL     1       8.720  11.094   6.421  1.00  0.00     0.006 C 
BRANCH   4   5
ATOM      5  C   UNL     1       8.647  12.401   5.618  1.00  0.00     0.053 C 
BRANCH   5   6
ATOM      6  C   UNL     1       8.136  12.136   4.237  1.00  0.00     0.041 C 
ATOM      7  O   UNL     1       8.787  12.531   3.234  1.00  0.00    -0.550 OA
ATOM      8  O   UNL     1       6.916  11.496   4.057  1.00  0.00    -0.550 OA
ENDBRANCH   5   6
ENDBRANCH   4   5
ENDBRANCH   3   4
ENDBRANCH   2   3
ENDBRANCH   1   2
BRANCH   1   9
ATOM      9  C   UNL     1       5.019  13.125   9.244  1.00  0.00     0.000 C 
BRANCH   9  10
ATOM     10  C   UNL     1       3.834  12.141   9.375  1.00  0.00    -0.000 C 
BRANCH  10  11
ATOM     11  C   UNL     1       4.258  10.715   9.768  1.00  0.00    -0.000 C 
BRANCH  11  12
ATOM     12  C   UNL     1       4.180   9.686   8.625  1.00  0.00    -0.000 C 
BRANCH  12  13
ATOM     13  C   UNL     1       3.386  10.184   7.396  1.00  0.00    -0.003 C 
ATOM     14  C   UNL     1       4.283  10.538   6.211  1.00  0.00     0.004 C 
ENDBRANCH  12  13
ENDBRANCH  11  12
ENDBRANCH  10  11
ENDBRANCH   9  10
ENDBRANCH   1   9
TORSDOF 10
ENDMDL
MODEL 9
REMARK VINA RESULT:    -4.144     17.551     19.478
REMARK INTER + INTRA:          -7.406
REMARK INTER:                  -6.198
REMARK INTRA:                  -1.207
REMARK UNBOUND:                -0.839
REMARK SMILES CCCCCCCCCCCC(=O)[O-]
REMARK SMILES IDX 7 1 8 2 9 3 10 4 11 5 12 6 13 7 14 8 6 9 5 10 4 11 3 12 2 13
REMARK SMILES IDX 1 14
REMARK H PARENT
REMARK Flexibility Score: inf
ROOT
ATOM      1  C   UNL     1       9.085  11.742   7.345  1.00  0.00     0.000 C 
ENDROOT
BRANCH   1   2
ATOM      2  C   UNL     1       9.812  11.972   6.009  1.00  0.00     0.000 C 
BRANCH   2   3
ATOM      3  C   UNL     1       9.149  13.072   5.162  1.00  0.00     0.000 C 
BRANCH   3   4
ATOM      4  C   UNL     1       8.086  12.516   4.201  1.00  0.00     0.006 C 
BRANCH   4   5
ATOM      5  C   UNL     1       6.662  12.637   4.761  1.00  0.00     0.053 C 
BRANCH   5   6
ATOM      6  C   UNL     1       6.051  11.281   4.928  1.00  0.00     0.041 C 
ATOM      7  O   UNL     1       4.805  11.131   4.826  1.00  0.00    -0.550 OA
ATOM      8  O   UNL     1       6.852  10.191   5.245  1.00  0.00    -0.550 OA
ENDBRANCH   5   6
ENDBRANCH   4   5
ENDBRANCH   3   4
ENDBRANCH   2   3
ENDBRANCH   1   2
BRANCH   1   9
ATOM      9  C   UNL     1       8.696  13.056   8.044  1.00  0.00     0.000 C 
BRANCH   9  10
ATOM     10  C   UNL     1       7.280  13.002   8.663  1.00  0.00    -0.000 C 
BRANCH  10  11
ATOM     11  C   UNL     1       6.638  11.604   8.610  1.00  0.00    -0.000 C 
BRANCH  11  12
ATOM     12  C   UNL     1       5.245  11.515   9.259  1.00  0.00    -0.000 C 
BRANCH  12  13
ATOM     13  C   UNL     1       4.162  10.931   8.324  1.00  0.00    -0.003 C 
ATOM     14  C   UNL     1       4.464   9.501   7.881  1.00  0.00     0.004 C 
ENDBRANCH  12  13
ENDBRANCH  11  12
ENDBRANCH  10  11
ENDBRANCH   9  10
ENDBRANCH   1   9
TORSDOF 10
ENDMDL
