MODEL 1
REMARK VINA RESULT:    -5.537      0.000      0.000
REMARK INTER + INTRA:          -5.909
REMARK INTER:                  -6.023
REMARK INTRA:                   0.114
REMARK UNBOUND:                 0.114
REMARK SMILES CC(=O)[C@H]1CC[C@@H]2[C@H]3CC=C4C[C@H](O)CC[C@]4(C)[C@H]3CC[C@]12C
REMARK SMILES IDX 4 1 5 2 6 3 7 4 22 5 21 6 20 7 19 8 8 9 9 10 10 11 11 12
REMARK SMILES IDX 17 13 16 14 15 15 13 16 12 17 18 18 23 19 2 20 1 21 3 22
REMARK SMILES IDX 14 23
REMARK H PARENT 14 24
REMARK Flexibility Score: inf
ROOT
ATOM      1  C   UNL     1       7.974  -8.699  40.642  1.00  0.00     0.062 C 
ATOM      2  C   UNL     1       8.339  -7.458  39.819  1.00  0.00     0.012 C 
ATOM      3  C   UNL     1       8.685  -6.352  40.814  1.00  0.00     0.005 C 
ATOM      4  C   UNL     1       8.657  -6.976  42.223  1.00  0.00    -0.001 C 
ATOM      5  C   UNL     1       8.702  -8.514  42.009  1.00  0.00    -0.020 C 
ATOM      6  C   UNL     1      10.167  -9.027  41.870  1.00  0.00     0.008 C 
ATOM      7  C   UNL     1      11.123  -8.480  42.938  1.00  0.00     0.005 C 
ATOM      8  C   UNL     1      11.166  -6.930  42.901  1.00  0.00     0.003 C 
ATOM      9  C   UNL     1       9.745  -6.365  43.158  1.00  0.00     0.000 C 
ATOM     10  C   UNL     1       9.366  -6.511  44.640  1.00  0.00     0.031 C 
ATOM     11  C   UNL     1      10.396  -5.899  45.532  1.00  0.00    -0.027 C 
ATOM     12  C   UNL     1      11.705  -5.826  45.212  1.00  0.00    -0.065 C 
ATOM     13  C   UNL     1      12.253  -6.237  43.835  1.00  0.00    -0.008 C 
ATOM     14  C   UNL     1      12.734  -4.924  43.135  1.00  0.00     0.014 C 
ATOM     15  C   UNL     1      13.650  -4.037  44.009  1.00  0.00     0.033 C 
ATOM     16  C   UNL     1      13.029  -3.725  45.386  1.00  0.00     0.118 C 
ATOM     17  C   UNL     1      12.615  -5.013  46.109  1.00  0.00     0.063 C 
ATOM     18  C   UNL     1      13.480  -7.169  44.030  1.00  0.00     0.016 C 
ATOM     19  C   UNL     1       7.991  -9.313  43.136  1.00  0.00     0.012 C 
ENDROOT
BRANCH   1  20
ATOM     20  C   UNL     1       6.458  -8.820  40.755  1.00  0.00     0.133 C 
ATOM     21  C   UNL     1       5.740 -10.048  40.277  1.00  0.00     0.088 C 
ATOM     22  O   UNL     1       5.804  -7.907  41.237  1.00  0.00    -0.300 OA
ENDBRANCH   1  20
BRANCH  16  23
ATOM     23  O   UNL     1      11.908  -2.892  45.237  1.00  0.00    -0.393 OA
ATOM     24  H   UNL     1      12.097  -2.290  44.470  1.00  0.00     0.210 HD
ENDBRANCH  16  23
TORSDOF 2
ENDMDL
MODEL 2
REMARK VINA RESULT:    -5.407     12.716     15.555
REMARK INTER + INTRA:          -5.767
REMARK INTER:                  -5.833
REMARK INTRA:                   0.066
REMARK UNBOUND:                 0.114
REMARK SMILES CC(=O)[C@H]1CC[C@@H]2[C@H]3CC=C4C[C@H](O)CC[C@]4(C)[C@H]3CC[C@]12C
REMARK SMILES IDX 4 1 5 2 6 3 7 4 22 5 21 6 20 7 19 8 8 9 9 10 10 11 11 12
REMARK SMILES IDX 17 13 16 14 15 15 13 16 12 17 18 18 23 19 2 20 1 21 3 22
REMARK SMILES IDX 14 23
REMARK H PARENT 14 24
REMARK Flexibility Score: inf
ROOT
ATOM      1  C   UNL     1      22.892 -12.703  42.249  1.00  0.00     0.062 C 
ATOM      2  C   UNL     1      22.805 -12.966  40.741  1.00  0.00     0.012 C 
ATOM      3  C   UNL     1      22.550 -14.462  40.567  1.00  0.00     0.005 C 
ATOM      4  C   UNL     1      22.351 -15.062  41.972  1.00  0.00    -0.001 C 
ATOM      5  C   UNL     1      22.081 -13.857  42.915  1.00  0.00    -0.020 C 
ATOM      6  C   UNL     1      20.572 -13.469  42.926  1.00  0.00     0.008 C 
ATOM      7  C   UNL     1      19.622 -14.662  43.091  1.00  0.00     0.005 C 
ATOM      8  C   UNL     1      19.830 -15.695  41.953  1.00  0.00     0.003 C 
ATOM      9  C   UNL     1      21.293 -16.207  41.977  1.00  0.00     0.000 C 
ATOM     10  C   UNL     1      21.508 -17.171  43.154  1.00  0.00     0.031 C 
ATOM     11  C   UNL     1      20.511 -18.284  43.140  1.00  0.00    -0.027 C 
ATOM     12  C   UNL     1      19.266 -18.157  42.638  1.00  0.00    -0.065 C 
ATOM     13  C   UNL     1      18.786 -16.896  41.899  1.00  0.00    -0.008 C 
ATOM     14  C   UNL     1      18.585 -17.304  40.403  1.00  0.00     0.014 C 
ATOM     15  C   UNL     1      17.747 -18.586  40.201  1.00  0.00     0.033 C 
ATOM     16  C   UNL     1      18.281 -19.777  41.023  1.00  0.00     0.118 C 
ATOM     17  C   UNL     1      18.418 -19.406  42.506  1.00  0.00     0.063 C 
ATOM     18  C   UNL     1      17.414 -16.455  42.478  1.00  0.00     0.016 C 
ATOM     19  C   UNL     1      22.551 -14.102  44.376  1.00  0.00     0.012 C 
ENDROOT
BRANCH   1  20
ATOM     20  C   UNL     1      24.352 -12.637  42.681  1.00  0.00     0.133 C 
ATOM     21  C   UNL     1      24.873 -11.481  43.483  1.00  0.00     0.088 C 
ATOM     22  O   UNL     1      25.124 -13.533  42.373  1.00  0.00    -0.300 OA
ENDBRANCH   1  20
BRANCH  16  23
ATOM     23  O   UNL     1      19.529 -20.189  40.527  1.00  0.00    -0.393 OA
ATOM     24  H   UNL     1      20.078 -20.451  41.312  1.00  0.00     0.210 HD
ENDBRANCH  16  23
TORSDOF 2
ENDMDL
MODEL 3
REMARK VINA RESULT:    -5.338     12.805     14.461
REMARK INTER + INTRA:          -5.692
REMARK INTER:                  -5.768
REMARK INTRA:                   0.076
REMARK UNBOUND:                 0.114
REMARK SMILES CC(=O)[C@H]1CC[C@@H]2[C@H]3CC=C4C[C@H](O)CC[C@]4(C)[C@H]3CC[C@]12C
REMARK SMILES IDX 4 1 5 2 6 3 7 4 22 5 21 6 20 7 19 8 8 9 9 10 10 11 11 12
REMARK SMILES IDX 17 13 16 14 15 15 13 16 12 17 18 18 23 19 2 20 1 21 3 22
REMARK SMILES IDX 14 23
REMARK H PARENT 14 24
REMARK Flexibility Score: inf
ROOT
ATOM      1  C   UNL     1      16.349 -20.275  42.022  1.00  0.00     0.062 C 
ATOM      2  C   UNL     1      15.706 -19.262  42.977  1.00  0.00     0.012 C 
ATOM      3  C   UNL     1      16.848 -18.533  43.683  1.00  0.00     0.005 C 
ATOM      4  C   UNL     1      18.166 -19.019  43.049  1.00  0.00    -0.001 C 
ATOM      5  C   UNL     1      17.768 -19.707  41.714  1.00  0.00    -0.020 C 
ATOM      6  C   UNL     1      17.653 -18.673  40.553  1.00  0.00     0.008 C 
ATOM      7  C   UNL     1      18.834 -17.698  40.468  1.00  0.00     0.005 C 
ATOM      8  C   UNL     1      18.989 -16.900  41.788  1.00  0.00     0.003 C 
ATOM      9  C   UNL     1      19.230 -17.883  42.963  1.00  0.00     0.000 C 
ATOM     10  C   UNL     1      20.658 -18.448  42.910  1.00  0.00     0.031 C 
ATOM     11  C   UNL     1      21.677 -17.356  42.858  1.00  0.00    -0.027 C 
ATOM     12  C   UNL     1      21.446 -16.152  42.295  1.00  0.00    -0.065 C 
ATOM     13  C   UNL     1      20.063 -15.725  41.775  1.00  0.00    -0.008 C 
ATOM     14  C   UNL     1      19.559 -14.589  42.724  1.00  0.00     0.014 C 
ATOM     15  C   UNL     1      20.587 -13.461  42.967  1.00  0.00     0.033 C 
ATOM     16  C   UNL     1      21.953 -13.999  43.439  1.00  0.00     0.118 C 
ATOM     17  C   UNL     1      22.487 -15.067  42.475  1.00  0.00     0.063 C 
ATOM     18  C   UNL     1      20.214 -15.139  40.343  1.00  0.00     0.016 C 
ATOM     19  C   UNL     1      18.745 -20.838  41.289  1.00  0.00     0.012 C 
ENDROOT
BRANCH   1  20
ATOM     20  C   UNL     1      16.357 -21.659  42.662  1.00  0.00     0.133 C 
ATOM     21  C   UNL     1      15.785 -22.848  41.949  1.00  0.00     0.088 C 
ATOM     22  O   UNL     1      16.832 -21.815  43.778  1.00  0.00    -0.300 OA
ENDBRANCH   1  20
BRANCH  16  23
ATOM     23  O   UNL     1      21.842 -14.546  44.728  1.00  0.00    -0.393 OA
ATOM     24  H   UNL     1      22.433 -15.344  44.753  1.00  0.00     0.210 HD
ENDBRANCH  16  23
TORSDOF 2
ENDMDL
MODEL 4
REMARK VINA RESULT:    -5.299     13.228     15.677
REMARK INTER + INTRA:          -5.650
REMARK INTER:                  -5.691
REMARK INTRA:                   0.042
REMARK UNBOUND:                 0.114
REMARK SMILES CC(=O)[C@H]1CC[C@@H]2[C@H]3CC=C4C[C@H](O)CC[C@]4(C)[C@H]3CC[C@]12C
REMARK SMILES IDX 4 1 5 2 6 3 7 4 22 5 21 6 20 7 19 8 8 9 9 10 10 11 11 12
REMARK SMILES IDX 17 13 16 14 15 15 13 16 12 17 18 18 23 19 2 20 1 21 3 22
REMARK SMILES IDX 14 23
REMARK H PARENT 14 24
REMARK Flexibility Score: inf
ROOT
ATOM      1  C   UNL     1      19.589 -17.188  41.789  1.00  0.00     0.062 C 
ATOM      2  C   UNL     1      19.363 -17.151  43.305  1.00  0.00     0.012 C 
ATOM      3  C   UNL     1      17.920 -17.589  43.549  1.00  0.00     0.005 C 
ATOM      4  C   UNL     1      17.332 -18.013  42.189  1.00  0.00    -0.001 C 
ATOM      5  C   UNL     1      18.548 -18.213  41.243  1.00  0.00    -0.020 C 
ATOM      6  C   UNL     1      19.141 -19.648  41.374  1.00  0.00     0.008 C 
ATOM      7  C   UNL     1      18.089 -20.763  41.341  1.00  0.00     0.005 C 
ATOM      8  C   UNL     1      17.055 -20.581  42.482  1.00  0.00     0.003 C 
ATOM      9  C   UNL     1      16.344 -19.212  42.325  1.00  0.00     0.000 C 
ATOM     10  C   UNL     1      15.342 -19.254  41.161  1.00  0.00     0.031 C 
ATOM     11  C   UNL     1      14.378 -20.386  41.309  1.00  0.00    -0.027 C 
ATOM     12  C   UNL     1      14.684 -21.544  41.930  1.00  0.00    -0.065 C 
ATOM     13  C   UNL     1      16.010 -21.767  42.676  1.00  0.00    -0.008 C 
ATOM     14  C   UNL     1      15.657 -21.865  44.196  1.00  0.00     0.014 C 
ATOM     15  C   UNL     1      14.507 -22.845  44.520  1.00  0.00     0.033 C 
ATOM     16  C   UNL     1      13.242 -22.566  43.684  1.00  0.00     0.118 C 
ATOM     17  C   UNL     1      13.567 -22.535  42.184  1.00  0.00     0.063 C 
ATOM     18  C   UNL     1      16.629 -23.119  42.226  1.00  0.00     0.016 C 
ATOM     19  C   UNL     1      18.218 -17.936  39.750  1.00  0.00     0.012 C 
ENDROOT
BRANCH   1  20
ATOM     20  C   UNL     1      19.445 -15.785  41.209  1.00  0.00     0.133 C 
ATOM     21  C   UNL     1      20.412 -15.264  40.187  1.00  0.00     0.088 C 
ATOM     22  O   UNL     1      18.532 -15.059  41.578  1.00  0.00    -0.300 OA
ENDBRANCH   1  20
BRANCH  16  23
ATOM     23  O   UNL     1      12.668 -21.341  44.062  1.00  0.00    -0.393 OA
ATOM     24  H   UNL     1      13.378 -20.822  44.523  1.00  0.00     0.210 HD
ENDBRANCH  16  23
TORSDOF 2
ENDMDL
MODEL 5
REMARK VINA RESULT:    -5.259      1.116      6.683
REMARK INTER + INTRA:          -5.606
REMARK INTER:                  -5.757
REMARK INTRA:                   0.151
REMARK UNBOUND:                 0.114
REMARK SMILES CC(=O)[C@H]1CC[C@@H]2[C@H]3CC=C4C[C@H](O)CC[C@]4(C)[C@H]3CC[C@]12C
REMARK SMILES IDX 4 1 5 2 6 3 7 4 22 5 21 6 20 7 19 8 8 9 9 10 10 11 11 12
REMARK SMILES IDX 17 13 16 14 15 15 13 16 12 17 18 18 23 19 2 20 1 21 3 22
REMARK SMILES IDX 14 23
REMARK H PARENT 14 24
REMARK Flexibility Score: inf
ROOT
ATOM      1  C   UNL     1      11.812  -5.393  45.203  1.00  0.00     0.062 C 
ATOM      2  C   UNL     1      10.494  -5.445  45.984  1.00  0.00     0.012 C 
ATOM      3  C   UNL     1       9.378  -5.631  44.958  1.00  0.00     0.005 C 
ATOM      4  C   UNL     1      10.045  -5.825  43.582  1.00  0.00    -0.001 C 
ATOM      5  C   UNL     1      11.534  -6.163  43.875  1.00  0.00    -0.020 C 
ATOM      6  C   UNL     1      11.733  -7.687  44.127  1.00  0.00     0.008 C 
ATOM      7  C   UNL     1      11.043  -8.586  43.092  1.00  0.00     0.005 C 
ATOM      8  C   UNL     1       9.517  -8.315  43.056  1.00  0.00     0.003 C 
ATOM      9  C   UNL     1       9.261  -6.831  42.686  1.00  0.00     0.000 C 
ATOM     10  C   UNL     1       9.535  -6.592  41.193  1.00  0.00     0.031 C 
ATOM     11  C   UNL     1       8.760  -7.538  40.335  1.00  0.00    -0.027 C 
ATOM     12  C   UNL     1       8.411  -8.780  40.729  1.00  0.00    -0.065 C 
ATOM     13  C   UNL     1       8.652  -9.303  42.155  1.00  0.00    -0.008 C 
ATOM     14  C   UNL     1       7.244  -9.463  42.816  1.00  0.00     0.014 C 
ATOM     15  C   UNL     1       6.222 -10.241  41.957  1.00  0.00     0.033 C 
ATOM     16  C   UNL     1       6.093  -9.667  40.531  1.00  0.00     0.118 C 
ATOM     17  C   UNL     1       7.464  -9.570  39.849  1.00  0.00     0.063 C 
ATOM     18  C   UNL     1       9.323 -10.703  42.081  1.00  0.00     0.016 C 
ATOM     19  C   UNL     1      12.501  -5.705  42.748  1.00  0.00     0.012 C 
ENDROOT
BRANCH   1  20
ATOM     20  C   UNL     1      12.242  -3.944  45.005  1.00  0.00     0.133 C 
ATOM     21  C   UNL     1      11.243  -2.875  44.676  1.00  0.00     0.088 C 
ATOM     22  O   UNL     1      13.421  -3.635  45.111  1.00  0.00    -0.300 OA
ENDBRANCH   1  20
BRANCH  16  23
ATOM     23  O   UNL     1       5.499  -8.394  40.571  1.00  0.00    -0.393 OA
ATOM     24  H   UNL     1       6.105  -7.812  41.100  1.00  0.00     0.210 HD
ENDBRANCH  16  23
TORSDOF 2
ENDMDL
MODEL 6
REMARK VINA RESULT:    -5.236     12.716     15.154
REMARK INTER + INTRA:          -5.581
REMARK INTER:                  -5.634
REMARK INTRA:                   0.053
REMARK UNBOUND:                 0.114
REMARK SMILES CC(=O)[C@H]1CC[C@@H]2[C@H]3CC=C4C[C@H](O)CC[C@]4(C)[C@H]3CC[C@]12C
REMARK SMILES IDX 4 1 5 2 6 3 7 4 22 5 21 6 20 7 19 8 8 9 9 10 10 11 11 12
REMARK SMILES IDX 17 13 16 14 15 15 13 16 12 17 18 18 23 19 2 20 1 21 3 22
REMARK SMILES IDX 14 23
REMARK H PARENT 14 24
REMARK Flexibility Score: inf
ROOT
ATOM      1  C   UNL     1      24.067  -8.703  42.474  1.00  0.00     0.062 C 
ATOM      2  C   UNL     1      22.798  -8.530  43.315  1.00  0.00     0.012 C 
ATOM      3  C   UNL     1      21.925  -9.757  43.057  1.00  0.00     0.005 C 
ATOM      4  C   UNL     1      22.736 -10.720  42.168  1.00  0.00    -0.001 C 
ATOM      5  C   UNL     1      24.211 -10.240  42.257  1.00  0.00    -0.020 C 
ATOM      6  C   UNL     1      24.936 -10.856  43.491  1.00  0.00     0.008 C 
ATOM      7  C   UNL     1      24.721 -12.366  43.652  1.00  0.00     0.005 C 
ATOM      8  C   UNL     1      23.212 -12.698  43.784  1.00  0.00     0.003 C 
ATOM      9  C   UNL     1      22.461 -12.214  42.518  1.00  0.00     0.000 C 
ATOM     10  C   UNL     1      22.758 -13.138  41.327  1.00  0.00     0.031 C 
ATOM     11  C   UNL     1      22.466 -14.566  41.655  1.00  0.00    -0.027 C 
ATOM     12  C   UNL     1      22.567 -15.076  42.900  1.00  0.00    -0.065 C 
ATOM     13  C   UNL     1      22.856 -14.210  44.138  1.00  0.00    -0.008 C 
ATOM     14  C   UNL     1      21.554 -14.217  45.003  1.00  0.00     0.014 C 
ATOM     15  C   UNL     1      20.972 -15.625  45.264  1.00  0.00     0.033 C 
ATOM     16  C   UNL     1      20.766 -16.428  43.963  1.00  0.00     0.118 C 
ATOM     17  C   UNL     1      22.060 -16.483  43.139  1.00  0.00     0.063 C 
ATOM     18  C   UNL     1      24.000 -14.862  44.962  1.00  0.00     0.016 C 
ATOM     19  C   UNL     1      25.037 -10.552  40.978  1.00  0.00     0.012 C 
ENDROOT
BRANCH   1  20
ATOM     20  C   UNL     1      23.948  -7.900  41.183  1.00  0.00     0.133 C 
ATOM     21  C   UNL     1      25.125  -7.164  40.614  1.00  0.00     0.088 C 
ATOM     22  O   UNL     1      22.878  -7.843  40.593  1.00  0.00    -0.300 OA
ENDBRANCH   1  20
BRANCH  16  23
ATOM     23  O   UNL     1      19.744 -15.852  43.191  1.00  0.00    -0.393 OA
ATOM     24  H   UNL     1      19.248 -16.600  42.766  1.00  0.00     0.210 HD
ENDBRANCH  16  23
TORSDOF 2
ENDMDL
MODEL 7
REMARK VINA RESULT:    -5.111      3.966      7.072
REMARK INTER + INTRA:          -5.445
REMARK INTER:                  -5.489
REMARK INTRA:                   0.044
REMARK UNBOUND:                 0.114
REMARK SMILES CC(=O)[C@H]1CC[C@@H]2[C@H]3CC=C4C[C@H](O)CC[C@]4(C)[C@H]3CC[C@]12C
REMARK SMILES IDX 4 1 5 2 6 3 7 4 22 5 21 6 20 7 19 8 8 9 9 10 10 11 11 12
REMARK SMILES IDX 17 13 16 14 15 15 13 16 12 17 18 18 23 19 2 20 1 21 3 22
REMARK SMILES IDX 14 23
REMARK H PARENT 14 24
REMARK Flexibility Score: inf
ROOT
ATOM      1  C   UNL     1      17.427  -5.268  41.635  1.00  0.00     0.062 C 
ATOM      2  C   UNL     1      16.473  -4.767  40.545  1.00  0.00     0.012 C 
ATOM      3  C   UNL     1      15.074  -5.250  40.925  1.00  0.00     0.005 C 
ATOM      4  C   UNL     1      15.179  -5.923  42.308  1.00  0.00    -0.001 C 
ATOM      5  C   UNL     1      16.539  -5.463  42.902  1.00  0.00    -0.020 C 
ATOM      6  C   UNL     1      16.407  -4.096  43.637  1.00  0.00     0.008 C 
ATOM      7  C   UNL     1      15.207  -4.014  44.590  1.00  0.00     0.005 C 
ATOM      8  C   UNL     1      13.880  -4.265  43.830  1.00  0.00     0.003 C 
ATOM      9  C   UNL     1      13.912  -5.672  43.180  1.00  0.00     0.000 C 
ATOM     10  C   UNL     1      13.733  -6.764  44.246  1.00  0.00     0.031 C 
ATOM     11  C   UNL     1      12.502  -6.538  45.062  1.00  0.00    -0.027 C 
ATOM     12  C   UNL     1      11.992  -5.314  45.310  1.00  0.00    -0.065 C 
ATOM     13  C   UNL     1      12.542  -4.032  44.662  1.00  0.00    -0.008 C 
ATOM     14  C   UNL     1      11.438  -3.517  43.681  1.00  0.00     0.014 C 
ATOM     15  C   UNL     1      10.026  -3.428  44.303  1.00  0.00     0.033 C 
ATOM     16  C   UNL     1       9.590  -4.750  44.969  1.00  0.00     0.118 C 
ATOM     17  C   UNL     1      10.638  -5.228  45.984  1.00  0.00     0.063 C 
ATOM     18  C   UNL     1      12.763  -2.957  45.762  1.00  0.00     0.016 C 
ATOM     19  C   UNL     1      17.168  -6.501  43.873  1.00  0.00     0.012 C 
ENDROOT
BRANCH   1  20
ATOM     20  C   UNL     1      18.130  -6.538  41.165  1.00  0.00     0.133 C 
ATOM     21  C   UNL     1      19.598  -6.744  41.397  1.00  0.00     0.088 C 
ATOM     22  O   UNL     1      17.499  -7.409  40.584  1.00  0.00    -0.300 OA
ENDBRANCH   1  20
BRANCH  16  23
ATOM     23  O   UNL     1       9.395  -5.744  43.996  1.00  0.00    -0.393 OA
ATOM     24  H   UNL     1       8.848  -5.336  43.274  1.00  0.00     0.210 HD
ENDBRANCH  16  23
TORSDOF 2
ENDMDL
MODEL 8
REMARK VINA RESULT:    -5.105     12.555     15.092
REMARK INTER + INTRA:          -5.439
REMARK INTER:                  -5.488
REMARK INTRA:                   0.049
REMARK UNBOUND:                 0.114
REMARK SMILES CC(=O)[C@H]1CC[C@@H]2[C@H]3CC=C4C[C@H](O)CC[C@]4(C)[C@H]3CC[C@]12C
REMARK SMILES IDX 4 1 5 2 6 3 7 4 22 5 21 6 20 7 19 8 8 9 9 10 10 11 11 12
REMARK SMILES IDX 17 13 16 14 15 15 13 16 12 17 18 18 23 19 2 20 1 21 3 22
REMARK SMILES IDX 14 23
REMARK H PARENT 14 24
REMARK Flexibility Score: inf
ROOT
ATOM      1  C   UNL     1      22.047 -15.369  44.648  1.00  0.00     0.062 C 
ATOM      2  C   UNL     1      20.792 -15.468  45.524  1.00  0.00     0.012 C 
ATOM      3  C   UNL     1      19.590 -15.334  44.591  1.00  0.00     0.005 C 
ATOM      4  C   UNL     1      20.129 -15.291  43.148  1.00  0.00    -0.001 C 
ATOM      5  C   UNL     1      21.591 -15.812  43.224  1.00  0.00    -0.020 C 
ATOM      6  C   UNL     1      21.646 -17.367  43.142  1.00  0.00     0.008 C 
ATOM      7  C   UNL     1      20.790 -17.963  42.016  1.00  0.00     0.005 C 
ATOM      8  C   UNL     1      19.303 -17.557  42.180  1.00  0.00     0.003 C 
ATOM      9  C   UNL     1      19.178 -16.012  42.145  1.00  0.00     0.000 C 
ATOM     10  C   UNL     1      19.364 -15.488  40.712  1.00  0.00     0.031 C 
ATOM     11  C   UNL     1      18.432 -16.160  39.758  1.00  0.00    -0.027 C 
ATOM     12  C   UNL     1      17.984 -17.422  39.923  1.00  0.00    -0.065 C 
ATOM     13  C   UNL     1      18.273 -18.253  41.184  1.00  0.00    -0.008 C 
ATOM     14  C   UNL     1      16.909 -18.425  41.929  1.00  0.00     0.014 C 
ATOM     15  C   UNL     1      15.751 -18.911  41.030  1.00  0.00     0.033 C 
ATOM     16  C   UNL     1      15.577 -18.039  39.769  1.00  0.00     0.118 C 
ATOM     17  C   UNL     1      16.896 -17.921  38.994  1.00  0.00     0.063 C 
ATOM     18  C   UNL     1      18.785 -19.659  40.763  1.00  0.00     0.016 C 
ATOM     19  C   UNL     1      22.514 -15.214  42.128  1.00  0.00     0.012 C 
ENDROOT
BRANCH   1  20
ATOM     20  C   UNL     1      22.612 -13.954  44.709  1.00  0.00     0.133 C 
ATOM     21  C   UNL     1      24.081 -13.711  44.887  1.00  0.00     0.088 C 
ATOM     22  O   UNL     1      21.864 -12.990  44.617  1.00  0.00    -0.300 OA
ENDBRANCH   1  20
BRANCH  16  23
ATOM     23  O   UNL     1      15.126 -16.757  40.122  1.00  0.00    -0.393 OA
ATOM     24  H   UNL     1      15.168 -16.700  41.113  1.00  0.00     0.210 HD
ENDBRANCH  16  23
TORSDOF 2
ENDMDL
MODEL 9
REMARK VINA RESULT:    -5.027     12.565     14.101
REMARK INTER + INTRA:          -5.354
REMARK INTER:                  -5.403
REMARK INTRA:                   0.049
REMARK UNBOUND:                 0.114
REMARK SMILES CC(=O)[C@H]1CC[C@@H]2[C@H]3CC=C4C[C@H](O)CC[C@]4(C)[C@H]3CC[C@]12C
REMARK SMILES IDX 4 1 5 2 6 3 7 4 22 5 21 6 20 7 19 8 8 9 9 10 10 11 11 12
REMARK SMILES IDX 17 13 16 14 15 15 13 16 12 17 18 18 23 19 2 20 1 21 3 22
REMARK SMILES IDX 14 23
REMARK H PARENT 14 24
REMARK Flexibility Score: inf
ROOT
ATOM      1  C   UNL     1      18.750 -19.732  41.944  1.00  0.00     0.062 C 
ATOM      2  C   UNL     1      19.136 -19.412  40.495  1.00  0.00     0.012 C 
ATOM      3  C   UNL     1      19.183 -17.890  40.375  1.00  0.00     0.005 C 
ATOM      4  C   UNL     1      18.957 -17.310  41.785  1.00  0.00    -0.001 C 
ATOM      5  C   UNL     1      19.193 -18.487  42.772  1.00  0.00    -0.020 C 
ATOM      6  C   UNL     1      20.701 -18.634  43.132  1.00  0.00     0.008 C 
ATOM      7  C   UNL     1      21.386 -17.312  43.504  1.00  0.00     0.005 C 
ATOM      8  C   UNL     1      21.282 -16.290  42.343  1.00  0.00     0.003 C 
ATOM      9  C   UNL     1      19.790 -16.014  42.026  1.00  0.00     0.000 C 
ATOM     10  C   UNL     1      19.160 -15.132  43.116  1.00  0.00     0.031 C 
ATOM     11  C   UNL     1      19.944 -13.877  43.325  1.00  0.00    -0.027 C 
ATOM     12  C   UNL     1      21.275 -13.792  43.124  1.00  0.00    -0.065 C 
ATOM     13  C   UNL     1      22.105 -14.939  42.524  1.00  0.00    -0.008 C 
ATOM     14  C   UNL     1      22.575 -14.459  41.112  1.00  0.00     0.014 C 
ATOM     15  C   UNL     1      23.222 -13.056  41.100  1.00  0.00     0.033 C 
ATOM     16  C   UNL     1      22.331 -11.990  41.769  1.00  0.00     0.118 C 
ATOM     17  C   UNL     1      21.920 -12.423  43.183  1.00  0.00     0.063 C 
ATOM     18  C   UNL     1      23.361 -15.178  43.406  1.00  0.00     0.016 C 
ATOM     19  C   UNL     1      18.368 -18.363  44.083  1.00  0.00     0.012 C 
ENDROOT
BRANCH   1  20
ATOM     20  C   UNL     1      17.259 -20.039  42.028  1.00  0.00     0.133 C 
ATOM     21  C   UNL     1      16.751 -21.210  42.816  1.00  0.00     0.088 C 
ATOM     22  O   UNL     1      16.453 -19.329  41.445  1.00  0.00    -0.300 OA
ENDBRANCH   1  20
BRANCH  16  23
ATOM     23  O   UNL     1      21.180 -11.763  40.997  1.00  0.00    -0.393 OA
ATOM     24  H   UNL     1      20.664 -11.048  41.453  1.00  0.00     0.210 HD
ENDBRANCH  16  23
TORSDOF 2
ENDMDL
