MODEL 1
REMARK VINA RESULT:    -6.112      0.000      0.000
REMARK INTER + INTRA:          -7.379
REMARK INTER:                  -7.363
REMARK INTRA:                  -0.017
REMARK UNBOUND:                -0.017
REMARK SMILES O=c1c(O)c(-c2ccc(O)c(O)c2)oc2cc(O)cc(O)c12
REMARK SMILES IDX 5 1 3 2 2 3 1 4 22 5 20 6 19 7 17 8 16 9 15 10 14 11 6 12
REMARK SMILES IDX 7 13 8 14 9 15 13 16 11 17 10 18 12 20 4 22 21 24 18 26
REMARK H PARENT 10 19 12 21 4 23 21 25 18 27
REMARK Flexibility Score: inf
ROOT
ATOM      1  C   UNL     1     145.118 115.337 139.161  1.00  0.00     0.180 A 
ATOM      2  C   UNL     1     144.476 116.361 139.879  1.00  0.00     0.208 A 
ATOM      3  C   UNL     1     143.182 116.136 140.375  1.00  0.00     0.238 A 
ATOM      4  O   UNL     1     142.634 117.037 141.063  1.00  0.00    -0.285 OA
ATOM      5  C   UNL     1     142.540 114.898 140.134  1.00  0.00     0.111 A 
ATOM      6  C   UNL     1     141.215 114.576 140.554  1.00  0.00     0.134 A 
ATOM      7  C   UNL     1     140.730 113.275 140.375  1.00  0.00     0.093 A 
ATOM      8  C   UNL     1     141.495 112.303 139.732  1.00  0.00     0.123 A 
ATOM      9  C   UNL     1     142.771 112.624 139.263  1.00  0.00     0.094 A 
ATOM     10  C   UNL     1     143.295 113.903 139.460  1.00  0.00     0.146 A 
ATOM     11  O   UNL     1     144.516 114.164 139.008  1.00  0.00    -0.452 OA
ENDROOT
BRANCH   1  12
ATOM     12  C   UNL     1     146.472 115.508 138.586  1.00  0.00     0.025 A 
ATOM     13  C   UNL     1     147.514 114.614 138.890  1.00  0.00     0.016 A 
ATOM     14  C   UNL     1     148.790 114.810 138.355  1.00  0.00     0.051 A 
ATOM     15  C   UNL     1     149.049 115.906 137.522  1.00  0.00     0.157 A 
ATOM     16  C   UNL     1     146.741 116.618 137.768  1.00  0.00     0.062 A 
ATOM     17  C   UNL     1     148.017 116.815 137.230  1.00  0.00     0.158 A 
BRANCH  15  18
ATOM     18  O   UNL     1     150.322 116.097 136.987  1.00  0.00    -0.504 OA
ATOM     19  H   UNL     1     150.997 115.343 136.944  1.00  0.00     0.293 HD
ENDBRANCH  15  18
BRANCH  17  20
ATOM     20  O   UNL     1     148.243 117.921 136.410  1.00  0.00    -0.504 OA
ATOM     21  H   UNL     1     149.177 118.245 136.188  1.00  0.00     0.293 HD
ENDBRANCH  17  20
ENDBRANCH   1  12
BRANCH   2  22
ATOM     22  O   UNL     1     145.136 117.568 140.125  1.00  0.00    -0.502 OA
ATOM     23  H   UNL     1     145.968 117.626 140.699  1.00  0.00     0.293 HD
ENDBRANCH   2  22
BRANCH   6  24
ATOM     24  O   UNL     1     140.331 115.498 141.124  1.00  0.00    -0.507 OA
ATOM     25  H   UNL     1     139.326 115.408 141.122  1.00  0.00     0.293 HD
ENDBRANCH   6  24
BRANCH   8  26
ATOM     26  O   UNL     1     140.974 111.023 139.556  1.00  0.00    -0.508 OA
ATOM     27  H   UNL     1     141.003 110.333 140.298  1.00  0.00     0.293 HD
ENDBRANCH   8  26
TORSDOF 6
ENDMDL
MODEL 2
REMARK VINA RESULT:    -5.979     13.019     15.277
REMARK INTER + INTRA:          -7.219
REMARK INTER:                  -7.057
REMARK INTRA:                  -0.162
REMARK UNBOUND:                -0.017
REMARK SMILES O=c1c(O)c(-c2ccc(O)c(O)c2)oc2cc(O)cc(O)c12
REMARK SMILES IDX 5 1 3 2 2 3 1 4 22 5 20 6 19 7 17 8 16 9 15 10 14 11 6 12
REMARK SMILES IDX 7 13 8 14 9 15 13 16 11 17 10 18 12 20 4 22 21 24 18 26
REMARK H PARENT 10 19 12 21 4 23 21 25 18 27
REMARK Flexibility Score: inf
ROOT
ATOM      1  C   UNL     1     137.941 102.969 137.739  1.00  0.00     0.180 A 
ATOM      2  C   UNL     1     138.436 102.801 136.434  1.00  0.00     0.208 A 
ATOM      3  C   UNL     1     139.821 102.661 136.244  1.00  0.00     0.238 A 
ATOM      4  O   UNL     1     140.252 102.456 135.079  1.00  0.00    -0.285 OA
ATOM      5  C   UNL     1     140.693 102.708 137.357  1.00  0.00     0.111 A 
ATOM      6  C   UNL     1     142.115 102.618 137.277  1.00  0.00     0.134 A 
ATOM      7  C   UNL     1     142.870 102.545 138.453  1.00  0.00     0.093 A 
ATOM      8  C   UNL     1     142.262 102.625 139.706  1.00  0.00     0.123 A 
ATOM      9  C   UNL     1     140.877 102.773 139.795  1.00  0.00     0.094 A 
ATOM     10  C   UNL     1     140.094 102.812 138.639  1.00  0.00     0.146 A 
ATOM     11  O   UNL     1     138.779 102.944 138.768  1.00  0.00    -0.452 OA
ENDROOT
BRANCH   1  12
ATOM     12  C   UNL     1     136.498 103.147 138.016  1.00  0.00     0.025 A 
ATOM     13  C   UNL     1     135.570 102.125 137.750  1.00  0.00     0.016 A 
ATOM     14  C   UNL     1     134.209 102.325 137.997  1.00  0.00     0.051 A 
ATOM     15  C   UNL     1     133.753 103.551 138.500  1.00  0.00     0.157 A 
ATOM     16  C   UNL     1     136.033 104.382 138.500  1.00  0.00     0.062 A 
ATOM     17  C   UNL     1     134.672 104.584 138.750  1.00  0.00     0.158 A 
BRANCH  15  18
ATOM     18  O   UNL     1     132.395 103.746 138.748  1.00  0.00    -0.504 OA
ATOM     19  H   UNL     1     131.740 103.929 137.997  1.00  0.00     0.293 HD
ENDBRANCH  15  18
BRANCH  17  20
ATOM     20  O   UNL     1     134.250 105.819 139.243  1.00  0.00    -0.504 OA
ATOM     21  H   UNL     1     134.195 106.012 140.236  1.00  0.00     0.293 HD
ENDBRANCH  17  20
ENDBRANCH   1  12
BRANCH   2  22
ATOM     22  O   UNL     1     137.556 102.735 135.351  1.00  0.00    -0.502 OA
ATOM     23  H   UNL     1     136.990 101.917 135.158  1.00  0.00     0.293 HD
ENDBRANCH   2  22
BRANCH   6  24
ATOM     24  O   UNL     1     142.831 102.625 136.076  1.00  0.00    -0.507 OA
ATOM     25  H   UNL     1     142.415 102.675 135.158  1.00  0.00     0.293 HD
ENDBRANCH   6  24
BRANCH   8  26
ATOM     26  O   UNL     1     143.046 102.565 140.855  1.00  0.00    -0.508 OA
ATOM     27  H   UNL     1     144.059 102.592 140.809  1.00  0.00     0.293 HD
ENDBRANCH   8  26
TORSDOF 6
ENDMDL
MODEL 3
REMARK VINA RESULT:    -5.717      2.070      7.057
REMARK INTER + INTRA:          -6.903
REMARK INTER:                  -6.640
REMARK INTRA:                  -0.263
REMARK UNBOUND:                -0.017
REMARK SMILES O=c1c(O)c(-c2ccc(O)c(O)c2)oc2cc(O)cc(O)c12
REMARK SMILES IDX 5 1 3 2 2 3 1 4 22 5 20 6 19 7 17 8 16 9 15 10 14 11 6 12
REMARK SMILES IDX 7 13 8 14 9 15 13 16 11 17 10 18 12 20 4 22 21 24 18 26
REMARK H PARENT 10 19 12 21 4 23 21 25 18 27
REMARK Flexibility Score: inf
ROOT
ATOM      1  C   UNL     1     146.183 114.763 139.137  1.00  0.00     0.180 A 
ATOM      2  C   UNL     1     146.736 115.485 138.066  1.00  0.00     0.208 A 
ATOM      3  C   UNL     1     148.117 115.395 137.827  1.00  0.00     0.238 A 
ATOM      4  O   UNL     1     148.598 116.000 136.833  1.00  0.00    -0.285 OA
ATOM      5  C   UNL     1     148.929 114.600 138.670  1.00  0.00     0.111 A 
ATOM      6  C   UNL     1     150.345 114.469 138.546  1.00  0.00     0.134 A 
ATOM      7  C   UNL     1     151.027 113.553 139.354  1.00  0.00     0.093 A 
ATOM      8  C   UNL     1     150.358 112.812 140.327  1.00  0.00     0.123 A 
ATOM      9  C   UNL     1     148.982 112.976 140.498  1.00  0.00     0.094 A 
ATOM     10  C   UNL     1     148.268 113.855 139.682  1.00  0.00     0.146 A 
ATOM     11  O   UNL     1     146.959 113.974 139.870  1.00  0.00    -0.452 OA
ENDROOT
BRANCH   1  12
ATOM     12  C   UNL     1     144.740 114.825 139.467  1.00  0.00     0.025 A 
ATOM     13  C   UNL     1     144.175 115.968 140.061  1.00  0.00     0.016 A 
ATOM     14  C   UNL     1     142.816 115.995 140.386  1.00  0.00     0.051 A 
ATOM     15  C   UNL     1     142.005 114.879 140.137  1.00  0.00     0.157 A 
ATOM     16  C   UNL     1     143.929 113.702 139.240  1.00  0.00     0.062 A 
ATOM     17  C   UNL     1     142.568 113.726 139.562  1.00  0.00     0.158 A 
BRANCH  15  18
ATOM     18  O   UNL     1     140.650 114.910 140.459  1.00  0.00    -0.504 OA
ATOM     19  H   UNL     1     140.244 114.245 141.106  1.00  0.00     0.293 HD
ENDBRANCH  15  18
BRANCH  17  20
ATOM     20  O   UNL     1     141.791 112.596 139.309  1.00  0.00    -0.504 OA
ATOM     21  H   UNL     1     141.175 112.198 140.008  1.00  0.00     0.293 HD
ENDBRANCH  17  20
ENDBRANCH   1  12
BRANCH   2  22
ATOM     22  O   UNL     1     145.914 116.246 137.232  1.00  0.00    -0.502 OA
ATOM     23  H   UNL     1     145.668 117.207 137.439  1.00  0.00     0.293 HD
ENDBRANCH   2  22
BRANCH   6  24
ATOM     24  O   UNL     1     151.124 115.230 137.669  1.00  0.00    -0.507 OA
ATOM     25  H   UNL     1     151.191 116.236 137.684  1.00  0.00     0.293 HD
ENDBRANCH   6  24
BRANCH   8  26
ATOM     26  O   UNL     1     151.073 111.921 141.125  1.00  0.00    -0.508 OA
ATOM     27  H   UNL     1     151.936 111.496 140.804  1.00  0.00     0.293 HD
ENDBRANCH   8  26
TORSDOF 6
ENDMDL
MODEL 4
REMARK VINA RESULT:    -5.697      1.475      6.864
REMARK INTER + INTRA:          -6.879
REMARK INTER:                  -6.823
REMARK INTRA:                  -0.056
REMARK UNBOUND:                -0.017
REMARK SMILES O=c1c(O)c(-c2ccc(O)c(O)c2)oc2cc(O)cc(O)c12
REMARK SMILES IDX 5 1 3 2 2 3 1 4 22 5 20 6 19 7 17 8 16 9 15 10 14 11 6 12
REMARK SMILES IDX 7 13 8 14 9 15 13 16 11 17 10 18 12 20 4 22 21 24 18 26
REMARK H PARENT 10 19 12 21 4 23 21 25 18 27
REMARK Flexibility Score: inf
ROOT
ATOM      1  C   UNL     1     145.360 115.147 139.275  1.00  0.00     0.180 A 
ATOM      2  C   UNL     1     145.481 116.492 138.885  1.00  0.00     0.208 A 
ATOM      3  C   UNL     1     146.743 116.981 138.510  1.00  0.00     0.238 A 
ATOM      4  O   UNL     1     146.834 118.171 138.109  1.00  0.00    -0.285 OA
ATOM      5  C   UNL     1     147.870 116.125 138.545  1.00  0.00     0.111 A 
ATOM      6  C   UNL     1     149.202 116.524 138.225  1.00  0.00     0.134 A 
ATOM      7  C   UNL     1     150.216 115.562 138.168  1.00  0.00     0.093 A 
ATOM      8  C   UNL     1     149.963 114.227 138.483  1.00  0.00     0.123 A 
ATOM      9  C   UNL     1     148.675 113.836 138.855  1.00  0.00     0.094 A 
ATOM     10  C   UNL     1     147.635 114.767 138.886  1.00  0.00     0.146 A 
ATOM     11  O   UNL     1     146.423 114.353 139.235  1.00  0.00    -0.452 OA
ENDROOT
BRANCH   1  12
ATOM     12  C   UNL     1     144.069 114.565 139.707  1.00  0.00     0.025 A 
ATOM     13  C   UNL     1     143.296 115.168 140.716  1.00  0.00     0.016 A 
ATOM     14  C   UNL     1     142.093 114.587 141.125  1.00  0.00     0.051 A 
ATOM     15  C   UNL     1     141.649 113.392 140.544  1.00  0.00     0.157 A 
ATOM     16  C   UNL     1     143.631 113.356 139.143  1.00  0.00     0.062 A 
ATOM     17  C   UNL     1     142.426 112.773 139.549  1.00  0.00     0.158 A 
BRANCH  15  18
ATOM     18  O   UNL     1     140.447 112.817 140.952  1.00  0.00    -0.504 OA
ATOM     19  H   UNL     1     139.749 112.516 140.281  1.00  0.00     0.293 HD
ENDBRANCH  15  18
BRANCH  17  20
ATOM     20  O   UNL     1     142.017 111.579 138.956  1.00  0.00    -0.504 OA
ATOM     21  H   UNL     1     141.386 110.936 139.419  1.00  0.00     0.293 HD
ENDBRANCH  17  20
ENDBRANCH   1  12
BRANCH   2  22
ATOM     22  O   UNL     1     144.352 117.314 138.836  1.00  0.00    -0.502 OA
ATOM     23  H   UNL     1     143.419 116.969 139.023  1.00  0.00     0.293 HD
ENDBRANCH   2  22
BRANCH   6  24
ATOM     24  O   UNL     1     149.583 117.848 137.984  1.00  0.00    -0.507 OA
ATOM     25  H   UNL     1     149.773 118.234 137.072  1.00  0.00     0.293 HD
ENDBRANCH   6  24
BRANCH   8  26
ATOM     26  O   UNL     1     151.000 113.300 138.431  1.00  0.00    -0.508 OA
ATOM     27  H   UNL     1     151.328 112.823 139.264  1.00  0.00     0.293 HD
ENDBRANCH   8  26
TORSDOF 6
ENDMDL
MODEL 5
REMARK VINA RESULT:    -5.569      2.152      3.303
REMARK INTER + INTRA:          -6.726
REMARK INTER:                  -6.394
REMARK INTRA:                  -0.332
REMARK UNBOUND:                -0.017
REMARK SMILES O=c1c(O)c(-c2ccc(O)c(O)c2)oc2cc(O)cc(O)c12
REMARK SMILES IDX 5 1 3 2 2 3 1 4 22 5 20 6 19 7 17 8 16 9 15 10 14 11 6 12
REMARK SMILES IDX 7 13 8 14 9 15 13 16 11 17 10 18 12 20 4 22 21 24 18 26
REMARK H PARENT 10 19 12 21 4 23 21 25 18 27
REMARK Flexibility Score: inf
ROOT
ATOM      1  C   UNL     1     145.575 116.252 139.449  1.00  0.00     0.180 A 
ATOM      2  C   UNL     1     145.799 115.031 138.789  1.00  0.00     0.208 A 
ATOM      3  C   UNL     1     144.772 114.073 138.761  1.00  0.00     0.238 A 
ATOM      4  O   UNL     1     144.960 113.005 138.123  1.00  0.00    -0.285 OA
ATOM      5  C   UNL     1     143.541 114.341 139.406  1.00  0.00     0.111 A 
ATOM      6  C   UNL     1     142.447 113.428 139.477  1.00  0.00     0.134 A 
ATOM      7  C   UNL     1     141.231 113.848 140.028  1.00  0.00     0.093 A 
ATOM      8  C   UNL     1     141.088 115.125 140.570  1.00  0.00     0.123 A 
ATOM      9  C   UNL     1     142.171 116.006 140.561  1.00  0.00     0.094 A 
ATOM     10  C   UNL     1     143.385 115.628 139.985  1.00  0.00     0.146 A 
ATOM     11  O   UNL     1     144.388 116.499 139.988  1.00  0.00    -0.452 OA
ENDROOT
BRANCH   1  12
ATOM     12  C   UNL     1     146.617 117.300 139.541  1.00  0.00     0.025 A 
ATOM     13  C   UNL     1     147.575 117.289 140.571  1.00  0.00     0.016 A 
ATOM     14  C   UNL     1     148.534 118.303 140.652  1.00  0.00     0.051 A 
ATOM     15  C   UNL     1     148.542 119.347 139.718  1.00  0.00     0.157 A 
ATOM     16  C   UNL     1     146.616 118.360 138.620  1.00  0.00     0.062 A 
ATOM     17  C   UNL     1     147.575 119.375 138.698  1.00  0.00     0.158 A 
BRANCH  15  18
ATOM     18  O   UNL     1     149.502 120.355 139.800  1.00  0.00    -0.504 OA
ATOM     19  H   UNL     1     149.364 121.171 140.385  1.00  0.00     0.293 HD
ENDBRANCH  15  18
BRANCH  17  20
ATOM     20  O   UNL     1     147.551 120.404 137.757  1.00  0.00    -0.504 OA
ATOM     21  H   UNL     1     146.917 121.190 137.835  1.00  0.00     0.293 HD
ENDBRANCH  17  20
ENDBRANCH   1  12
BRANCH   2  22
ATOM     22  O   UNL     1     147.013 114.795 138.139  1.00  0.00    -0.502 OA
ATOM     23  H   UNL     1     147.728 114.188 138.523  1.00  0.00     0.293 HD
ENDBRANCH   2  22
BRANCH   6  24
ATOM     24  O   UNL     1     142.511 112.099 139.047  1.00  0.00    -0.507 OA
ATOM     25  H   UNL     1     143.227 111.724 138.444  1.00  0.00     0.293 HD
ENDBRANCH   6  24
BRANCH   8  26
ATOM     26  O   UNL     1     139.868 115.504 141.125  1.00  0.00    -0.508 OA
ATOM     27  H   UNL     1     139.607 116.479 141.217  1.00  0.00     0.293 HD
ENDBRANCH   8  26
TORSDOF 6
ENDMDL
MODEL 6
REMARK VINA RESULT:    -5.112      1.820      7.232
REMARK INTER + INTRA:          -6.174
REMARK INTER:                  -6.708
REMARK INTRA:                   0.534
REMARK UNBOUND:                -0.017
REMARK SMILES O=c1c(O)c(-c2ccc(O)c(O)c2)oc2cc(O)cc(O)c12
REMARK SMILES IDX 5 1 3 2 2 3 1 4 22 5 20 6 19 7 17 8 16 9 15 10 14 11 6 12
REMARK SMILES IDX 7 13 8 14 9 15 13 16 11 17 10 18 12 20 4 22 21 24 18 26
REMARK H PARENT 10 19 12 21 4 23 21 25 18 27
REMARK Flexibility Score: inf
ROOT
ATOM      1  C   UNL     1     144.799 115.466 139.259  1.00  0.00     0.180 A 
ATOM      2  C   UNL     1     145.741 114.794 138.461  1.00  0.00     0.208 A 
ATOM      3  C   UNL     1     146.888 115.484 138.035  1.00  0.00     0.238 A 
ATOM      4  O   UNL     1     147.754 114.860 137.367  1.00  0.00    -0.285 OA
ATOM      5  C   UNL     1     147.069 116.840 138.396  1.00  0.00     0.111 A 
ATOM      6  C   UNL     1     148.172 117.648 137.986  1.00  0.00     0.134 A 
ATOM      7  C   UNL     1     148.315 118.938 138.510  1.00  0.00     0.093 A 
ATOM      8  C   UNL     1     147.364 119.474 139.377  1.00  0.00     0.123 A 
ATOM      9  C   UNL     1     146.250 118.714 139.738  1.00  0.00     0.094 A 
ATOM     10  C   UNL     1     146.098 117.411 139.260  1.00  0.00     0.146 A 
ATOM     11  O   UNL     1     145.029 116.717 139.635  1.00  0.00    -0.452 OA
ENDROOT
BRANCH   1  12
ATOM     12  C   UNL     1     143.555 114.813 139.726  1.00  0.00     0.025 A 
ATOM     13  C   UNL     1     142.721 115.425 140.680  1.00  0.00     0.016 A 
ATOM     14  C   UNL     1     141.565 114.778 141.124  1.00  0.00     0.051 A 
ATOM     15  C   UNL     1     141.230 113.508 140.636  1.00  0.00     0.157 A 
ATOM     16  C   UNL     1     143.227 113.531 139.255  1.00  0.00     0.062 A 
ATOM     17  C   UNL     1     142.069 112.882 139.697  1.00  0.00     0.158 A 
BRANCH  15  18
ATOM     18  O   UNL     1     140.075 112.867 141.079  1.00  0.00    -0.504 OA
ATOM     19  H   UNL     1     139.279 113.390 141.426  1.00  0.00     0.293 HD
ENDBRANCH  15  18
BRANCH  17  20
ATOM     20  O   UNL     1     141.769 111.615 139.197  1.00  0.00    -0.504 OA
ATOM     21  H   UNL     1     142.112 110.768 139.634  1.00  0.00     0.293 HD
ENDBRANCH  17  20
ENDBRANCH   1  12
BRANCH   2  22
ATOM     22  O   UNL     1     145.554 113.448 138.134  1.00  0.00    -0.502 OA
ATOM     23  H   UNL     1     145.896 113.045 137.270  1.00  0.00     0.293 HD
ENDBRANCH   2  22
BRANCH   6  24
ATOM     24  O   UNL     1     149.131 117.244 137.053  1.00  0.00    -0.507 OA
ATOM     25  H   UNL     1     149.662 117.869 136.466  1.00  0.00     0.293 HD
ENDBRANCH   6  24
BRANCH   8  26
ATOM     26  O   UNL     1     147.531 120.767 139.866  1.00  0.00    -0.508 OA
ATOM     27  H   UNL     1     147.548 120.959 140.862  1.00  0.00     0.293 HD
ENDBRANCH   8  26
TORSDOF 6
ENDMDL
MODEL 7
REMARK VINA RESULT:    -4.836     13.177     15.108
REMARK INTER + INTRA:          -5.842
REMARK INTER:                  -5.557
REMARK INTRA:                  -0.285
REMARK UNBOUND:                -0.017
REMARK SMILES O=c1c(O)c(-c2ccc(O)c(O)c2)oc2cc(O)cc(O)c12
REMARK SMILES IDX 5 1 3 2 2 3 1 4 22 5 20 6 19 7 17 8 16 9 15 10 14 11 6 12
REMARK SMILES IDX 7 13 8 14 9 15 13 16 11 17 10 18 12 20 4 22 21 24 18 26
REMARK H PARENT 10 19 12 21 4 23 21 25 18 27
REMARK Flexibility Score: inf
ROOT
ATOM      1  C   UNL     1     137.594 103.265 138.700  1.00  0.00     0.180 A 
ATOM      2  C   UNL     1     138.256 103.204 139.938  1.00  0.00     0.208 A 
ATOM      3  C   UNL     1     139.642 102.975 139.960  1.00  0.00     0.238 A 
ATOM      4  O   UNL     1     140.236 102.976 141.069  1.00  0.00    -0.285 OA
ATOM      5  C   UNL     1     140.345 102.793 138.745  1.00  0.00     0.111 A 
ATOM      6  C   UNL     1     141.741 102.513 138.650  1.00  0.00     0.134 A 
ATOM      7  C   UNL     1     142.355 102.482 137.393  1.00  0.00     0.093 A 
ATOM      8  C   UNL     1     141.614 102.653 136.224  1.00  0.00     0.123 A 
ATOM      9  C   UNL     1     140.236 102.867 136.302  1.00  0.00     0.094 A 
ATOM     10  C   UNL     1     139.602 102.940 137.544  1.00  0.00     0.146 A 
ATOM     11  O   UNL     1     138.292 103.155 137.576  1.00  0.00    -0.452 OA
ENDROOT
BRANCH   1  12
ATOM     12  C   UNL     1     136.133 103.479 138.597  1.00  0.00     0.025 A 
ATOM     13  C   UNL     1     135.255 102.416 138.320  1.00  0.00     0.016 A 
ATOM     14  C   UNL     1     133.882 102.646 138.203  1.00  0.00     0.051 A 
ATOM     15  C   UNL     1     133.366 103.941 138.348  1.00  0.00     0.157 A 
ATOM     16  C   UNL     1     135.613 104.778 138.721  1.00  0.00     0.062 A 
ATOM     17  C   UNL     1     134.239 105.012 138.606  1.00  0.00     0.158 A 
BRANCH  15  18
ATOM     18  O   UNL     1     131.995 104.167 138.235  1.00  0.00    -0.504 OA
ATOM     19  H   UNL     1     131.576 104.454 137.358  1.00  0.00     0.293 HD
ENDBRANCH  15  18
BRANCH  17  20
ATOM     20  O   UNL     1     133.758 106.313 138.748  1.00  0.00    -0.504 OA
ATOM     21  H   UNL     1     132.895 106.619 138.316  1.00  0.00     0.293 HD
ENDBRANCH  17  20
ENDBRANCH   1  12
BRANCH   2  22
ATOM     22  O   UNL     1     137.547 103.409 141.125  1.00  0.00    -0.502 OA
ATOM     23  H   UNL     1     137.669 102.821 141.941  1.00  0.00     0.293 HD
ENDBRANCH   2  22
BRANCH   6  24
ATOM     24  O   UNL     1     142.558 102.236 139.750  1.00  0.00    -0.507 OA
ATOM     25  H   UNL     1     143.246 102.869 140.129  1.00  0.00     0.293 HD
ENDBRANCH   6  24
BRANCH   8  26
ATOM     26  O   UNL     1     142.255 102.599 134.989  1.00  0.00    -0.508 OA
ATOM     27  H   UNL     1     141.845 103.013 134.159  1.00  0.00     0.293 HD
ENDBRANCH   8  26
TORSDOF 6
ENDMDL
MODEL 8
REMARK VINA RESULT:    -4.563      2.110      7.232
REMARK INTER + INTRA:          -5.513
REMARK INTER:                  -5.913
REMARK INTRA:                   0.400
REMARK UNBOUND:                -0.017
REMARK SMILES O=c1c(O)c(-c2ccc(O)c(O)c2)oc2cc(O)cc(O)c12
REMARK SMILES IDX 5 1 3 2 2 3 1 4 22 5 20 6 19 7 17 8 16 9 15 10 14 11 6 12
REMARK SMILES IDX 7 13 8 14 9 15 13 16 11 17 10 18 12 20 4 22 21 24 18 26
REMARK H PARENT 10 19 12 21 4 23 21 25 18 27
REMARK Flexibility Score: inf
ROOT
ATOM      1  C   UNL     1     145.183 115.922 139.386  1.00  0.00     0.180 A 
ATOM      2  C   UNL     1     146.130 115.459 138.456  1.00  0.00     0.208 A 
ATOM      3  C   UNL     1     147.259 116.249 138.183  1.00  0.00     0.238 A 
ATOM      4  O   UNL     1     148.130 115.804 137.391  1.00  0.00    -0.285 OA
ATOM      5  C   UNL     1     147.418 117.497 138.831  1.00  0.00     0.111 A 
ATOM      6  C   UNL     1     148.501 118.398 138.600  1.00  0.00     0.134 A 
ATOM      7  C   UNL     1     148.625 119.545 139.392  1.00  0.00     0.093 A 
ATOM      8  C   UNL     1     147.673 119.860 140.361  1.00  0.00     0.123 A 
ATOM      9  C   UNL     1     146.577 119.016 140.553  1.00  0.00     0.094 A 
ATOM     10  C   UNL     1     146.445 117.846 139.803  1.00  0.00     0.146 A 
ATOM     11  O   UNL     1     145.393 117.066 140.024  1.00  0.00    -0.452 OA
ENDROOT
BRANCH   1  12
ATOM     12  C   UNL     1     143.956 115.157 139.707  1.00  0.00     0.025 A 
ATOM     13  C   UNL     1     143.849 113.787 139.409  1.00  0.00     0.016 A 
ATOM     14  C   UNL     1     142.672 113.092 139.699  1.00  0.00     0.051 A 
ATOM     15  C   UNL     1     141.581 113.755 140.276  1.00  0.00     0.157 A 
ATOM     16  C   UNL     1     142.852 115.822 140.265  1.00  0.00     0.062 A 
ATOM     17  C   UNL     1     141.673 115.129 140.558  1.00  0.00     0.158 A 
BRANCH  15  18
ATOM     18  O   UNL     1     140.409 113.058 140.567  1.00  0.00    -0.504 OA
ATOM     19  H   UNL     1     139.517 113.334 140.173  1.00  0.00     0.293 HD
ENDBRANCH  15  18
BRANCH  17  20
ATOM     20  O   UNL     1     140.603 115.821 141.125  1.00  0.00    -0.504 OA
ATOM     21  H   UNL     1     139.687 115.401 141.233  1.00  0.00     0.293 HD
ENDBRANCH  17  20
ENDBRANCH   1  12
BRANCH   2  22
ATOM     22  O   UNL     1     145.965 114.214 137.844  1.00  0.00    -0.502 OA
ATOM     23  H   UNL     1     146.291 114.020 136.905  1.00  0.00     0.293 HD
ENDBRANCH   2  22
BRANCH   6  24
ATOM     24  O   UNL     1     149.458 118.226 137.596  1.00  0.00    -0.507 OA
ATOM     25  H   UNL     1     150.446 118.399 137.708  1.00  0.00     0.293 HD
ENDBRANCH   6  24
BRANCH   8  26
ATOM     26  O   UNL     1     147.820 121.018 141.119  1.00  0.00    -0.508 OA
ATOM     27  H   UNL     1     148.650 121.597 141.048  1.00  0.00     0.293 HD
ENDBRANCH   8  26
TORSDOF 6
ENDMDL
MODEL 9
REMARK VINA RESULT:    -4.446     11.728     13.345
REMARK INTER + INTRA:          -5.373
REMARK INTER:                  -5.479
REMARK INTRA:                   0.106
REMARK UNBOUND:                -0.017
REMARK SMILES O=c1c(O)c(-c2ccc(O)c(O)c2)oc2cc(O)cc(O)c12
REMARK SMILES IDX 5 1 3 2 2 3 1 4 22 5 20 6 19 7 17 8 16 9 15 10 14 11 6 12
REMARK SMILES IDX 7 13 8 14 9 15 13 16 11 17 10 18 12 20 4 22 21 24 18 26
REMARK H PARENT 10 19 12 21 4 23 21 25 18 27
REMARK Flexibility Score: inf
ROOT
ATOM      1  C   UNL     1     141.571 102.637 138.530  1.00  0.00     0.180 A 
ATOM      2  C   UNL     1     141.447 102.613 137.130  1.00  0.00     0.208 A 
ATOM      3  C   UNL     1     140.164 102.540 136.562  1.00  0.00     0.238 A 
ATOM      4  O   UNL     1     140.057 102.574 135.308  1.00  0.00    -0.285 OA
ATOM      5  C   UNL     1     139.025 102.475 137.399  1.00  0.00     0.111 A 
ATOM      6  C   UNL     1     137.681 102.357 136.932  1.00  0.00     0.134 A 
ATOM      7  C   UNL     1     136.624 102.433 137.846  1.00  0.00     0.093 A 
ATOM      8  C   UNL     1     136.861 102.555 139.214  1.00  0.00     0.123 A 
ATOM      9  C   UNL     1     138.173 102.612 139.688  1.00  0.00     0.094 A 
ATOM     10  C   UNL     1     139.248 102.575 138.797  1.00  0.00     0.146 A 
ATOM     11  O   UNL     1     140.480 102.641 139.287  1.00  0.00    -0.452 OA
ENDROOT
BRANCH   1  12
ATOM     12  C   UNL     1     142.889 102.689 139.203  1.00  0.00     0.025 A 
ATOM     13  C   UNL     1     143.176 101.875 140.314  1.00  0.00     0.016 A 
ATOM     14  C   UNL     1     144.418 101.959 140.948  1.00  0.00     0.051 A 
ATOM     15  C   UNL     1     145.386 102.864 140.492  1.00  0.00     0.157 A 
ATOM     16  C   UNL     1     143.854 103.609 138.764  1.00  0.00     0.062 A 
ATOM     17  C   UNL     1     145.100 103.695 139.395  1.00  0.00     0.158 A 
BRANCH  15  18
ATOM     18  O   UNL     1     146.626 102.943 141.125  1.00  0.00    -0.504 OA
ATOM     19  H   UNL     1     146.739 102.701 142.102  1.00  0.00     0.293 HD
ENDBRANCH  15  18
BRANCH  17  20
ATOM     20  O   UNL     1     146.038 104.611 138.922  1.00  0.00    -0.504 OA
ATOM     21  H   UNL     1     146.536 104.472 138.051  1.00  0.00     0.293 HD
ENDBRANCH  17  20
ENDBRANCH   1  12
BRANCH   2  22
ATOM     22  O   UNL     1     142.583 102.700 136.322  1.00  0.00    -0.502 OA
ATOM     23  H   UNL     1     143.384 103.268 136.569  1.00  0.00     0.293 HD
ENDBRANCH   2  22
BRANCH   6  24
ATOM     24  O   UNL     1     137.336 102.139 135.595  1.00  0.00    -0.507 OA
ATOM     25  H   UNL     1     136.568 102.588 135.119  1.00  0.00     0.293 HD
ENDBRANCH   6  24
BRANCH   8  26
ATOM     26  O   UNL     1     135.784 102.612 140.096  1.00  0.00    -0.508 OA
ATOM     27  H   UNL     1     135.575 101.847 140.728  1.00  0.00     0.293 HD
ENDBRANCH   8  26
TORSDOF 6
ENDMDL
