MODEL 1
REMARK VINA RESULT:     8.542      0.000      0.000
REMARK INTER + INTRA:          10.550
REMARK INTER:                  10.040
REMARK INTRA:                   0.509
REMARK UNBOUND:                 0.509
REMARK SMILES C=C(C)[C@H]1CC[C@@]2(CO)CC[C@]3(C)[C@H](CC[C@H]4[C@]5(C)CC[C@@H](O)C(C)(C)[C@@H]5CC[C@]43C)[C@H]12
REMARK SMILES IDX 4 1 5 2 6 3 7 4 32 5 14 6 15 7 16 8 17 9 18 10 20 11 21 12
REMARK SMILES IDX 22 13 24 14 27 15 28 16 29 17 30 18 12 19 11 20 10 21 13 22
REMARK SMILES IDX 31 23 25 24 26 25 19 26 2 27 3 28 1 29 8 30 9 31 23 33
REMARK H PARENT 9 32 23 34
REMARK Flexibility Score: inf
ROOT
ATOM      1  C   UNL     1     -18.539  10.942 -27.601  1.00  0.00     0.018 C 
ATOM      2  C   UNL     1     -20.003  10.875 -27.060  1.00  0.00     0.009 C 
ATOM      3  C   UNL     1     -20.807  12.002 -27.767  1.00  0.00     0.010 C 
ATOM      4  C   UNL     1     -19.989  12.297 -29.043  1.00  0.00    -0.003 C 
ATOM      5  C   UNL     1     -18.560  12.236 -28.421  1.00  0.00     0.008 C 
ATOM      6  C   UNL     1     -17.377  12.920 -29.225  1.00  0.00    -0.000 C 
ATOM      7  C   UNL     1     -15.966  12.445 -28.945  1.00  0.00     0.005 C 
ATOM      8  C   UNL     1     -14.970  13.569 -29.277  1.00  0.00     0.005 C 
ATOM      9  C   UNL     1     -15.425  14.662 -30.341  1.00  0.00     0.002 C 
ATOM     10  C   UNL     1     -14.132  15.488 -30.839  1.00  0.00    -0.026 C 
ATOM     11  C   UNL     1     -14.518  16.852 -31.501  1.00  0.00     0.010 C 
ATOM     12  C   UNL     1     -13.338  17.615 -32.125  1.00  0.00     0.033 C 
ATOM     13  C   UNL     1     -12.571  16.755 -33.141  1.00  0.00     0.120 C 
ATOM     14  C   UNL     1     -12.063  15.405 -32.544  1.00  0.00    -0.006 C 
ATOM     15  C   UNL     1     -13.257  14.616 -31.834  1.00  0.00     0.003 C 
ATOM     16  C   UNL     1     -14.147  13.869 -32.871  1.00  0.00     0.005 C 
ATOM     17  C   UNL     1     -15.361  13.117 -32.285  1.00  0.00     0.008 C 
ATOM     18  C   UNL     1     -16.356  13.989 -31.446  1.00  0.00    -0.024 C 
ATOM     19  C   UNL     1     -17.612  13.140 -30.744  1.00  0.00    -0.024 C 
ATOM     20  C   UNL     1     -19.033  13.908 -30.809  1.00  0.00     0.008 C 
ATOM     21  C   UNL     1     -20.094  13.695 -29.663  1.00  0.00     0.010 C 
ATOM     22  C   UNL     1     -17.728  11.739 -31.432  1.00  0.00     0.012 C 
ATOM     23  C   UNL     1     -16.987  15.008 -32.453  1.00  0.00     0.012 C 
ATOM     24  C   UNL     1     -10.877  15.645 -31.560  1.00  0.00     0.014 C 
ATOM     25  C   UNL     1     -11.459  14.568 -33.711  1.00  0.00     0.014 C 
ATOM     26  C   UNL     1     -13.316  15.863 -29.552  1.00  0.00     0.012 C 
ENDROOT
BRANCH   1  27
ATOM     27  C   UNL     1     -17.518  10.894 -26.465  1.00  0.00    -0.077 C 
ATOM     28  C   UNL     1     -16.030  10.885 -26.725  1.00  0.00     0.039 C 
ATOM     29  C   UNL     1     -17.941  10.875 -25.190  1.00  0.00     0.008 C 
ENDBRANCH   1  27
BRANCH   4  30
ATOM     30  C   UNL     1     -20.526  11.271 -30.119  1.00  0.00     0.163 C 
BRANCH  30  31
ATOM     31  O   UNL     1     -21.872  10.927 -29.936  1.00  0.00    -0.396 OA
ATOM     32  H   UNL     1     -21.984  10.737 -28.968  1.00  0.00     0.210 HD
ENDBRANCH  30  31
ENDBRANCH   4  30
BRANCH  13  33
ATOM     33  O   UNL     1     -11.487  17.495 -33.651  1.00  0.00    -0.393 OA
ATOM     34  H   UNL     1     -10.903  17.724 -32.881  1.00  0.00     0.210 HD
ENDBRANCH  13  33
TORSDOF 4
ENDMDL
MODEL 2
REMARK VINA RESULT:    10.980      1.814      4.127
REMARK INTER + INTRA:          13.415
REMARK INTER:                  13.363
REMARK INTRA:                   0.052
REMARK UNBOUND:                 0.509
REMARK SMILES C=C(C)[C@H]1CC[C@@]2(CO)CC[C@]3(C)[C@H](CC[C@H]4[C@]5(C)CC[C@@H](O)C(C)(C)[C@@H]5CC[C@]43C)[C@H]12
REMARK SMILES IDX 4 1 5 2 6 3 7 4 32 5 14 6 15 7 16 8 17 9 18 10 20 11 21 12
REMARK SMILES IDX 22 13 24 14 27 15 28 16 29 17 30 18 12 19 11 20 10 21 13 22
REMARK SMILES IDX 31 23 25 24 26 25 19 26 2 27 3 28 1 29 8 30 9 31 23 33
REMARK H PARENT 9 32 23 34
REMARK Flexibility Score: inf
ROOT
ATOM      1  C   UNL     1     -22.037  14.217 -29.694  1.00  0.00     0.018 C 
ATOM      2  C   UNL     1     -23.285  13.278 -29.693  1.00  0.00     0.009 C 
ATOM      3  C   UNL     1     -22.765  11.822 -29.858  1.00  0.00     0.010 C 
ATOM      4  C   UNL     1     -21.294  11.898 -29.397  1.00  0.00    -0.003 C 
ATOM      5  C   UNL     1     -20.909  13.252 -30.071  1.00  0.00     0.008 C 
ATOM      6  C   UNL     1     -19.368  13.559 -30.280  1.00  0.00    -0.000 C 
ATOM      7  C   UNL     1     -18.951  15.007 -30.427  1.00  0.00     0.005 C 
ATOM      8  C   UNL     1     -17.638  15.085 -31.225  1.00  0.00     0.005 C 
ATOM      9  C   UNL     1     -16.690  13.807 -31.203  1.00  0.00     0.002 C 
ATOM     10  C   UNL     1     -15.226  14.223 -31.740  1.00  0.00    -0.026 C 
ATOM     11  C   UNL     1     -14.387  12.984 -32.195  1.00  0.00     0.010 C 
ATOM     12  C   UNL     1     -12.933  13.305 -32.579  1.00  0.00     0.033 C 
ATOM     13  C   UNL     1     -12.189  14.037 -31.452  1.00  0.00     0.120 C 
ATOM     14  C   UNL     1     -12.908  15.344 -30.990  1.00  0.00    -0.006 C 
ATOM     15  C   UNL     1     -14.439  15.054 -30.641  1.00  0.00     0.003 C 
ATOM     16  C   UNL     1     -14.596  14.420 -29.227  1.00  0.00     0.005 C 
ATOM     17  C   UNL     1     -16.038  14.055 -28.819  1.00  0.00     0.008 C 
ATOM     18  C   UNL     1     -16.790  13.080 -29.789  1.00  0.00    -0.024 C 
ATOM     19  C   UNL     1     -18.380  12.771 -29.379  1.00  0.00    -0.024 C 
ATOM     20  C   UNL     1     -18.815  11.227 -29.582  1.00  0.00     0.008 C 
ATOM     21  C   UNL     1     -20.303  10.875 -29.964  1.00  0.00     0.010 C 
ATOM     22  C   UNL     1     -18.617  13.203 -27.893  1.00  0.00     0.012 C 
ATOM     23  C   UNL     1     -16.016  11.722 -29.715  1.00  0.00     0.012 C 
ATOM     24  C   UNL     1     -12.773  16.463 -32.068  1.00  0.00     0.014 C 
ATOM     25  C   UNL     1     -12.147  15.889 -29.744  1.00  0.00     0.014 C 
ATOM     26  C   UNL     1     -15.451  15.077 -33.037  1.00  0.00     0.012 C 
ENDROOT
BRANCH   1  27
ATOM     27  C   UNL     1     -22.231  15.408 -30.632  1.00  0.00    -0.077 C 
ATOM     28  C   UNL     1     -23.227  15.380 -31.767  1.00  0.00     0.039 C 
ATOM     29  C   UNL     1     -21.512  16.528 -30.444  1.00  0.00     0.008 C 
ENDBRANCH   1  27
BRANCH   4  30
ATOM     30  C   UNL     1     -21.344  11.677 -27.833  1.00  0.00     0.163 C 
BRANCH  30  31
ATOM     31  O   UNL     1     -22.462  10.946 -27.410  1.00  0.00    -0.396 OA
ATOM     32  H   UNL     1     -22.286   9.999 -27.650  1.00  0.00     0.210 HD
ENDBRANCH  30  31
ENDBRANCH   4  30
BRANCH  13  33
ATOM     33  O   UNL     1     -10.879  14.331 -31.874  1.00  0.00    -0.393 OA
ATOM     34  H   UNL     1     -10.684  15.263 -31.592  1.00  0.00     0.210 HD
ENDBRANCH  13  33
TORSDOF 4
ENDMDL
