MODEL 1
REMARK VINA RESULT:    41.446      0.000      0.000
REMARK INTER + INTRA:          49.602
REMARK INTER:                  49.927
REMARK INTRA:                  -0.325
REMARK UNBOUND:                -0.325
REMARK SMILES O=c1c(O)c(-c2ccc(O)c(O)c2)oc2cc(O)cc(O)c12
REMARK SMILES IDX 5 1 3 2 2 3 1 4 22 5 20 6 19 7 17 8 16 9 15 10 14 11 6 12
REMARK SMILES IDX 7 13 8 14 9 15 13 16 11 17 10 18 12 20 4 22 21 24 18 26
REMARK H PARENT 10 19 12 21 4 23 21 25 18 27
REMARK Flexibility Score: inf
ROOT
ATOM      1  C   UNL     1      10.262  13.363   4.481  1.00  0.00     0.180 A 
ATOM      2  C   UNL     1      10.116  14.372   3.513  1.00  0.00     0.208 A 
ATOM      3  C   UNL     1      10.625  14.157   2.222  1.00  0.00     0.238 A 
ATOM      4  O   UNL     1      10.541  15.085   1.376  1.00  0.00    -0.285 OA
ATOM      5  C   UNL     1      11.258  12.930   1.910  1.00  0.00     0.111 A 
ATOM      6  C   UNL     1      11.774  12.588   0.624  1.00  0.00     0.134 A 
ATOM      7  C   UNL     1      12.496  11.399   0.463  1.00  0.00     0.093 A 
ATOM      8  C   UNL     1      12.664  10.509   1.524  1.00  0.00     0.123 A 
ATOM      9  C   UNL     1      12.112  10.805   2.771  1.00  0.00     0.094 A 
ATOM     10  C   UNL     1      11.418  12.001   2.972  1.00  0.00     0.146 A 
ATOM     11  O   UNL     1      10.917  12.250   4.176  1.00  0.00    -0.452 OA
ENDROOT
BRANCH   1  12
ATOM     12  C   UNL     1       9.730  13.507   5.855  1.00  0.00     0.025 A 
ATOM     13  C   UNL     1      10.536  14.081   6.851  1.00  0.00     0.016 A 
ATOM     14  C   UNL     1      10.062  14.207   8.160  1.00  0.00     0.051 A 
ATOM     15  C   UNL     1       8.782  13.747   8.494  1.00  0.00     0.157 A 
ATOM     16  C   UNL     1       8.453  13.028   6.200  1.00  0.00     0.062 A 
ATOM     17  C   UNL     1       7.977  13.153   7.514  1.00  0.00     0.158 A 
BRANCH  15  18
ATOM     18  O   UNL     1       8.305  13.874   9.798  1.00  0.00    -0.504 OA
ATOM     19  H   UNL     1       7.577  14.538  10.034  1.00  0.00     0.293 HD
ENDBRANCH  15  18
BRANCH  17  20
ATOM     20  O   UNL     1       6.710  12.684   7.853  1.00  0.00    -0.504 OA
ATOM     21  H   UNL     1       6.072  12.326   7.152  1.00  0.00     0.293 HD
ENDBRANCH  17  20
ENDBRANCH   1  12
BRANCH   2  22
ATOM     22  O   UNL     1       9.508  15.586   3.849  1.00  0.00    -0.502 OA
ATOM     23  H   UNL     1       8.676  15.925   3.380  1.00  0.00     0.293 HD
ENDBRANCH   2  22
BRANCH   6  24
ATOM     24  O   UNL     1      11.583  13.362  -0.524  1.00  0.00    -0.507 OA
ATOM     25  H   UNL     1      12.295  13.557  -1.211  1.00  0.00     0.293 HD
ENDBRANCH   6  24
BRANCH   8  26
ATOM     26  O   UNL     1      13.375   9.327   1.324  1.00  0.00    -0.508 OA
ATOM     27  H   UNL     1      12.935   8.506   0.925  1.00  0.00     0.293 HD
ENDBRANCH   8  26
TORSDOF 6
ENDMDL
MODEL 2
REMARK VINA RESULT:    43.627      2.871      4.328
REMARK INTER + INTRA:          52.228
REMARK INTER:                  52.097
REMARK INTRA:                   0.131
REMARK UNBOUND:                -0.325
REMARK SMILES O=c1c(O)c(-c2ccc(O)c(O)c2)oc2cc(O)cc(O)c12
REMARK SMILES IDX 5 1 3 2 2 3 1 4 22 5 20 6 19 7 17 8 16 9 15 10 14 11 6 12
REMARK SMILES IDX 7 13 8 14 9 15 13 16 11 17 10 18 12 20 4 22 21 24 18 26
REMARK H PARENT 10 19 12 21 4 23 21 25 18 27
REMARK Flexibility Score: inf
ROOT
ATOM      1  C   UNL     1      11.892  13.017   4.564  1.00  0.00     0.180 A 
ATOM      2  C   UNL     1      11.606  11.759   4.006  1.00  0.00     0.208 A 
ATOM      3  C   UNL     1      11.121  11.692   2.690  1.00  0.00     0.238 A 
ATOM      4  O   UNL     1      10.815  10.567   2.215  1.00  0.00    -0.285 OA
ATOM      5  C   UNL     1      10.945  12.881   1.942  1.00  0.00     0.111 A 
ATOM      6  C   UNL     1      10.499  12.928   0.588  1.00  0.00     0.134 A 
ATOM      7  C   UNL     1      10.235  14.166  -0.010  1.00  0.00     0.093 A 
ATOM      8  C   UNL     1      10.464  15.360   0.674  1.00  0.00     0.123 A 
ATOM      9  C   UNL     1      10.957  15.327   1.980  1.00  0.00     0.094 A 
ATOM     10  C   UNL     1      11.194  14.106   2.615  1.00  0.00     0.146 A 
ATOM     11  O   UNL     1      11.654  14.118   3.861  1.00  0.00    -0.452 OA
ENDROOT
BRANCH   1  12
ATOM     12  C   UNL     1      12.428  13.167   5.936  1.00  0.00     0.025 A 
ATOM     13  C   UNL     1      12.024  14.258   6.721  1.00  0.00     0.016 A 
ATOM     14  C   UNL     1      12.534  14.431   8.010  1.00  0.00     0.051 A 
ATOM     15  C   UNL     1      13.467  13.523   8.527  1.00  0.00     0.157 A 
ATOM     16  C   UNL     1      13.381  12.269   6.451  1.00  0.00     0.062 A 
ATOM     17  C   UNL     1      13.895  12.443   7.746  1.00  0.00     0.158 A 
BRANCH  15  18
ATOM     18  O   UNL     1      13.976  13.691   9.814  1.00  0.00    -0.504 OA
ATOM     19  H   UNL     1      13.837  14.550  10.332  1.00  0.00     0.293 HD
ENDBRANCH  15  18
BRANCH  17  20
ATOM     20  O   UNL     1      14.834  11.550   8.258  1.00  0.00    -0.504 OA
ATOM     21  H   UNL     1      15.819  11.629   8.031  1.00  0.00     0.293 HD
ENDBRANCH  17  20
ENDBRANCH   1  12
BRANCH   2  22
ATOM     22  O   UNL     1      11.766  10.599   4.770  1.00  0.00    -0.502 OA
ATOM     23  H   UNL     1      11.081  10.300   5.454  1.00  0.00     0.293 HD
ENDBRANCH   2  22
BRANCH   6  24
ATOM     24  O   UNL     1      10.327  11.798  -0.217  1.00  0.00    -0.507 OA
ATOM     25  H   UNL     1       9.984  11.814  -1.165  1.00  0.00     0.293 HD
ENDBRANCH   6  24
BRANCH   8  26
ATOM     26  O   UNL     1      10.205  16.575   0.043  1.00  0.00    -0.508 OA
ATOM     27  H   UNL     1      10.956  17.178  -0.273  1.00  0.00     0.293 HD
ENDBRANCH   8  26
TORSDOF 6
ENDMDL
MODEL 3
REMARK VINA RESULT:    43.800      2.952      6.418
REMARK INTER + INTRA:          52.437
REMARK INTER:                  52.379
REMARK INTRA:                   0.058
REMARK UNBOUND:                -0.325
REMARK SMILES O=c1c(O)c(-c2ccc(O)c(O)c2)oc2cc(O)cc(O)c12
REMARK SMILES IDX 5 1 3 2 2 3 1 4 22 5 20 6 19 7 17 8 16 9 15 10 14 11 6 12
REMARK SMILES IDX 7 13 8 14 9 15 13 16 11 17 10 18 12 20 4 22 21 24 18 26
REMARK H PARENT 10 19 12 21 4 23 21 25 18 27
REMARK Flexibility Score: inf
ROOT
ATOM      1  C   UNL     1      11.689  13.339   4.730  1.00  0.00     0.180 A 
ATOM      2  C   UNL     1      11.031  14.209   5.617  1.00  0.00     0.208 A 
ATOM      3  C   UNL     1      11.539  14.365   6.917  1.00  0.00     0.238 A 
ATOM      4  O   UNL     1      10.915  15.102   7.725  1.00  0.00    -0.285 OA
ATOM      5  C   UNL     1      12.705  13.665   7.308  1.00  0.00     0.111 A 
ATOM      6  C   UNL     1      13.330  13.780   8.585  1.00  0.00     0.134 A 
ATOM      7  C   UNL     1      14.405  12.942   8.907  1.00  0.00     0.093 A 
ATOM      8  C   UNL     1      14.919  12.041   7.975  1.00  0.00     0.123 A 
ATOM      9  C   UNL     1      14.353  11.962   6.702  1.00  0.00     0.094 A 
ATOM     10  C   UNL     1      13.257  12.759   6.364  1.00  0.00     0.146 A 
ATOM     11  O   UNL     1      12.742  12.647   5.146  1.00  0.00    -0.452 OA
ENDROOT
BRANCH   1  12
ATOM     12  C   UNL     1      11.228  13.140   3.336  1.00  0.00     0.025 A 
ATOM     13  C   UNL     1      11.221  11.848   2.789  1.00  0.00     0.016 A 
ATOM     14  C   UNL     1      10.810  11.641   1.469  1.00  0.00     0.051 A 
ATOM     15  C   UNL     1      10.416  12.724   0.674  1.00  0.00     0.157 A 
ATOM     16  C   UNL     1      10.850  14.228   2.528  1.00  0.00     0.062 A 
ATOM     17  C   UNL     1      10.439  14.020   1.202  1.00  0.00     0.158 A 
BRANCH  15  18
ATOM     18  O   UNL     1      10.003  12.520  -0.642  1.00  0.00    -0.504 OA
ATOM     19  H   UNL     1      10.416  11.799  -1.222  1.00  0.00     0.293 HD
ENDBRANCH  15  18
BRANCH  17  20
ATOM     20  O   UNL     1      10.060  15.098   0.404  1.00  0.00    -0.504 OA
ATOM     21  H   UNL     1       9.622  14.960  -0.500  1.00  0.00     0.293 HD
ENDBRANCH  17  20
ENDBRANCH   1  12
BRANCH   2  22
ATOM     22  O   UNL     1       9.867  14.872   5.219  1.00  0.00    -0.502 OA
ATOM     23  H   UNL     1       9.654  15.819   5.511  1.00  0.00     0.293 HD
ENDBRANCH   2  22
BRANCH   6  24
ATOM     24  O   UNL     1      12.954  14.713   9.557  1.00  0.00    -0.507 OA
ATOM     25  H   UNL     1      13.446  15.572   9.749  1.00  0.00     0.293 HD
ENDBRANCH   6  24
BRANCH   8  26
ATOM     26  O   UNL     1      16.000  11.232   8.324  1.00  0.00    -0.508 OA
ATOM     27  H   UNL     1      16.929  11.616   8.447  1.00  0.00     0.293 HD
ENDBRANCH   8  26
TORSDOF 6
ENDMDL
MODEL 4
REMARK VINA RESULT:    44.345      1.319      3.106
REMARK INTER + INTRA:          53.094
REMARK INTER:                  53.370
REMARK INTRA:                  -0.276
REMARK UNBOUND:                -0.325
REMARK SMILES O=c1c(O)c(-c2ccc(O)c(O)c2)oc2cc(O)cc(O)c12
REMARK SMILES IDX 5 1 3 2 2 3 1 4 22 5 20 6 19 7 17 8 16 9 15 10 14 11 6 12
REMARK SMILES IDX 7 13 8 14 9 15 13 16 11 17 10 18 12 20 4 22 21 24 18 26
REMARK H PARENT 10 19 12 21 4 23 21 25 18 27
REMARK Flexibility Score: inf
ROOT
ATOM      1  C   UNL     1      10.322  13.403   4.201  1.00  0.00     0.180 A 
ATOM      2  C   UNL     1      10.884  12.227   3.673  1.00  0.00     0.208 A 
ATOM      3  C   UNL     1      11.310  12.217   2.335  1.00  0.00     0.238 A 
ATOM      4  O   UNL     1      11.760  11.146   1.851  1.00  0.00    -0.285 OA
ATOM      5  C   UNL     1      11.187  13.388   1.548  1.00  0.00     0.111 A 
ATOM      6  C   UNL     1      11.624  13.504   0.195  1.00  0.00     0.134 A 
ATOM      7  C   UNL     1      11.333  14.667  -0.528  1.00  0.00     0.093 A 
ATOM      8  C   UNL     1      10.681  15.744   0.073  1.00  0.00     0.123 A 
ATOM      9  C   UNL     1      10.302  15.664   1.414  1.00  0.00     0.094 A 
ATOM     10  C   UNL     1      10.545  14.502   2.150  1.00  0.00     0.146 A 
ATOM     11  O   UNL     1      10.161  14.463   3.420  1.00  0.00    -0.452 OA
ENDROOT
BRANCH   1  12
ATOM     12  C   UNL     1       9.872  13.497   5.609  1.00  0.00     0.025 A 
ATOM     13  C   UNL     1      10.696  14.124   6.557  1.00  0.00     0.016 A 
ATOM     14  C   UNL     1      10.300  14.205   7.895  1.00  0.00     0.051 A 
ATOM     15  C   UNL     1       9.083  13.647   8.306  1.00  0.00     0.157 A 
ATOM     16  C   UNL     1       8.660  12.920   6.030  1.00  0.00     0.062 A 
ATOM     17  C   UNL     1       8.263  13.000   7.374  1.00  0.00     0.158 A 
BRANCH  15  18
ATOM     18  O   UNL     1       8.684  13.728   9.640  1.00  0.00    -0.504 OA
ATOM     19  H   UNL     1       9.137  14.359  10.291  1.00  0.00     0.293 HD
ENDBRANCH  15  18
BRANCH  17  20
ATOM     20  O   UNL     1       7.060  12.433   7.789  1.00  0.00    -0.504 OA
ATOM     21  H   UNL     1       6.992  11.908   8.653  1.00  0.00     0.293 HD
ENDBRANCH  17  20
ENDBRANCH   1  12
BRANCH   2  22
ATOM     22  O   UNL     1      10.975  11.076   4.461  1.00  0.00    -0.502 OA
ATOM     23  H   UNL     1      10.186  10.710   4.983  1.00  0.00     0.293 HD
ENDBRANCH   2  22
BRANCH   6  24
ATOM     24  O   UNL     1      12.365  12.524  -0.473  1.00  0.00    -0.507 OA
ATOM     25  H   UNL     1      12.164  11.536  -0.448  1.00  0.00     0.293 HD
ENDBRANCH   6  24
BRANCH   8  26
ATOM     26  O   UNL     1      10.421  16.893  -0.672  1.00  0.00    -0.508 OA
ATOM     27  H   UNL     1      11.108  17.633  -0.760  1.00  0.00     0.293 HD
ENDBRANCH   8  26
TORSDOF 6
ENDMDL
