MODEL 1
REMARK VINA RESULT:    -3.670      0.000      0.000
REMARK INTER + INTRA:          -6.900
REMARK INTER:                  -6.352
REMARK INTRA:                  -0.547
REMARK UNBOUND:                -0.547
REMARK SMILES OC[C@@H]1O[C@@H](O[C@H]2[C@H](O)[C@@H](O)[C@@H](O)O[C@H]2CO)[C@@H](O)[C@@H](O)[C@H]1O[C@@H]1O[C@H](CO)[C@@H](O)[C@@H](O)[C@@H]1O
REMARK SMILES IDX 22 1 3 2 4 3 5 4 18 5 20 6 23 7 24 8 26 9 29 10 25 11 31 12
REMARK SMILES IDX 33 13 27 14 28 15 30 17 32 19 34 21 2 23 1 24 21 26 19 28
REMARK SMILES IDX 6 30 7 31 15 32 8 33 14 34 10 35 12 36 16 37 17 38 9 40
REMARK SMILES IDX 11 42 13 44
REMARK H PARENT 28 16 30 18 32 20 34 22 1 25 21 27 19 29 17 39 9 41 11 43
REMARK H PARENT 13 45
REMARK Flexibility Score: inf
ROOT
ATOM      1  C   UNL     1     -14.979  -8.108  -1.029  1.00  0.00     0.184 C 
ATOM      2  C   UNL     1     -13.819  -8.889  -1.714  1.00  0.00     0.178 C 
ATOM      3  O   UNL     1     -14.307  -9.870  -2.616  1.00  0.00    -0.341 OA
ATOM      4  C   UNL     1     -14.992  -9.326  -3.742  1.00  0.00     0.282 C 
ATOM      5  C   UNL     1     -15.908  -8.112  -3.396  1.00  0.00     0.202 C 
ATOM      6  C   UNL     1     -16.263  -8.093  -1.904  1.00  0.00     0.180 C 
ENDROOT
BRANCH   1   7
ATOM      7  O   UNL     1     -15.251  -8.731   0.216  1.00  0.00    -0.341 OA
BRANCH   7   8
ATOM      8  C   UNL     1     -15.444 -10.144   0.155  1.00  0.00     0.282 C 
ATOM      9  C   UNL     1     -16.953 -11.909   0.321  1.00  0.00     0.178 C 
ATOM     10  C   UNL     1     -15.846 -12.889   0.825  1.00  0.00     0.177 C 
ATOM     11  O   UNL     1     -16.685 -10.573   0.702  1.00  0.00    -0.341 OA
ATOM     12  C   UNL     1     -14.726 -12.141   1.586  1.00  0.00     0.179 C 
ATOM     13  C   UNL     1     -14.253 -10.882   0.826  1.00  0.00     0.202 C 
BRANCH   9  14
ATOM     14  C   UNL     1     -18.338 -12.303   0.850  1.00  0.00     0.191 C 
BRANCH  14  15
ATOM     15  O   UNL     1     -19.344 -11.855  -0.024  1.00  0.00    -0.394 OA
ATOM     16  H   UNL     1     -19.826 -12.674  -0.316  1.00  0.00     0.210 HD
ENDBRANCH  14  15
ENDBRANCH   9  14
BRANCH  10  17
ATOM     17  O   UNL     1     -15.330 -13.635  -0.253  1.00  0.00    -0.387 OA
ATOM     18  H   UNL     1     -14.861 -14.438   0.113  1.00  0.00     0.211 HD
ENDBRANCH  10  17
BRANCH  12  19
ATOM     19  O   UNL     1     -13.650 -13.012   1.828  1.00  0.00    -0.387 OA
ATOM     20  H   UNL     1     -12.904 -12.464   2.176  1.00  0.00     0.211 HD
ENDBRANCH  12  19
BRANCH  13  21
ATOM     21  O   UNL     1     -13.588 -10.019   1.719  1.00  0.00    -0.385 OA
ATOM     22  H   UNL     1     -13.539 -10.481   2.595  1.00  0.00     0.211 HD
ENDBRANCH  13  21
ENDBRANCH   7   8
ENDBRANCH   1   7
BRANCH   2  23
ATOM     23  C   UNL     1     -12.724  -7.987  -2.347  1.00  0.00     0.191 C 
BRANCH  23  24
ATOM     24  O   UNL     1     -11.499  -8.170  -1.690  1.00  0.00    -0.394 OA
ATOM     25  H   UNL     1     -11.060  -7.281  -1.623  1.00  0.00     0.210 HD
ENDBRANCH  23  24
ENDBRANCH   2  23
BRANCH   6  26
ATOM     26  O   UNL     1     -17.145  -9.144  -1.580  1.00  0.00    -0.387 OA
ATOM     27  H   UNL     1     -16.732 -10.001  -1.850  1.00  0.00     0.211 HD
ENDBRANCH   6  26
BRANCH   5  28
ATOM     28  O   UNL     1     -17.089  -8.118  -4.162  1.00  0.00    -0.385 OA
ATOM     29  H   UNL     1     -17.052  -7.322  -4.756  1.00  0.00     0.211 HD
ENDBRANCH   5  28
BRANCH   4  30
ATOM     30  O   UNL     1     -15.795 -10.363  -4.286  1.00  0.00    -0.341 OA
BRANCH  30  31
ATOM     31  C   UNL     1     -16.002 -11.449  -3.390  1.00  0.00     0.184 C 
ATOM     32  C   UNL     1     -15.139 -12.654  -3.843  1.00  0.00     0.178 C 
ATOM     33  C   UNL     1     -17.495 -11.824  -3.325  1.00  0.00     0.180 C 
ATOM     34  O   UNL     1     -15.389 -13.846  -3.111  1.00  0.00    -0.342 OA
ATOM     35  C   UNL     1     -17.665 -13.100  -2.492  1.00  0.00     0.201 C 
ATOM     36  C   UNL     1     -16.759 -14.219  -3.033  1.00  0.00     0.279 C 
BRANCH  32  37
ATOM     37  C   UNL     1     -15.037 -12.892  -5.368  1.00  0.00     0.191 C 
BRANCH  37  38
ATOM     38  O   UNL     1     -13.785 -12.525  -5.889  1.00  0.00    -0.394 OA
ATOM     39  H   UNL     1     -13.115 -12.645  -5.172  1.00  0.00     0.210 HD
ENDBRANCH  37  38
ENDBRANCH  32  37
BRANCH  33  40
ATOM     40  O   UNL     1     -18.257 -10.772  -2.784  1.00  0.00    -0.387 OA
ATOM     41  H   UNL     1     -18.852 -11.152  -2.085  1.00  0.00     0.211 HD
ENDBRANCH  33  40
BRANCH  35  42
ATOM     42  O   UNL     1     -19.010 -13.501  -2.524  1.00  0.00    -0.385 OA
ATOM     43  H   UNL     1     -19.498 -12.822  -3.058  1.00  0.00     0.211 HD
ENDBRANCH  35  42
BRANCH  36  44
ATOM     44  O   UNL     1     -17.228 -14.687  -4.273  1.00  0.00    -0.366 OA
ATOM     45  H   UNL     1     -18.203 -14.861  -4.152  1.00  0.00     0.213 HD
ENDBRANCH  36  44
ENDBRANCH  30  31
ENDBRANCH   4  30
TORSDOF 18
ENDMDL
MODEL 2
REMARK VINA RESULT:    -3.663      1.905      5.965
REMARK INTER + INTRA:          -6.887
REMARK INTER:                  -6.242
REMARK INTRA:                  -0.645
REMARK UNBOUND:                -0.547
REMARK SMILES OC[C@@H]1O[C@@H](O[C@H]2[C@H](O)[C@@H](O)[C@@H](O)O[C@H]2CO)[C@@H](O)[C@@H](O)[C@H]1O[C@@H]1O[C@H](CO)[C@@H](O)[C@@H](O)[C@@H]1O
REMARK SMILES IDX 22 1 3 2 4 3 5 4 18 5 20 6 23 7 24 8 26 9 29 10 25 11 31 12
REMARK SMILES IDX 33 13 27 14 28 15 30 17 32 19 34 21 2 23 1 24 21 26 19 28
REMARK SMILES IDX 6 30 7 31 15 32 8 33 14 34 10 35 12 36 16 37 17 38 9 40
REMARK SMILES IDX 11 42 13 44
REMARK H PARENT 28 16 30 18 32 20 34 22 1 25 21 27 19 29 17 39 9 41 11 43
REMARK H PARENT 13 45
REMARK Flexibility Score: inf
ROOT
ATOM      1  C   UNL     1     -15.363 -14.056  -2.016  1.00  0.00     0.184 C 
ATOM      2  C   UNL     1     -13.998 -13.421  -1.615  1.00  0.00     0.178 C 
ATOM      3  O   UNL     1     -14.150 -12.457  -0.585  1.00  0.00    -0.341 OA
ATOM      4  C   UNL     1     -14.589 -13.004   0.656  1.00  0.00     0.282 C 
ATOM      5  C   UNL     1     -15.678 -14.110   0.506  1.00  0.00     0.202 C 
ATOM      6  C   UNL     1     -16.388 -14.010  -0.850  1.00  0.00     0.180 C 
ENDROOT
BRANCH   1   7
ATOM      7  O   UNL     1     -15.868 -13.339  -3.131  1.00  0.00    -0.341 OA
BRANCH   7   8
ATOM      8  C   UNL     1     -15.863 -11.919  -2.989  1.00  0.00     0.282 C 
ATOM      9  C   UNL     1     -17.123  -9.999  -2.603  1.00  0.00     0.178 C 
ATOM     10  C   UNL     1     -16.147  -9.116  -3.443  1.00  0.00     0.177 C 
ATOM     11  O   UNL     1     -17.157 -11.334  -3.070  1.00  0.00    -0.341 OA
ATOM     12  C   UNL     1     -15.446  -9.936  -4.553  1.00  0.00     0.179 C 
ATOM     13  C   UNL     1     -14.893 -11.275  -4.018  1.00  0.00     0.202 C 
BRANCH   9  14
ATOM     14  C   UNL     1     -18.549  -9.435  -2.619  1.00  0.00     0.191 C 
BRANCH  14  15
ATOM     15  O   UNL     1     -19.379 -10.171  -1.755  1.00  0.00    -0.394 OA
ATOM     16  H   UNL     1     -18.789 -10.853  -1.337  1.00  0.00     0.210 HD
ENDBRANCH  14  15
ENDBRANCH   9  14
BRANCH  10  17
ATOM     17  O   UNL     1     -15.212  -8.485  -2.598  1.00  0.00    -0.387 OA
ATOM     18  H   UNL     1     -14.339  -8.424  -3.081  1.00  0.00     0.211 HD
ENDBRANCH  10  17
BRANCH  12  19
ATOM     19  O   UNL     1     -14.423  -9.171  -5.138  1.00  0.00    -0.387 OA
ATOM     20  H   UNL     1     -13.755  -9.804  -5.497  1.00  0.00     0.211 HD
ENDBRANCH  12  19
BRANCH  13  21
ATOM     21  O   UNL     1     -14.676 -12.155  -5.096  1.00  0.00    -0.385 OA
ATOM     22  H   UNL     1     -13.708 -12.121  -5.314  1.00  0.00     0.211 HD
ENDBRANCH  13  21
ENDBRANCH   7   8
ENDBRANCH   1   7
BRANCH   2  23
ATOM     23  C   UNL     1     -12.877 -14.451  -1.308  1.00  0.00     0.191 C 
BRANCH  23  24
ATOM     24  O   UNL     1     -11.938 -14.478  -2.349  1.00  0.00    -0.394 OA
ATOM     25  H   UNL     1     -12.432 -14.346  -3.201  1.00  0.00     0.210 HD
ENDBRANCH  23  24
ENDBRANCH   2  23
BRANCH   6  26
ATOM     26  O   UNL     1     -17.214 -12.869  -0.906  1.00  0.00    -0.387 OA
ATOM     27  H   UNL     1     -16.692 -12.116  -1.278  1.00  0.00     0.211 HD
ENDBRANCH   6  26
BRANCH   5  28
ATOM     28  O   UNL     1     -16.629 -14.046   1.542  1.00  0.00    -0.385 OA
ATOM     29  H   UNL     1     -16.125 -13.916   2.389  1.00  0.00     0.211 HD
ENDBRANCH   5  28
BRANCH   4  30
ATOM     30  O   UNL     1     -15.127 -11.935   1.419  1.00  0.00    -0.341 OA
BRANCH  30  31
ATOM     31  C   UNL     1     -15.491 -10.804   0.635  1.00  0.00     0.184 C 
ATOM     32  C   UNL     1     -14.411  -9.704   0.797  1.00  0.00     0.178 C 
ATOM     33  C   UNL     1     -16.884 -10.285   1.040  1.00  0.00     0.180 C 
ATOM     34  O   UNL     1     -14.753  -8.470   0.182  1.00  0.00    -0.342 OA
ATOM     35  C   UNL     1     -17.173  -8.972   0.305  1.00  0.00     0.201 C 
ATOM     36  C   UNL     1     -16.034  -7.963   0.537  1.00  0.00     0.279 C 
BRANCH  32  37
ATOM     37  C   UNL     1     -13.816  -9.528   2.214  1.00  0.00     0.191 C 
BRANCH  37  38
ATOM     38  O   UNL     1     -12.457  -9.879   2.276  1.00  0.00    -0.394 OA
ATOM     39  H   UNL     1     -12.399 -10.787   2.663  1.00  0.00     0.210 HD
ENDBRANCH  37  38
ENDBRANCH  32  37
BRANCH  33  40
ATOM     40  O   UNL     1     -17.879 -11.240   0.764  1.00  0.00    -0.387 OA
ATOM     41  H   UNL     1     -18.720 -10.754   0.551  1.00  0.00     0.211 HD
ENDBRANCH  33  40
BRANCH  35  42
ATOM     42  O   UNL     1     -18.392  -8.444   0.756  1.00  0.00    -0.385 OA
ATOM     43  H   UNL     1     -19.110  -9.012   0.372  1.00  0.00     0.211 HD
ENDBRANCH  35  42
BRANCH  36  44
ATOM     44  O   UNL     1     -16.044  -7.494   1.862  1.00  0.00    -0.366 OA
ATOM     45  H   UNL     1     -15.320  -6.810   1.919  1.00  0.00     0.213 HD
ENDBRANCH  36  44
ENDBRANCH  30  31
ENDBRANCH   4  30
TORSDOF 18
ENDMDL
MODEL 3
REMARK VINA RESULT:    -3.279      1.525      2.051
REMARK INTER + INTRA:          -6.222
REMARK INTER:                  -7.119
REMARK INTRA:                   0.897
REMARK UNBOUND:                -0.547
REMARK SMILES OC[C@@H]1O[C@@H](O[C@H]2[C@H](O)[C@@H](O)[C@@H](O)O[C@H]2CO)[C@@H](O)[C@@H](O)[C@H]1O[C@@H]1O[C@H](CO)[C@@H](O)[C@@H](O)[C@@H]1O
REMARK SMILES IDX 22 1 3 2 4 3 5 4 18 5 20 6 23 7 24 8 26 9 29 10 25 11 31 12
REMARK SMILES IDX 33 13 27 14 28 15 30 17 32 19 34 21 2 23 1 24 21 26 19 28
REMARK SMILES IDX 6 30 7 31 15 32 8 33 14 34 10 35 12 36 16 37 17 38 9 40
REMARK SMILES IDX 11 42 13 44
REMARK H PARENT 28 16 30 18 32 20 34 22 1 25 21 27 19 29 17 39 9 41 11 43
REMARK H PARENT 13 45
REMARK Flexibility Score: inf
ROOT
ATOM      1  C   UNL     1     -14.877  -7.633  -1.647  1.00  0.00     0.184 C 
ATOM      2  C   UNL     1     -13.799  -8.734  -1.876  1.00  0.00     0.178 C 
ATOM      3  O   UNL     1     -14.340  -9.869  -2.533  1.00  0.00    -0.341 OA
ATOM      4  C   UNL     1     -14.775  -9.611  -3.866  1.00  0.00     0.282 C 
ATOM      5  C   UNL     1     -15.497  -8.238  -4.037  1.00  0.00     0.202 C 
ATOM      6  C   UNL     1     -16.021  -7.716  -2.694  1.00  0.00     0.180 C 
ENDROOT
BRANCH   1   7
ATOM      7  O   UNL     1     -15.405  -7.803  -0.341  1.00  0.00    -0.341 OA
BRANCH   7   8
ATOM      8  C   UNL     1     -16.581  -8.607  -0.265  1.00  0.00     0.282 C 
ATOM      9  C   UNL     1     -18.766  -8.786   0.521  1.00  0.00     0.178 C 
ATOM     10  C   UNL     1     -18.665 -10.341   0.626  1.00  0.00     0.177 C 
ATOM     11  O   UNL     1     -17.510  -8.164   0.717  1.00  0.00    -0.341 OA
ATOM     12  C   UNL     1     -17.212 -10.802   0.890  1.00  0.00     0.179 C 
ATOM     13  C   UNL     1     -16.204 -10.098  -0.046  1.00  0.00     0.202 C 
BRANCH   9  14
ATOM     14  C   UNL     1     -19.762  -8.215   1.537  1.00  0.00     0.191 C 
BRANCH  14  15
ATOM     15  O   UNL     1     -19.081  -7.644   2.627  1.00  0.00    -0.394 OA
ATOM     16  H   UNL     1     -19.775  -7.165   3.152  1.00  0.00     0.210 HD
ENDBRANCH  14  15
ENDBRANCH   9  14
BRANCH  10  17
ATOM     17  O   UNL     1     -19.196 -10.943  -0.532  1.00  0.00    -0.387 OA
ATOM     18  H   UNL     1     -18.518 -10.880  -1.262  1.00  0.00     0.211 HD
ENDBRANCH  10  17
BRANCH  12  19
ATOM     19  O   UNL     1     -17.123 -12.198   0.759  1.00  0.00    -0.387 OA
ATOM     20  H   UNL     1     -16.203 -12.457   1.011  1.00  0.00     0.211 HD
ENDBRANCH  12  19
BRANCH  13  21
ATOM     21  O   UNL     1     -14.910 -10.196   0.502  1.00  0.00    -0.385 OA
ATOM     22  H   UNL     1     -14.415  -9.378   0.238  1.00  0.00     0.211 HD
ENDBRANCH  13  21
ENDBRANCH   7   8
ENDBRANCH   1   7
BRANCH   2  23
ATOM     23  C   UNL     1     -12.492  -8.223  -2.544  1.00  0.00     0.191 C 
BRANCH  23  24
ATOM     24  O   UNL     1     -11.433  -8.246  -1.626  1.00  0.00    -0.394 OA
ATOM     25  H   UNL     1     -11.801  -7.995  -0.738  1.00  0.00     0.210 HD
ENDBRANCH  23  24
ENDBRANCH   2  23
BRANCH   6  26
ATOM     26  O   UNL     1     -17.109  -8.490  -2.241  1.00  0.00    -0.387 OA
ATOM     27  H   UNL     1     -16.881  -8.873  -1.358  1.00  0.00     0.211 HD
ENDBRANCH   6  26
BRANCH   5  28
ATOM     28  O   UNL     1     -16.558  -8.321  -4.959  1.00  0.00    -0.385 OA
ATOM     29  H   UNL     1     -17.052  -9.159  -4.755  1.00  0.00     0.211 HD
ENDBRANCH   5  28
BRANCH   4  30
ATOM     30  O   UNL     1     -15.677 -10.647  -4.221  1.00  0.00    -0.341 OA
BRANCH  30  31
ATOM     31  C   UNL     1     -15.892 -11.595  -3.181  1.00  0.00     0.184 C 
ATOM     32  C   UNL     1     -15.005 -12.840  -3.437  1.00  0.00     0.178 C 
ATOM     33  C   UNL     1     -17.381 -11.977  -3.091  1.00  0.00     0.180 C 
ATOM     34  O   UNL     1     -15.257 -13.916  -2.544  1.00  0.00    -0.342 OA
ATOM     35  C   UNL     1     -17.555 -13.121  -2.085  1.00  0.00     0.201 C 
ATOM     36  C   UNL     1     -16.624 -14.294  -2.440  1.00  0.00     0.279 C 
BRANCH  32  37
ATOM     37  C   UNL     1     -14.867 -13.296  -4.909  1.00  0.00     0.191 C 
BRANCH  37  38
ATOM     38  O   UNL     1     -13.790 -12.678  -5.566  1.00  0.00    -0.394 OA
ATOM     39  H   UNL     1     -13.869 -12.886  -6.530  1.00  0.00     0.210 HD
ENDBRANCH  37  38
ENDBRANCH  32  37
BRANCH  33  40
ATOM     40  O   UNL     1     -18.166 -10.869  -2.725  1.00  0.00    -0.387 OA
ATOM     41  H   UNL     1     -19.033 -10.935  -3.208  1.00  0.00     0.211 HD
ENDBRANCH  33  40
BRANCH  35  42
ATOM     42  O   UNL     1     -18.893 -13.542  -2.085  1.00  0.00    -0.385 OA
ATOM     43  H   UNL     1     -19.311 -13.168  -1.266  1.00  0.00     0.211 HD
ENDBRANCH  35  42
BRANCH  36  44
ATOM     44  O   UNL     1     -17.061 -14.944  -3.607  1.00  0.00    -0.366 OA
ATOM     45  H   UNL     1     -16.704 -15.874  -3.556  1.00  0.00     0.213 HD
ENDBRANCH  36  44
ENDBRANCH  30  31
ENDBRANCH   4  30
TORSDOF 18
ENDMDL
MODEL 4
REMARK VINA RESULT:    -2.766      1.596      5.330
REMARK INTER + INTRA:          -5.335
REMARK INTER:                  -7.137
REMARK INTRA:                   1.802
REMARK UNBOUND:                -0.547
REMARK SMILES OC[C@@H]1O[C@@H](O[C@H]2[C@H](O)[C@@H](O)[C@@H](O)O[C@H]2CO)[C@@H](O)[C@@H](O)[C@H]1O[C@@H]1O[C@H](CO)[C@@H](O)[C@@H](O)[C@@H]1O
REMARK SMILES IDX 22 1 3 2 4 3 5 4 18 5 20 6 23 7 24 8 26 9 29 10 25 11 31 12
REMARK SMILES IDX 33 13 27 14 28 15 30 17 32 19 34 21 2 23 1 24 21 26 19 28
REMARK SMILES IDX 6 30 7 31 15 32 8 33 14 34 10 35 12 36 16 37 17 38 9 40
REMARK SMILES IDX 11 42 13 44
REMARK H PARENT 28 16 30 18 32 20 34 22 1 25 21 27 19 29 17 39 9 41 11 43
REMARK H PARENT 13 45
REMARK Flexibility Score: inf
ROOT
ATOM      1  C   UNL     1     -18.325 -11.836   0.496  1.00  0.00     0.184 C 
ATOM      2  C   UNL     1     -16.886 -11.654  -0.071  1.00  0.00     0.178 C 
ATOM      3  O   UNL     1     -16.732 -10.400  -0.718  1.00  0.00    -0.341 OA
ATOM      4  C   UNL     1     -16.840  -9.282   0.160  1.00  0.00     0.282 C 
ATOM      5  C   UNL     1     -17.959  -9.431   1.235  1.00  0.00     0.202 C 
ATOM      6  C   UNL     1     -19.001 -10.474   0.811  1.00  0.00     0.180 C 
ENDROOT
BRANCH   1   7
ATOM      7  O   UNL     1     -19.089 -12.543  -0.468  1.00  0.00    -0.341 OA
BRANCH   7   8
ATOM      8  C   UNL     1     -18.373 -13.542  -1.192  1.00  0.00     0.282 C 
ATOM      9  C   UNL     1     -16.392 -14.746  -1.402  1.00  0.00     0.178 C 
ATOM     10  C   UNL     1     -16.578 -14.901  -2.945  1.00  0.00     0.177 C 
ATOM     11  O   UNL     1     -16.977 -13.551  -0.920  1.00  0.00    -0.341 OA
ATOM     12  C   UNL     1     -17.380 -13.722  -3.545  1.00  0.00     0.179 C 
ATOM     13  C   UNL     1     -18.645 -13.404  -2.716  1.00  0.00     0.202 C 
BRANCH   9  14
ATOM     14  C   UNL     1     -14.909 -14.760  -1.008  1.00  0.00     0.191 C 
BRANCH  14  15
ATOM     15  O   UNL     1     -14.204 -13.766  -1.709  1.00  0.00    -0.394 OA
ATOM     16  H   UNL     1     -14.539 -12.901  -1.352  1.00  0.00     0.210 HD
ENDBRANCH  14  15
ENDBRANCH   9  14
BRANCH  10  17
ATOM     17  O   UNL     1     -17.180 -16.140  -3.240  1.00  0.00    -0.387 OA
ATOM     18  H   UNL     1     -16.482 -16.754  -3.605  1.00  0.00     0.211 HD
ENDBRANCH  10  17
BRANCH  12  19
ATOM     19  O   UNL     1     -17.716 -14.004  -4.879  1.00  0.00    -0.387 OA
ATOM     20  H   UNL     1     -17.657 -13.153  -5.380  1.00  0.00     0.211 HD
ENDBRANCH  12  19
BRANCH  13  21
ATOM     21  O   UNL     1     -19.085 -12.100  -3.015  1.00  0.00    -0.385 OA
ATOM     22  H   UNL     1     -19.785 -12.178  -3.714  1.00  0.00     0.211 HD
ENDBRANCH  13  21
ENDBRANCH   7   8
ENDBRANCH   1   7
BRANCH   2  23
ATOM     23  C   UNL     1     -15.752 -11.942   0.951  1.00  0.00     0.191 C 
BRANCH  23  24
ATOM     24  O   UNL     1     -14.497 -11.764   0.353  1.00  0.00    -0.394 OA
ATOM     25  H   UNL     1     -13.889 -11.383   1.041  1.00  0.00     0.210 HD
ENDBRANCH  23  24
ENDBRANCH   2  23
BRANCH   6  26
ATOM     26  O   UNL     1     -19.780 -10.000  -0.265  1.00  0.00    -0.387 OA
ATOM     27  H   UNL     1     -19.324  -9.222  -0.671  1.00  0.00     0.211 HD
ENDBRANCH   6  26
BRANCH   5  28
ATOM     28  O   UNL     1     -18.598  -8.204   1.494  1.00  0.00    -0.385 OA
ATOM     29  H   UNL     1     -19.575  -8.361   1.404  1.00  0.00     0.211 HD
ENDBRANCH   5  28
BRANCH   4  30
ATOM     30  O   UNL     1     -17.125  -8.146  -0.641  1.00  0.00    -0.341 OA
BRANCH  30  31
ATOM     31  C   UNL     1     -16.089  -7.825  -1.562  1.00  0.00     0.184 C 
ATOM     32  C   UNL     1     -16.559  -8.172  -2.998  1.00  0.00     0.178 C 
ATOM     33  C   UNL     1     -14.790  -8.571  -1.202  1.00  0.00     0.180 C 
ATOM     34  O   UNL     1     -15.541  -8.038  -3.981  1.00  0.00    -0.342 OA
ATOM     35  C   UNL     1     -13.749  -8.343  -2.304  1.00  0.00     0.201 C 
ATOM     36  C   UNL     1     -14.329  -8.718  -3.679  1.00  0.00     0.279 C 
BRANCH  32  37
ATOM     37  C   UNL     1     -17.386  -9.469  -3.156  1.00  0.00     0.191 C 
BRANCH  37  38
ATOM     38  O   UNL     1     -18.631  -9.398  -2.509  1.00  0.00    -0.394 OA
ATOM     39  H   UNL     1     -19.049 -10.292  -2.565  1.00  0.00     0.210 HD
ENDBRANCH  37  38
ENDBRANCH  32  37
BRANCH  33  40
ATOM     40  O   UNL     1     -14.295  -8.152   0.045  1.00  0.00    -0.387 OA
ATOM     41  H   UNL     1     -13.329  -8.384   0.086  1.00  0.00     0.211 HD
ENDBRANCH  33  40
BRANCH  35  42
ATOM     42  O   UNL     1     -12.606  -9.110  -2.030  1.00  0.00    -0.385 OA
ATOM     43  H   UNL     1     -12.020  -8.555  -1.453  1.00  0.00     0.211 HD
ENDBRANCH  35  42
BRANCH  36  44
ATOM     44  O   UNL     1     -14.486 -10.110  -3.793  1.00  0.00    -0.366 OA
ATOM     45  H   UNL     1     -15.443 -10.262  -4.030  1.00  0.00     0.213 HD
ENDBRANCH  36  44
ENDBRANCH  30  31
ENDBRANCH   4  30
TORSDOF 18
ENDMDL
MODEL 5
REMARK VINA RESULT:    -2.765      1.755      4.132
REMARK INTER + INTRA:          -5.332
REMARK INTER:                  -8.158
REMARK INTRA:                   2.826
REMARK UNBOUND:                -0.547
REMARK SMILES OC[C@@H]1O[C@@H](O[C@H]2[C@H](O)[C@@H](O)[C@@H](O)O[C@H]2CO)[C@@H](O)[C@@H](O)[C@H]1O[C@@H]1O[C@H](CO)[C@@H](O)[C@@H](O)[C@@H]1O
REMARK SMILES IDX 22 1 3 2 4 3 5 4 18 5 20 6 23 7 24 8 26 9 29 10 25 11 31 12
REMARK SMILES IDX 33 13 27 14 28 15 30 17 32 19 34 21 2 23 1 24 21 26 19 28
REMARK SMILES IDX 6 30 7 31 15 32 8 33 14 34 10 35 12 36 16 37 17 38 9 40
REMARK SMILES IDX 11 42 13 44
REMARK H PARENT 28 16 30 18 32 20 34 22 1 25 21 27 19 29 17 39 9 41 11 43
REMARK H PARENT 13 45
REMARK Flexibility Score: inf
ROOT
ATOM      1  C   UNL     1     -15.260  -8.288  -2.922  1.00  0.00     0.184 C 
ATOM      2  C   UNL     1     -14.899  -9.209  -1.719  1.00  0.00     0.178 C 
ATOM      3  O   UNL     1     -15.381 -10.530  -1.906  1.00  0.00    -0.341 OA
ATOM      4  C   UNL     1     -14.765 -11.220  -2.990  1.00  0.00     0.282 C 
ATOM      5  C   UNL     1     -14.528 -10.330  -4.249  1.00  0.00     0.202 C 
ATOM      6  C   UNL     1     -15.440  -9.096  -4.236  1.00  0.00     0.180 C 
ENDROOT
BRANCH   1   7
ATOM      7  O   UNL     1     -16.464  -7.607  -2.606  1.00  0.00    -0.341 OA
BRANCH   7   8
ATOM      8  C   UNL     1     -16.898  -7.743  -1.254  1.00  0.00     0.282 C 
ATOM      9  C   UNL     1     -16.269  -7.958   0.978  1.00  0.00     0.178 C 
ATOM     10  C   UNL     1     -17.556  -8.771   1.326  1.00  0.00     0.177 C 
ATOM     11  O   UNL     1     -15.868  -8.158  -0.365  1.00  0.00    -0.341 OA
ATOM     12  C   UNL     1     -18.078  -9.564   0.104  1.00  0.00     0.179 C 
ATOM     13  C   UNL     1     -18.124  -8.693  -1.172  1.00  0.00     0.202 C 
BRANCH   9  14
ATOM     14  C   UNL     1     -15.101  -8.329   1.900  1.00  0.00     0.191 C 
BRANCH  14  15
ATOM     15  O   UNL     1     -14.458  -9.491   1.438  1.00  0.00    -0.394 OA
ATOM     16  H   UNL     1     -15.001  -9.806   0.667  1.00  0.00     0.210 HD
ENDBRANCH  14  15
ENDBRANCH   9  14
BRANCH  10  17
ATOM     17  O   UNL     1     -18.546  -7.915   1.848  1.00  0.00    -0.387 OA
ATOM     18  H   UNL     1     -18.198  -7.504   2.690  1.00  0.00     0.211 HD
ENDBRANCH  10  17
BRANCH  12  19
ATOM     19  O   UNL     1     -19.345 -10.099   0.388  1.00  0.00    -0.387 OA
ATOM     20  H   UNL     1     -19.201 -10.965   0.844  1.00  0.00     0.211 HD
ENDBRANCH  12  19
BRANCH  13  21
ATOM     21  O   UNL     1     -18.168  -9.527  -2.306  1.00  0.00    -0.385 OA
ATOM     22  H   UNL     1     -18.644 -10.357  -2.043  1.00  0.00     0.211 HD
ENDBRANCH  13  21
ENDBRANCH   7   8
ENDBRANCH   1   7
BRANCH   2  23
ATOM     23  C   UNL     1     -13.401  -9.171  -1.309  1.00  0.00     0.191 C 
BRANCH  23  24
ATOM     24  O   UNL     1     -12.715  -8.198  -2.050  1.00  0.00    -0.394 OA
ATOM     25  H   UNL     1     -13.385  -7.714  -2.601  1.00  0.00     0.210 HD
ENDBRANCH  23  24
ENDBRANCH   2  23
BRANCH   6  26
ATOM     26  O   UNL     1     -16.784  -9.459  -4.463  1.00  0.00    -0.387 OA
ATOM     27  H   UNL     1     -17.333  -8.638  -4.502  1.00  0.00     0.211 HD
ENDBRANCH   6  26
BRANCH   5  28
ATOM     28  O   UNL     1     -14.727 -11.052  -5.441  1.00  0.00    -0.385 OA
ATOM     29  H   UNL     1     -15.406 -11.751  -5.245  1.00  0.00     0.211 HD
ENDBRANCH   5  28
BRANCH   4  30
ATOM     30  O   UNL     1     -15.622 -12.293  -3.346  1.00  0.00    -0.341 OA
BRANCH  30  31
ATOM     31  C   UNL     1     -15.625 -13.355  -2.399  1.00  0.00     0.184 C 
ATOM     32  C   UNL     1     -17.090 -13.705  -2.032  1.00  0.00     0.178 C 
ATOM     33  C   UNL     1     -14.811 -12.972  -1.149  1.00  0.00     0.180 C 
ATOM     34  O   UNL     1     -17.207 -14.647  -0.974  1.00  0.00    -0.342 OA
ATOM     35  C   UNL     1     -14.976 -14.059  -0.080  1.00  0.00     0.201 C 
ATOM     36  C   UNL     1     -16.467 -14.321   0.196  1.00  0.00     0.279 C 
BRANCH  32  37
ATOM     37  C   UNL     1     -18.067 -12.514  -1.891  1.00  0.00     0.191 C 
BRANCH  37  38
ATOM     38  O   UNL     1     -19.166 -12.811  -1.067  1.00  0.00    -0.394 OA
ATOM     39  H   UNL     1     -19.048 -12.315  -0.220  1.00  0.00     0.210 HD
ENDBRANCH  37  38
ENDBRANCH  32  37
BRANCH  33  40
ATOM     40  O   UNL     1     -13.454 -12.789  -1.466  1.00  0.00    -0.387 OA
ATOM     41  H   UNL     1     -13.357 -12.859  -2.453  1.00  0.00     0.211 HD
ENDBRANCH  33  40
BRANCH  35  42
ATOM     42  O   UNL     1     -14.324 -13.659   1.096  1.00  0.00    -0.385 OA
ATOM     43  H   UNL     1     -14.612 -14.284   1.811  1.00  0.00     0.211 HD
ENDBRANCH  35  42
BRANCH  36  44
ATOM     44  O   UNL     1     -17.047 -13.236   0.877  1.00  0.00    -0.366 OA
ATOM     45  H   UNL     1     -16.850 -12.427   0.328  1.00  0.00     0.213 HD
ENDBRANCH  36  44
ENDBRANCH  30  31
ENDBRANCH   4  30
TORSDOF 18
ENDMDL
MODEL 6
REMARK VINA RESULT:    -2.708      1.876      3.013
REMARK INTER + INTRA:          -5.235
REMARK INTER:                  -3.601
REMARK INTRA:                  -1.634
REMARK UNBOUND:                -0.547
REMARK SMILES OC[C@@H]1O[C@@H](O[C@H]2[C@H](O)[C@@H](O)[C@@H](O)O[C@H]2CO)[C@@H](O)[C@@H](O)[C@H]1O[C@@H]1O[C@H](CO)[C@@H](O)[C@@H](O)[C@@H]1O
REMARK SMILES IDX 22 1 3 2 4 3 5 4 18 5 20 6 23 7 24 8 26 9 29 10 25 11 31 12
REMARK SMILES IDX 33 13 27 14 28 15 30 17 32 19 34 21 2 23 1 24 21 26 19 28
REMARK SMILES IDX 6 30 7 31 15 32 8 33 14 34 10 35 12 36 16 37 17 38 9 40
REMARK SMILES IDX 11 42 13 44
REMARK H PARENT 28 16 30 18 32 20 34 22 1 25 21 27 19 29 17 39 9 41 11 43
REMARK H PARENT 13 45
REMARK Flexibility Score: inf
ROOT
ATOM      1  C   UNL     1     -15.270  -7.889  -2.913  1.00  0.00     0.184 C 
ATOM      2  C   UNL     1     -14.297  -8.625  -1.945  1.00  0.00     0.178 C 
ATOM      3  O   UNL     1     -14.525 -10.025  -1.936  1.00  0.00    -0.341 OA
ATOM      4  C   UNL     1     -14.234 -10.664  -3.177  1.00  0.00     0.282 C 
ATOM      5  C   UNL     1     -14.682  -9.846  -4.427  1.00  0.00     0.202 C 
ATOM      6  C   UNL     1     -15.759  -8.817  -4.059  1.00  0.00     0.180 C 
ENDROOT
BRANCH   1   7
ATOM      7  O   UNL     1     -16.379  -7.433  -2.156  1.00  0.00    -0.341 OA
BRANCH   7   8
ATOM      8  C   UNL     1     -16.889  -8.369  -1.207  1.00  0.00     0.282 C 
ATOM      9  C   UNL     1     -18.573  -9.891  -0.688  1.00  0.00     0.178 C 
ATOM     10  C   UNL     1     -18.410  -9.642   0.845  1.00  0.00     0.177 C 
ATOM     11  O   UNL     1     -18.241  -8.742  -1.445  1.00  0.00    -0.341 OA
ATOM     12  C   UNL     1     -17.898  -8.212   1.140  1.00  0.00     0.179 C 
ATOM     13  C   UNL     1     -16.704  -7.828   0.238  1.00  0.00     0.202 C 
BRANCH   9  14
ATOM     14  C   UNL     1     -20.003 -10.315  -1.042  1.00  0.00     0.191 C 
BRANCH  14  15
ATOM     15  O   UNL     1     -20.330 -11.525  -0.404  1.00  0.00    -0.394 OA
ATOM     16  H   UNL     1     -20.254 -11.340   0.570  1.00  0.00     0.210 HD
ENDBRANCH  14  15
ENDBRANCH   9  14
BRANCH  10  17
ATOM     17  O   UNL     1     -17.566 -10.620   1.409  1.00  0.00    -0.387 OA
ATOM     18  H   UNL     1     -18.055 -11.069   2.155  1.00  0.00     0.211 HD
ENDBRANCH  10  17
BRANCH  12  19
ATOM     19  O   UNL     1     -17.556  -8.099   2.498  1.00  0.00    -0.387 OA
ATOM     20  H   UNL     1     -18.373  -7.828   2.984  1.00  0.00     0.211 HD
ENDBRANCH  12  19
BRANCH  13  21
ATOM     21  O   UNL     1     -16.564  -6.427   0.219  1.00  0.00    -0.385 OA
ATOM     22  H   UNL     1     -17.299  -6.050   0.768  1.00  0.00     0.211 HD
ENDBRANCH  13  21
ENDBRANCH   7   8
ENDBRANCH   1   7
BRANCH   2  23
ATOM     23  C   UNL     1     -12.799  -8.264  -2.145  1.00  0.00     0.191 C 
BRANCH  23  24
ATOM     24  O   UNL     1     -12.076  -8.505  -0.968  1.00  0.00    -0.394 OA
ATOM     25  H   UNL     1     -12.406  -9.360  -0.584  1.00  0.00     0.210 HD
ENDBRANCH  23  24
ENDBRANCH   2  23
BRANCH   6  26
ATOM     26  O   UNL     1     -16.980  -9.451  -3.752  1.00  0.00    -0.387 OA
ATOM     27  H   UNL     1     -17.456  -9.652  -4.595  1.00  0.00     0.211 HD
ENDBRANCH   6  26
BRANCH   5  28
ATOM     28  O   UNL     1     -15.161 -10.684  -5.452  1.00  0.00    -0.385 OA
ATOM     29  H   UNL     1     -15.247 -11.595  -5.064  1.00  0.00     0.211 HD
ENDBRANCH   5  28
BRANCH   4  30
ATOM     30  O   UNL     1     -14.916 -11.909  -3.178  1.00  0.00    -0.341 OA
BRANCH  30  31
ATOM     31  C   UNL     1     -15.630 -12.166  -1.974  1.00  0.00     0.184 C 
ATOM     32  C   UNL     1     -14.773 -13.081  -1.062  1.00  0.00     0.178 C 
ATOM     33  C   UNL     1     -16.999 -12.803  -2.278  1.00  0.00     0.180 C 
ATOM     34  O   UNL     1     -15.456 -13.531   0.101  1.00  0.00    -0.342 OA
ATOM     35  C   UNL     1     -17.668 -13.227  -0.965  1.00  0.00     0.201 C 
ATOM     36  C   UNL     1     -16.724 -14.125  -0.147  1.00  0.00     0.279 C 
BRANCH  32  37
ATOM     37  C   UNL     1     -13.976 -14.204  -1.767  1.00  0.00     0.191 C 
BRANCH  37  38
ATOM     38  O   UNL     1     -12.678 -13.802  -2.123  1.00  0.00    -0.394 OA
ATOM     39  H   UNL     1     -12.073 -14.050  -1.382  1.00  0.00     0.210 HD
ENDBRANCH  37  38
ENDBRANCH  32  37
BRANCH  33  40
ATOM     40  O   UNL     1     -17.823 -11.914  -2.991  1.00  0.00    -0.387 OA
ATOM     41  H   UNL     1     -17.259 -11.158  -3.306  1.00  0.00     0.211 HD
ENDBRANCH  33  40
BRANCH  35  42
ATOM     42  O   UNL     1     -18.863 -13.904  -1.248  1.00  0.00    -0.385 OA
ATOM     43  H   UNL     1     -19.047 -14.497  -0.474  1.00  0.00     0.211 HD
ENDBRANCH  35  42
BRANCH  36  44
ATOM     44  O   UNL     1     -16.583 -15.386  -0.753  1.00  0.00    -0.366 OA
ATOM     45  H   UNL     1     -17.364 -15.487  -1.365  1.00  0.00     0.213 HD
ENDBRANCH  36  44
ENDBRANCH  30  31
ENDBRANCH   4  30
TORSDOF 18
ENDMDL
MODEL 7
REMARK VINA RESULT:    -2.645      2.128      5.948
REMARK INTER + INTRA:          -5.125
REMARK INTER:                  -6.026
REMARK INTRA:                   0.901
REMARK UNBOUND:                -0.547
REMARK SMILES OC[C@@H]1O[C@@H](O[C@H]2[C@H](O)[C@@H](O)[C@@H](O)O[C@H]2CO)[C@@H](O)[C@@H](O)[C@H]1O[C@@H]1O[C@H](CO)[C@@H](O)[C@@H](O)[C@@H]1O
REMARK SMILES IDX 22 1 3 2 4 3 5 4 18 5 20 6 23 7 24 8 26 9 29 10 25 11 31 12
REMARK SMILES IDX 33 13 27 14 28 15 30 17 32 19 34 21 2 23 1 24 21 26 19 28
REMARK SMILES IDX 6 30 7 31 15 32 8 33 14 34 10 35 12 36 16 37 17 38 9 40
REMARK SMILES IDX 11 42 13 44
REMARK H PARENT 28 16 30 18 32 20 34 22 1 25 21 27 19 29 17 39 9 41 11 43
REMARK H PARENT 13 45
REMARK Flexibility Score: inf
ROOT
ATOM      1  C   UNL     1     -15.131 -14.733  -1.279  1.00  0.00     0.184 C 
ATOM      2  C   UNL     1     -14.007 -13.670  -1.459  1.00  0.00     0.178 C 
ATOM      3  O   UNL     1     -14.251 -12.512  -0.677  1.00  0.00    -0.341 OA
ATOM      4  C   UNL     1     -14.202 -12.746   0.729  1.00  0.00     0.282 C 
ATOM      5  C   UNL     1     -14.860 -14.090   1.166  1.00  0.00     0.202 C 
ATOM      6  C   UNL     1     -15.835 -14.604   0.099  1.00  0.00     0.180 C 
ENDROOT
BRANCH   1   7
ATOM      7  O   UNL     1     -16.075 -14.554  -2.322  1.00  0.00    -0.341 OA
BRANCH   7   8
ATOM      8  C   UNL     1     -17.199 -13.742  -1.987  1.00  0.00     0.282 C 
ATOM      9  C   UNL     1     -19.519 -13.541  -1.977  1.00  0.00     0.178 C 
ATOM     10  C   UNL     1     -19.446 -11.986  -2.102  1.00  0.00     0.177 C 
ATOM     11  O   UNL     1     -18.412 -14.170  -2.595  1.00  0.00    -0.341 OA
ATOM     12  C   UNL     1     -18.167 -11.532  -2.844  1.00  0.00     0.179 C 
ATOM     13  C   UNL     1     -16.906 -12.251  -2.314  1.00  0.00     0.202 C 
BRANCH   9  14
ATOM     14  C   UNL     1     -20.808 -14.097  -2.595  1.00  0.00     0.191 C 
BRANCH  14  15
ATOM     15  O   UNL     1     -20.589 -14.479  -3.930  1.00  0.00    -0.394 OA
ATOM     16  H   UNL     1     -19.644 -14.784  -3.968  1.00  0.00     0.210 HD
ENDBRANCH  14  15
ENDBRANCH   9  14
BRANCH  10  17
ATOM     17  O   UNL     1     -19.544 -11.391  -0.829  1.00  0.00    -0.387 OA
ATOM     18  H   UNL     1     -18.703 -11.582  -0.323  1.00  0.00     0.211 HD
ENDBRANCH  10  17
BRANCH  12  19
ATOM     19  O   UNL     1     -18.026 -10.138  -2.743  1.00  0.00    -0.387 OA
ATOM     20  H   UNL     1     -18.674  -9.733  -3.371  1.00  0.00     0.211 HD
ENDBRANCH  12  19
BRANCH  13  21
ATOM     21  O   UNL     1     -15.877 -12.157  -3.271  1.00  0.00    -0.385 OA
ATOM     22  H   UNL     1     -16.230 -11.629  -4.033  1.00  0.00     0.211 HD
ENDBRANCH  13  21
ENDBRANCH   7   8
ENDBRANCH   1   7
BRANCH   2  23
ATOM     23  C   UNL     1     -12.566 -14.221  -1.279  1.00  0.00     0.191 C 
BRANCH  23  24
ATOM     24  O   UNL     1     -11.941 -14.374  -2.524  1.00  0.00    -0.394 OA
ATOM     25  H   UNL     1     -12.348 -13.715  -3.146  1.00  0.00     0.210 HD
ENDBRANCH  23  24
ENDBRANCH   2  23
BRANCH   6  26
ATOM     26  O   UNL     1     -16.989 -13.795   0.038  1.00  0.00    -0.387 OA
ATOM     27  H   UNL     1     -17.003 -13.199   0.827  1.00  0.00     0.211 HD
ENDBRANCH   6  26
BRANCH   5  28
ATOM     28  O   UNL     1     -15.531 -13.964   2.397  1.00  0.00    -0.385 OA
ATOM     29  H   UNL     1     -15.667 -14.884   2.748  1.00  0.00     0.211 HD
ENDBRANCH   5  28
BRANCH   4  30
ATOM     30  O   UNL     1     -14.892 -11.676   1.356  1.00  0.00    -0.341 OA
BRANCH  30  31
ATOM     31  C   UNL     1     -15.375 -10.698   0.442  1.00  0.00     0.184 C 
ATOM     32  C   UNL     1     -14.392  -9.500   0.412  1.00  0.00     0.178 C 
ATOM     33  C   UNL     1     -16.796 -10.246   0.829  1.00  0.00     0.180 C 
ATOM     34  O   UNL     1     -14.859  -8.395  -0.350  1.00  0.00    -0.342 OA
ATOM     35  C   UNL     1     -17.220  -9.074  -0.064  1.00  0.00     0.201 C 
ATOM     36  C   UNL     1     -16.168  -7.952  -0.015  1.00  0.00     0.279 C 
BRANCH  32  37
ATOM     37  C   UNL     1     -13.775  -9.082   1.768  1.00  0.00     0.191 C 
BRANCH  37  38
ATOM     38  O   UNL     1     -12.640  -9.839   2.100  1.00  0.00    -0.394 OA
ATOM     39  H   UNL     1     -12.891 -10.448   2.838  1.00  0.00     0.210 HD
ENDBRANCH  37  38
ENDBRANCH  32  37
BRANCH  33  40
ATOM     40  O   UNL     1     -17.711 -11.308   0.723  1.00  0.00    -0.387 OA
ATOM     41  H   UNL     1     -17.234 -12.149   0.957  1.00  0.00     0.211 HD
ENDBRANCH  33  40
BRANCH  35  42
ATOM     42  O   UNL     1     -18.468  -8.593   0.360  1.00  0.00    -0.385 OA
ATOM     43  H   UNL     1     -18.328  -7.656   0.657  1.00  0.00     0.211 HD
ENDBRANCH  35  42
BRANCH  36  44
ATOM     44  O   UNL     1     -16.182  -7.308   1.234  1.00  0.00    -0.366 OA
ATOM     45  H   UNL     1     -16.198  -8.033   1.919  1.00  0.00     0.213 HD
ENDBRANCH  36  44
ENDBRANCH  30  31
ENDBRANCH   4  30
TORSDOF 18
ENDMDL
MODEL 8
REMARK VINA RESULT:    -2.438      1.782      5.562
REMARK INTER + INTRA:          -4.766
REMARK INTER:                  -4.423
REMARK INTRA:                  -0.343
REMARK UNBOUND:                -0.547
REMARK SMILES OC[C@@H]1O[C@@H](O[C@H]2[C@H](O)[C@@H](O)[C@@H](O)O[C@H]2CO)[C@@H](O)[C@@H](O)[C@H]1O[C@@H]1O[C@H](CO)[C@@H](O)[C@@H](O)[C@@H]1O
REMARK SMILES IDX 22 1 3 2 4 3 5 4 18 5 20 6 23 7 24 8 26 9 29 10 25 11 31 12
REMARK SMILES IDX 33 13 27 14 28 15 30 17 32 19 34 21 2 23 1 24 21 26 19 28
REMARK SMILES IDX 6 30 7 31 15 32 8 33 14 34 10 35 12 36 16 37 17 38 9 40
REMARK SMILES IDX 11 42 13 44
REMARK H PARENT 28 16 30 18 32 20 34 22 1 25 21 27 19 29 17 39 9 41 11 43
REMARK H PARENT 13 45
REMARK Flexibility Score: inf
ROOT
ATOM      1  C   UNL     1     -18.175 -13.881  -0.593  1.00  0.00     0.184 C 
ATOM      2  C   UNL     1     -18.578 -13.471  -2.041  1.00  0.00     0.178 C 
ATOM      3  O   UNL     1     -17.497 -12.870  -2.737  1.00  0.00    -0.341 OA
ATOM      4  C   UNL     1     -16.407 -13.755  -2.982  1.00  0.00     0.282 C 
ATOM      5  C   UNL     1     -16.086 -14.705  -1.786  1.00  0.00     0.202 C 
ATOM      6  C   UNL     1     -16.650 -14.151  -0.472  1.00  0.00     0.180 C 
ENDROOT
BRANCH   1   7
ATOM      7  O   UNL     1     -18.549 -12.828   0.280  1.00  0.00    -0.341 OA
BRANCH   7   8
ATOM      8  C   UNL     1     -18.182 -11.520  -0.158  1.00  0.00     0.282 C 
ATOM      9  C   UNL     1     -16.755  -9.703   0.128  1.00  0.00     0.178 C 
ATOM     10  C   UNL     1     -17.837  -8.695  -0.373  1.00  0.00     0.177 C 
ATOM     11  O   UNL     1     -17.336 -10.831   0.755  1.00  0.00    -0.341 OA
ATOM     12  C   UNL     1     -19.269  -9.204  -0.081  1.00  0.00     0.179 C 
ATOM     13  C   UNL     1     -19.450 -10.684  -0.487  1.00  0.00     0.202 C 
BRANCH   9  14
ATOM     14  C   UNL     1     -15.781  -9.042   1.112  1.00  0.00     0.191 C 
BRANCH  14  15
ATOM     15  O   UNL     1     -16.283  -7.801   1.543  1.00  0.00    -0.394 OA
ATOM     16  H   UNL     1     -16.462  -7.911   2.515  1.00  0.00     0.210 HD
ENDBRANCH  14  15
ENDBRANCH   9  14
BRANCH  10  17
ATOM     17  O   UNL     1     -17.653  -8.426  -1.744  1.00  0.00    -0.387 OA
ATOM     18  H   UNL     1     -18.496  -8.656  -2.228  1.00  0.00     0.211 HD
ENDBRANCH  10  17
BRANCH  12  19
ATOM     19  O   UNL     1     -20.207  -8.389  -0.736  1.00  0.00    -0.387 OA
ATOM     20  H   UNL     1     -19.938  -8.338  -1.686  1.00  0.00     0.211 HD
ENDBRANCH  12  19
BRANCH  13  21
ATOM     21  O   UNL     1     -20.570 -11.218   0.179  1.00  0.00    -0.385 OA
ATOM     22  H   UNL     1     -21.218 -11.503  -0.516  1.00  0.00     0.211 HD
ENDBRANCH  13  21
ENDBRANCH   7   8
ENDBRANCH   1   7
BRANCH   2  23
ATOM     23  C   UNL     1     -19.263 -14.600  -2.860  1.00  0.00     0.191 C 
BRANCH  23  24
ATOM     24  O   UNL     1     -19.968 -14.059  -3.944  1.00  0.00    -0.394 OA
ATOM     25  H   UNL     1     -20.321 -13.175  -3.661  1.00  0.00     0.210 HD
ENDBRANCH  23  24
ENDBRANCH   2  23
BRANCH   6  26
ATOM     26  O   UNL     1     -15.934 -13.010  -0.055  1.00  0.00    -0.387 OA
ATOM     27  H   UNL     1     -15.848 -12.391  -0.821  1.00  0.00     0.211 HD
ENDBRANCH   6  26
BRANCH   5  28
ATOM     28  O   UNL     1     -14.701 -14.920  -1.652  1.00  0.00    -0.385 OA
ATOM     29  H   UNL     1     -14.570 -15.900  -1.549  1.00  0.00     0.211 HD
ENDBRANCH   5  28
BRANCH   4  30
ATOM     30  O   UNL     1     -15.266 -12.953  -3.245  1.00  0.00    -0.341 OA
BRANCH  30  31
ATOM     31  C   UNL     1     -15.443 -11.583  -2.900  1.00  0.00     0.184 C 
ATOM     32  C   UNL     1     -15.675 -10.760  -4.193  1.00  0.00     0.178 C 
ATOM     33  C   UNL     1     -14.228 -11.058  -2.113  1.00  0.00     0.180 C 
ATOM     34  O   UNL     1     -15.706  -9.355  -3.979  1.00  0.00    -0.342 OA
ATOM     35  C   UNL     1     -14.368  -9.545  -1.907  1.00  0.00     0.201 C 
ATOM     36  C   UNL     1     -14.597  -8.839  -3.255  1.00  0.00     0.279 C 
BRANCH  32  37
ATOM     37  C   UNL     1     -14.834 -11.164  -5.427  1.00  0.00     0.191 C 
BRANCH  37  38
ATOM     38  O   UNL     1     -14.102 -12.345  -5.217  1.00  0.00    -0.394 OA
ATOM     39  H   UNL     1     -13.147 -12.134  -5.360  1.00  0.00     0.210 HD
ENDBRANCH  37  38
ENDBRANCH  32  37
BRANCH  33  40
ATOM     40  O   UNL     1     -14.103 -11.719  -0.877  1.00  0.00    -0.387 OA
ATOM     41  H   UNL     1     -13.181 -12.086  -0.817  1.00  0.00     0.211 HD
ENDBRANCH  33  40
BRANCH  35  42
ATOM     42  O   UNL     1     -13.211  -9.051  -1.286  1.00  0.00    -0.385 OA
ATOM     43  H   UNL     1     -13.498  -8.308  -0.695  1.00  0.00     0.211 HD
ENDBRANCH  35  42
BRANCH  36  44
ATOM     44  O   UNL     1     -13.427  -8.860  -4.035  1.00  0.00    -0.366 OA
ATOM     45  H   UNL     1     -13.267  -7.917  -4.319  1.00  0.00     0.213 HD
ENDBRANCH  36  44
ENDBRANCH  30  31
ENDBRANCH   4  30
TORSDOF 18
ENDMDL
MODEL 9
REMARK VINA RESULT:    -2.293      1.815      5.076
REMARK INTER + INTRA:          -4.515
REMARK INTER:                  -7.318
REMARK INTRA:                   2.802
REMARK UNBOUND:                -0.547
REMARK SMILES OC[C@@H]1O[C@@H](O[C@H]2[C@H](O)[C@@H](O)[C@@H](O)O[C@H]2CO)[C@@H](O)[C@@H](O)[C@H]1O[C@@H]1O[C@H](CO)[C@@H](O)[C@@H](O)[C@@H]1O
REMARK SMILES IDX 22 1 3 2 4 3 5 4 18 5 20 6 23 7 24 8 26 9 29 10 25 11 31 12
REMARK SMILES IDX 33 13 27 14 28 15 30 17 32 19 34 21 2 23 1 24 21 26 19 28
REMARK SMILES IDX 6 30 7 31 15 32 8 33 14 34 10 35 12 36 16 37 17 38 9 40
REMARK SMILES IDX 11 42 13 44
REMARK H PARENT 28 16 30 18 32 20 34 22 1 25 21 27 19 29 17 39 9 41 11 43
REMARK H PARENT 13 45
REMARK Flexibility Score: inf
ROOT
ATOM      1  C   UNL     1     -18.504 -10.806  -2.337  1.00  0.00     0.184 C 
ATOM      2  C   UNL     1     -16.987 -11.129  -2.484  1.00  0.00     0.178 C 
ATOM      3  O   UNL     1     -16.675 -12.420  -1.984  1.00  0.00    -0.341 OA
ATOM      4  C   UNL     1     -17.269 -13.483  -2.725  1.00  0.00     0.282 C 
ATOM      5  C   UNL     1     -18.734 -13.195  -3.176  1.00  0.00     0.202 C 
ATOM      6  C   UNL     1     -19.372 -12.093  -2.320  1.00  0.00     0.180 C 
ENDROOT
BRANCH   1   7
ATOM      7  O   UNL     1     -18.683 -10.087  -1.128  1.00  0.00    -0.341 OA
BRANCH   7   8
ATOM      8  C   UNL     1     -17.700  -9.085  -0.869  1.00  0.00     0.282 C 
ATOM      9  C   UNL     1     -15.540  -8.326  -1.291  1.00  0.00     0.178 C 
ATOM     10  C   UNL     1     -15.435  -7.655   0.115  1.00  0.00     0.177 C 
ATOM     11  O   UNL     1     -16.387  -9.459  -1.270  1.00  0.00    -0.341 OA
ATOM     12  C   UNL     1     -16.309  -8.385   1.163  1.00  0.00     0.179 C 
ATOM     13  C   UNL     1     -17.730  -8.673   0.629  1.00  0.00     0.202 C 
BRANCH   9  14
ATOM     14  C   UNL     1     -14.163  -8.752  -1.817  1.00  0.00     0.191 C 
BRANCH  14  15
ATOM     15  O   UNL     1     -13.934 -10.114  -1.550  1.00  0.00    -0.394 OA
ATOM     16  H   UNL     1     -14.480 -10.610  -2.216  1.00  0.00     0.210 HD
ENDBRANCH  14  15
ENDBRANCH   9  14
BRANCH  10  17
ATOM     17  O   UNL     1     -15.766  -6.288   0.027  1.00  0.00    -0.387 OA
ATOM     18  H   UNL     1     -16.691  -6.162   0.382  1.00  0.00     0.211 HD
ENDBRANCH  10  17
BRANCH  12  19
ATOM     19  O   UNL     1     -16.363  -7.631   2.347  1.00  0.00    -0.387 OA
ATOM     20  H   UNL     1     -17.295  -7.318   2.451  1.00  0.00     0.211 HD
ENDBRANCH  12  19
BRANCH  13  21
ATOM     21  O   UNL     1     -18.322  -9.690   1.402  1.00  0.00    -0.385 OA
ATOM     22  H   UNL     1     -18.559 -10.430   0.784  1.00  0.00     0.211 HD
ENDBRANCH  13  21
ENDBRANCH   7   8
ENDBRANCH   1   7
BRANCH   2  23
ATOM     23  C   UNL     1     -16.413 -10.884  -3.907  1.00  0.00     0.191 C 
BRANCH  23  24
ATOM     24  O   UNL     1     -15.068 -11.274  -3.966  1.00  0.00    -0.394 OA
ATOM     25  H   UNL     1     -14.813 -11.327  -4.925  1.00  0.00     0.210 HD
ENDBRANCH  23  24
ENDBRANCH   2  23
BRANCH   6  26
ATOM     26  O   UNL     1     -19.623 -12.553  -1.011  1.00  0.00    -0.387 OA
ATOM     27  H   UNL     1     -19.640 -11.777  -0.398  1.00  0.00     0.211 HD
ENDBRANCH   6  26
BRANCH   5  28
ATOM     28  O   UNL     1     -19.531 -14.354  -3.125  1.00  0.00    -0.385 OA
ATOM     29  H   UNL     1     -20.059 -14.379  -3.967  1.00  0.00     0.211 HD
ENDBRANCH   5  28
BRANCH   4  30
ATOM     30  O   UNL     1     -17.268 -14.630  -1.887  1.00  0.00    -0.341 OA
BRANCH  30  31
ATOM     31  C   UNL     1     -16.080 -14.768  -1.116  1.00  0.00     0.184 C 
ATOM     32  C   UNL     1     -16.375 -14.359   0.350  1.00  0.00     0.178 C 
ATOM     33  C   UNL     1     -14.940 -13.922  -1.715  1.00  0.00     0.180 C 
ATOM     34  O   UNL     1     -15.218 -14.309   1.174  1.00  0.00    -0.342 OA
ATOM     35  C   UNL     1     -13.732 -13.953  -0.772  1.00  0.00     0.201 C 
ATOM     36  C   UNL     1     -14.148 -13.533   0.649  1.00  0.00     0.279 C 
BRANCH  32  37
ATOM     37  C   UNL     1     -17.313 -13.146   0.550  1.00  0.00     0.191 C 
BRANCH  37  38
ATOM     38  O   UNL     1     -16.610 -11.938   0.691  1.00  0.00    -0.394 OA
ATOM     39  H   UNL     1     -17.276 -11.211   0.772  1.00  0.00     0.210 HD
ENDBRANCH  37  38
ENDBRANCH  32  37
BRANCH  33  40
ATOM     40  O   UNL     1     -14.585 -14.385  -2.994  1.00  0.00    -0.387 OA
ATOM     41  H   UNL     1     -13.836 -13.822  -3.328  1.00  0.00     0.211 HD
ENDBRANCH  33  40
BRANCH  35  42
ATOM     42  O   UNL     1     -12.736 -13.096  -1.263  1.00  0.00    -0.385 OA
ATOM     43  H   UNL     1     -11.952 -13.193  -0.661  1.00  0.00     0.211 HD
ENDBRANCH  35  42
BRANCH  36  44
ATOM     44  O   UNL     1     -14.444 -12.160   0.698  1.00  0.00    -0.366 OA
ATOM     45  H   UNL     1     -14.024 -11.816   1.535  1.00  0.00     0.213 HD
ENDBRANCH  36  44
ENDBRANCH  30  31
ENDBRANCH   4  30
TORSDOF 18
ENDMDL
