MODEL 1
REMARK VINA RESULT:    -7.551      0.000      0.000
REMARK INTER + INTRA:          -9.469
REMARK INTER:                  -9.096
REMARK INTRA:                  -0.373
REMARK UNBOUND:                -0.373
REMARK SMILES Oc1cc(O)c2c(c1)O[C@H](c1ccc(O)c(O)c1)[C@@H](O)C2
REMARK SMILES IDX 21 1 19 2 10 3 9 4 7 5 8 6 2 7 3 8 4 9 6 10 20 11 11 13
REMARK SMILES IDX 18 14 12 15 16 16 13 17 14 18 17 19 15 21 5 23 1 25
REMARK H PARENT 20 12 17 20 15 22 5 24 1 26
REMARK Flexibility Score: inf
ROOT
ATOM      1  C   UNL     1     -35.121  -3.414 -19.918  1.00  0.00     0.079 C 
ATOM      2  C   UNL     1     -35.890  -4.411 -19.030  1.00  0.00     0.164 C 
ATOM      3  C   UNL     1     -35.610  -4.127 -17.541  1.00  0.00     0.232 C 
ATOM      4  O   UNL     1     -34.204  -4.175 -17.300  1.00  0.00    -0.482 OA
ATOM      5  C   UNL     1     -33.270  -3.676 -18.215  1.00  0.00     0.131 A 
ATOM      6  C   UNL     1     -31.930  -3.585 -17.831  1.00  0.00     0.093 A 
ATOM      7  C   UNL     1     -30.975  -3.075 -18.717  1.00  0.00     0.122 A 
ATOM      8  C   UNL     1     -31.366  -2.648 -19.987  1.00  0.00     0.092 A 
ATOM      9  C   UNL     1     -32.704  -2.730 -20.389  1.00  0.00     0.126 A 
ATOM     10  C   UNL     1     -33.667  -3.285 -19.513  1.00  0.00     0.039 A 
ENDROOT
BRANCH   2  11
ATOM     11  O   UNL     1     -37.268  -4.363 -19.311  1.00  0.00    -0.389 OA
ATOM     12  H   UNL     1     -37.627  -5.285 -19.219  1.00  0.00     0.211 HD
ENDBRANCH   2  11
BRANCH   3  13
ATOM     13  C   UNL     1     -36.314  -5.125 -16.652  1.00  0.00    -0.001 A 
ATOM     14  C   UNL     1     -36.015  -6.495 -16.752  1.00  0.00     0.057 A 
ATOM     15  C   UNL     1     -37.235  -4.694 -15.683  1.00  0.00     0.012 A 
ATOM     16  C   UNL     1     -36.644  -7.423 -15.910  1.00  0.00     0.157 A 
ATOM     17  C   UNL     1     -37.863  -5.619 -14.845  1.00  0.00     0.050 A 
ATOM     18  C   UNL     1     -37.571  -6.984 -14.956  1.00  0.00     0.157 A 
BRANCH  16  19
ATOM     19  O   UNL     1     -36.351  -8.782 -16.015  1.00  0.00    -0.504 OA
ATOM     20  H   UNL     1     -37.076  -9.467 -16.195  1.00  0.00     0.293 HD
ENDBRANCH  16  19
BRANCH  18  21
ATOM     21  O   UNL     1     -38.196  -7.910 -14.123  1.00  0.00    -0.504 OA
ATOM     22  H   UNL     1     -37.676  -8.425 -13.421  1.00  0.00     0.293 HD
ENDBRANCH  18  21
ENDBRANCH   3  13
BRANCH   9  23
ATOM     23  O   UNL     1     -33.040  -2.244 -21.655  1.00  0.00    -0.507 OA
ATOM     24  H   UNL     1     -33.940  -1.835 -21.872  1.00  0.00     0.293 HD
ENDBRANCH   9  23
BRANCH   7  25
ATOM     25  O   UNL     1     -29.636  -2.983 -18.342  1.00  0.00    -0.508 OA
ATOM     26  H   UNL     1     -29.022  -3.789 -18.368  1.00  0.00     0.293 HD
ENDBRANCH   7  25
TORSDOF 6
ENDMDL
MODEL 2
REMARK VINA RESULT:    -7.500      1.355      6.989
REMARK INTER + INTRA:          -9.408
REMARK INTER:                  -9.057
REMARK INTRA:                  -0.351
REMARK UNBOUND:                -0.373
REMARK SMILES Oc1cc(O)c2c(c1)O[C@H](c1ccc(O)c(O)c1)[C@@H](O)C2
REMARK SMILES IDX 21 1 19 2 10 3 9 4 7 5 8 6 2 7 3 8 4 9 6 10 20 11 11 13
REMARK SMILES IDX 18 14 12 15 16 16 13 17 14 18 17 19 15 21 5 23 1 25
REMARK H PARENT 20 12 17 20 15 22 5 24 1 26
REMARK Flexibility Score: inf
ROOT
ATOM      1  C   UNL     1     -36.844  -3.451 -15.578  1.00  0.00     0.079 C 
ATOM      2  C   UNL     1     -35.571  -3.016 -16.330  1.00  0.00     0.164 C 
ATOM      3  C   UNL     1     -35.364  -3.891 -17.582  1.00  0.00     0.232 C 
ATOM      4  O   UNL     1     -35.313  -5.266 -17.202  1.00  0.00    -0.482 OA
ATOM      5  C   UNL     1     -36.134  -5.797 -16.201  1.00  0.00     0.131 A 
ATOM      6  C   UNL     1     -36.163  -7.182 -16.015  1.00  0.00     0.093 A 
ATOM      7  C   UNL     1     -36.986  -7.745 -15.034  1.00  0.00     0.122 A 
ATOM      8  C   UNL     1     -37.786  -6.919 -14.243  1.00  0.00     0.092 A 
ATOM      9  C   UNL     1     -37.770  -5.530 -14.415  1.00  0.00     0.126 A 
ATOM     10  C   UNL     1     -36.909  -4.952 -15.377  1.00  0.00     0.039 A 
ENDROOT
BRANCH   2  11
ATOM     11  O   UNL     1     -35.637  -1.651 -16.663  1.00  0.00    -0.389 OA
ATOM     12  H   UNL     1     -35.575  -1.130 -15.819  1.00  0.00     0.211 HD
ENDBRANCH   2  11
BRANCH   3  13
ATOM     13  C   UNL     1     -34.093  -3.515 -18.307  1.00  0.00    -0.001 A 
ATOM     14  C   UNL     1     -34.137  -3.126 -19.656  1.00  0.00     0.057 A 
ATOM     15  C   UNL     1     -32.863  -3.500 -17.629  1.00  0.00     0.012 A 
ATOM     16  C   UNL     1     -32.965  -2.748 -20.326  1.00  0.00     0.157 A 
ATOM     17  C   UNL     1     -31.694  -3.123 -18.296  1.00  0.00     0.050 A 
ATOM     18  C   UNL     1     -31.741  -2.749 -19.645  1.00  0.00     0.157 A 
BRANCH  16  19
ATOM     19  O   UNL     1     -33.009  -2.368 -21.667  1.00  0.00    -0.504 OA
ATOM     20  H   UNL     1     -32.170  -2.326 -22.232  1.00  0.00     0.293 HD
ENDBRANCH  16  19
BRANCH  18  21
ATOM     21  O   UNL     1     -30.577  -2.374 -20.315  1.00  0.00    -0.504 OA
ATOM     22  H   UNL     1     -30.467  -1.445 -20.705  1.00  0.00     0.293 HD
ENDBRANCH  18  21
ENDBRANCH   3  13
BRANCH   9  23
ATOM     23  O   UNL     1     -38.627  -4.761 -13.624  1.00  0.00    -0.507 OA
ATOM     24  H   UNL     1     -38.907  -3.819 -13.862  1.00  0.00     0.293 HD
ENDBRANCH   9  23
BRANCH   7  25
ATOM     25  O   UNL     1     -37.019  -9.124 -14.842  1.00  0.00    -0.508 OA
ATOM     26  H   UNL     1     -36.198  -9.638 -14.545  1.00  0.00     0.293 HD
ENDBRANCH   7  25
TORSDOF 6
ENDMDL
MODEL 3
REMARK VINA RESULT:    -7.322      0.789      1.507
REMARK INTER + INTRA:          -9.194
REMARK INTER:                  -8.910
REMARK INTRA:                  -0.284
REMARK UNBOUND:                -0.373
REMARK SMILES Oc1cc(O)c2c(c1)O[C@H](c1ccc(O)c(O)c1)[C@@H](O)C2
REMARK SMILES IDX 21 1 19 2 10 3 9 4 7 5 8 6 2 7 3 8 4 9 6 10 20 11 11 13
REMARK SMILES IDX 18 14 12 15 16 16 13 17 14 18 17 19 15 21 5 23 1 25
REMARK H PARENT 20 12 17 20 15 22 5 24 1 26
REMARK Flexibility Score: inf
ROOT
ATOM      1  C   UNL     1     -35.188  -3.505 -20.076  1.00  0.00     0.079 C 
ATOM      2  C   UNL     1     -35.986  -4.551 -19.272  1.00  0.00     0.164 C 
ATOM      3  C   UNL     1     -35.817  -4.304 -17.759  1.00  0.00     0.232 C 
ATOM      4  O   UNL     1     -34.430  -4.320 -17.423  1.00  0.00    -0.482 OA
ATOM      5  C   UNL     1     -33.451  -3.766 -18.255  1.00  0.00     0.131 A 
ATOM      6  C   UNL     1     -32.144  -3.648 -17.777  1.00  0.00     0.093 A 
ATOM      7  C   UNL     1     -31.147  -3.085 -18.579  1.00  0.00     0.122 A 
ATOM      8  C   UNL     1     -31.462  -2.630 -19.860  1.00  0.00     0.092 A 
ATOM      9  C   UNL     1     -32.766  -2.739 -20.357  1.00  0.00     0.126 A 
ATOM     10  C   UNL     1     -33.770  -3.347 -19.566  1.00  0.00     0.039 A 
ENDROOT
BRANCH   2  11
ATOM     11  O   UNL     1     -37.341  -4.533 -19.647  1.00  0.00    -0.389 OA
ATOM     12  H   UNL     1     -37.456  -5.179 -20.394  1.00  0.00     0.211 HD
ENDBRANCH   2  11
BRANCH   3  13
ATOM     13  C   UNL     1     -36.550  -5.349 -16.951  1.00  0.00    -0.001 A 
ATOM     14  C   UNL     1     -37.832  -5.079 -16.442  1.00  0.00     0.057 A 
ATOM     15  C   UNL     1     -35.982  -6.617 -16.742  1.00  0.00     0.012 A 
ATOM     16  C   UNL     1     -38.528  -6.056 -15.716  1.00  0.00     0.157 A 
ATOM     17  C   UNL     1     -36.676  -7.591 -16.018  1.00  0.00     0.050 A 
ATOM     18  C   UNL     1     -37.948  -7.313 -15.502  1.00  0.00     0.157 A 
BRANCH  16  19
ATOM     19  O   UNL     1     -39.797  -5.785 -15.206  1.00  0.00    -0.504 OA
ATOM     20  H   UNL     1     -39.970  -4.978 -14.619  1.00  0.00     0.293 HD
ENDBRANCH  16  19
BRANCH  18  21
ATOM     21  O   UNL     1     -38.643  -8.280 -14.778  1.00  0.00    -0.504 OA
ATOM     22  H   UNL     1     -38.259  -9.206 -14.627  1.00  0.00     0.293 HD
ENDBRANCH  18  21
ENDBRANCH   3  13
BRANCH   9  23
ATOM     23  O   UNL     1     -33.029  -2.224 -21.629  1.00  0.00    -0.507 OA
ATOM     24  H   UNL     1     -33.964  -2.089 -21.991  1.00  0.00     0.293 HD
ENDBRANCH   9  23
BRANCH   7  25
ATOM     25  O   UNL     1     -29.841  -2.966 -18.109  1.00  0.00    -0.508 OA
ATOM     26  H   UNL     1     -29.636  -2.534 -17.216  1.00  0.00     0.293 HD
ENDBRANCH   7  25
TORSDOF 6
ENDMDL
MODEL 4
REMARK VINA RESULT:    -7.117      1.858      6.839
REMARK INTER + INTRA:          -8.946
REMARK INTER:                  -9.100
REMARK INTRA:                   0.153
REMARK UNBOUND:                -0.373
REMARK SMILES Oc1cc(O)c2c(c1)O[C@H](c1ccc(O)c(O)c1)[C@@H](O)C2
REMARK SMILES IDX 21 1 19 2 10 3 9 4 7 5 8 6 2 7 3 8 4 9 6 10 20 11 11 13
REMARK SMILES IDX 18 14 12 15 16 16 13 17 14 18 17 19 15 21 5 23 1 25
REMARK H PARENT 20 12 17 20 15 22 5 24 1 26
REMARK Flexibility Score: inf
ROOT
ATOM      1  C   UNL     1     -36.742  -5.376 -17.974  1.00  0.00     0.079 C 
ATOM      2  C   UNL     1     -35.641  -4.687 -18.804  1.00  0.00     0.164 C 
ATOM      3  C   UNL     1     -34.401  -4.419 -17.928  1.00  0.00     0.232 C 
ATOM      4  O   UNL     1     -34.777  -3.640 -16.793  1.00  0.00    -0.482 OA
ATOM      5  C   UNL     1     -35.985  -3.838 -16.115  1.00  0.00     0.131 A 
ATOM      6  C   UNL     1     -36.199  -3.172 -14.905  1.00  0.00     0.093 A 
ATOM      7  C   UNL     1     -37.390  -3.361 -14.197  1.00  0.00     0.122 A 
ATOM      8  C   UNL     1     -38.364  -4.226 -14.697  1.00  0.00     0.092 A 
ATOM      9  C   UNL     1     -38.167  -4.902 -15.907  1.00  0.00     0.126 A 
ATOM     10  C   UNL     1     -36.983  -4.682 -16.649  1.00  0.00     0.039 A 
ENDROOT
BRANCH   2  11
ATOM     11  O   UNL     1     -35.315  -5.462 -19.932  1.00  0.00    -0.389 OA
ATOM     12  H   UNL     1     -35.204  -4.844 -20.702  1.00  0.00     0.211 HD
ENDBRANCH   2  11
BRANCH   3  13
ATOM     13  C   UNL     1     -33.328  -3.697 -18.709  1.00  0.00    -0.001 A 
ATOM     14  C   UNL     1     -33.602  -3.196 -19.992  1.00  0.00     0.057 A 
ATOM     15  C   UNL     1     -32.061  -3.475 -18.142  1.00  0.00     0.012 A 
ATOM     16  C   UNL     1     -32.618  -2.501 -20.709  1.00  0.00     0.157 A 
ATOM     17  C   UNL     1     -31.080  -2.782 -18.857  1.00  0.00     0.050 A 
ATOM     18  C   UNL     1     -31.354  -2.295 -20.141  1.00  0.00     0.157 A 
BRANCH  16  19
ATOM     19  O   UNL     1     -32.890  -2.009 -21.985  1.00  0.00    -0.504 OA
ATOM     20  H   UNL     1     -32.996  -2.629 -22.780  1.00  0.00     0.293 HD
ENDBRANCH  16  19
BRANCH  18  21
ATOM     21  O   UNL     1     -30.379  -1.605 -20.858  1.00  0.00    -0.504 OA
ATOM     22  H   UNL     1     -29.768  -0.933 -20.409  1.00  0.00     0.293 HD
ENDBRANCH  18  21
ENDBRANCH   3  13
BRANCH   9  23
ATOM     23  O   UNL     1     -39.160  -5.789 -16.331  1.00  0.00    -0.507 OA
ATOM     24  H   UNL     1     -39.137  -6.782 -16.140  1.00  0.00     0.293 HD
ENDBRANCH   9  23
BRANCH   7  25
ATOM     25  O   UNL     1     -37.611  -2.699 -12.991  1.00  0.00    -0.508 OA
ATOM     26  H   UNL     1     -37.904  -1.730 -12.964  1.00  0.00     0.293 HD
ENDBRANCH   7  25
TORSDOF 6
ENDMDL
MODEL 5
REMARK VINA RESULT:    -7.063      1.384      6.929
REMARK INTER + INTRA:          -8.882
REMARK INTER:                  -8.554
REMARK INTRA:                  -0.328
REMARK UNBOUND:                -0.373
REMARK SMILES Oc1cc(O)c2c(c1)O[C@H](c1ccc(O)c(O)c1)[C@@H](O)C2
REMARK SMILES IDX 21 1 19 2 10 3 9 4 7 5 8 6 2 7 3 8 4 9 6 10 20 11 11 13
REMARK SMILES IDX 18 14 12 15 16 16 13 17 14 18 17 19 15 21 5 23 1 25
REMARK H PARENT 20 12 17 20 15 22 5 24 1 26
REMARK Flexibility Score: inf
ROOT
ATOM      1  C   UNL     1     -36.898  -3.460 -15.636  1.00  0.00     0.079 C 
ATOM      2  C   UNL     1     -35.627  -3.042 -16.400  1.00  0.00     0.164 C 
ATOM      3  C   UNL     1     -35.436  -3.929 -17.646  1.00  0.00     0.232 C 
ATOM      4  O   UNL     1     -35.395  -5.301 -17.256  1.00  0.00    -0.482 OA
ATOM      5  C   UNL     1     -36.213  -5.817 -16.245  1.00  0.00     0.131 A 
ATOM      6  C   UNL     1     -36.254  -7.200 -16.048  1.00  0.00     0.093 A 
ATOM      7  C   UNL     1     -37.074  -7.747 -15.056  1.00  0.00     0.122 A 
ATOM      8  C   UNL     1     -37.861  -6.908 -14.266  1.00  0.00     0.092 A 
ATOM      9  C   UNL     1     -37.834  -5.521 -14.449  1.00  0.00     0.126 A 
ATOM     10  C   UNL     1     -36.975  -4.958 -15.422  1.00  0.00     0.039 A 
ENDROOT
BRANCH   2  11
ATOM     11  O   UNL     1     -35.683  -1.679 -16.743  1.00  0.00    -0.389 OA
ATOM     12  H   UNL     1     -35.059  -1.533 -17.503  1.00  0.00     0.211 HD
ENDBRANCH   2  11
BRANCH   3  13
ATOM     13  C   UNL     1     -34.167  -3.570 -18.383  1.00  0.00    -0.001 A 
ATOM     14  C   UNL     1     -32.950  -3.470 -17.688  1.00  0.00     0.057 A 
ATOM     15  C   UNL     1     -34.179  -3.382 -19.776  1.00  0.00     0.012 A 
ATOM     16  C   UNL     1     -31.765  -3.165 -18.372  1.00  0.00     0.157 A 
ATOM     17  C   UNL     1     -32.998  -3.078 -20.457  1.00  0.00     0.050 A 
ATOM     18  C   UNL     1     -31.789  -2.967 -19.759  1.00  0.00     0.157 A 
BRANCH  16  19
ATOM     19  O   UNL     1     -30.559  -3.059 -17.681  1.00  0.00    -0.504 OA
ATOM     20  H   UNL     1     -29.833  -3.760 -17.771  1.00  0.00     0.293 HD
ENDBRANCH  16  19
BRANCH  18  21
ATOM     21  O   UNL     1     -30.608  -2.662 -20.434  1.00  0.00    -0.504 OA
ATOM     22  H   UNL     1     -30.127  -3.354 -20.997  1.00  0.00     0.293 HD
ENDBRANCH  18  21
ENDBRANCH   3  13
BRANCH   9  23
ATOM     23  O   UNL     1     -38.679  -4.738 -13.659  1.00  0.00    -0.507 OA
ATOM     24  H   UNL     1     -38.477  -4.502 -12.696  1.00  0.00     0.293 HD
ENDBRANCH   9  23
BRANCH   7  25
ATOM     25  O   UNL     1     -37.118  -9.125 -14.853  1.00  0.00    -0.508 OA
ATOM     26  H   UNL     1     -37.983  -9.599 -14.620  1.00  0.00     0.293 HD
ENDBRANCH   7  25
TORSDOF 6
ENDMDL
MODEL 6
REMARK VINA RESULT:    -6.929      5.396      8.273
REMARK INTER + INTRA:          -8.720
REMARK INTER:                  -8.343
REMARK INTRA:                  -0.377
REMARK UNBOUND:                -0.373
REMARK SMILES Oc1cc(O)c2c(c1)O[C@H](c1ccc(O)c(O)c1)[C@@H](O)C2
REMARK SMILES IDX 21 1 19 2 10 3 9 4 7 5 8 6 2 7 3 8 4 9 6 10 20 11 11 13
REMARK SMILES IDX 18 14 12 15 16 16 13 17 14 18 17 19 15 21 5 23 1 25
REMARK H PARENT 20 12 17 20 15 22 5 24 1 26
REMARK Flexibility Score: inf
ROOT
ATOM      1  C   UNL     1     -36.187  -6.408 -13.844  1.00  0.00     0.079 C 
ATOM      2  C   UNL     1     -36.251  -4.879 -13.666  1.00  0.00     0.164 C 
ATOM      3  C   UNL     1     -37.252  -4.511 -12.553  1.00  0.00     0.232 C 
ATOM      4  O   UNL     1     -38.532  -5.065 -12.858  1.00  0.00    -0.482 OA
ATOM      5  C   UNL     1     -38.682  -6.330 -13.436  1.00  0.00     0.131 A 
ATOM      6  C   UNL     1     -39.962  -6.883 -13.530  1.00  0.00     0.093 A 
ATOM      7  C   UNL     1     -40.142  -8.153 -14.088  1.00  0.00     0.122 A 
ATOM      8  C   UNL     1     -39.038  -8.873 -14.544  1.00  0.00     0.092 A 
ATOM      9  C   UNL     1     -37.748  -8.336 -14.457  1.00  0.00     0.126 A 
ATOM     10  C   UNL     1     -37.564  -7.035 -13.933  1.00  0.00     0.039 A 
ENDROOT
BRANCH   2  11
ATOM     11  O   UNL     1     -34.972  -4.359 -13.398  1.00  0.00    -0.389 OA
ATOM     12  H   UNL     1     -34.335  -4.778 -14.036  1.00  0.00     0.211 HD
ENDBRANCH   2  11
BRANCH   3  13
ATOM     13  C   UNL     1     -37.369  -3.013 -12.397  1.00  0.00    -0.001 A 
ATOM     14  C   UNL     1     -37.917  -2.235 -13.430  1.00  0.00     0.057 A 
ATOM     15  C   UNL     1     -36.980  -2.388 -11.200  1.00  0.00     0.012 A 
ATOM     16  C   UNL     1     -38.054  -0.848 -13.279  1.00  0.00     0.157 A 
ATOM     17  C   UNL     1     -37.116  -1.005 -11.049  1.00  0.00     0.050 A 
ATOM     18  C   UNL     1     -37.651  -0.231 -12.087  1.00  0.00     0.157 A 
BRANCH  16  19
ATOM     19  O   UNL     1     -38.592  -0.075 -14.307  1.00  0.00    -0.504 OA
ATOM     20  H   UNL     1     -38.973  -0.500 -15.145  1.00  0.00     0.293 HD
ENDBRANCH  16  19
BRANCH  18  21
ATOM     21  O   UNL     1     -37.787   1.148 -11.942  1.00  0.00    -0.504 OA
ATOM     22  H   UNL     1     -37.525   1.618 -11.084  1.00  0.00     0.293 HD
ENDBRANCH  18  21
ENDBRANCH   3  13
BRANCH   9  23
ATOM     23  O   UNL     1     -36.678  -9.125 -14.889  1.00  0.00    -0.507 OA
ATOM     24  H   UNL     1     -36.610 -10.117 -14.703  1.00  0.00     0.293 HD
ENDBRANCH   9  23
BRANCH   7  25
ATOM     25  O   UNL     1     -41.416  -8.709 -14.188  1.00  0.00    -0.508 OA
ATOM     26  H   UNL     1     -42.199  -8.341 -13.661  1.00  0.00     0.293 HD
ENDBRANCH   7  25
TORSDOF 6
ENDMDL
MODEL 7
REMARK VINA RESULT:    -6.911      2.372      7.176
REMARK INTER + INTRA:          -8.699
REMARK INTER:                  -8.544
REMARK INTRA:                  -0.154
REMARK UNBOUND:                -0.373
REMARK SMILES Oc1cc(O)c2c(c1)O[C@H](c1ccc(O)c(O)c1)[C@@H](O)C2
REMARK SMILES IDX 21 1 19 2 10 3 9 4 7 5 8 6 2 7 3 8 4 9 6 10 20 11 11 13
REMARK SMILES IDX 18 14 12 15 16 16 13 17 14 18 17 19 15 21 5 23 1 25
REMARK H PARENT 20 12 17 20 15 22 5 24 1 26
REMARK Flexibility Score: inf
ROOT
ATOM      1  C   UNL     1     -38.258  -3.843 -15.700  1.00  0.00     0.079 C 
ATOM      2  C   UNL     1     -37.136  -3.796 -16.756  1.00  0.00     0.164 C 
ATOM      3  C   UNL     1     -37.317  -4.934 -17.780  1.00  0.00     0.232 C 
ATOM      4  O   UNL     1     -37.356  -6.188 -17.100  1.00  0.00    -0.482 OA
ATOM      5  C   UNL     1     -37.998  -6.353 -15.868  1.00  0.00     0.131 A 
ATOM      6  C   UNL     1     -38.159  -7.643 -15.356  1.00  0.00     0.093 A 
ATOM      7  C   UNL     1     -38.811  -7.842 -14.135  1.00  0.00     0.122 A 
ATOM      8  C   UNL     1     -39.310  -6.746 -13.429  1.00  0.00     0.092 A 
ATOM      9  C   UNL     1     -39.159  -5.446 -13.926  1.00  0.00     0.126 A 
ATOM     10  C   UNL     1     -38.464  -5.235 -15.140  1.00  0.00     0.039 A 
ENDROOT
BRANCH   2  11
ATOM     11  O   UNL     1     -37.102  -2.538 -17.385  1.00  0.00    -0.389 OA
ATOM     12  H   UNL     1     -36.174  -2.190 -17.316  1.00  0.00     0.211 HD
ENDBRANCH   2  11
BRANCH   3  13
ATOM     13  C   UNL     1     -36.198  -4.938 -18.795  1.00  0.00    -0.001 A 
ATOM     14  C   UNL     1     -36.448  -5.328 -20.121  1.00  0.00     0.057 A 
ATOM     15  C   UNL     1     -34.910  -4.505 -18.438  1.00  0.00     0.012 A 
ATOM     16  C   UNL     1     -35.419  -5.306 -21.074  1.00  0.00     0.157 A 
ATOM     17  C   UNL     1     -33.884  -4.484 -19.388  1.00  0.00     0.050 A 
ATOM     18  C   UNL     1     -34.135  -4.885 -20.706  1.00  0.00     0.157 A 
BRANCH  16  19
ATOM     19  O   UNL     1     -35.667  -5.700 -22.388  1.00  0.00    -0.504 OA
ATOM     20  H   UNL     1     -35.791  -6.675 -22.635  1.00  0.00     0.293 HD
ENDBRANCH  16  19
BRANCH  18  21
ATOM     21  O   UNL     1     -33.115  -4.867 -21.656  1.00  0.00    -0.504 OA
ATOM     22  H   UNL     1     -32.465  -4.092 -21.719  1.00  0.00     0.293 HD
ENDBRANCH  18  21
ENDBRANCH   3  13
BRANCH   9  23
ATOM     23  O   UNL     1     -39.721  -4.395 -13.197  1.00  0.00    -0.507 OA
ATOM     24  H   UNL     1     -39.816  -4.407 -12.190  1.00  0.00     0.293 HD
ENDBRANCH   9  23
BRANCH   7  25
ATOM     25  O   UNL     1     -38.973  -9.125 -13.617  1.00  0.00    -0.508 OA
ATOM     26  H   UNL     1     -39.850  -9.625 -13.704  1.00  0.00     0.293 HD
ENDBRANCH   7  25
TORSDOF 6
ENDMDL
MODEL 8
REMARK VINA RESULT:    -6.804      2.891      7.551
REMARK INTER + INTRA:          -8.569
REMARK INTER:                  -8.205
REMARK INTRA:                  -0.364
REMARK UNBOUND:                -0.373
REMARK SMILES Oc1cc(O)c2c(c1)O[C@H](c1ccc(O)c(O)c1)[C@@H](O)C2
REMARK SMILES IDX 21 1 19 2 10 3 9 4 7 5 8 6 2 7 3 8 4 9 6 10 20 11 11 13
REMARK SMILES IDX 18 14 12 15 16 16 13 17 14 18 17 19 15 21 5 23 1 25
REMARK H PARENT 20 12 17 20 15 22 5 24 1 26
REMARK Flexibility Score: inf
ROOT
ATOM      1  C   UNL     1     -39.162  -6.248 -14.383  1.00  0.00     0.079 C 
ATOM      2  C   UNL     1     -38.597  -5.671 -15.696  1.00  0.00     0.164 C 
ATOM      3  C   UNL     1     -37.170  -5.131 -15.471  1.00  0.00     0.232 C 
ATOM      4  O   UNL     1     -37.185  -4.160 -14.426  1.00  0.00    -0.482 OA
ATOM      5  C   UNL     1     -37.983  -4.299 -13.285  1.00  0.00     0.131 A 
ATOM      6  C   UNL     1     -37.804  -3.410 -12.222  1.00  0.00     0.093 A 
ATOM      7  C   UNL     1     -38.575  -3.533 -11.062  1.00  0.00     0.122 A 
ATOM      8  C   UNL     1     -39.521  -4.554 -10.963  1.00  0.00     0.092 A 
ATOM      9  C   UNL     1     -39.714  -5.455 -12.018  1.00  0.00     0.126 A 
ATOM     10  C   UNL     1     -38.967  -5.309 -13.210  1.00  0.00     0.039 A 
ENDROOT
BRANCH   2  11
ATOM     11  O   UNL     1     -38.625  -6.641 -16.714  1.00  0.00    -0.389 OA
ATOM     12  H   UNL     1     -39.228  -6.309 -17.431  1.00  0.00     0.211 HD
ENDBRANCH   2  11
BRANCH   3  13
ATOM     13  C   UNL     1     -36.616  -4.514 -16.734  1.00  0.00    -0.001 A 
ATOM     14  C   UNL     1     -35.452  -5.035 -17.324  1.00  0.00     0.057 A 
ATOM     15  C   UNL     1     -37.284  -3.447 -17.359  1.00  0.00     0.012 A 
ATOM     16  C   UNL     1     -34.950  -4.484 -18.511  1.00  0.00     0.157 A 
ATOM     17  C   UNL     1     -36.782  -2.897 -18.542  1.00  0.00     0.050 A 
ATOM     18  C   UNL     1     -35.615  -3.412 -19.120  1.00  0.00     0.157 A 
BRANCH  16  19
ATOM     19  O   UNL     1     -33.791  -4.997 -19.092  1.00  0.00    -0.504 OA
ATOM     20  H   UNL     1     -33.715  -5.975 -19.347  1.00  0.00     0.293 HD
ENDBRANCH  16  19
BRANCH  18  21
ATOM     21  O   UNL     1     -35.111  -2.866 -20.299  1.00  0.00    -0.504 OA
ATOM     22  H   UNL     1     -35.636  -2.185 -20.834  1.00  0.00     0.293 HD
ENDBRANCH  18  21
ENDBRANCH   3  13
BRANCH   9  23
ATOM     23  O   UNL     1     -40.643  -6.483 -11.840  1.00  0.00    -0.507 OA
ATOM     24  H   UNL     1     -41.313  -6.754 -12.548  1.00  0.00     0.293 HD
ENDBRANCH   9  23
BRANCH   7  25
ATOM     25  O   UNL     1     -38.404  -2.649  -9.999  1.00  0.00    -0.508 OA
ATOM     26  H   UNL     1     -39.124  -1.984  -9.740  1.00  0.00     0.293 HD
ENDBRANCH   7  25
TORSDOF 6
ENDMDL
MODEL 9
REMARK VINA RESULT:    -6.695      2.028      7.459
REMARK INTER + INTRA:          -8.438
REMARK INTER:                  -8.217
REMARK INTRA:                  -0.221
REMARK UNBOUND:                -0.373
REMARK SMILES Oc1cc(O)c2c(c1)O[C@H](c1ccc(O)c(O)c1)[C@@H](O)C2
REMARK SMILES IDX 21 1 19 2 10 3 9 4 7 5 8 6 2 7 3 8 4 9 6 10 20 11 11 13
REMARK SMILES IDX 18 14 12 15 16 16 13 17 14 18 17 19 15 21 5 23 1 25
REMARK H PARENT 20 12 17 20 15 22 5 24 1 26
REMARK Flexibility Score: inf
ROOT
ATOM      1  C   UNL     1     -38.139  -3.546 -14.140  1.00  0.00     0.079 C 
ATOM      2  C   UNL     1     -36.961  -3.305 -15.104  1.00  0.00     0.164 C 
ATOM      3  C   UNL     1     -37.230  -3.990 -16.458  1.00  0.00     0.232 C 
ATOM      4  O   UNL     1     -37.472  -5.382 -16.252  1.00  0.00    -0.482 OA
ATOM      5  C   UNL     1     -38.201  -5.861 -15.158  1.00  0.00     0.131 A 
ATOM      6  C   UNL     1     -38.559  -7.211 -15.122  1.00  0.00     0.093 A 
ATOM      7  C   UNL     1     -39.301  -7.716 -14.050  1.00  0.00     0.122 A 
ATOM      8  C   UNL     1     -39.693  -6.865 -13.016  1.00  0.00     0.092 A 
ATOM      9  C   UNL     1     -39.344  -5.509 -13.034  1.00  0.00     0.126 A 
ATOM     10  C   UNL     1     -38.557  -5.001 -14.095  1.00  0.00     0.039 A 
ENDROOT
BRANCH   2  11
ATOM     11  O   UNL     1     -36.726  -1.928 -15.262  1.00  0.00    -0.389 OA
ATOM     12  H   UNL     1     -37.419  -1.572 -15.880  1.00  0.00     0.211 HD
ENDBRANCH   2  11
BRANCH   3  13
ATOM     13  C   UNL     1     -36.064  -3.810 -17.402  1.00  0.00    -0.001 A 
ATOM     14  C   UNL     1     -34.747  -3.856 -16.916  1.00  0.00     0.057 A 
ATOM     15  C   UNL     1     -36.281  -3.646 -18.781  1.00  0.00     0.012 A 
ATOM     16  C   UNL     1     -33.661  -3.719 -17.792  1.00  0.00     0.157 A 
ATOM     17  C   UNL     1     -35.198  -3.509 -19.654  1.00  0.00     0.050 A 
ATOM     18  C   UNL     1     -33.887  -3.542 -19.163  1.00  0.00     0.157 A 
BRANCH  16  19
ATOM     19  O   UNL     1     -32.354  -3.758 -17.307  1.00  0.00    -0.504 OA
ATOM     20  H   UNL     1     -31.954  -4.609 -16.931  1.00  0.00     0.293 HD
ENDBRANCH  16  19
BRANCH  18  21
ATOM     21  O   UNL     1     -32.804  -3.404 -20.029  1.00  0.00    -0.504 OA
ATOM     22  H   UNL     1     -32.935  -3.318 -21.031  1.00  0.00     0.293 HD
ENDBRANCH  18  21
ENDBRANCH   3  13
BRANCH   9  23
ATOM     23  O   UNL     1     -39.805  -4.699 -11.993  1.00  0.00    -0.507 OA
ATOM     24  H   UNL     1     -39.354  -3.837 -11.719  1.00  0.00     0.293 HD
ENDBRANCH   9  23
BRANCH   7  25
ATOM     25  O   UNL     1     -39.660  -9.062 -14.007  1.00  0.00    -0.508 OA
ATOM     26  H   UNL     1     -40.560  -9.382 -14.346  1.00  0.00     0.293 HD
ENDBRANCH   7  25
TORSDOF 6
ENDMDL
