MODEL 1
REMARK VINA RESULT:    -3.202      0.000      0.000
REMARK INTER + INTRA:         -10.013
REMARK INTER:                  -8.068
REMARK INTRA:                  -1.945
REMARK UNBOUND:                -1.945
REMARK SMILES CCCCCCCCCCCCCCCCCCCCCCCCCCCC(=O)[O-]
REMARK SMILES IDX 15 1 16 2 17 3 18 4 19 5 20 6 21 7 22 8 23 9 24 10 25 11
REMARK SMILES IDX 26 12 27 13 28 14 29 15 30 16 14 17 13 18 12 19 11 20 10 21
REMARK SMILES IDX 9 22 8 23 7 24 6 25 5 26 4 27 3 28 2 29 1 30
REMARK H PARENT
REMARK Flexibility Score: inf
ROOT
ATOM      1  C   UNL     1      43.936  28.097   2.579  1.00  0.00     0.000 C 
ENDROOT
BRANCH   1   2
ATOM      2  C   UNL     1      45.095  27.585   1.699  1.00  0.00     0.000 C 
BRANCH   2   3
ATOM      3  C   UNL     1      45.493  28.525   0.544  1.00  0.00     0.000 C 
BRANCH   3   4
ATOM      4  C   UNL     1      46.878  28.250  -0.078  1.00  0.00     0.000 C 
BRANCH   4   5
ATOM      5  C   UNL     1      46.928  28.331  -1.614  1.00  0.00     0.000 C 
BRANCH   5   6
ATOM      6  C   UNL     1      46.381  29.662  -2.160  1.00  0.00     0.000 C 
BRANCH   6   7
ATOM      7  C   UNL     1      47.092  30.098  -3.452  1.00  0.00     0.000 C 
BRANCH   7   8
ATOM      8  C   UNL     1      46.288  29.734  -4.710  1.00  0.00     0.000 C 
BRANCH   8   9
ATOM      9  C   UNL     1      46.351  28.225  -4.989  1.00  0.00     0.000 C 
BRANCH   9  10
ATOM     10  C   UNL     1      46.032  27.886  -6.455  1.00  0.00     0.000 C 
BRANCH  10  11
ATOM     11  C   UNL     1      44.915  28.776  -7.029  1.00  0.00     0.000 C 
BRANCH  11  12
ATOM     12  C   UNL     1      43.510  28.212  -6.764  1.00  0.00     0.006 C 
BRANCH  12  13
ATOM     13  C   UNL     1      42.692  29.081  -5.798  1.00  0.00     0.053 C 
BRANCH  13  14
ATOM     14  C   UNL     1      42.776  28.538  -4.406  1.00  0.00     0.041 C 
ATOM     15  O   UNL     1      42.708  29.316  -3.418  1.00  0.00    -0.550 OA
ATOM     16  O   UNL     1      42.967  27.177  -4.200  1.00  0.00    -0.550 OA
ENDBRANCH  13  14
ENDBRANCH  12  13
ENDBRANCH  11  12
ENDBRANCH  10  11
ENDBRANCH   9  10
ENDBRANCH   8   9
ENDBRANCH   7   8
ENDBRANCH   6   7
ENDBRANCH   5   6
ENDBRANCH   4   5
ENDBRANCH   3   4
ENDBRANCH   2   3
ENDBRANCH   1   2
BRANCH   1  17
ATOM     17  C   UNL     1      44.018  29.589   2.957  1.00  0.00     0.000 C 
BRANCH  17  18
ATOM     18  C   UNL     1      44.850  29.896   4.215  1.00  0.00     0.000 C 
BRANCH  18  19
ATOM     19  C   UNL     1      46.311  29.441   4.088  1.00  0.00     0.000 C 
BRANCH  19  20
ATOM     20  C   UNL     1      47.125  29.850   5.324  1.00  0.00     0.000 C 
BRANCH  20  21
ATOM     21  C   UNL     1      47.105  28.778   6.425  1.00  0.00     0.000 C 
BRANCH  21  22
ATOM     22  C   UNL     1      46.779  27.378   5.883  1.00  0.00    -0.000 C 
BRANCH  22  23
ATOM     23  C   UNL     1      45.710  26.693   6.748  1.00  0.00    -0.000 C 
BRANCH  23  24
ATOM     24  C   UNL     1      45.475  27.413   8.085  1.00  0.00    -0.000 C 
BRANCH  24  25
ATOM     25  C   UNL     1      46.054  26.641   9.281  1.00  0.00    -0.000 C 
BRANCH  25  26
ATOM     26  C   UNL     1      46.299  27.579  10.473  1.00  0.00    -0.000 C 
BRANCH  26  27
ATOM     27  C   UNL     1      47.017  28.875  10.068  1.00  0.00    -0.000 C 
BRANCH  27  28
ATOM     28  C   UNL     1      46.149  30.125  10.282  1.00  0.00    -0.000 C 
BRANCH  28  29
ATOM     29  C   UNL     1      44.660  29.785  10.155  1.00  0.00    -0.003 C 
ATOM     30  C   UNL     1      43.908  30.109  11.442  1.00  0.00     0.004 C 
ENDBRANCH  28  29
ENDBRANCH  27  28
ENDBRANCH  26  27
ENDBRANCH  25  26
ENDBRANCH  24  25
ENDBRANCH  23  24
ENDBRANCH  22  23
ENDBRANCH  21  22
ENDBRANCH  20  21
ENDBRANCH  19  20
ENDBRANCH  18  19
ENDBRANCH  17  18
ENDBRANCH   1  17
TORSDOF 26
ENDMDL
MODEL 2
REMARK VINA RESULT:    -2.090      3.935     11.718
REMARK INTER + INTRA:          -7.211
REMARK INTER:                  -6.770
REMARK INTRA:                  -0.441
REMARK UNBOUND:                -1.945
REMARK SMILES CCCCCCCCCCCCCCCCCCCCCCCCCCCC(=O)[O-]
REMARK SMILES IDX 15 1 16 2 17 3 18 4 19 5 20 6 21 7 22 8 23 9 24 10 25 11
REMARK SMILES IDX 26 12 27 13 28 14 29 15 30 16 14 17 13 18 12 19 11 20 10 21
REMARK SMILES IDX 9 22 8 23 7 24 6 25 5 26 4 27 3 28 2 29 1 30
REMARK H PARENT
REMARK Flexibility Score: inf
ROOT
ATOM      1  C   UNL     1      44.840  28.680  -0.423  1.00  0.00     0.000 C 
ENDROOT
BRANCH   1   2
ATOM      2  C   UNL     1      45.748  29.905  -0.653  1.00  0.00     0.000 C 
BRANCH   2   3
ATOM      3  C   UNL     1      47.119  29.834   0.050  1.00  0.00     0.000 C 
BRANCH   3   4
ATOM      4  C   UNL     1      47.095  30.125   1.566  1.00  0.00     0.000 C 
BRANCH   4   5
ATOM      5  C   UNL     1      45.812  29.683   2.292  1.00  0.00     0.000 C 
BRANCH   5   6
ATOM      6  C   UNL     1      45.950  28.306   2.965  1.00  0.00     0.000 C 
BRANCH   6   7
ATOM      7  C   UNL     1      44.675  27.459   2.826  1.00  0.00     0.000 C 
BRANCH   7   8
ATOM      8  C   UNL     1      44.730  26.179   3.675  1.00  0.00     0.000 C 
BRANCH   8   9
ATOM      9  C   UNL     1      46.171  25.865   4.107  1.00  0.00     0.000 C 
BRANCH   9  10
ATOM     10  C   UNL     1      46.676  26.822   5.201  1.00  0.00     0.000 C 
BRANCH  10  11
ATOM     11  C   UNL     1      46.158  26.436   6.598  1.00  0.00     0.000 C 
BRANCH  11  12
ATOM     12  C   UNL     1      47.095  26.894   7.727  1.00  0.00     0.006 C 
BRANCH  12  13
ATOM     13  C   UNL     1      46.829  26.166   9.053  1.00  0.00     0.053 C 
BRANCH  13  14
ATOM     14  C   UNL     1      45.866  26.944   9.893  1.00  0.00     0.041 C 
ATOM     15  O   UNL     1      44.710  27.196   9.463  1.00  0.00    -0.550 OA
ATOM     16  O   UNL     1      46.258  27.424  11.138  1.00  0.00    -0.550 OA
ENDBRANCH  13  14
ENDBRANCH  12  13
ENDBRANCH  11  12
ENDBRANCH  10  11
ENDBRANCH   9  10
ENDBRANCH   8   9
ENDBRANCH   7   8
ENDBRANCH   6   7
ENDBRANCH   5   6
ENDBRANCH   4   5
ENDBRANCH   3   4
ENDBRANCH   2   3
ENDBRANCH   1   2
BRANCH   1  17
ATOM     17  C   UNL     1      45.328  27.376  -1.087  1.00  0.00     0.000 C 
BRANCH  17  18
ATOM     18  C   UNL     1      46.818  27.360  -1.471  1.00  0.00     0.000 C 
BRANCH  18  19
ATOM     19  C   UNL     1      47.046  27.558  -2.976  1.00  0.00     0.000 C 
BRANCH  19  20
ATOM     20  C   UNL     1      46.518  28.924  -3.439  1.00  0.00     0.000 C 
BRANCH  20  21
ATOM     21  C   UNL     1      47.119  29.366  -4.783  1.00  0.00     0.000 C 
BRANCH  21  22
ATOM     22  C   UNL     1      46.505  28.622  -5.978  1.00  0.00    -0.000 C 
BRANCH  22  23
ATOM     23  C   UNL     1      46.181  29.597  -7.120  1.00  0.00    -0.000 C 
BRANCH  23  24
ATOM     24  C   UNL     1      44.729  30.100  -7.080  1.00  0.00    -0.000 C 
BRANCH  24  25
ATOM     25  C   UNL     1      43.722  28.973  -6.802  1.00  0.00    -0.000 C 
BRANCH  25  26
ATOM     26  C   UNL     1      42.416  29.534  -6.219  1.00  0.00    -0.000 C 
BRANCH  26  27
ATOM     27  C   UNL     1      42.568  29.989  -4.759  1.00  0.00    -0.000 C 
BRANCH  27  28
ATOM     28  C   UNL     1      43.056  28.862  -3.835  1.00  0.00    -0.000 C 
BRANCH  28  29
ATOM     29  C   UNL     1      42.377  27.534  -4.187  1.00  0.00    -0.003 C 
ATOM     30  C   UNL     1      43.058  26.362  -3.487  1.00  0.00     0.004 C 
ENDBRANCH  28  29
ENDBRANCH  27  28
ENDBRANCH  26  27
ENDBRANCH  25  26
ENDBRANCH  24  25
ENDBRANCH  23  24
ENDBRANCH  22  23
ENDBRANCH  21  22
ENDBRANCH  20  21
ENDBRANCH  19  20
ENDBRANCH  18  19
ENDBRANCH  17  18
ENDBRANCH   1  17
TORSDOF 26
ENDMDL
MODEL 3
REMARK VINA RESULT:    -2.035      1.403      2.870
REMARK INTER + INTRA:          -7.072
REMARK INTER:                  -6.165
REMARK INTRA:                  -0.907
REMARK UNBOUND:                -1.945
REMARK SMILES CCCCCCCCCCCCCCCCCCCCCCCCCCCC(=O)[O-]
REMARK SMILES IDX 15 1 16 2 17 3 18 4 19 5 20 6 21 7 22 8 23 9 24 10 25 11
REMARK SMILES IDX 26 12 27 13 28 14 29 15 30 16 14 17 13 18 12 19 11 20 10 21
REMARK SMILES IDX 9 22 8 23 7 24 6 25 5 26 4 27 3 28 2 29 1 30
REMARK H PARENT
REMARK Flexibility Score: inf
ROOT
ATOM      1  C   UNL     1      45.621  27.522  -0.799  1.00  0.00     0.000 C 
ENDROOT
BRANCH   1   2
ATOM      2  C   UNL     1      45.314  27.181  -2.271  1.00  0.00     0.000 C 
BRANCH   2   3
ATOM      3  C   UNL     1      44.324  28.140  -2.963  1.00  0.00     0.000 C 
BRANCH   3   4
ATOM      4  C   UNL     1      44.895  29.529  -3.318  1.00  0.00     0.000 C 
BRANCH   4   5
ATOM      5  C   UNL     1      46.431  29.605  -3.375  1.00  0.00     0.000 C 
BRANCH   5   6
ATOM      6  C   UNL     1      47.066  28.368  -4.035  1.00  0.00     0.000 C 
BRANCH   6   7
ATOM      7  C   UNL     1      47.005  28.431  -5.570  1.00  0.00     0.000 C 
BRANCH   7   8
ATOM      8  C   UNL     1      46.143  27.308  -6.166  1.00  0.00     0.000 C 
BRANCH   8   9
ATOM      9  C   UNL     1      44.990  27.881  -7.004  1.00  0.00     0.000 C 
BRANCH   9  10
ATOM     10  C   UNL     1      45.024  29.418  -7.073  1.00  0.00     0.000 C 
BRANCH  10  11
ATOM     11  C   UNL     1      43.727  30.054  -6.541  1.00  0.00     0.000 C 
BRANCH  11  12
ATOM     12  C   UNL     1      42.463  29.403  -7.124  1.00  0.00     0.006 C 
BRANCH  12  13
ATOM     13  C   UNL     1      41.263  29.471  -6.168  1.00  0.00     0.053 C 
BRANCH  13  14
ATOM     14  C   UNL     1      41.683  29.124  -4.775  1.00  0.00     0.041 C 
ATOM     15  O   UNL     1      41.893  27.923  -4.457  1.00  0.00    -0.550 OA
ATOM     16  O   UNL     1      41.808  30.122  -3.816  1.00  0.00    -0.550 OA
ENDBRANCH  13  14
ENDBRANCH  12  13
ENDBRANCH  11  12
ENDBRANCH  10  11
ENDBRANCH   9  10
ENDBRANCH   8   9
ENDBRANCH   7   8
ENDBRANCH   6   7
ENDBRANCH   5   6
ENDBRANCH   4   5
ENDBRANCH   3   4
ENDBRANCH   2   3
ENDBRANCH   1   2
BRANCH   1  17
ATOM     17  C   UNL     1      47.043  28.061  -0.539  1.00  0.00     0.000 C 
BRANCH  17  18
ATOM     18  C   UNL     1      47.117  29.267   0.413  1.00  0.00     0.000 C 
BRANCH  18  19
ATOM     19  C   UNL     1      46.317  29.055   1.706  1.00  0.00     0.000 C 
BRANCH  19  20
ATOM     20  C   UNL     1      46.670  30.121   2.753  1.00  0.00     0.000 C 
BRANCH  20  21
ATOM     21  C   UNL     1      46.984  29.515   4.131  1.00  0.00     0.000 C 
BRANCH  21  22
ATOM     22  C   UNL     1      45.770  29.525   5.072  1.00  0.00    -0.000 C 
BRANCH  22  23
ATOM     23  C   UNL     1      45.196  28.110   5.236  1.00  0.00    -0.000 C 
BRANCH  23  24
ATOM     24  C   UNL     1      46.286  27.028   5.298  1.00  0.00    -0.000 C 
BRANCH  24  25
ATOM     25  C   UNL     1      47.121  27.106   6.586  1.00  0.00    -0.000 C 
BRANCH  25  26
ATOM     26  C   UNL     1      46.599  26.117   7.639  1.00  0.00    -0.000 C 
BRANCH  26  27
ATOM     27  C   UNL     1      45.541  26.740   8.563  1.00  0.00    -0.000 C 
BRANCH  27  28
ATOM     28  C   UNL     1      46.124  27.189   9.913  1.00  0.00    -0.000 C 
BRANCH  28  29
ATOM     29  C   UNL     1      45.849  28.676  10.159  1.00  0.00    -0.003 C 
ATOM     30  C   UNL     1      44.732  29.189   9.256  1.00  0.00     0.004 C 
ENDBRANCH  28  29
ENDBRANCH  27  28
ENDBRANCH  26  27
ENDBRANCH  25  26
ENDBRANCH  24  25
ENDBRANCH  23  24
ENDBRANCH  22  23
ENDBRANCH  21  22
ENDBRANCH  20  21
ENDBRANCH  19  20
ENDBRANCH  18  19
ENDBRANCH  17  18
ENDBRANCH   1  17
TORSDOF 26
ENDMDL
MODEL 4
REMARK VINA RESULT:    -1.283      1.808      4.198
REMARK INTER + INTRA:          -5.179
REMARK INTER:                  -5.280
REMARK INTRA:                   0.102
REMARK UNBOUND:                -1.945
REMARK SMILES CCCCCCCCCCCCCCCCCCCCCCCCCCCC(=O)[O-]
REMARK SMILES IDX 15 1 16 2 17 3 18 4 19 5 20 6 21 7 22 8 23 9 24 10 25 11
REMARK SMILES IDX 26 12 27 13 28 14 29 15 30 16 14 17 13 18 12 19 11 20 10 21
REMARK SMILES IDX 9 22 8 23 7 24 6 25 5 26 4 27 3 28 2 29 1 30
REMARK H PARENT
REMARK Flexibility Score: inf
ROOT
ATOM      1  C   UNL     1      43.697  26.803  -1.891  1.00  0.00     0.000 C 
ENDROOT
BRANCH   1   2
ATOM      2  C   UNL     1      43.595  26.570  -3.413  1.00  0.00     0.000 C 
BRANCH   2   3
ATOM      3  C   UNL     1      42.726  27.598  -4.166  1.00  0.00     0.000 C 
BRANCH   3   4
ATOM      4  C   UNL     1      43.053  29.076  -3.868  1.00  0.00     0.000 C 
BRANCH   4   5
ATOM      5  C   UNL     1      42.095  30.095  -4.510  1.00  0.00     0.000 C 
BRANCH   5   6
ATOM      6  C   UNL     1      41.124  29.451  -5.515  1.00  0.00     0.000 C 
BRANCH   6   7
ATOM      7  C   UNL     1      41.735  29.331  -6.921  1.00  0.00     0.000 C 
BRANCH   7   8
ATOM      8  C   UNL     1      43.241  29.635  -6.929  1.00  0.00     0.000 C 
BRANCH   8   9
ATOM      9  C   UNL     1      44.063  28.352  -7.123  1.00  0.00     0.000 C 
BRANCH   9  10
ATOM     10  C   UNL     1      45.576  28.604  -7.019  1.00  0.00     0.000 C 
BRANCH  10  11
ATOM     11  C   UNL     1      45.898  30.030  -6.537  1.00  0.00     0.000 C 
BRANCH  11  12
ATOM     12  C   UNL     1      47.122  30.082  -5.610  1.00  0.00     0.006 C 
BRANCH  12  13
ATOM     13  C   UNL     1      46.801  29.641  -4.174  1.00  0.00     0.053 C 
BRANCH  13  14
ATOM     14  C   UNL     1      46.976  28.162  -4.030  1.00  0.00     0.041 C 
ATOM     15  O   UNL     1      47.034  27.639  -2.886  1.00  0.00    -0.550 OA
ATOM     16  O   UNL     1      47.113  27.363  -5.159  1.00  0.00    -0.550 OA
ENDBRANCH  13  14
ENDBRANCH  12  13
ENDBRANCH  11  12
ENDBRANCH  10  11
ENDBRANCH   9  10
ENDBRANCH   8   9
ENDBRANCH   7   8
ENDBRANCH   6   7
ENDBRANCH   5   6
ENDBRANCH   4   5
ENDBRANCH   3   4
ENDBRANCH   2   3
ENDBRANCH   1   2
BRANCH   1  17
ATOM     17  C   UNL     1      45.094  27.222  -1.391  1.00  0.00     0.000 C 
BRANCH  17  18
ATOM     18  C   UNL     1      45.130  27.786   0.040  1.00  0.00     0.000 C 
BRANCH  18  19
ATOM     19  C   UNL     1      45.552  29.262   0.088  1.00  0.00     0.000 C 
BRANCH  19  20
ATOM     20  C   UNL     1      46.612  29.497   1.173  1.00  0.00     0.000 C 
BRANCH  20  21
ATOM     21  C   UNL     1      45.994  29.790   2.549  1.00  0.00     0.000 C 
BRANCH  21  22
ATOM     22  C   UNL     1      47.019  29.697   3.690  1.00  0.00    -0.000 C 
BRANCH  22  23
ATOM     23  C   UNL     1      46.478  28.836   4.841  1.00  0.00    -0.000 C 
BRANCH  23  24
ATOM     24  C   UNL     1      46.789  27.341   4.663  1.00  0.00    -0.000 C 
BRANCH  24  25
ATOM     25  C   UNL     1      46.726  26.564   5.987  1.00  0.00    -0.000 C 
BRANCH  25  26
ATOM     26  C   UNL     1      45.769  27.245   6.977  1.00  0.00    -0.000 C 
BRANCH  26  27
ATOM     27  C   UNL     1      45.723  26.533   8.338  1.00  0.00    -0.000 C 
BRANCH  27  28
ATOM     28  C   UNL     1      45.496  27.504   9.507  1.00  0.00    -0.000 C 
BRANCH  28  29
ATOM     29  C   UNL     1      45.263  28.930   8.997  1.00  0.00    -0.003 C 
ATOM     30  C   UNL     1      44.348  29.711   9.935  1.00  0.00     0.004 C 
ENDBRANCH  28  29
ENDBRANCH  27  28
ENDBRANCH  26  27
ENDBRANCH  25  26
ENDBRANCH  24  25
ENDBRANCH  23  24
ENDBRANCH  22  23
ENDBRANCH  21  22
ENDBRANCH  20  21
ENDBRANCH  19  20
ENDBRANCH  18  19
ENDBRANCH  17  18
ENDBRANCH   1  17
TORSDOF 26
ENDMDL
