MODEL 1
REMARK VINA RESULT:    -3.691      0.000      0.000
REMARK INTER + INTRA:          -4.605
REMARK INTER:                  -4.554
REMARK INTRA:                  -0.051
REMARK UNBOUND:                -0.051
REMARK SMILES CCCCCC(=O)[O-]
REMARK SMILES IDX 4 1 5 2 6 3 7 4 8 5 3 6 2 7 1 8
REMARK H PARENT
REMARK Flexibility Score: inf
ROOT
ATOM      1  C   UNL     1      31.582   6.136  47.273  1.00  0.00     0.006 C 
ENDROOT
BRANCH   1   2
ATOM      2  C   UNL     1      32.883   6.930  47.075  1.00  0.00     0.053 C 
BRANCH   2   3
ATOM      3  C   UNL     1      33.780   6.291  46.060  1.00  0.00     0.041 C 
ATOM      4  O   UNL     1      34.608   5.409  46.410  1.00  0.00    -0.550 OA
ATOM      5  O   UNL     1      33.680   6.648  44.721  1.00  0.00    -0.550 OA
ENDBRANCH   2   3
ENDBRANCH   1   2
BRANCH   1   6
ATOM      6  C   UNL     1      30.512   6.871  48.103  1.00  0.00     0.000 C 
BRANCH   6   7
ATOM      7  C   UNL     1      29.491   5.914  48.736  1.00  0.00    -0.003 C 
ATOM      8  C   UNL     1      28.352   5.609  47.767  1.00  0.00     0.004 C 
ENDBRANCH   6   7
ENDBRANCH   1   6
TORSDOF 4
ENDMDL
MODEL 2
REMARK VINA RESULT:    -3.681      0.729      1.397
REMARK INTER + INTRA:          -4.593
REMARK INTER:                  -4.513
REMARK INTRA:                  -0.080
REMARK UNBOUND:                -0.051
REMARK SMILES CCCCCC(=O)[O-]
REMARK SMILES IDX 4 1 5 2 6 3 7 4 8 5 3 6 2 7 1 8
REMARK H PARENT
REMARK Flexibility Score: inf
ROOT
ATOM      1  C   UNL     1      32.644   5.922  47.728  1.00  0.00     0.006 C 
ENDROOT
BRANCH   1   2
ATOM      2  C   UNL     1      33.649   6.805  46.972  1.00  0.00     0.053 C 
BRANCH   2   3
ATOM      3  C   UNL     1      34.026   6.217  45.647  1.00  0.00     0.041 C 
ATOM      4  O   UNL     1      33.657   6.771  44.578  1.00  0.00    -0.550 OA
ATOM      5  O   UNL     1      34.813   5.074  45.594  1.00  0.00    -0.550 OA
ENDBRANCH   2   3
ENDBRANCH   1   2
BRANCH   1   6
ATOM      6  C   UNL     1      31.178   6.124  47.302  1.00  0.00     0.000 C 
BRANCH   6   7
ATOM      7  C   UNL     1      30.225   6.257  48.499  1.00  0.00    -0.003 C 
ATOM      8  C   UNL     1      28.811   5.817  48.126  1.00  0.00     0.004 C 
ENDBRANCH   6   7
ENDBRANCH   1   6
TORSDOF 4
ENDMDL
MODEL 3
REMARK VINA RESULT:    -3.416     15.489     16.054
REMARK INTER + INTRA:          -4.266
REMARK INTER:                  -4.216
REMARK INTRA:                  -0.050
REMARK UNBOUND:                -0.051
REMARK SMILES CCCCCC(=O)[O-]
REMARK SMILES IDX 4 1 5 2 6 3 7 4 8 5 3 6 2 7 1 8
REMARK H PARENT
REMARK Flexibility Score: inf
ROOT
ATOM      1  C   UNL     1      20.879   9.240  35.101  1.00  0.00     0.006 C 
ENDROOT
BRANCH   1   2
ATOM      2  C   UNL     1      21.638  10.355  35.838  1.00  0.00     0.053 C 
BRANCH   2   3
ATOM      3  C   UNL     1      22.761  10.907  35.016  1.00  0.00     0.041 C 
ATOM      4  O   UNL     1      23.946  10.842  35.434  1.00  0.00    -0.550 OA
ATOM      5  O   UNL     1      22.500  11.466  33.771  1.00  0.00    -0.550 OA
ENDBRANCH   2   3
ENDBRANCH   1   2
BRANCH   1   6
ATOM      6  C   UNL     1      19.813   8.529  35.956  1.00  0.00     0.000 C 
BRANCH   6   7
ATOM      7  C   UNL     1      19.765   7.014  35.705  1.00  0.00    -0.003 C 
ATOM      8  C   UNL     1      19.345   6.262  36.964  1.00  0.00     0.004 C 
ENDBRANCH   6   7
ENDBRANCH   1   6
TORSDOF 4
ENDMDL
MODEL 4
REMARK VINA RESULT:    -3.397     16.093     17.347
REMARK INTER + INTRA:          -4.242
REMARK INTER:                  -4.110
REMARK INTRA:                  -0.133
REMARK UNBOUND:                -0.051
REMARK SMILES CCCCCC(=O)[O-]
REMARK SMILES IDX 4 1 5 2 6 3 7 4 8 5 3 6 2 7 1 8
REMARK H PARENT
REMARK Flexibility Score: inf
ROOT
ATOM      1  C   UNL     1      20.540  10.829  35.134  1.00  0.00     0.006 C 
ENDROOT
BRANCH   1   2
ATOM      2  C   UNL     1      19.695  11.606  36.155  1.00  0.00     0.053 C 
BRANCH   2   3
ATOM      3  C   UNL     1      19.485  13.030  35.742  1.00  0.00     0.041 C 
ATOM      4  O   UNL     1      20.452  13.720  35.325  1.00  0.00    -0.550 OA
ATOM      5  O   UNL     1      18.212  13.586  35.786  1.00  0.00    -0.550 OA
ENDBRANCH   2   3
ENDBRANCH   1   2
BRANCH   1   6
ATOM      6  C   UNL     1      21.913  10.374  35.663  1.00  0.00     0.000 C 
BRANCH   6   7
ATOM      7  C   UNL     1      23.079  11.148  35.029  1.00  0.00    -0.003 C 
ATOM      8  C   UNL     1      24.400  10.803  35.710  1.00  0.00     0.004 C 
ENDBRANCH   6   7
ENDBRANCH   1   6
TORSDOF 4
ENDMDL
MODEL 5
REMARK VINA RESULT:    -3.363     16.671     17.743
REMARK INTER + INTRA:          -4.201
REMARK INTER:                  -3.962
REMARK INTRA:                  -0.239
REMARK UNBOUND:                -0.051
REMARK SMILES CCCCCC(=O)[O-]
REMARK SMILES IDX 4 1 5 2 6 3 7 4 8 5 3 6 2 7 1 8
REMARK H PARENT
REMARK Flexibility Score: inf
ROOT
ATOM      1  C   UNL     1      21.381  12.728  35.258  1.00  0.00     0.006 C 
ENDROOT
BRANCH   1   2
ATOM      2  C   UNL     1      20.596  13.272  34.054  1.00  0.00     0.053 C 
BRANCH   2   3
ATOM      3  C   UNL     1      21.392  13.199  32.787  1.00  0.00     0.041 C 
ATOM      4  O   UNL     1      21.653  14.246  32.140  1.00  0.00    -0.550 OA
ATOM      5  O   UNL     1      21.873  11.975  32.339  1.00  0.00    -0.550 OA
ENDBRANCH   2   3
ENDBRANCH   1   2
BRANCH   1   6
ATOM      6  C   UNL     1      20.954  11.318  35.708  1.00  0.00     0.000 C 
BRANCH   6   7
ATOM      7  C   UNL     1      22.094  10.294  35.611  1.00  0.00    -0.003 C 
ATOM      8  C   UNL     1      23.433  10.984  35.369  1.00  0.00     0.004 C 
ENDBRANCH   6   7
ENDBRANCH   1   6
TORSDOF 4
ENDMDL
MODEL 6
REMARK VINA RESULT:    -3.311     15.367     16.441
REMARK INTER + INTRA:          -4.137
REMARK INTER:                  -4.074
REMARK INTRA:                  -0.062
REMARK UNBOUND:                -0.051
REMARK SMILES CCCCCC(=O)[O-]
REMARK SMILES IDX 4 1 5 2 6 3 7 4 8 5 3 6 2 7 1 8
REMARK H PARENT
REMARK Flexibility Score: inf
ROOT
ATOM      1  C   UNL     1      20.851   9.371  35.016  1.00  0.00     0.006 C 
ENDROOT
BRANCH   1   2
ATOM      2  C   UNL     1      19.866   8.634  35.937  1.00  0.00     0.053 C 
BRANCH   2   3
ATOM      3  C   UNL     1      20.067   7.150  35.900  1.00  0.00     0.041 C 
ATOM      4  O   UNL     1      20.827   6.633  35.039  1.00  0.00    -0.550 OA
ATOM      5  O   UNL     1      19.439   6.341  36.838  1.00  0.00    -0.550 OA
ENDBRANCH   2   3
ENDBRANCH   1   2
BRANCH   1   6
ATOM      6  C   UNL     1      21.498  10.617  35.649  1.00  0.00     0.000 C 
BRANCH   6   7
ATOM      7  C   UNL     1      22.693  11.141  34.839  1.00  0.00    -0.003 C 
ATOM      8  C   UNL     1      24.009  10.860  35.559  1.00  0.00     0.004 C 
ENDBRANCH   6   7
ENDBRANCH   1   6
TORSDOF 4
ENDMDL
MODEL 7
REMARK VINA RESULT:    -3.301      2.694      4.869
REMARK INTER + INTRA:          -4.125
REMARK INTER:                  -4.002
REMARK INTRA:                  -0.122
REMARK UNBOUND:                -0.051
REMARK SMILES CCCCCC(=O)[O-]
REMARK SMILES IDX 4 1 5 2 6 3 7 4 8 5 3 6 2 7 1 8
REMARK H PARENT
REMARK Flexibility Score: inf
ROOT
ATOM      1  C   UNL     1      33.822   6.613  45.408  1.00  0.00     0.006 C 
ENDROOT
BRANCH   1   2
ATOM      2  C   UNL     1      33.623   7.280  46.778  1.00  0.00     0.053 C 
BRANCH   2   3
ATOM      3  C   UNL     1      32.503   6.654  47.550  1.00  0.00     0.041 C 
ATOM      4  O   UNL     1      31.513   6.163  46.947  1.00  0.00    -0.550 OA
ATOM      5  O   UNL     1      32.568   6.585  48.936  1.00  0.00    -0.550 OA
ENDBRANCH   2   3
ENDBRANCH   1   2
BRANCH   1   6
ATOM      6  C   UNL     1      34.022   7.603  44.245  1.00  0.00     0.000 C 
BRANCH   6   7
ATOM      7  C   UNL     1      34.455   8.998  44.720  1.00  0.00    -0.003 C 
ATOM      8  C   UNL     1      34.046  10.071  43.716  1.00  0.00     0.004 C 
ENDBRANCH   6   7
ENDBRANCH   1   6
TORSDOF 4
ENDMDL
MODEL 8
REMARK VINA RESULT:    -3.276      1.740      2.438
REMARK INTER + INTRA:          -4.094
REMARK INTER:                  -3.924
REMARK INTRA:                  -0.170
REMARK UNBOUND:                -0.051
REMARK SMILES CCCCCC(=O)[O-]
REMARK SMILES IDX 4 1 5 2 6 3 7 4 8 5 3 6 2 7 1 8
REMARK H PARENT
REMARK Flexibility Score: inf
ROOT
ATOM      1  C   UNL     1      31.287   6.285  47.427  1.00  0.00     0.006 C 
ENDROOT
BRANCH   1   2
ATOM      2  C   UNL     1      32.224   5.103  47.718  1.00  0.00     0.053 C 
BRANCH   2   3
ATOM      3  C   UNL     1      33.665   5.508  47.684  1.00  0.00     0.041 C 
ATOM      4  O   UNL     1      34.000   6.690  47.960  1.00  0.00    -0.550 OA
ATOM      5  O   UNL     1      34.644   4.570  47.377  1.00  0.00    -0.550 OA
ENDBRANCH   2   3
ENDBRANCH   1   2
BRANCH   1   6
ATOM      6  C   UNL     1      30.140   6.448  48.442  1.00  0.00     0.000 C 
BRANCH   6   7
ATOM      7  C   UNL     1      29.932   7.908  48.872  1.00  0.00    -0.003 C 
ATOM      8  C   UNL     1      31.199   8.729  48.659  1.00  0.00     0.004 C 
ENDBRANCH   6   7
ENDBRANCH   1   6
TORSDOF 4
ENDMDL
MODEL 9
REMARK VINA RESULT:    -3.250     15.911     16.804
REMARK INTER + INTRA:          -4.061
REMARK INTER:                  -3.915
REMARK INTRA:                  -0.146
REMARK UNBOUND:                -0.051
REMARK SMILES CCCCCC(=O)[O-]
REMARK SMILES IDX 4 1 5 2 6 3 7 4 8 5 3 6 2 7 1 8
REMARK H PARENT
REMARK Flexibility Score: inf
ROOT
ATOM      1  C   UNL     1      20.343  10.107  35.655  1.00  0.00     0.006 C 
ENDROOT
BRANCH   1   2
ATOM      2  C   UNL     1      19.783   8.687  35.821  1.00  0.00     0.053 C 
BRANCH   2   3
ATOM      3  C   UNL     1      20.380   7.730  34.836  1.00  0.00     0.041 C 
ATOM      4  O   UNL     1      20.950   6.681  35.235  1.00  0.00    -0.550 OA
ATOM      5  O   UNL     1      20.278   7.981  33.473  1.00  0.00    -0.550 OA
ENDBRANCH   2   3
ENDBRANCH   1   2
BRANCH   1   6
ATOM      6  C   UNL     1      21.879  10.194  35.726  1.00  0.00     0.000 C 
BRANCH   6   7
ATOM      7  C   UNL     1      22.413  11.586  35.357  1.00  0.00    -0.003 C 
ATOM      8  C   UNL     1      21.301  12.630  35.401  1.00  0.00     0.004 C 
ENDBRANCH   6   7
ENDBRANCH   1   6
TORSDOF 4
ENDMDL
