MODEL 1
REMARK VINA RESULT:     7.622      0.000      0.000
REMARK INTER + INTRA:           9.868
REMARK INTER:                  10.518
REMARK INTRA:                  -0.650
REMARK UNBOUND:                -0.650
REMARK SMILES CC[C@@H](CC[C@@H](C)[C@@H]1CC[C@@H]2[C@@H]3CC=C4C[C@H](O)CC[C@@]4(C)[C@H]3CC[C@@]21C)C(C)C
REMARK SMILES IDX 5 1 4 2 3 3 2 4 1 5 28 6 29 7 30 8 6 9 7 10 8 11 9 12 26 13
REMARK SMILES IDX 10 14 11 15 25 16 27 17 12 18 24 19 23 20 13 21 21 22 14 23
REMARK SMILES IDX 15 24 20 25 22 26 16 27 19 28 17 29 18 30
REMARK H PARENT 18 31
REMARK Flexibility Score: inf
ROOT
ATOM      1  C   UNL     1      15.652  17.113  23.764  1.00  0.00     0.004 C 
ENDROOT
BRANCH   1   2
ATOM      2  C   UNL     1      16.827  18.111  23.646  1.00  0.00     0.004 C 
BRANCH   2   3
ATOM      3  C   UNL     1      17.570  18.122  22.278  1.00  0.00    -0.009 C 
BRANCH   3   4
ATOM      4  C   UNL     1      16.769  17.316  21.218  1.00  0.00     0.000 C 
ATOM      5  C   UNL     1      16.415  18.124  19.968  1.00  0.00     0.004 C 
ENDBRANCH   3   4
BRANCH   3   6
ATOM      6  C   UNL     1      19.058  17.646  22.405  1.00  0.00    -0.014 C 
ATOM      7  C   UNL     1      19.173  16.123  22.595  1.00  0.00     0.007 C 
ATOM      8  C   UNL     1      19.955  18.104  21.243  1.00  0.00     0.007 C 
ENDBRANCH   3   6
ENDBRANCH   2   3
ENDBRANCH   1   2
BRANCH   1   9
ATOM      9  C   UNL     1      14.283  17.778  24.115  1.00  0.00    -0.011 C 
ATOM     10  C   UNL     1      13.436  17.984  22.849  1.00  0.00     0.008 C 
BRANCH   9  11
ATOM     11  C   UNL     1      13.455  17.113  25.274  1.00  0.00    -0.002 C 
ATOM     12  C   UNL     1      12.865  18.125  26.276  1.00  0.00     0.005 C 
ATOM     13  C   UNL     1      14.035  15.933  26.126  1.00  0.00    -0.026 C 
ATOM     14  C   UNL     1      12.822  17.425  27.632  1.00  0.00     0.005 C 
ATOM     15  C   UNL     1      13.096  15.941  27.355  1.00  0.00    -0.001 C 
ATOM     16  C   UNL     1      15.500  16.185  26.581  1.00  0.00     0.007 C 
ATOM     17  C   UNL     1      13.915  14.576  25.378  1.00  0.00     0.012 C 
ATOM     18  C   UNL     1      13.592  15.103  28.579  1.00  0.00     0.000 C 
ATOM     19  C   UNL     1      15.957  15.210  27.668  1.00  0.00     0.005 C 
ATOM     20  C   UNL     1      15.078  15.333  28.937  1.00  0.00     0.003 C 
ATOM     21  C   UNL     1      12.731  15.376  29.820  1.00  0.00     0.031 C 
ATOM     22  C   UNL     1      15.561  14.415  30.141  1.00  0.00    -0.008 C 
ATOM     23  C   UNL     1      13.159  14.523  30.970  1.00  0.00    -0.027 C 
ATOM     24  C   UNL     1      14.438  14.136  31.160  1.00  0.00    -0.065 C 
ATOM     25  C   UNL     1      16.074  13.026  29.636  1.00  0.00     0.014 C 
ATOM     26  C   UNL     1      16.710  15.164  30.866  1.00  0.00     0.016 C 
ATOM     27  C   UNL     1      14.738  13.180  32.297  1.00  0.00     0.063 C 
ATOM     28  C   UNL     1      16.384  12.017  30.761  1.00  0.00     0.033 C 
ATOM     29  C   UNL     1      15.189  11.835  31.713  1.00  0.00     0.118 C 
BRANCH  29  30
ATOM     30  O   UNL     1      15.505  10.930  32.741  1.00  0.00    -0.393 OA
ATOM     31  H   UNL     1      14.660  10.499  33.033  1.00  0.00     0.210 HD
ENDBRANCH  29  30
ENDBRANCH   9  11
ENDBRANCH   1   9
TORSDOF 7
ENDMDL
MODEL 2
REMARK VINA RESULT:     7.999      0.917      1.232
REMARK INTER + INTRA:          10.389
REMARK INTER:                   8.538
REMARK INTRA:                   1.851
REMARK UNBOUND:                -0.650
REMARK SMILES CC[C@@H](CC[C@@H](C)[C@@H]1CC[C@@H]2[C@@H]3CC=C4C[C@H](O)CC[C@@]4(C)[C@H]3CC[C@@]21C)C(C)C
REMARK SMILES IDX 5 1 4 2 3 3 2 4 1 5 28 6 29 7 30 8 6 9 7 10 8 11 9 12 26 13
REMARK SMILES IDX 10 14 11 15 25 16 27 17 12 18 24 19 23 20 13 21 21 22 14 23
REMARK SMILES IDX 15 24 20 25 22 26 16 27 19 28 17 29 18 30
REMARK H PARENT 18 31
REMARK Flexibility Score: inf
ROOT
ATOM      1  C   UNL     1      14.352  17.020  23.416  1.00  0.00     0.004 C 
ENDROOT
BRANCH   1   2
ATOM      2  C   UNL     1      15.571  17.955  23.249  1.00  0.00     0.004 C 
BRANCH   2   3
ATOM      3  C   UNL     1      16.103  18.122  21.795  1.00  0.00    -0.009 C 
BRANCH   3   4
ATOM      4  C   UNL     1      15.083  17.546  20.774  1.00  0.00     0.000 C 
ATOM      5  C   UNL     1      13.671  18.116  20.926  1.00  0.00     0.004 C 
ENDBRANCH   3   4
BRANCH   3   6
ATOM      6  C   UNL     1      17.542  17.528  21.616  1.00  0.00    -0.014 C 
ATOM      7  C   UNL     1      18.253  18.079  20.367  1.00  0.00     0.007 C 
ATOM      8  C   UNL     1      18.439  17.696  22.853  1.00  0.00     0.007 C 
ENDBRANCH   3   6
ENDBRANCH   2   3
ENDBRANCH   1   2
BRANCH   1   9
ATOM      9  C   UNL     1      13.087  17.720  24.006  1.00  0.00    -0.011 C 
ATOM     10  C   UNL     1      12.023  17.935  22.918  1.00  0.00     0.008 C 
BRANCH   9  11
ATOM     11  C   UNL     1      12.475  17.086  25.308  1.00  0.00    -0.002 C 
ATOM     12  C   UNL     1      12.032  18.125  26.357  1.00  0.00     0.005 C 
ATOM     13  C   UNL     1      13.216  15.951  26.095  1.00  0.00    -0.026 C 
ATOM     14  C   UNL     1      12.228  17.478  27.726  1.00  0.00     0.005 C 
ATOM     15  C   UNL     1      12.490  15.990  27.461  1.00  0.00    -0.001 C 
ATOM     16  C   UNL     1      14.729  16.248  26.295  1.00  0.00     0.007 C 
ATOM     17  C   UNL     1      13.010  14.564  25.426  1.00  0.00     0.012 C 
ATOM     18  C   UNL     1      13.200  15.210  28.616  1.00  0.00     0.000 C 
ATOM     19  C   UNL     1      15.381  15.325  27.326  1.00  0.00     0.005 C 
ATOM     20  C   UNL     1      14.718  15.482  28.717  1.00  0.00     0.003 C 
ATOM     21  C   UNL     1      12.546  15.515  29.970  1.00  0.00     0.031 C 
ATOM     22  C   UNL     1      15.414  14.621  29.858  1.00  0.00    -0.008 C 
ATOM     23  C   UNL     1      13.177  14.716  31.064  1.00  0.00    -0.027 C 
ATOM     24  C   UNL     1      14.479  14.361  31.056  1.00  0.00    -0.065 C 
ATOM     25  C   UNL     1      15.872  13.223  29.325  1.00  0.00     0.014 C 
ATOM     26  C   UNL     1      16.646  15.419  30.358  1.00  0.00     0.016 C 
ATOM     27  C   UNL     1      14.984  13.457  32.162  1.00  0.00     0.063 C 
ATOM     28  C   UNL     1      16.386  12.265  30.419  1.00  0.00     0.033 C 
ATOM     29  C   UNL     1      15.367  12.098  31.560  1.00  0.00     0.118 C 
BRANCH  29  30
ATOM     30  O   UNL     1      15.870  11.240  32.554  1.00  0.00    -0.393 OA
ATOM     31  H   UNL     1      16.018  11.781  33.372  1.00  0.00     0.210 HD
ENDBRANCH  29  30
ENDBRANCH   9  11
ENDBRANCH   1   9
TORSDOF 7
ENDMDL
