MODEL 1
REMARK VINA RESULT:    -5.650      0.000      0.000
REMARK INTER + INTRA:         -17.086
REMARK INTER:                 -14.898
REMARK INTRA:                  -2.188
REMARK UNBOUND:                -2.188
REMARK SMILES CCCCCCCCCCCCCCCCCCCCCCCCCCCCCC(=O)[O-]
REMARK SMILES IDX 16 1 17 2 18 3 19 4 20 5 21 6 22 7 23 8 24 9 25 10 26 11
REMARK SMILES IDX 27 12 28 13 29 14 30 15 31 16 32 17 15 18 14 19 13 20 12 21
REMARK SMILES IDX 11 22 10 23 9 24 8 25 7 26 6 27 5 28 4 29 3 30 2 31 1 32
REMARK H PARENT
REMARK Flexibility Score: inf
ROOT
ATOM      1  C   UNL     1      19.894  -7.496  25.343  1.00  0.00     0.000 C 
ENDROOT
BRANCH   1   2
ATOM      2  C   UNL     1      20.749  -8.645  24.776  1.00  0.00     0.000 C 
BRANCH   2   3
ATOM      3  C   UNL     1      21.527  -8.315  23.487  1.00  0.00     0.000 C 
BRANCH   3   4
ATOM      4  C   UNL     1      22.239  -9.530  22.854  1.00  0.00     0.000 C 
BRANCH   4   5
ATOM      5  C   UNL     1      21.391 -10.813  22.915  1.00  0.00     0.000 C 
BRANCH   5   6
ATOM      6  C   UNL     1      21.920 -11.922  21.992  1.00  0.00     0.000 C 
BRANCH   6   7
ATOM      7  C   UNL     1      20.794 -12.730  21.329  1.00  0.00     0.000 C 
BRANCH   7   8
ATOM      8  C   UNL     1      21.347 -13.614  20.201  1.00  0.00     0.000 C 
BRANCH   8   9
ATOM      9  C   UNL     1      22.618 -14.372  20.618  1.00  0.00     0.000 C 
BRANCH   9  10
ATOM     10  C   UNL     1      22.972 -15.504  19.643  1.00  0.00     0.000 C 
BRANCH  10  11
ATOM     11  C   UNL     1      22.396 -15.225  18.247  1.00  0.00     0.000 C 
BRANCH  11  12
ATOM     12  C   UNL     1      22.925 -16.192  17.177  1.00  0.00     0.000 C 
BRANCH  12  13
ATOM     13  C   UNL     1      23.012 -17.642  17.674  1.00  0.00     0.006 C 
BRANCH  13  14
ATOM     14  C   UNL     1      23.069 -18.621  16.496  1.00  0.00     0.053 C 
BRANCH  14  15
ATOM     15  C   UNL     1      22.267 -19.851  16.787  1.00  0.00     0.041 C 
ATOM     16  O   UNL     1      21.085 -19.952  16.366  1.00  0.00    -0.550 OA
ATOM     17  O   UNL     1      22.824 -20.885  17.532  1.00  0.00    -0.550 OA
ENDBRANCH  14  15
ENDBRANCH  13  14
ENDBRANCH  12  13
ENDBRANCH  11  12
ENDBRANCH  10  11
ENDBRANCH   9  10
ENDBRANCH   8   9
ENDBRANCH   7   8
ENDBRANCH   6   7
ENDBRANCH   5   6
ENDBRANCH   4   5
ENDBRANCH   3   4
ENDBRANCH   2   3
ENDBRANCH   1   2
BRANCH   1  18
ATOM     18  C   UNL     1      20.085  -6.134  24.648  1.00  0.00     0.000 C 
BRANCH  18  19
ATOM     19  C   UNL     1      18.755  -5.437  24.314  1.00  0.00     0.000 C 
BRANCH  19  20
ATOM     20  C   UNL     1      18.887  -4.451  23.143  1.00  0.00     0.000 C 
BRANCH  20  21
ATOM     21  C   UNL     1      17.598  -3.654  22.893  1.00  0.00     0.000 C 
BRANCH  21  22
ATOM     22  C   UNL     1      16.724  -3.618  24.156  1.00  0.00     0.000 C 
BRANCH  22  23
ATOM     23  C   UNL     1      15.223  -3.507  23.839  1.00  0.00     0.000 C 
BRANCH  23  24
ATOM     24  C   UNL     1      14.335  -3.994  24.997  1.00  0.00    -0.000 C 
BRANCH  24  25
ATOM     25  C   UNL     1      14.553  -5.481  25.325  1.00  0.00    -0.000 C 
BRANCH  25  26
ATOM     26  C   UNL     1      14.271  -5.813  26.800  1.00  0.00    -0.000 C 
BRANCH  26  27
ATOM     27  C   UNL     1      13.908  -4.545  27.587  1.00  0.00    -0.000 C 
BRANCH  27  28
ATOM     28  C   UNL     1      12.554  -4.660  28.306  1.00  0.00    -0.000 C 
BRANCH  28  29
ATOM     29  C   UNL     1      11.434  -5.153  27.377  1.00  0.00    -0.000 C 
BRANCH  29  30
ATOM     30  C   UNL     1      11.140  -4.120  26.277  1.00  0.00    -0.000 C 
BRANCH  30  31
ATOM     31  C   UNL     1      10.559  -4.761  25.007  1.00  0.00    -0.003 C 
ATOM     32  C   UNL     1      10.962  -6.226  24.845  1.00  0.00     0.004 C 
ENDBRANCH  30  31
ENDBRANCH  29  30
ENDBRANCH  28  29
ENDBRANCH  27  28
ENDBRANCH  26  27
ENDBRANCH  25  26
ENDBRANCH  24  25
ENDBRANCH  23  24
ENDBRANCH  22  23
ENDBRANCH  21  22
ENDBRANCH  20  21
ENDBRANCH  19  20
ENDBRANCH  18  19
ENDBRANCH   1  18
TORSDOF 28
ENDMDL
MODEL 2
REMARK VINA RESULT:    -5.525      5.293     14.887
REMARK INTER + INTRA:         -16.756
REMARK INTER:                 -14.839
REMARK INTRA:                  -1.917
REMARK UNBOUND:                -2.188
REMARK SMILES CCCCCCCCCCCCCCCCCCCCCCCCCCCCCC(=O)[O-]
REMARK SMILES IDX 16 1 17 2 18 3 19 4 20 5 21 6 22 7 23 8 24 9 25 10 26 11
REMARK SMILES IDX 27 12 28 13 29 14 30 15 31 16 32 17 15 18 14 19 13 20 12 21
REMARK SMILES IDX 11 22 10 23 9 24 8 25 7 26 6 27 5 28 4 29 3 30 2 31 1 32
REMARK H PARENT
REMARK Flexibility Score: inf
ROOT
ATOM      1  C   UNL     1      22.970  -9.789  22.010  1.00  0.00     0.000 C 
ENDROOT
BRANCH   1   2
ATOM      2  C   UNL     1      21.710  -9.156  22.631  1.00  0.00     0.000 C 
BRANCH   2   3
ATOM      3  C   UNL     1      21.881  -8.617  24.064  1.00  0.00     0.000 C 
BRANCH   3   4
ATOM      4  C   UNL     1      20.665  -8.873  24.981  1.00  0.00     0.000 C 
BRANCH   4   5
ATOM      5  C   UNL     1      20.094  -7.578  25.585  1.00  0.00     0.000 C 
BRANCH   5   6
ATOM      6  C   UNL     1      21.051  -6.384  25.446  1.00  0.00     0.000 C 
BRANCH   6   7
ATOM      7  C   UNL     1      20.373  -5.146  24.839  1.00  0.00     0.000 C 
BRANCH   7   8
ATOM      8  C   UNL     1      19.837  -5.450  23.433  1.00  0.00     0.000 C 
BRANCH   8   9
ATOM      9  C   UNL     1      18.530  -4.699  23.128  1.00  0.00     0.000 C 
BRANCH   9  10
ATOM     10  C   UNL     1      18.207  -3.631  24.184  1.00  0.00     0.000 C 
BRANCH  10  11
ATOM     11  C   UNL     1      16.723  -3.682  24.577  1.00  0.00     0.000 C 
BRANCH  11  12
ATOM     12  C   UNL     1      16.299  -5.050  25.137  1.00  0.00     0.000 C 
BRANCH  12  13
ATOM     13  C   UNL     1      14.807  -5.111  25.494  1.00  0.00     0.006 C 
BRANCH  13  14
ATOM     14  C   UNL     1      14.531  -4.388  26.816  1.00  0.00     0.053 C 
BRANCH  14  15
ATOM     15  C   UNL     1      13.670  -5.223  27.711  1.00  0.00     0.041 C 
ATOM     16  O   UNL     1      14.105  -6.309  28.178  1.00  0.00    -0.550 OA
ATOM     17  O   UNL     1      12.380  -4.807  28.023  1.00  0.00    -0.550 OA
ENDBRANCH  14  15
ENDBRANCH  13  14
ENDBRANCH  12  13
ENDBRANCH  11  12
ENDBRANCH  10  11
ENDBRANCH   9  10
ENDBRANCH   8   9
ENDBRANCH   7   8
ENDBRANCH   6   7
ENDBRANCH   5   6
ENDBRANCH   4   5
ENDBRANCH   3   4
ENDBRANCH   2   3
ENDBRANCH   1   2
BRANCH   1  18
ATOM     18  C   UNL     1      22.879 -11.303  21.743  1.00  0.00     0.000 C 
BRANCH  18  19
ATOM     19  C   UNL     1      21.465 -11.868  21.961  1.00  0.00     0.000 C 
BRANCH  19  20
ATOM     20  C   UNL     1      21.122 -12.993  20.971  1.00  0.00     0.000 C 
BRANCH  20  21
ATOM     21  C   UNL     1      22.265 -14.007  20.811  1.00  0.00     0.000 C 
BRANCH  21  22
ATOM     22  C   UNL     1      22.279 -14.596  19.392  1.00  0.00     0.000 C 
BRANCH  22  23
ATOM     23  C   UNL     1      22.940 -15.983  19.329  1.00  0.00     0.000 C 
BRANCH  23  24
ATOM     24  C   UNL     1      23.016 -16.539  17.896  1.00  0.00    -0.000 C 
BRANCH  24  25
ATOM     25  C   UNL     1      23.533 -17.987  17.850  1.00  0.00    -0.000 C 
BRANCH  25  26
ATOM     26  C   UNL     1      23.354 -18.639  16.468  1.00  0.00    -0.000 C 
BRANCH  26  27
ATOM     27  C   UNL     1      21.993 -19.344  16.367  1.00  0.00    -0.000 C 
BRANCH  27  28
ATOM     28  C   UNL     1      21.678 -20.207  17.600  1.00  0.00    -0.000 C 
BRANCH  28  29
ATOM     29  C   UNL     1      20.816 -21.432  17.257  1.00  0.00    -0.000 C 
BRANCH  29  30
ATOM     30  C   UNL     1      19.512 -21.006  16.564  1.00  0.00    -0.000 C 
BRANCH  30  31
ATOM     31  C   UNL     1      18.378 -22.023  16.766  1.00  0.00    -0.003 C 
ATOM     32  C   UNL     1      17.845 -22.040  18.199  1.00  0.00     0.004 C 
ENDBRANCH  30  31
ENDBRANCH  29  30
ENDBRANCH  28  29
ENDBRANCH  27  28
ENDBRANCH  26  27
ENDBRANCH  25  26
ENDBRANCH  24  25
ENDBRANCH  23  24
ENDBRANCH  22  23
ENDBRANCH  21  22
ENDBRANCH  20  21
ENDBRANCH  19  20
ENDBRANCH  18  19
ENDBRANCH   1  18
TORSDOF 28
ENDMDL
MODEL 3
REMARK VINA RESULT:    -5.448      5.450     14.953
REMARK INTER + INTRA:         -16.554
REMARK INTER:                 -14.900
REMARK INTRA:                  -1.654
REMARK UNBOUND:                -2.188
REMARK SMILES CCCCCCCCCCCCCCCCCCCCCCCCCCCCCC(=O)[O-]
REMARK SMILES IDX 16 1 17 2 18 3 19 4 20 5 21 6 22 7 23 8 24 9 25 10 26 11
REMARK SMILES IDX 27 12 28 13 29 14 30 15 31 16 32 17 15 18 14 19 13 20 12 21
REMARK SMILES IDX 11 22 10 23 9 24 8 25 7 26 6 27 5 28 4 29 3 30 2 31 1 32
REMARK H PARENT
REMARK Flexibility Score: inf
ROOT
ATOM      1  C   UNL     1      20.823 -10.782  24.164  1.00  0.00     0.000 C 
ENDROOT
BRANCH   1   2
ATOM      2  C   UNL     1      20.422  -9.516  24.946  1.00  0.00     0.000 C 
BRANCH   2   3
ATOM      3  C   UNL     1      21.514  -8.433  25.052  1.00  0.00     0.000 C 
BRANCH   3   4
ATOM      4  C   UNL     1      21.078  -7.178  25.840  1.00  0.00     0.000 C 
BRANCH   4   5
ATOM      5  C   UNL     1      19.829  -6.507  25.242  1.00  0.00     0.000 C 
BRANCH   5   6
ATOM      6  C   UNL     1      20.105  -5.835  23.888  1.00  0.00     0.000 C 
BRANCH   6   7
ATOM      7  C   UNL     1      18.909  -5.017  23.375  1.00  0.00     0.000 C 
BRANCH   7   8
ATOM      8  C   UNL     1      18.915  -3.604  23.975  1.00  0.00     0.000 C 
BRANCH   8   9
ATOM      9  C   UNL     1      17.500  -3.016  24.105  1.00  0.00     0.000 C 
BRANCH   9  10
ATOM     10  C   UNL     1      16.437  -4.095  24.358  1.00  0.00     0.000 C 
BRANCH  10  11
ATOM     11  C   UNL     1      15.669  -3.814  25.657  1.00  0.00     0.000 C 
BRANCH  11  12
ATOM     12  C   UNL     1      14.931  -5.050  26.196  1.00  0.00     0.000 C 
BRANCH  12  13
ATOM     13  C   UNL     1      13.659  -5.378  25.401  1.00  0.00     0.006 C 
BRANCH  13  14
ATOM     14  C   UNL     1      12.560  -4.345  25.677  1.00  0.00     0.053 C 
BRANCH  14  15
ATOM     15  C   UNL     1      11.597  -4.853  26.703  1.00  0.00     0.041 C 
ATOM     16  O   UNL     1      10.431  -5.190  26.368  1.00  0.00    -0.550 OA
ATOM     17  O   UNL     1      11.985  -4.948  28.036  1.00  0.00    -0.550 OA
ENDBRANCH  14  15
ENDBRANCH  13  14
ENDBRANCH  12  13
ENDBRANCH  11  12
ENDBRANCH  10  11
ENDBRANCH   9  10
ENDBRANCH   8   9
ENDBRANCH   7   8
ENDBRANCH   6   7
ENDBRANCH   5   6
ENDBRANCH   4   5
ENDBRANCH   3   4
ENDBRANCH   2   3
ENDBRANCH   1   2
BRANCH   1  18
ATOM     18  C   UNL     1      21.526 -10.524  22.817  1.00  0.00     0.000 C 
BRANCH  18  19
ATOM     19  C   UNL     1      21.657 -11.790  21.955  1.00  0.00     0.000 C 
BRANCH  19  20
ATOM     20  C   UNL     1      23.120 -12.131  21.630  1.00  0.00     0.000 C 
BRANCH  20  21
ATOM     21  C   UNL     1      23.354 -13.640  21.468  1.00  0.00     0.000 C 
BRANCH  21  22
ATOM     22  C   UNL     1      22.337 -14.249  20.490  1.00  0.00     0.000 C 
BRANCH  22  23
ATOM     23  C   UNL     1      22.880 -15.491  19.762  1.00  0.00     0.000 C 
BRANCH  23  24
ATOM     24  C   UNL     1      22.697 -15.411  18.237  1.00  0.00    -0.000 C 
BRANCH  24  25
ATOM     25  C   UNL     1      23.015 -16.741  17.532  1.00  0.00    -0.000 C 
BRANCH  25  26
ATOM     26  C   UNL     1      23.359 -17.869  18.518  1.00  0.00    -0.000 C 
BRANCH  26  27
ATOM     27  C   UNL     1      23.116 -19.246  17.882  1.00  0.00    -0.000 C 
BRANCH  27  28
ATOM     28  C   UNL     1      22.594 -19.149  16.438  1.00  0.00    -0.000 C 
BRANCH  28  29
ATOM     29  C   UNL     1      21.231 -19.835  16.257  1.00  0.00    -0.000 C 
BRANCH  29  30
ATOM     30  C   UNL     1      20.890 -20.707  17.476  1.00  0.00    -0.000 C 
BRANCH  30  31
ATOM     31  C   UNL     1      19.376 -20.852  17.692  1.00  0.00    -0.003 C 
ATOM     32  C   UNL     1      18.684 -21.602  16.554  1.00  0.00     0.004 C 
ENDBRANCH  30  31
ENDBRANCH  29  30
ENDBRANCH  28  29
ENDBRANCH  27  28
ENDBRANCH  26  27
ENDBRANCH  25  26
ENDBRANCH  24  25
ENDBRANCH  23  24
ENDBRANCH  22  23
ENDBRANCH  21  22
ENDBRANCH  20  21
ENDBRANCH  19  20
ENDBRANCH  18  19
ENDBRANCH   1  18
TORSDOF 28
ENDMDL
MODEL 4
REMARK VINA RESULT:    -5.298      8.041     16.167
REMARK INTER + INTRA:         -16.157
REMARK INTER:                 -14.648
REMARK INTRA:                  -1.509
REMARK UNBOUND:                -2.188
REMARK SMILES CCCCCCCCCCCCCCCCCCCCCCCCCCCCCC(=O)[O-]
REMARK SMILES IDX 16 1 17 2 18 3 19 4 20 5 21 6 22 7 23 8 24 9 25 10 26 11
REMARK SMILES IDX 27 12 28 13 29 14 30 15 31 16 32 17 15 18 14 19 13 20 12 21
REMARK SMILES IDX 11 22 10 23 9 24 8 25 7 26 6 27 5 28 4 29 3 30 2 31 1 32
REMARK H PARENT
REMARK Flexibility Score: inf
ROOT
ATOM      1  C   UNL     1      15.243 -21.175  12.464  1.00  0.00     0.000 C 
ENDROOT
BRANCH   1   2
ATOM      2  C   UNL     1      13.990 -20.451  11.936  1.00  0.00     0.000 C 
BRANCH   2   3
ATOM      3  C   UNL     1      13.866 -18.969  12.340  1.00  0.00     0.000 C 
BRANCH   3   4
ATOM      4  C   UNL     1      12.605 -18.270  11.786  1.00  0.00     0.000 C 
BRANCH   4   5
ATOM      5  C   UNL     1      12.692 -16.736  11.869  1.00  0.00     0.000 C 
BRANCH   5   6
ATOM      6  C   UNL     1      14.108 -16.237  12.200  1.00  0.00     0.000 C 
BRANCH   6   7
ATOM      7  C   UNL     1      14.495 -14.978  11.409  1.00  0.00     0.000 C 
BRANCH   7   8
ATOM      8  C   UNL     1      15.238 -13.976  12.305  1.00  0.00     0.000 C 
BRANCH   8   9
ATOM      9  C   UNL     1      14.961 -14.207  13.799  1.00  0.00     0.000 C 
BRANCH   9  10
ATOM     10  C   UNL     1      15.452 -13.043  14.673  1.00  0.00     0.000 C 
BRANCH  10  11
ATOM     11  C   UNL     1      16.172 -13.565  15.925  1.00  0.00     0.000 C 
BRANCH  11  12
ATOM     12  C   UNL     1      15.873 -12.729  17.180  1.00  0.00     0.000 C 
BRANCH  12  13
ATOM     13  C   UNL     1      15.519 -13.589  18.400  1.00  0.00     0.006 C 
BRANCH  13  14
ATOM     14  C   UNL     1      15.255 -12.713  19.630  1.00  0.00     0.053 C 
BRANCH  14  15
ATOM     15  C   UNL     1      15.206 -13.542  20.874  1.00  0.00     0.041 C 
ATOM     16  O   UNL     1      14.524 -14.600  20.906  1.00  0.00    -0.550 OA
ATOM     17  O   UNL     1      15.909 -13.142  22.005  1.00  0.00    -0.550 OA
ENDBRANCH  14  15
ENDBRANCH  13  14
ENDBRANCH  12  13
ENDBRANCH  11  12
ENDBRANCH  10  11
ENDBRANCH   9  10
ENDBRANCH   8   9
ENDBRANCH   7   8
ENDBRANCH   6   7
ENDBRANCH   5   6
ENDBRANCH   4   5
ENDBRANCH   3   4
ENDBRANCH   2   3
ENDBRANCH   1   2
BRANCH   1  18
ATOM     18  C   UNL     1      16.191 -21.718  11.378  1.00  0.00     0.000 C 
BRANCH  18  19
ATOM     19  C   UNL     1      17.662 -21.335  11.617  1.00  0.00     0.000 C 
BRANCH  19  20
ATOM     20  C   UNL     1      17.975 -21.110  13.105  1.00  0.00     0.000 C 
BRANCH  20  21
ATOM     21  C   UNL     1      19.177 -21.935  13.587  1.00  0.00     0.000 C 
BRANCH  21  22
ATOM     22  C   UNL     1      18.945 -22.460  15.012  1.00  0.00     0.000 C 
BRANCH  22  23
ATOM     23  C   UNL     1      18.439 -21.371  15.974  1.00  0.00     0.000 C 
BRANCH  23  24
ATOM     24  C   UNL     1      19.490 -20.975  17.026  1.00  0.00    -0.000 C 
BRANCH  24  25
ATOM     25  C   UNL     1      20.835 -20.573  16.397  1.00  0.00    -0.000 C 
BRANCH  25  26
ATOM     26  C   UNL     1      21.668 -19.657  17.309  1.00  0.00    -0.000 C 
BRANCH  26  27
ATOM     27  C   UNL     1      22.544 -18.707  16.479  1.00  0.00    -0.000 C 
BRANCH  27  28
ATOM     28  C   UNL     1      22.979 -17.460  17.267  1.00  0.00    -0.000 C 
BRANCH  28  29
ATOM     29  C   UNL     1      23.604 -17.810  18.626  1.00  0.00    -0.000 C 
BRANCH  29  30
ATOM     30  C   UNL     1      23.083 -16.872  19.727  1.00  0.00    -0.000 C 
BRANCH  30  31
ATOM     31  C   UNL     1      22.978 -15.413  19.256  1.00  0.00    -0.003 C 
ATOM     32  C   UNL     1      22.310 -14.504  20.288  1.00  0.00     0.004 C 
ENDBRANCH  30  31
ENDBRANCH  29  30
ENDBRANCH  28  29
ENDBRANCH  27  28
ENDBRANCH  26  27
ENDBRANCH  25  26
ENDBRANCH  24  25
ENDBRANCH  23  24
ENDBRANCH  22  23
ENDBRANCH  21  22
ENDBRANCH  20  21
ENDBRANCH  19  20
ENDBRANCH  18  19
ENDBRANCH   1  18
TORSDOF 28
ENDMDL
MODEL 5
REMARK VINA RESULT:    -5.198      7.342     13.547
REMARK INTER + INTRA:         -15.894
REMARK INTER:                 -13.395
REMARK INTRA:                  -2.498
REMARK UNBOUND:                -2.188
REMARK SMILES CCCCCCCCCCCCCCCCCCCCCCCCCCCCCC(=O)[O-]
REMARK SMILES IDX 16 1 17 2 18 3 19 4 20 5 21 6 22 7 23 8 24 9 25 10 26 11
REMARK SMILES IDX 27 12 28 13 29 14 30 15 31 16 32 17 15 18 14 19 13 20 12 21
REMARK SMILES IDX 11 22 10 23 9 24 8 25 7 26 6 27 5 28 4 29 3 30 2 31 1 32
REMARK H PARENT
REMARK Flexibility Score: inf
ROOT
ATOM      1  C   UNL     1      14.514 -19.641  12.330  1.00  0.00     0.000 C 
ENDROOT
BRANCH   1   2
ATOM      2  C   UNL     1      15.067 -20.934  12.960  1.00  0.00     0.000 C 
BRANCH   2   3
ATOM      3  C   UNL     1      15.331 -22.087  11.973  1.00  0.00     0.000 C 
BRANCH   3   4
ATOM      4  C   UNL     1      16.019 -21.647  10.662  1.00  0.00     0.000 C 
BRANCH   4   5
ATOM      5  C   UNL     1      17.513 -21.332  10.853  1.00  0.00     0.000 C 
BRANCH   5   6
ATOM      6  C   UNL     1      18.339 -22.572  11.229  1.00  0.00     0.000 C 
BRANCH   6   7
ATOM      7  C   UNL     1      19.163 -22.372  12.510  1.00  0.00     0.000 C 
BRANCH   7   8
ATOM      8  C   UNL     1      18.826 -21.028  13.172  1.00  0.00     0.000 C 
BRANCH   8   9
ATOM      9  C   UNL     1      18.242 -21.200  14.584  1.00  0.00     0.000 C 
BRANCH   9  10
ATOM     10  C   UNL     1      18.652 -22.532  15.230  1.00  0.00     0.000 C 
BRANCH  10  11
ATOM     11  C   UNL     1      19.668 -22.303  16.359  1.00  0.00     0.000 C 
BRANCH  11  12
ATOM     12  C   UNL     1      19.348 -21.062  17.209  1.00  0.00     0.000 C 
BRANCH  12  13
ATOM     13  C   UNL     1      20.608 -20.333  17.697  1.00  0.00     0.006 C 
BRANCH  13  14
ATOM     14  C   UNL     1      21.413 -19.782  16.515  1.00  0.00     0.053 C 
BRANCH  14  15
ATOM     15  C   UNL     1      22.559 -18.947  16.995  1.00  0.00     0.041 C 
ATOM     16  O   UNL     1      22.593 -18.540  18.186  1.00  0.00    -0.550 OA
ATOM     17  O   UNL     1      23.588 -18.610  16.122  1.00  0.00    -0.550 OA
ENDBRANCH  14  15
ENDBRANCH  13  14
ENDBRANCH  12  13
ENDBRANCH  11  12
ENDBRANCH  10  11
ENDBRANCH   9  10
ENDBRANCH   8   9
ENDBRANCH   7   8
ENDBRANCH   6   7
ENDBRANCH   5   6
ENDBRANCH   4   5
ENDBRANCH   3   4
ENDBRANCH   2   3
ENDBRANCH   1   2
BRANCH   1  18
ATOM     18  C   UNL     1      13.026 -19.691  11.932  1.00  0.00     0.000 C 
BRANCH  18  19
ATOM     19  C   UNL     1      12.376 -18.299  11.861  1.00  0.00     0.000 C 
BRANCH  19  20
ATOM     20  C   UNL     1      13.331 -17.181  12.310  1.00  0.00     0.000 C 
BRANCH  20  21
ATOM     21  C   UNL     1      13.217 -15.921  11.440  1.00  0.00     0.000 C 
BRANCH  21  22
ATOM     22  C   UNL     1      14.487 -15.063  11.550  1.00  0.00     0.000 C 
BRANCH  22  23
ATOM     23  C   UNL     1      14.894 -14.785  13.007  1.00  0.00     0.000 C 
BRANCH  23  24
ATOM     24  C   UNL     1      15.372 -13.339  13.222  1.00  0.00    -0.000 C 
BRANCH  24  25
ATOM     25  C   UNL     1      15.391 -12.937  14.707  1.00  0.00    -0.000 C 
BRANCH  25  26
ATOM     26  C   UNL     1      15.891 -14.067  15.623  1.00  0.00    -0.000 C 
BRANCH  26  27
ATOM     27  C   UNL     1      16.555 -13.496  16.886  1.00  0.00    -0.000 C 
BRANCH  27  28
ATOM     28  C   UNL     1      15.536 -12.917  17.881  1.00  0.00    -0.000 C 
BRANCH  28  29
ATOM     29  C   UNL     1      14.759 -14.009  18.632  1.00  0.00    -0.000 C 
BRANCH  29  30
ATOM     30  C   UNL     1      15.379 -14.272  20.013  1.00  0.00    -0.000 C 
BRANCH  30  31
ATOM     31  C   UNL     1      14.655 -13.516  21.138  1.00  0.00    -0.003 C 
ATOM     32  C   UNL     1      15.563 -12.523  21.864  1.00  0.00     0.004 C 
ENDBRANCH  30  31
ENDBRANCH  29  30
ENDBRANCH  28  29
ENDBRANCH  27  28
ENDBRANCH  26  27
ENDBRANCH  25  26
ENDBRANCH  24  25
ENDBRANCH  23  24
ENDBRANCH  22  23
ENDBRANCH  21  22
ENDBRANCH  20  21
ENDBRANCH  19  20
ENDBRANCH  18  19
ENDBRANCH   1  18
TORSDOF 28
ENDMDL
MODEL 6
REMARK VINA RESULT:    -5.072      8.750     14.149
REMARK INTER + INTRA:         -15.563
REMARK INTER:                 -13.873
REMARK INTRA:                  -1.690
REMARK UNBOUND:                -2.188
REMARK SMILES CCCCCCCCCCCCCCCCCCCCCCCCCCCCCC(=O)[O-]
REMARK SMILES IDX 16 1 17 2 18 3 19 4 20 5 21 6 22 7 23 8 24 9 25 10 26 11
REMARK SMILES IDX 27 12 28 13 29 14 30 15 31 16 32 17 15 18 14 19 13 20 12 21
REMARK SMILES IDX 11 22 10 23 9 24 8 25 7 26 6 27 5 28 4 29 3 30 2 31 1 32
REMARK H PARENT
REMARK Flexibility Score: inf
ROOT
ATOM      1  C   UNL     1      14.794 -20.893  12.895  1.00  0.00     0.000 C 
ENDROOT
BRANCH   1   2
ATOM      2  C   UNL     1      15.713 -21.939  12.236  1.00  0.00     0.000 C 
BRANCH   2   3
ATOM      3  C   UNL     1      16.180 -21.600  10.807  1.00  0.00     0.000 C 
BRANCH   3   4
ATOM      4  C   UNL     1      17.715 -21.561  10.640  1.00  0.00     0.000 C 
BRANCH   4   5
ATOM      5  C   UNL     1      18.442 -21.169  11.939  1.00  0.00     0.000 C 
BRANCH   5   6
ATOM      6  C   UNL     1      19.176 -22.352  12.590  1.00  0.00     0.000 C 
BRANCH   6   7
ATOM      7  C   UNL     1      18.851 -22.503  14.084  1.00  0.00     0.000 C 
BRANCH   7   8
ATOM      8  C   UNL     1      19.598 -21.451  14.916  1.00  0.00     0.000 C 
BRANCH   8   9
ATOM      9  C   UNL     1      18.916 -21.177  16.266  1.00  0.00     0.000 C 
BRANCH   9  10
ATOM     10  C   UNL     1      19.914 -20.745  17.351  1.00  0.00     0.000 C 
BRANCH  10  11
ATOM     11  C   UNL     1      21.110 -20.008  16.732  1.00  0.00     0.000 C 
BRANCH  11  12
ATOM     12  C   UNL     1      22.451 -20.399  17.374  1.00  0.00     0.000 C 
BRANCH  12  13
ATOM     13  C   UNL     1      23.304 -19.183  17.760  1.00  0.00     0.006 C 
BRANCH  13  14
ATOM     14  C   UNL     1      23.013 -17.994  16.837  1.00  0.00     0.053 C 
BRANCH  14  15
ATOM     15  C   UNL     1      23.015 -16.710  17.606  1.00  0.00     0.041 C 
ATOM     16  O   UNL     1      23.205 -16.716  18.851  1.00  0.00    -0.550 OA
ATOM     17  O   UNL     1      22.799 -15.505  16.948  1.00  0.00    -0.550 OA
ENDBRANCH  14  15
ENDBRANCH  13  14
ENDBRANCH  12  13
ENDBRANCH  11  12
ENDBRANCH  10  11
ENDBRANCH   9  10
ENDBRANCH   8   9
ENDBRANCH   7   8
ENDBRANCH   6   7
ENDBRANCH   5   6
ENDBRANCH   4   5
ENDBRANCH   3   4
ENDBRANCH   2   3
ENDBRANCH   1   2
BRANCH   1  18
ATOM     18  C   UNL     1      13.394 -21.404  13.284  1.00  0.00     0.000 C 
BRANCH  18  19
ATOM     19  C   UNL     1      12.258 -20.532  12.723  1.00  0.00     0.000 C 
BRANCH  19  20
ATOM     20  C   UNL     1      12.775 -19.229  12.091  1.00  0.00     0.000 C 
BRANCH  20  21
ATOM     21  C   UNL     1      11.657 -18.205  11.850  1.00  0.00     0.000 C 
BRANCH  21  22
ATOM     22  C   UNL     1      12.231 -16.784  11.733  1.00  0.00     0.000 C 
BRANCH  22  23
ATOM     23  C   UNL     1      13.762 -16.748  11.875  1.00  0.00     0.000 C 
BRANCH  23  24
ATOM     24  C   UNL     1      14.328 -15.317  11.823  1.00  0.00    -0.000 C 
BRANCH  24  25
ATOM     25  C   UNL     1      14.909 -14.861  13.172  1.00  0.00    -0.000 C 
BRANCH  25  26
ATOM     26  C   UNL     1      15.328 -13.382  13.170  1.00  0.00    -0.000 C 
BRANCH  26  27
ATOM     27  C   UNL     1      15.117 -12.750  14.554  1.00  0.00    -0.000 C 
BRANCH  27  28
ATOM     28  C   UNL     1      15.823 -13.530  15.676  1.00  0.00    -0.000 C 
BRANCH  28  29
ATOM     29  C   UNL     1      15.875 -12.746  16.996  1.00  0.00    -0.000 C 
BRANCH  29  30
ATOM     30  C   UNL     1      15.880 -13.701  18.201  1.00  0.00    -0.000 C 
BRANCH  30  31
ATOM     31  C   UNL     1      14.732 -13.416  19.182  1.00  0.00    -0.003 C 
ATOM     32  C   UNL     1      14.532 -14.538  20.200  1.00  0.00     0.004 C 
ENDBRANCH  30  31
ENDBRANCH  29  30
ENDBRANCH  28  29
ENDBRANCH  27  28
ENDBRANCH  26  27
ENDBRANCH  25  26
ENDBRANCH  24  25
ENDBRANCH  23  24
ENDBRANCH  22  23
ENDBRANCH  21  22
ENDBRANCH  20  21
ENDBRANCH  19  20
ENDBRANCH  18  19
ENDBRANCH   1  18
TORSDOF 28
ENDMDL
MODEL 7
REMARK VINA RESULT:    -5.065     11.285     17.153
REMARK INTER + INTRA:         -15.545
REMARK INTER:                 -12.975
REMARK INTRA:                  -2.570
REMARK UNBOUND:                -2.188
REMARK SMILES CCCCCCCCCCCCCCCCCCCCCCCCCCCCCC(=O)[O-]
REMARK SMILES IDX 16 1 17 2 18 3 19 4 20 5 21 6 22 7 23 8 24 9 25 10 26 11
REMARK SMILES IDX 27 12 28 13 29 14 30 15 31 16 32 17 15 18 14 19 13 20 12 21
REMARK SMILES IDX 11 22 10 23 9 24 8 25 7 26 6 27 5 28 4 29 3 30 2 31 1 32
REMARK H PARENT
REMARK Flexibility Score: inf
ROOT
ATOM      1  C   UNL     1      15.953 -21.000  11.752  1.00  0.00     0.000 C 
ENDROOT
BRANCH   1   2
ATOM      2  C   UNL     1      15.193 -22.039  12.600  1.00  0.00     0.000 C 
BRANCH   2   3
ATOM      3  C   UNL     1      14.971 -21.650  14.075  1.00  0.00     0.000 C 
BRANCH   3   4
ATOM      4  C   UNL     1      14.658 -22.847  14.999  1.00  0.00     0.000 C 
BRANCH   4   5
ATOM      5  C   UNL     1      13.464 -22.579  15.933  1.00  0.00     0.000 C 
BRANCH   5   6
ATOM      6  C   UNL     1      12.429 -21.625  15.317  1.00  0.00     0.000 C 
BRANCH   6   7
ATOM      7  C   UNL     1      10.999 -22.185  15.370  1.00  0.00     0.000 C 
BRANCH   7   8
ATOM      8  C   UNL     1      10.447 -22.410  13.956  1.00  0.00     0.000 C 
BRANCH   8   9
ATOM      9  C   UNL     1       9.787 -21.148  13.375  1.00  0.00     0.000 C 
BRANCH   9  10
ATOM     10  C   UNL     1      10.646 -20.485  12.288  1.00  0.00     0.000 C 
BRANCH  10  11
ATOM     11  C   UNL     1      10.655 -18.958  12.453  1.00  0.00     0.000 C 
BRANCH  11  12
ATOM     12  C   UNL     1      11.879 -18.293  11.804  1.00  0.00     0.000 C 
BRANCH  12  13
ATOM     13  C   UNL     1      11.900 -16.770  11.992  1.00  0.00     0.006 C 
BRANCH  13  14
ATOM     14  C   UNL     1      13.061 -16.139  11.215  1.00  0.00     0.053 C 
BRANCH  14  15
ATOM     15  C   UNL     1      14.290 -16.061  12.064  1.00  0.00     0.041 C 
ATOM     16  O   UNL     1      14.832 -17.112  12.496  1.00  0.00    -0.550 OA
ATOM     17  O   UNL     1      14.836 -14.823  12.387  1.00  0.00    -0.550 OA
ENDBRANCH  14  15
ENDBRANCH  13  14
ENDBRANCH  12  13
ENDBRANCH  11  12
ENDBRANCH  10  11
ENDBRANCH   9  10
ENDBRANCH   8   9
ENDBRANCH   7   8
ENDBRANCH   6   7
ENDBRANCH   5   6
ENDBRANCH   4   5
ENDBRANCH   3   4
ENDBRANCH   2   3
ENDBRANCH   1   2
BRANCH   1  18
ATOM     18  C   UNL     1      16.886 -20.065  12.544  1.00  0.00     0.000 C 
BRANCH  18  19
ATOM     19  C   UNL     1      18.376 -20.363  12.309  1.00  0.00     0.000 C 
BRANCH  19  20
ATOM     20  C   UNL     1      18.650 -21.861  12.106  1.00  0.00     0.000 C 
BRANCH  20  21
ATOM     21  C   UNL     1      18.762 -22.627  13.432  1.00  0.00     0.000 C 
BRANCH  21  22
ATOM     22  C   UNL     1      19.258 -21.705  14.557  1.00  0.00     0.000 C 
BRANCH  22  23
ATOM     23  C   UNL     1      18.286 -21.642  15.747  1.00  0.00     0.000 C 
BRANCH  23  24
ATOM     24  C   UNL     1      18.987 -21.878  17.097  1.00  0.00    -0.000 C 
BRANCH  24  25
ATOM     25  C   UNL     1      19.679 -20.613  17.633  1.00  0.00    -0.000 C 
BRANCH  25  26
ATOM     26  C   UNL     1      21.211 -20.682  17.527  1.00  0.00    -0.000 C 
BRANCH  26  27
ATOM     27  C   UNL     1      21.732 -19.705  16.462  1.00  0.00    -0.000 C 
BRANCH  27  28
ATOM     28  C   UNL     1      23.113 -19.126  16.813  1.00  0.00    -0.000 C 
BRANCH  28  29
ATOM     29  C   UNL     1      23.028 -17.694  17.364  1.00  0.00    -0.000 C 
BRANCH  29  30
ATOM     30  C   UNL     1      23.145 -17.689  18.896  1.00  0.00    -0.000 C 
BRANCH  30  31
ATOM     31  C   UNL     1      23.063 -16.274  19.489  1.00  0.00    -0.003 C 
ATOM     32  C   UNL     1      22.714 -15.213  18.444  1.00  0.00     0.004 C 
ENDBRANCH  30  31
ENDBRANCH  29  30
ENDBRANCH  28  29
ENDBRANCH  27  28
ENDBRANCH  26  27
ENDBRANCH  25  26
ENDBRANCH  24  25
ENDBRANCH  23  24
ENDBRANCH  22  23
ENDBRANCH  21  22
ENDBRANCH  20  21
ENDBRANCH  19  20
ENDBRANCH  18  19
ENDBRANCH   1  18
TORSDOF 28
ENDMDL
MODEL 8
REMARK VINA RESULT:    -4.958     11.284     15.882
REMARK INTER + INTRA:         -15.261
REMARK INTER:                 -12.615
REMARK INTRA:                  -2.646
REMARK UNBOUND:                -2.188
REMARK SMILES CCCCCCCCCCCCCCCCCCCCCCCCCCCCCC(=O)[O-]
REMARK SMILES IDX 16 1 17 2 18 3 19 4 20 5 21 6 22 7 23 8 24 9 25 10 26 11
REMARK SMILES IDX 27 12 28 13 29 14 30 15 31 16 32 17 15 18 14 19 13 20 12 21
REMARK SMILES IDX 11 22 10 23 9 24 8 25 7 26 6 27 5 28 4 29 3 30 2 31 1 32
REMARK H PARENT
REMARK Flexibility Score: inf
ROOT
ATOM      1  C   UNL     1      15.181 -20.491  11.666  1.00  0.00     0.000 C 
ENDROOT
BRANCH   1   2
ATOM      2  C   UNL     1      16.197 -20.441  12.823  1.00  0.00     0.000 C 
BRANCH   2   3
ATOM      3  C   UNL     1      17.673 -20.607  12.412  1.00  0.00     0.000 C 
BRANCH   3   4
ATOM      4  C   UNL     1      18.340 -21.884  12.969  1.00  0.00     0.000 C 
BRANCH   4   5
ATOM      5  C   UNL     1      19.282 -21.594  14.150  1.00  0.00     0.000 C 
BRANCH   5   6
ATOM      6  C   UNL     1      18.531 -21.150  15.416  1.00  0.00     0.000 C 
BRANCH   6   7
ATOM      7  C   UNL     1      17.786 -22.306  16.101  1.00  0.00     0.000 C 
BRANCH   7   8
ATOM      8  C   UNL     1      18.267 -22.486  17.548  1.00  0.00     0.000 C 
BRANCH   8   9
ATOM      9  C   UNL     1      19.477 -21.598  17.879  1.00  0.00     0.000 C 
BRANCH   9  10
ATOM     10  C   UNL     1      20.806 -22.365  17.807  1.00  0.00     0.000 C 
BRANCH  10  11
ATOM     11  C   UNL     1      21.963 -21.423  17.441  1.00  0.00     0.000 C 
BRANCH  11  12
ATOM     12  C   UNL     1      21.559 -19.941  17.471  1.00  0.00     0.000 C 
BRANCH  12  13
ATOM     13  C   UNL     1      22.105 -19.150  16.273  1.00  0.00     0.006 C 
BRANCH  13  14
ATOM     14  C   UNL     1      23.385 -18.397  16.652  1.00  0.00     0.053 C 
BRANCH  14  15
ATOM     15  C   UNL     1      23.074 -17.231  17.537  1.00  0.00     0.041 C 
ATOM     16  O   UNL     1      22.982 -16.073  17.051  1.00  0.00    -0.550 OA
ATOM     17  O   UNL     1      22.893 -17.422  18.902  1.00  0.00    -0.550 OA
ENDBRANCH  14  15
ENDBRANCH  13  14
ENDBRANCH  12  13
ENDBRANCH  11  12
ENDBRANCH  10  11
ENDBRANCH   9  10
ENDBRANCH   8   9
ENDBRANCH   7   8
ENDBRANCH   6   7
ENDBRANCH   5   6
ENDBRANCH   4   5
ENDBRANCH   3   4
ENDBRANCH   2   3
ENDBRANCH   1   2
BRANCH   1  18
ATOM     18  C   UNL     1      15.313 -21.709  10.731  1.00  0.00     0.000 C 
BRANCH  18  19
ATOM     19  C   UNL     1      14.087 -22.637  10.777  1.00  0.00     0.000 C 
BRANCH  19  20
ATOM     20  C   UNL     1      13.150 -22.315  11.952  1.00  0.00     0.000 C 
BRANCH  20  21
ATOM     21  C   UNL     1      11.696 -22.728  11.679  1.00  0.00     0.000 C 
BRANCH  21  22
ATOM     22  C   UNL     1      10.807 -22.439  12.898  1.00  0.00     0.000 C 
BRANCH  22  23
ATOM     23  C   UNL     1      11.083 -21.061  13.523  1.00  0.00     0.000 C 
BRANCH  23  24
ATOM     24  C   UNL     1      10.332 -19.925  12.806  1.00  0.00    -0.000 C 
BRANCH  24  25
ATOM     25  C   UNL     1      11.271 -19.013  11.997  1.00  0.00    -0.000 C 
BRANCH  25  26
ATOM     26  C   UNL     1      11.020 -17.519  12.259  1.00  0.00    -0.000 C 
BRANCH  26  27
ATOM     27  C   UNL     1      12.244 -16.679  11.863  1.00  0.00    -0.000 C 
BRANCH  27  28
ATOM     28  C   UNL     1      13.574 -17.397  12.152  1.00  0.00    -0.000 C 
BRANCH  28  29
ATOM     29  C   UNL     1      14.767 -16.431  12.201  1.00  0.00    -0.000 C 
BRANCH  29  30
ATOM     30  C   UNL     1      14.324 -14.996  11.871  1.00  0.00    -0.000 C 
BRANCH  30  31
ATOM     31  C   UNL     1      15.388 -13.952  12.239  1.00  0.00    -0.003 C 
ATOM     32  C   UNL     1      15.199 -13.382  13.645  1.00  0.00     0.004 C 
ENDBRANCH  30  31
ENDBRANCH  29  30
ENDBRANCH  28  29
ENDBRANCH  27  28
ENDBRANCH  26  27
ENDBRANCH  25  26
ENDBRANCH  24  25
ENDBRANCH  23  24
ENDBRANCH  22  23
ENDBRANCH  21  22
ENDBRANCH  20  21
ENDBRANCH  19  20
ENDBRANCH  18  19
ENDBRANCH   1  18
TORSDOF 28
ENDMDL
MODEL 9
REMARK VINA RESULT:    -4.852     12.391     16.251
REMARK INTER + INTRA:         -14.983
REMARK INTER:                 -11.895
REMARK INTRA:                  -3.088
REMARK UNBOUND:                -2.188
REMARK SMILES CCCCCCCCCCCCCCCCCCCCCCCCCCCCCC(=O)[O-]
REMARK SMILES IDX 16 1 17 2 18 3 19 4 20 5 21 6 22 7 23 8 24 9 25 10 26 11
REMARK SMILES IDX 27 12 28 13 29 14 30 15 31 16 32 17 15 18 14 19 13 20 12 21
REMARK SMILES IDX 11 22 10 23 9 24 8 25 7 26 6 27 5 28 4 29 3 30 2 31 1 32
REMARK H PARENT
REMARK Flexibility Score: inf
ROOT
ATOM      1  C   UNL     1      15.126 -20.307  12.391  1.00  0.00     0.000 C 
ENDROOT
BRANCH   1   2
ATOM      2  C   UNL     1      16.644 -20.140  12.596  1.00  0.00     0.000 C 
BRANCH   2   3
ATOM      3  C   UNL     1      17.523 -21.205  11.911  1.00  0.00     0.000 C 
BRANCH   3   4
ATOM      4  C   UNL     1      17.997 -22.331  12.857  1.00  0.00     0.000 C 
BRANCH   4   5
ATOM      5  C   UNL     1      19.148 -21.885  13.777  1.00  0.00     0.000 C 
BRANCH   5   6
ATOM      6  C   UNL     1      18.654 -21.182  15.051  1.00  0.00     0.000 C 
BRANCH   6   7
ATOM      7  C   UNL     1      17.756 -22.080  15.915  1.00  0.00     0.000 C 
BRANCH   7   8
ATOM      8  C   UNL     1      18.263 -22.131  17.363  1.00  0.00     0.000 C 
BRANCH   8   9
ATOM      9  C   UNL     1      19.429 -21.159  17.611  1.00  0.00     0.000 C 
BRANCH   9  10
ATOM     10  C   UNL     1      20.753 -21.889  17.881  1.00  0.00     0.000 C 
BRANCH  10  11
ATOM     11  C   UNL     1      21.945 -21.069  17.364  1.00  0.00     0.000 C 
BRANCH  11  12
ATOM     12  C   UNL     1      21.533 -19.688  16.828  1.00  0.00     0.000 C 
BRANCH  12  13
ATOM     13  C   UNL     1      22.726 -18.866  16.319  1.00  0.00     0.006 C 
BRANCH  13  14
ATOM     14  C   UNL     1      23.581 -18.362  17.487  1.00  0.00     0.053 C 
BRANCH  14  15
ATOM     15  C   UNL     1      23.131 -17.005  17.929  1.00  0.00     0.041 C 
ATOM     16  O   UNL     1      22.812 -16.133  17.079  1.00  0.00    -0.550 OA
ATOM     17  O   UNL     1      23.071 -16.700  19.285  1.00  0.00    -0.550 OA
ENDBRANCH  14  15
ENDBRANCH  13  14
ENDBRANCH  12  13
ENDBRANCH  11  12
ENDBRANCH  10  11
ENDBRANCH   9  10
ENDBRANCH   8   9
ENDBRANCH   7   8
ENDBRANCH   6   7
ENDBRANCH   5   6
ENDBRANCH   4   5
ENDBRANCH   3   4
ENDBRANCH   2   3
ENDBRANCH   1   2
BRANCH   1  18
ATOM     18  C   UNL     1      14.668 -21.730  12.018  1.00  0.00     0.000 C 
BRANCH  18  19
ATOM     19  C   UNL     1      14.246 -22.565  13.239  1.00  0.00     0.000 C 
BRANCH  19  20
ATOM     20  C   UNL     1      13.963 -21.696  14.475  1.00  0.00     0.000 C 
BRANCH  20  21
ATOM     21  C   UNL     1      13.377 -22.503  15.643  1.00  0.00     0.000 C 
BRANCH  21  22
ATOM     22  C   UNL     1      11.973 -21.997  16.008  1.00  0.00     0.000 C 
BRANCH  22  23
ATOM     23  C   UNL     1      11.220 -21.406  14.804  1.00  0.00     0.000 C 
BRANCH  23  24
ATOM     24  C   UNL     1      10.016 -22.265  14.378  1.00  0.00    -0.000 C 
BRANCH  24  25
ATOM     25  C   UNL     1       9.705 -22.145  12.876  1.00  0.00    -0.000 C 
BRANCH  25  26
ATOM     26  C   UNL     1       8.468 -21.278  12.593  1.00  0.00    -0.000 C 
BRANCH  26  27
ATOM     27  C   UNL     1       8.801 -20.156  11.597  1.00  0.00    -0.000 C 
BRANCH  27  28
ATOM     28  C   UNL     1      10.315 -19.943  11.429  1.00  0.00    -0.000 C 
BRANCH  28  29
ATOM     29  C   UNL     1      10.839 -18.759  12.256  1.00  0.00    -0.000 C 
BRANCH  29  30
ATOM     30  C   UNL     1      12.238 -18.335  11.781  1.00  0.00    -0.000 C 
BRANCH  30  31
ATOM     31  C   UNL     1      12.410 -16.809  11.742  1.00  0.00    -0.003 C 
ATOM     32  C   UNL     1      13.867 -16.374  11.897  1.00  0.00     0.004 C 
ENDBRANCH  30  31
ENDBRANCH  29  30
ENDBRANCH  28  29
ENDBRANCH  27  28
ENDBRANCH  26  27
ENDBRANCH  25  26
ENDBRANCH  24  25
ENDBRANCH  23  24
ENDBRANCH  22  23
ENDBRANCH  21  22
ENDBRANCH  20  21
ENDBRANCH  19  20
ENDBRANCH  18  19
ENDBRANCH   1  18
TORSDOF 28
ENDMDL
