MODEL 1
REMARK VINA RESULT:    -6.304      0.000      0.000
REMARK INTER + INTRA:         -12.555
REMARK INTER:                 -11.463
REMARK INTRA:                  -1.091
REMARK UNBOUND:                -1.091
REMARK SMILES CCCCCCCCCCCCCCCC(=O)[O-]
REMARK SMILES IDX 9 1 10 2 11 3 12 4 13 5 14 6 15 7 16 8 17 9 18 10 8 11 7 12
REMARK SMILES IDX 6 13 5 14 4 15 3 16 2 17 1 18
REMARK H PARENT
REMARK Flexibility Score: inf
ROOT
ATOM      1  C   UNL     1      93.017  -8.679  -2.804  1.00  0.00     0.000 C 
ENDROOT
BRANCH   1   2
ATOM      2  C   UNL     1      94.228  -8.848  -3.740  1.00  0.00     0.000 C 
BRANCH   2   3
ATOM      3  C   UNL     1      94.165  -7.929  -4.970  1.00  0.00     0.000 C 
BRANCH   3   4
ATOM      4  C   UNL     1      95.393  -7.011  -5.081  1.00  0.00     0.000 C 
BRANCH   4   5
ATOM      5  C   UNL     1      95.782  -6.725  -6.542  1.00  0.00     0.000 C 
BRANCH   5   6
ATOM      6  C   UNL     1      96.407  -5.331  -6.736  1.00  0.00     0.006 C 
BRANCH   6   7
ATOM      7  C   UNL     1      96.842  -4.652  -5.426  1.00  0.00     0.053 C 
BRANCH   7   8
ATOM      8  C   UNL     1      96.942  -3.163  -5.550  1.00  0.00     0.041 C 
ATOM      9  O   UNL     1      96.036  -2.511  -6.131  1.00  0.00    -0.550 OA
ATOM     10  O   UNL     1      98.054  -2.497  -5.051  1.00  0.00    -0.550 OA
ENDBRANCH   7   8
ENDBRANCH   6   7
ENDBRANCH   5   6
ENDBRANCH   4   5
ENDBRANCH   3   4
ENDBRANCH   2   3
ENDBRANCH   1   2
BRANCH   1  11
ATOM     11  C   UNL     1      91.746  -9.400  -3.300  1.00  0.00     0.000 C 
BRANCH  11  12
ATOM     12  C   UNL     1      90.462  -8.653  -2.897  1.00  0.00    -0.000 C 
BRANCH  12  13
ATOM     13  C   UNL     1      89.557  -8.336  -4.098  1.00  0.00    -0.000 C 
BRANCH  13  14
ATOM     14  C   UNL     1      90.311  -8.377  -5.435  1.00  0.00    -0.000 C 
BRANCH  14  15
ATOM     15  C   UNL     1      90.283  -7.004  -6.123  1.00  0.00    -0.000 C 
BRANCH  15  16
ATOM     16  C   UNL     1      88.854  -6.486  -6.371  1.00  0.00    -0.000 C 
BRANCH  16  17
ATOM     17  C   UNL     1      88.613  -5.024  -5.952  1.00  0.00    -0.003 C 
ATOM     18  C   UNL     1      88.270  -4.875  -4.470  1.00  0.00     0.004 C 
ENDBRANCH  16  17
ENDBRANCH  15  16
ENDBRANCH  14  15
ENDBRANCH  13  14
ENDBRANCH  12  13
ENDBRANCH  11  12
ENDBRANCH   1  11
TORSDOF 14
ENDMDL
MODEL 2
REMARK VINA RESULT:    -6.126     12.277     14.495
REMARK INTER + INTRA:         -12.230
REMARK INTER:                 -10.697
REMARK INTRA:                  -1.534
REMARK UNBOUND:                -1.091
REMARK SMILES CCCCCCCCCCCCCCCC(=O)[O-]
REMARK SMILES IDX 9 1 10 2 11 3 12 4 13 5 14 6 15 7 16 8 17 9 18 10 8 11 7 12
REMARK SMILES IDX 6 13 5 14 4 15 3 16 2 17 1 18
REMARK H PARENT
REMARK Flexibility Score: inf
ROOT
ATOM      1  C   UNL     1      92.460  -2.628   7.519  1.00  0.00     0.000 C 
ENDROOT
BRANCH   1   2
ATOM      2  C   UNL     1      92.998  -1.503   6.617  1.00  0.00     0.000 C 
BRANCH   2   3
ATOM      3  C   UNL     1      91.892  -0.566   6.107  1.00  0.00     0.000 C 
BRANCH   3   4
ATOM      4  C   UNL     1      90.961  -1.252   5.094  1.00  0.00     0.000 C 
BRANCH   4   5
ATOM      5  C   UNL     1      89.555  -1.505   5.666  1.00  0.00     0.000 C 
BRANCH   5   6
ATOM      6  C   UNL     1      89.127  -2.982   5.579  1.00  0.00     0.006 C 
BRANCH   6   7
ATOM      7  C   UNL     1      89.952  -3.814   4.581  1.00  0.00     0.053 C 
BRANCH   7   8
ATOM      8  C   UNL     1      90.533  -5.049   5.199  1.00  0.00     0.041 C 
ATOM      9  O   UNL     1      90.379  -5.280   6.426  1.00  0.00    -0.550 OA
ATOM     10  O   UNL     1      91.273  -5.931   4.422  1.00  0.00    -0.550 OA
ENDBRANCH   7   8
ENDBRANCH   6   7
ENDBRANCH   5   6
ENDBRANCH   4   5
ENDBRANCH   3   4
ENDBRANCH   2   3
ENDBRANCH   1   2
BRANCH   1  11
ATOM     11  C   UNL     1      93.520  -3.691   7.880  1.00  0.00     0.000 C 
BRANCH  11  12
ATOM     12  C   UNL     1      93.332  -4.234   9.307  1.00  0.00    -0.000 C 
BRANCH  12  13
ATOM     13  C   UNL     1      94.325  -3.625  10.310  1.00  0.00    -0.000 C 
BRANCH  13  14
ATOM     14  C   UNL     1      95.368  -4.639  10.801  1.00  0.00    -0.000 C 
BRANCH  14  15
ATOM     15  C   UNL     1      96.782  -4.043  10.743  1.00  0.00    -0.000 C 
BRANCH  15  16
ATOM     16  C   UNL     1      96.939  -2.976   9.643  1.00  0.00    -0.000 C 
BRANCH  16  17
ATOM     17  C   UNL     1      97.459  -3.508   8.295  1.00  0.00    -0.003 C 
ATOM     18  C   UNL     1      96.892  -2.750   7.094  1.00  0.00     0.004 C 
ENDBRANCH  16  17
ENDBRANCH  15  16
ENDBRANCH  14  15
ENDBRANCH  13  14
ENDBRANCH  12  13
ENDBRANCH  11  12
ENDBRANCH   1  11
TORSDOF 14
ENDMDL
MODEL 3
REMARK VINA RESULT:    -6.104     12.170     13.602
REMARK INTER + INTRA:         -12.191
REMARK INTER:                 -10.545
REMARK INTRA:                  -1.646
REMARK UNBOUND:                -1.091
REMARK SMILES CCCCCCCCCCCCCCCC(=O)[O-]
REMARK SMILES IDX 9 1 10 2 11 3 12 4 13 5 14 6 15 7 16 8 17 9 18 10 8 11 7 12
REMARK SMILES IDX 6 13 5 14 4 15 3 16 2 17 1 18
REMARK H PARENT
REMARK Flexibility Score: inf
ROOT
ATOM      1  C   UNL     1      93.674  -2.590   7.679  1.00  0.00     0.000 C 
ENDROOT
BRANCH   1   2
ATOM      2  C   UNL     1      93.884  -4.011   8.231  1.00  0.00     0.000 C 
BRANCH   2   3
ATOM      3  C   UNL     1      93.352  -4.180   9.663  1.00  0.00     0.000 C 
BRANCH   3   4
ATOM      4  C   UNL     1      94.437  -3.942  10.726  1.00  0.00     0.000 C 
BRANCH   4   5
ATOM      5  C   UNL     1      95.694  -4.795  10.484  1.00  0.00     0.000 C 
BRANCH   5   6
ATOM      6  C   UNL     1      96.998  -3.981  10.569  1.00  0.00     0.006 C 
BRANCH   6   7
ATOM      7  C   UNL     1      97.086  -2.831   9.550  1.00  0.00     0.053 C 
BRANCH   7   8
ATOM      8  C   UNL     1      97.484  -3.298   8.183  1.00  0.00     0.041 C 
ATOM      9  O   UNL     1      98.262  -4.278   8.046  1.00  0.00    -0.550 OA
ATOM     10  O   UNL     1      97.021  -2.628   7.058  1.00  0.00    -0.550 OA
ENDBRANCH   7   8
ENDBRANCH   6   7
ENDBRANCH   5   6
ENDBRANCH   4   5
ENDBRANCH   3   4
ENDBRANCH   2   3
ENDBRANCH   1   2
BRANCH   1  11
ATOM     11  C   UNL     1      92.217  -2.297   7.262  1.00  0.00     0.000 C 
BRANCH  11  12
ATOM     12  C   UNL     1      92.136  -1.257   6.131  1.00  0.00    -0.000 C 
BRANCH  12  13
ATOM     13  C   UNL     1      90.965  -1.514   5.170  1.00  0.00    -0.000 C 
BRANCH  13  14
ATOM     14  C   UNL     1      89.647  -1.800   5.904  1.00  0.00    -0.000 C 
BRANCH  14  15
ATOM     15  C   UNL     1      89.092  -3.179   5.517  1.00  0.00    -0.000 C 
BRANCH  15  16
ATOM     16  C   UNL     1      90.099  -4.030   4.721  1.00  0.00    -0.000 C 
BRANCH  16  17
ATOM     17  C   UNL     1      90.693  -5.222   5.493  1.00  0.00    -0.003 C 
ATOM     18  C   UNL     1      90.107  -5.378   6.896  1.00  0.00     0.004 C 
ENDBRANCH  16  17
ENDBRANCH  15  16
ENDBRANCH  14  15
ENDBRANCH  13  14
ENDBRANCH  12  13
ENDBRANCH  11  12
ENDBRANCH   1  11
TORSDOF 14
ENDMDL
MODEL 4
REMARK VINA RESULT:    -6.085     11.705     15.111
REMARK INTER + INTRA:         -12.157
REMARK INTER:                 -10.738
REMARK INTRA:                  -1.419
REMARK UNBOUND:                -1.091
REMARK SMILES CCCCCCCCCCCCCCCC(=O)[O-]
REMARK SMILES IDX 9 1 10 2 11 3 12 4 13 5 14 6 15 7 16 8 17 9 18 10 8 11 7 12
REMARK SMILES IDX 6 13 5 14 4 15 3 16 2 17 1 18
REMARK H PARENT
REMARK Flexibility Score: inf
ROOT
ATOM      1  C   UNL     1      81.843  -0.836   0.952  1.00  0.00     0.000 C 
ENDROOT
BRANCH   1   2
ATOM      2  C   UNL     1      83.142  -0.266   0.355  1.00  0.00     0.000 C 
BRANCH   2   3
ATOM      3  C   UNL     1      82.893   0.903  -0.611  1.00  0.00     0.000 C 
BRANCH   3   4
ATOM      4  C   UNL     1      81.645   1.720  -0.237  1.00  0.00     0.000 C 
BRANCH   4   5
ATOM      5  C   UNL     1      81.977   2.919   0.668  1.00  0.00     0.000 C 
BRANCH   5   6
ATOM      6  C   UNL     1      81.144   2.944   1.963  1.00  0.00     0.006 C 
BRANCH   6   7
ATOM      7  C   UNL     1      81.807   2.222   3.149  1.00  0.00     0.053 C 
BRANCH   7   8
ATOM      8  C   UNL     1      81.850   3.061   4.388  1.00  0.00     0.041 C 
ATOM      9  O   UNL     1      82.629   4.047   4.463  1.00  0.00    -0.550 OA
ATOM     10  O   UNL     1      81.049   2.736   5.475  1.00  0.00    -0.550 OA
ENDBRANCH   7   8
ENDBRANCH   6   7
ENDBRANCH   5   6
ENDBRANCH   4   5
ENDBRANCH   3   4
ENDBRANCH   2   3
ENDBRANCH   1   2
BRANCH   1  11
ATOM     11  C   UNL     1      81.438  -2.203   0.359  1.00  0.00     0.000 C 
BRANCH  11  12
ATOM     12  C   UNL     1      80.570  -3.022   1.331  1.00  0.00    -0.000 C 
BRANCH  12  13
ATOM     13  C   UNL     1      81.267  -3.280   2.676  1.00  0.00    -0.000 C 
BRANCH  13  14
ATOM     14  C   UNL     1      82.642  -3.943   2.513  1.00  0.00    -0.000 C 
BRANCH  14  15
ATOM     15  C   UNL     1      83.718  -3.175   3.295  1.00  0.00    -0.000 C 
BRANCH  15  16
ATOM     16  C   UNL     1      84.853  -2.648   2.396  1.00  0.00    -0.000 C 
BRANCH  16  17
ATOM     17  C   UNL     1      86.247  -2.642   3.049  1.00  0.00    -0.003 C 
ATOM     18  C   UNL     1      87.378  -2.432   2.043  1.00  0.00     0.004 C 
ENDBRANCH  16  17
ENDBRANCH  15  16
ENDBRANCH  14  15
ENDBRANCH  13  14
ENDBRANCH  12  13
ENDBRANCH  11  12
ENDBRANCH   1  11
TORSDOF 14
ENDMDL
MODEL 5
REMARK VINA RESULT:    -6.064     12.449     14.276
REMARK INTER + INTRA:         -12.119
REMARK INTER:                 -10.492
REMARK INTRA:                  -1.627
REMARK UNBOUND:                -1.091
REMARK SMILES CCCCCCCCCCCCCCCC(=O)[O-]
REMARK SMILES IDX 9 1 10 2 11 3 12 4 13 5 14 6 15 7 16 8 17 9 18 10 8 11 7 12
REMARK SMILES IDX 6 13 5 14 4 15 3 16 2 17 1 18
REMARK H PARENT
REMARK Flexibility Score: inf
ROOT
ATOM      1  C   UNL     1      97.023  -2.250   6.795  1.00  0.00     0.000 C 
ENDROOT
BRANCH   1   2
ATOM      2  C   UNL     1      98.514  -2.559   7.019  1.00  0.00     0.000 C 
BRANCH   2   3
ATOM      3  C   UNL     1      98.769  -4.028   7.394  1.00  0.00     0.000 C 
BRANCH   3   4
ATOM      4  C   UNL     1      99.321  -4.848   6.218  1.00  0.00     0.000 C 
BRANCH   4   5
ATOM      5  C   UNL     1      99.799  -6.246   6.648  1.00  0.00     0.000 C 
BRANCH   5   6
ATOM      6  C   UNL     1      99.047  -7.385   5.934  1.00  0.00     0.006 C 
BRANCH   6   7
ATOM      7  C   UNL     1      97.634  -7.002   5.460  1.00  0.00     0.053 C 
BRANCH   7   8
ATOM      8  C   UNL     1      97.088  -7.952   4.439  1.00  0.00     0.041 C 
ATOM      9  O   UNL     1      96.614  -7.519   3.356  1.00  0.00    -0.550 OA
ATOM     10  O   UNL     1      97.074  -9.316   4.698  1.00  0.00    -0.550 OA
ENDBRANCH   7   8
ENDBRANCH   6   7
ENDBRANCH   5   6
ENDBRANCH   4   5
ENDBRANCH   3   4
ENDBRANCH   2   3
ENDBRANCH   1   2
BRANCH   1  11
ATOM     11  C   UNL     1      96.075  -3.325   7.367  1.00  0.00     0.000 C 
BRANCH  11  12
ATOM     12  C   UNL     1      94.728  -2.730   7.814  1.00  0.00    -0.000 C 
BRANCH  12  13
ATOM     13  C   UNL     1      93.801  -3.775   8.456  1.00  0.00    -0.000 C 
BRANCH  13  14
ATOM     14  C   UNL     1      93.904  -3.796   9.988  1.00  0.00    -0.000 C 
BRANCH  14  15
ATOM     15  C   UNL     1      94.813  -4.940  10.460  1.00  0.00    -0.000 C 
BRANCH  15  16
ATOM     16  C   UNL     1      96.213  -4.458  10.886  1.00  0.00    -0.000 C 
BRANCH  16  17
ATOM     17  C   UNL     1      96.264  -3.021  11.434  1.00  0.00    -0.003 C 
ATOM     18  C   UNL     1      97.166  -2.099  10.613  1.00  0.00     0.004 C 
ENDBRANCH  16  17
ENDBRANCH  15  16
ENDBRANCH  14  15
ENDBRANCH  13  14
ENDBRANCH  12  13
ENDBRANCH  11  12
ENDBRANCH   1  11
TORSDOF 14
ENDMDL
MODEL 6
REMARK VINA RESULT:    -6.039     10.866     13.705
REMARK INTER + INTRA:         -12.074
REMARK INTER:                 -10.513
REMARK INTRA:                  -1.560
REMARK UNBOUND:                -1.091
REMARK SMILES CCCCCCCCCCCCCCCC(=O)[O-]
REMARK SMILES IDX 9 1 10 2 11 3 12 4 13 5 14 6 15 7 16 8 17 9 18 10 8 11 7 12
REMARK SMILES IDX 6 13 5 14 4 15 3 16 2 17 1 18
REMARK H PARENT
REMARK Flexibility Score: inf
ROOT
ATOM      1  C   UNL     1      86.188  -2.781   2.919  1.00  0.00     0.000 C 
ENDROOT
BRANCH   1   2
ATOM      2  C   UNL     1      84.714  -2.384   2.716  1.00  0.00     0.000 C 
BRANCH   2   3
ATOM      3  C   UNL     1      83.735  -3.368   3.376  1.00  0.00     0.000 C 
BRANCH   3   4
ATOM      4  C   UNL     1      82.731  -3.961   2.374  1.00  0.00     0.000 C 
BRANCH   4   5
ATOM      5  C   UNL     1      81.351  -3.288   2.457  1.00  0.00     0.000 C 
BRANCH   5   6
ATOM      6  C   UNL     1      80.862  -2.749   1.099  1.00  0.00     0.006 C 
BRANCH   6   7
ATOM      7  C   UNL     1      81.990  -2.239   0.186  1.00  0.00     0.053 C 
BRANCH   7   8
ATOM      8  C   UNL     1      82.206  -0.761   0.302  1.00  0.00     0.041 C 
ATOM      9  O   UNL     1      82.440  -0.069  -0.723  1.00  0.00    -0.550 OA
ATOM     10  O   UNL     1      82.181  -0.152   1.550  1.00  0.00    -0.550 OA
ENDBRANCH   7   8
ENDBRANCH   6   7
ENDBRANCH   5   6
ENDBRANCH   4   5
ENDBRANCH   3   4
ENDBRANCH   2   3
ENDBRANCH   1   2
BRANCH   1  11
ATOM     11  C   UNL     1      87.129  -2.242   1.820  1.00  0.00     0.000 C 
BRANCH  11  12
ATOM     12  C   UNL     1      88.515  -1.871   2.377  1.00  0.00    -0.000 C 
BRANCH  12  13
ATOM     13  C   UNL     1      89.187  -3.034   3.124  1.00  0.00    -0.000 C 
BRANCH  13  14
ATOM     14  C   UNL     1      89.830  -2.596   4.447  1.00  0.00    -0.000 C 
BRANCH  14  15
ATOM     15  C   UNL     1      88.855  -2.785   5.619  1.00  0.00    -0.000 C 
BRANCH  15  16
ATOM     16  C   UNL     1      88.113  -1.489   5.998  1.00  0.00    -0.000 C 
BRANCH  16  17
ATOM     17  C   UNL     1      86.631  -1.676   6.370  1.00  0.00    -0.003 C 
ATOM     18  C   UNL     1      86.257  -3.136   6.623  1.00  0.00     0.004 C 
ENDBRANCH  16  17
ENDBRANCH  15  16
ENDBRANCH  14  15
ENDBRANCH  13  14
ENDBRANCH  12  13
ENDBRANCH  11  12
ENDBRANCH   1  11
TORSDOF 14
ENDMDL
MODEL 7
REMARK VINA RESULT:    -6.030     12.633     14.746
REMARK INTER + INTRA:         -12.057
REMARK INTER:                 -10.112
REMARK INTRA:                  -1.945
REMARK UNBOUND:                -1.091
REMARK SMILES CCCCCCCCCCCCCCCC(=O)[O-]
REMARK SMILES IDX 9 1 10 2 11 3 12 4 13 5 14 6 15 7 16 8 17 9 18 10 8 11 7 12
REMARK SMILES IDX 6 13 5 14 4 15 3 16 2 17 1 18
REMARK H PARENT
REMARK Flexibility Score: inf
ROOT
ATOM      1  C   UNL     1      93.456  -4.129   8.168  1.00  0.00     0.000 C 
ENDROOT
BRANCH   1   2
ATOM      2  C   UNL     1      92.985  -2.669   8.035  1.00  0.00     0.000 C 
BRANCH   2   3
ATOM      3  C   UNL     1      93.639  -1.936   6.852  1.00  0.00     0.000 C 
BRANCH   3   4
ATOM      4  C   UNL     1      92.623  -1.136   6.021  1.00  0.00     0.000 C 
BRANCH   4   5
ATOM      5  C   UNL     1      91.169  -1.531   6.332  1.00  0.00     0.000 C 
BRANCH   5   6
ATOM      6  C   UNL     1      90.623  -2.614   5.382  1.00  0.00     0.006 C 
BRANCH   6   7
ATOM      7  C   UNL     1      89.694  -3.634   6.064  1.00  0.00     0.053 C 
BRANCH   7   8
ATOM      8  C   UNL     1      90.332  -4.980   6.226  1.00  0.00     0.041 C 
ATOM      9  O   UNL     1      90.944  -5.514   5.265  1.00  0.00    -0.550 OA
ATOM     10  O   UNL     1      90.221  -5.660   7.432  1.00  0.00    -0.550 OA
ENDBRANCH   7   8
ENDBRANCH   6   7
ENDBRANCH   5   6
ENDBRANCH   4   5
ENDBRANCH   3   4
ENDBRANCH   2   3
ENDBRANCH   1   2
BRANCH   1  11
ATOM     11  C   UNL     1      93.374  -4.676   9.609  1.00  0.00     0.000 C 
BRANCH  11  12
ATOM     12  C   UNL     1      94.756  -4.744  10.281  1.00  0.00    -0.000 C 
BRANCH  12  13
ATOM     13  C   UNL     1      95.048  -3.521  11.165  1.00  0.00    -0.000 C 
BRANCH  13  14
ATOM     14  C   UNL     1      96.431  -2.911  10.895  1.00  0.00    -0.000 C 
BRANCH  14  15
ATOM     15  C   UNL     1      97.116  -3.608   9.710  1.00  0.00    -0.000 C 
BRANCH  15  16
ATOM     16  C   UNL     1      97.118  -2.752   8.429  1.00  0.00    -0.000 C 
BRANCH  16  17
ATOM     17  C   UNL     1      97.512  -3.507   7.147  1.00  0.00    -0.003 C 
ATOM     18  C   UNL     1      96.880  -4.895   7.050  1.00  0.00     0.004 C 
ENDBRANCH  16  17
ENDBRANCH  15  16
ENDBRANCH  14  15
ENDBRANCH  13  14
ENDBRANCH  12  13
ENDBRANCH  11  12
ENDBRANCH   1  11
TORSDOF 14
ENDMDL
MODEL 8
REMARK VINA RESULT:    -6.018     11.669     12.936
REMARK INTER + INTRA:         -12.035
REMARK INTER:                 -10.220
REMARK INTRA:                  -1.815
REMARK UNBOUND:                -1.091
REMARK SMILES CCCCCCCCCCCCCCCC(=O)[O-]
REMARK SMILES IDX 9 1 10 2 11 3 12 4 13 5 14 6 15 7 16 8 17 9 18 10 8 11 7 12
REMARK SMILES IDX 6 13 5 14 4 15 3 16 2 17 1 18
REMARK H PARENT
REMARK Flexibility Score: inf
ROOT
ATOM      1  C   UNL     1      83.526  -3.384   3.731  1.00  0.00     0.000 C 
ENDROOT
BRANCH   1   2
ATOM      2  C   UNL     1      84.463  -2.196   3.447  1.00  0.00     0.000 C 
BRANCH   2   3
ATOM      3  C   UNL     1      85.088  -2.251   2.044  1.00  0.00     0.000 C 
BRANCH   3   4
ATOM      4  C   UNL     1      86.624  -2.214   2.082  1.00  0.00     0.000 C 
BRANCH   4   5
ATOM      5  C   UNL     1      87.199  -2.934   3.315  1.00  0.00     0.000 C 
BRANCH   5   6
ATOM      6  C   UNL     1      88.168  -2.055   4.127  1.00  0.00     0.006 C 
BRANCH   6   7
ATOM      7  C   UNL     1      88.133  -2.321   5.642  1.00  0.00     0.053 C 
BRANCH   7   8
ATOM      8  C   UNL     1      86.813  -1.979   6.260  1.00  0.00     0.041 C 
ATOM      9  O   UNL     1      86.481  -0.777   6.430  1.00  0.00    -0.550 OA
ATOM     10  O   UNL     1      85.959  -2.992   6.679  1.00  0.00    -0.550 OA
ENDBRANCH   7   8
ENDBRANCH   6   7
ENDBRANCH   5   6
ENDBRANCH   4   5
ENDBRANCH   3   4
ENDBRANCH   2   3
ENDBRANCH   1   2
BRANCH   1  11
ATOM     11  C   UNL     1      82.859  -3.962   2.465  1.00  0.00     0.000 C 
BRANCH  11  12
ATOM     12  C   UNL     1      81.341  -3.713   2.445  1.00  0.00    -0.000 C 
BRANCH  12  13
ATOM     13  C   UNL     1      80.811  -3.385   1.040  1.00  0.00    -0.000 C 
BRANCH  13  14
ATOM     14  C   UNL     1      81.934  -3.085   0.038  1.00  0.00    -0.000 C 
BRANCH  14  15
ATOM     15  C   UNL     1      81.943  -1.598  -0.348  1.00  0.00    -0.000 C 
BRANCH  15  16
ATOM     16  C   UNL     1      81.944  -0.661   0.874  1.00  0.00    -0.000 C 
BRANCH  16  17
ATOM     17  C   UNL     1      82.846   0.579   0.739  1.00  0.00    -0.003 C 
ATOM     18  C   UNL     1      83.375   0.782  -0.680  1.00  0.00     0.004 C 
ENDBRANCH  16  17
ENDBRANCH  15  16
ENDBRANCH  14  15
ENDBRANCH  13  14
ENDBRANCH  12  13
ENDBRANCH  11  12
ENDBRANCH   1  11
TORSDOF 14
ENDMDL
MODEL 9
REMARK VINA RESULT:    -5.971     12.347     14.623
REMARK INTER + INTRA:         -11.949
REMARK INTER:                 -10.578
REMARK INTRA:                  -1.371
REMARK UNBOUND:                -1.091
REMARK SMILES CCCCCCCCCCCCCCCC(=O)[O-]
REMARK SMILES IDX 9 1 10 2 11 3 12 4 13 5 14 6 15 7 16 8 17 9 18 10 8 11 7 12
REMARK SMILES IDX 6 13 5 14 4 15 3 16 2 17 1 18
REMARK H PARENT
REMARK Flexibility Score: inf
ROOT
ATOM      1  C   UNL     1      97.159  -3.730   8.775  1.00  0.00     0.000 C 
ENDROOT
BRANCH   1   2
ATOM      2  C   UNL     1      96.996  -2.889  10.054  1.00  0.00     0.000 C 
BRANCH   2   3
ATOM      3  C   UNL     1      95.826  -3.361  10.934  1.00  0.00     0.000 C 
BRANCH   3   4
ATOM      4  C   UNL     1      94.917  -4.368  10.213  1.00  0.00     0.000 C 
BRANCH   4   5
ATOM      5  C   UNL     1      93.605  -3.731   9.723  1.00  0.00     0.000 C 
BRANCH   5   6
ATOM      6  C   UNL     1      93.385  -3.897   8.207  1.00  0.00     0.006 C 
BRANCH   6   7
ATOM      7  C   UNL     1      92.784  -2.656   7.523  1.00  0.00     0.053 C 
BRANCH   7   8
ATOM      8  C   UNL     1      91.603  -2.986   6.662  1.00  0.00     0.041 C 
ATOM      9  O   UNL     1      90.838  -2.073   6.255  1.00  0.00    -0.550 OA
ATOM     10  O   UNL     1      91.330  -4.307   6.335  1.00  0.00    -0.550 OA
ENDBRANCH   7   8
ENDBRANCH   6   7
ENDBRANCH   5   6
ENDBRANCH   4   5
ENDBRANCH   3   4
ENDBRANCH   2   3
ENDBRANCH   1   2
BRANCH   1  11
ATOM     11  C   UNL     1      96.984  -2.918   7.475  1.00  0.00     0.000 C 
BRANCH  11  12
ATOM     12  C   UNL     1      98.335  -2.505   6.864  1.00  0.00    -0.000 C 
BRANCH  12  13
ATOM     13  C   UNL     1      99.350  -3.658   6.832  1.00  0.00    -0.000 C 
BRANCH  13  14
ATOM     14  C   UNL     1      99.179  -4.564   5.605  1.00  0.00    -0.000 C 
BRANCH  14  15
ATOM     15  C   UNL     1      98.922  -6.018   6.028  1.00  0.00    -0.000 C 
BRANCH  15  16
ATOM     16  C   UNL     1      97.444  -6.431   5.893  1.00  0.00    -0.000 C 
BRANCH  16  17
ATOM     17  C   UNL     1      97.194  -7.667   5.010  1.00  0.00    -0.003 C 
ATOM     18  C   UNL     1      97.325  -8.984   5.773  1.00  0.00     0.004 C 
ENDBRANCH  16  17
ENDBRANCH  15  16
ENDBRANCH  14  15
ENDBRANCH  13  14
ENDBRANCH  12  13
ENDBRANCH  11  12
ENDBRANCH   1  11
TORSDOF 14
ENDMDL
