MODEL 1
REMARK VINA RESULT:    -4.045      0.000      0.000
REMARK INTER + INTRA:          -6.385
REMARK INTER:                  -5.463
REMARK INTRA:                  -0.922
REMARK UNBOUND:                -0.922
REMARK SMILES O=C[C@H](O)[C@@H](O)[C@H](O)CO
REMARK SMILES IDX 7 1 9 2 10 3 5 5 3 6 2 7 1 8 4 9 6 11 8 13
REMARK H PARENT 10 4 4 10 6 12 8 14
REMARK Flexibility Score: inf
ROOT
ATOM      1  C   UNL     1     -17.060  35.697 -21.907  1.00  0.00     0.171 C 
ENDROOT
BRANCH   1   2
ATOM      2  C   UNL     1     -16.303  35.696 -20.564  1.00  0.00     0.190 C 
BRANCH   2   3
ATOM      3  O   UNL     1     -17.165  35.350 -19.514  1.00  0.00    -0.394 OA
ATOM      4  H   UNL     1     -16.922  35.928 -18.745  1.00  0.00     0.210 HD
ENDBRANCH   2   3
ENDBRANCH   1   2
BRANCH   1   5
ATOM      5  C   UNL     1     -18.342  34.819 -21.883  1.00  0.00     0.181 C 
BRANCH   5   6
ATOM      6  C   UNL     1     -19.137  34.797 -23.216  1.00  0.00     0.209 C 
BRANCH   6   7
ATOM      7  C   UNL     1     -18.965  33.507 -23.976  1.00  0.00     0.258 C 
ATOM      8  O   UNL     1     -17.852  33.080 -24.239  1.00  0.00    -0.300 OA
ENDBRANCH   6   7
BRANCH   6   9
ATOM      9  O   UNL     1     -18.769  35.882 -24.031  1.00  0.00    -0.383 OA
ATOM     10  H   UNL     1     -18.518  36.637 -23.437  1.00  0.00     0.211 HD
ENDBRANCH   6   9
ENDBRANCH   5   6
BRANCH   5  11
ATOM     11  O   UNL     1     -17.999  33.498 -21.546  1.00  0.00    -0.387 OA
ATOM     12  H   UNL     1     -17.354  33.547 -20.792  1.00  0.00     0.211 HD
ENDBRANCH   5  11
ENDBRANCH   1   5
BRANCH   1  13
ATOM     13  O   UNL     1     -16.208  35.276 -22.942  1.00  0.00    -0.388 OA
ATOM     14  H   UNL     1     -16.549  35.681 -23.782  1.00  0.00     0.211 HD
ENDBRANCH   1  13
TORSDOF 8
ENDMDL
MODEL 2
REMARK VINA RESULT:    -4.030     13.634     14.505
REMARK INTER + INTRA:          -6.366
REMARK INTER:                  -5.910
REMARK INTRA:                  -0.456
REMARK UNBOUND:                -0.922
REMARK SMILES O=C[C@H](O)[C@@H](O)[C@H](O)CO
REMARK SMILES IDX 7 1 9 2 10 3 5 5 3 6 2 7 1 8 4 9 6 11 8 13
REMARK H PARENT 10 4 4 10 6 12 8 14
REMARK Flexibility Score: inf
ROOT
ATOM      1  C   UNL     1      -6.067  36.615 -14.559  1.00  0.00     0.171 C 
ENDROOT
BRANCH   1   2
ATOM      2  C   UNL     1      -5.463  36.937 -15.940  1.00  0.00     0.190 C 
BRANCH   2   3
ATOM      3  O   UNL     1      -6.447  37.448 -16.799  1.00  0.00    -0.394 OA
ATOM      4  H   UNL     1      -5.968  37.916 -17.532  1.00  0.00     0.210 HD
ENDBRANCH   2   3
ENDBRANCH   1   2
BRANCH   1   5
ATOM      5  C   UNL     1      -5.651  35.218 -14.022  1.00  0.00     0.181 C 
BRANCH   5   6
ATOM      6  C   UNL     1      -6.518  34.690 -12.848  1.00  0.00     0.209 C 
BRANCH   6   7
ATOM      7  C   UNL     1      -5.869  33.546 -12.113  1.00  0.00     0.258 C 
ATOM      8  O   UNL     1      -5.899  32.413 -12.569  1.00  0.00    -0.300 OA
ENDBRANCH   6   7
BRANCH   6   9
ATOM      9  O   UNL     1      -7.789  34.300 -13.307  1.00  0.00    -0.383 OA
ATOM     10  H   UNL     1      -7.677  33.471 -13.843  1.00  0.00     0.211 HD
ENDBRANCH   6   9
ENDBRANCH   5   6
BRANCH   5  11
ATOM     11  O   UNL     1      -5.698  34.281 -15.069  1.00  0.00    -0.387 OA
ATOM     12  H   UNL     1      -5.017  33.586 -14.870  1.00  0.00     0.211 HD
ENDBRANCH   5  11
ENDBRANCH   1   5
BRANCH   1  13
ATOM     13  O   UNL     1      -7.468  36.712 -14.611  1.00  0.00    -0.388 OA
ATOM     14  H   UNL     1      -7.815  35.806 -14.819  1.00  0.00     0.211 HD
ENDBRANCH   1  13
TORSDOF 8
ENDMDL
MODEL 3
REMARK VINA RESULT:    -3.984      1.782      2.810
REMARK INTER + INTRA:          -6.304
REMARK INTER:                  -5.314
REMARK INTRA:                  -0.989
REMARK UNBOUND:                -0.922
REMARK SMILES O=C[C@H](O)[C@@H](O)[C@H](O)CO
REMARK SMILES IDX 7 1 9 2 10 3 5 5 3 6 2 7 1 8 4 9 6 11 8 13
REMARK H PARENT 10 4 4 10 6 12 8 14
REMARK Flexibility Score: inf
ROOT
ATOM      1  C   UNL     1     -17.704  34.043 -21.961  1.00  0.00     0.171 C 
ENDROOT
BRANCH   1   2
ATOM      2  C   UNL     1     -16.772  33.304 -22.942  1.00  0.00     0.190 C 
BRANCH   2   3
ATOM      3  O   UNL     1     -16.454  34.127 -24.032  1.00  0.00    -0.394 OA
ATOM      4  H   UNL     1     -15.627  34.618 -23.786  1.00  0.00     0.210 HD
ENDBRANCH   2   3
ENDBRANCH   1   2
BRANCH   1   5
ATOM      5  C   UNL     1     -19.140  34.244 -22.520  1.00  0.00     0.181 C 
BRANCH   5   6
ATOM      6  C   UNL     1     -19.475  35.701 -22.936  1.00  0.00     0.209 C 
BRANCH   6   7
ATOM      7  C   UNL     1     -20.930  35.888 -23.281  1.00  0.00     0.258 C 
ATOM      8  O   UNL     1     -21.754  35.032 -22.999  1.00  0.00    -0.300 OA
ENDBRANCH   6   7
BRANCH   6   9
ATOM      9  O   UNL     1     -18.675  36.104 -24.020  1.00  0.00    -0.383 OA
ATOM     10  H   UNL     1     -19.279  36.344 -24.771  1.00  0.00     0.211 HD
ENDBRANCH   6   9
ENDBRANCH   5   6
BRANCH   5  11
ATOM     11  O   UNL     1     -19.331  33.405 -23.633  1.00  0.00    -0.387 OA
ATOM     12  H   UNL     1     -20.139  33.733 -24.109  1.00  0.00     0.211 HD
ENDBRANCH   5  11
ENDBRANCH   1   5
BRANCH   1  13
ATOM     13  O   UNL     1     -17.147  35.284 -21.610  1.00  0.00    -0.388 OA
ATOM     14  H   UNL     1     -16.161  35.170 -21.606  1.00  0.00     0.211 HD
ENDBRANCH   1  13
TORSDOF 8
ENDMDL
MODEL 4
REMARK VINA RESULT:    -3.975      1.702      2.368
REMARK INTER + INTRA:          -6.292
REMARK INTER:                  -5.445
REMARK INTRA:                  -0.847
REMARK UNBOUND:                -0.922
REMARK SMILES O=C[C@H](O)[C@@H](O)[C@H](O)CO
REMARK SMILES IDX 7 1 9 2 10 3 5 5 3 6 2 7 1 8 4 9 6 11 8 13
REMARK H PARENT 10 4 4 10 6 12 8 14
REMARK Flexibility Score: inf
ROOT
ATOM      1  C   UNL     1     -17.636  35.469 -22.395  1.00  0.00     0.171 C 
ENDROOT
BRANCH   1   2
ATOM      2  C   UNL     1     -16.481  36.410 -21.998  1.00  0.00     0.190 C 
BRANCH   2   3
ATOM      3  O   UNL     1     -15.471  36.383 -22.969  1.00  0.00    -0.394 OA
ATOM      4  H   UNL     1     -14.782  35.746 -22.646  1.00  0.00     0.210 HD
ENDBRANCH   2   3
ENDBRANCH   1   2
BRANCH   1   5
ATOM      5  C   UNL     1     -17.155  34.042 -22.778  1.00  0.00     0.181 C 
BRANCH   5   6
ATOM      6  C   UNL     1     -18.251  32.945 -22.695  1.00  0.00     0.209 C 
BRANCH   6   7
ATOM      7  C   UNL     1     -18.830  32.597 -24.042  1.00  0.00     0.258 C 
ATOM      8  O   UNL     1     -19.541  33.390 -24.640  1.00  0.00    -0.300 OA
ENDBRANCH   6   7
BRANCH   6   9
ATOM      9  O   UNL     1     -19.281  33.338 -21.823  1.00  0.00    -0.383 OA
ATOM     10  H   UNL     1     -19.884  32.559 -21.695  1.00  0.00     0.211 HD
ENDBRANCH   6   9
ENDBRANCH   5   6
BRANCH   5  11
ATOM     11  O   UNL     1     -16.635  34.057 -24.084  1.00  0.00    -0.387 OA
ATOM     12  H   UNL     1     -16.116  33.219 -24.202  1.00  0.00     0.211 HD
ENDBRANCH   5  11
ENDBRANCH   1   5
BRANCH   1  13
ATOM     13  O   UNL     1     -18.371  36.029 -23.454  1.00  0.00    -0.388 OA
ATOM     14  H   UNL     1     -18.722  36.901 -23.136  1.00  0.00     0.211 HD
ENDBRANCH   1  13
TORSDOF 8
ENDMDL
MODEL 5
REMARK VINA RESULT:    -3.940      1.682      3.760
REMARK INTER + INTRA:          -6.243
REMARK INTER:                  -5.576
REMARK INTRA:                  -0.668
REMARK UNBOUND:                -0.922
REMARK SMILES O=C[C@H](O)[C@@H](O)[C@H](O)CO
REMARK SMILES IDX 7 1 9 2 10 3 5 5 3 6 2 7 1 8 4 9 6 11 8 13
REMARK H PARENT 10 4 4 10 6 12 8 14
REMARK Flexibility Score: inf
ROOT
ATOM      1  C   UNL     1     -19.498  34.732 -23.748  1.00  0.00     0.171 C 
ENDROOT
BRANCH   1   2
ATOM      2  C   UNL     1     -21.008  34.725 -23.436  1.00  0.00     0.190 C 
BRANCH   2   3
ATOM      3  O   UNL     1     -21.504  36.035 -23.384  1.00  0.00    -0.394 OA
ATOM      4  H   UNL     1     -21.907  36.151 -22.484  1.00  0.00     0.210 HD
ENDBRANCH   2   3
ENDBRANCH   1   2
BRANCH   1   5
ATOM      5  C   UNL     1     -18.617  34.939 -22.485  1.00  0.00     0.181 C 
BRANCH   5   6
ATOM      6  C   UNL     1     -17.160  34.420 -22.619  1.00  0.00     0.209 C 
BRANCH   6   7
ATOM      7  C   UNL     1     -16.159  35.306 -21.925  1.00  0.00     0.258 C 
ATOM      8  O   UNL     1     -15.713  36.299 -22.479  1.00  0.00    -0.300 OA
ENDBRANCH   6   7
BRANCH   6   9
ATOM      9  O   UNL     1     -16.808  34.275 -23.973  1.00  0.00    -0.383 OA
ATOM     10  H   UNL     1     -17.013  35.131 -24.433  1.00  0.00     0.211 HD
ENDBRANCH   6   9
ENDBRANCH   5   6
BRANCH   5  11
ATOM     11  O   UNL     1     -18.576  36.307 -22.161  1.00  0.00    -0.387 OA
ATOM     12  H   UNL     1     -18.930  36.803 -22.945  1.00  0.00     0.211 HD
ENDBRANCH   5  11
ENDBRANCH   1   5
BRANCH   1  13
ATOM     13  O   UNL     1     -19.208  35.719 -24.704  1.00  0.00    -0.388 OA
ATOM     14  H   UNL     1     -18.265  35.585 -24.983  1.00  0.00     0.211 HD
ENDBRANCH   1  13
TORSDOF 8
ENDMDL
MODEL 6
REMARK VINA RESULT:    -3.935      1.772      2.514
REMARK INTER + INTRA:          -6.237
REMARK INTER:                  -5.288
REMARK INTRA:                  -0.949
REMARK UNBOUND:                -0.922
REMARK SMILES O=C[C@H](O)[C@@H](O)[C@H](O)CO
REMARK SMILES IDX 7 1 9 2 10 3 5 5 3 6 2 7 1 8 4 9 6 11 8 13
REMARK H PARENT 10 4 4 10 6 12 8 14
REMARK Flexibility Score: inf
ROOT
ATOM      1  C   UNL     1     -19.001  35.758 -22.836  1.00  0.00     0.171 C 
ENDROOT
BRANCH   1   2
ATOM      2  C   UNL     1     -17.604  35.916 -22.203  1.00  0.00     0.190 C 
BRANCH   2   3
ATOM      3  O   UNL     1     -16.622  35.365 -23.038  1.00  0.00    -0.394 OA
ATOM      4  H   UNL     1     -16.469  36.021 -23.767  1.00  0.00     0.210 HD
ENDBRANCH   2   3
ENDBRANCH   1   2
BRANCH   1   5
ATOM      5  C   UNL     1     -19.640  34.369 -22.563  1.00  0.00     0.181 C 
BRANCH   5   6
ATOM      6  C   UNL     1     -21.072  34.190 -23.135  1.00  0.00     0.209 C 
BRANCH   6   7
ATOM      7  C   UNL     1     -21.104  33.323 -24.367  1.00  0.00     0.258 C 
ATOM      8  O   UNL     1     -20.507  33.654 -25.379  1.00  0.00    -0.300 OA
ENDBRANCH   6   7
BRANCH   6   9
ATOM      9  O   UNL     1     -21.652  35.439 -23.417  1.00  0.00    -0.383 OA
ATOM     10  H   UNL     1     -22.249  35.326 -24.203  1.00  0.00     0.211 HD
ENDBRANCH   6   9
ENDBRANCH   5   6
BRANCH   5  11
ATOM     11  O   UNL     1     -18.817  33.361 -23.097  1.00  0.00    -0.387 OA
ATOM     12  H   UNL     1     -19.322  32.933 -23.837  1.00  0.00     0.211 HD
ENDBRANCH   5  11
ENDBRANCH   1   5
BRANCH   1  13
ATOM     13  O   UNL     1     -18.932  35.993 -24.219  1.00  0.00    -0.388 OA
ATOM     14  H   UNL     1     -18.476  36.865 -24.345  1.00  0.00     0.211 HD
ENDBRANCH   1  13
TORSDOF 8
ENDMDL
MODEL 7
REMARK VINA RESULT:    -3.935      1.998      3.152
REMARK INTER + INTRA:          -6.237
REMARK INTER:                  -5.754
REMARK INTRA:                  -0.483
REMARK UNBOUND:                -0.922
REMARK SMILES O=C[C@H](O)[C@@H](O)[C@H](O)CO
REMARK SMILES IDX 7 1 9 2 10 3 5 5 3 6 2 7 1 8 4 9 6 11 8 13
REMARK H PARENT 10 4 4 10 6 12 8 14
REMARK Flexibility Score: inf
ROOT
ATOM      1  C   UNL     1     -19.025  35.103 -23.688  1.00  0.00     0.171 C 
ENDROOT
BRANCH   1   2
ATOM      2  C   UNL     1     -20.456  35.467 -23.245  1.00  0.00     0.190 C 
BRANCH   2   3
ATOM      3  O   UNL     1     -20.642  36.856 -23.280  1.00  0.00    -0.394 OA
ATOM      4  H   UNL     1     -21.259  37.079 -22.535  1.00  0.00     0.210 HD
ENDBRANCH   2   3
ENDBRANCH   1   2
BRANCH   1   5
ATOM      5  C   UNL     1     -18.497  33.800 -23.028  1.00  0.00     0.181 C 
BRANCH   5   6
ATOM      6  C   UNL     1     -17.287  33.150 -23.752  1.00  0.00     0.209 C 
BRANCH   6   7
ATOM      7  C   UNL     1     -16.653  32.043 -22.951  1.00  0.00     0.258 C 
ATOM      8  O   UNL     1     -17.332  31.322 -22.236  1.00  0.00    -0.300 OA
ENDBRANCH   6   7
BRANCH   6   9
ATOM      9  O   UNL     1     -16.320  34.120 -24.069  1.00  0.00    -0.383 OA
ATOM     10  H   UNL     1     -16.741  35.014 -23.965  1.00  0.00     0.211 HD
ENDBRANCH   6   9
ENDBRANCH   5   6
BRANCH   5  11
ATOM     11  O   UNL     1     -18.131  34.064 -21.696  1.00  0.00    -0.387 OA
ATOM     12  H   UNL     1     -17.867  33.197 -21.288  1.00  0.00     0.211 HD
ENDBRANCH   5  11
ENDBRANCH   1   5
BRANCH   1  13
ATOM     13  O   UNL     1     -18.151  36.168 -23.416  1.00  0.00    -0.388 OA
ATOM     14  H   UNL     1     -18.702  36.915 -23.065  1.00  0.00     0.211 HD
ENDBRANCH   1  13
TORSDOF 8
ENDMDL
MODEL 8
REMARK VINA RESULT:    -3.897      1.328      3.494
REMARK INTER + INTRA:          -6.186
REMARK INTER:                  -5.207
REMARK INTRA:                  -0.979
REMARK UNBOUND:                -0.922
REMARK SMILES O=C[C@H](O)[C@@H](O)[C@H](O)CO
REMARK SMILES IDX 7 1 9 2 10 3 5 5 3 6 2 7 1 8 4 9 6 11 8 13
REMARK H PARENT 10 4 4 10 6 12 8 14
REMARK Flexibility Score: inf
ROOT
ATOM      1  C   UNL     1     -16.904  33.324 -23.227  1.00  0.00     0.171 C 
ENDROOT
BRANCH   1   2
ATOM      2  C   UNL     1     -18.162  32.634 -23.789  1.00  0.00     0.190 C 
BRANCH   2   3
ATOM      3  O   UNL     1     -19.087  33.588 -24.237  1.00  0.00    -0.394 OA
ATOM      4  H   UNL     1     -18.627  34.467 -24.203  1.00  0.00     0.210 HD
ENDBRANCH   2   3
ENDBRANCH   1   2
BRANCH   1   5
ATOM      5  C   UNL     1     -17.200  34.215 -21.989  1.00  0.00     0.181 C 
BRANCH   5   6
ATOM      6  C   UNL     1     -17.089  35.742 -22.247  1.00  0.00     0.209 C 
BRANCH   6   7
ATOM      7  C   UNL     1     -17.106  36.551 -20.977  1.00  0.00     0.258 C 
ATOM      8  O   UNL     1     -17.104  36.002 -19.886  1.00  0.00    -0.300 OA
ENDBRANCH   6   7
BRANCH   6   9
ATOM      9  O   UNL     1     -18.118  36.176 -23.101  1.00  0.00    -0.383 OA
ATOM     10  H   UNL     1     -17.699  36.501 -23.941  1.00  0.00     0.211 HD
ENDBRANCH   6   9
ENDBRANCH   5   6
BRANCH   5  11
ATOM     11  O   UNL     1     -18.492  33.936 -21.509  1.00  0.00    -0.387 OA
ATOM     12  H   UNL     1     -18.542  34.292 -20.583  1.00  0.00     0.211 HD
ENDBRANCH   5  11
ENDBRANCH   1   5
BRANCH   1  13
ATOM     13  O   UNL     1     -16.282  34.086 -24.230  1.00  0.00    -0.388 OA
ATOM     14  H   UNL     1     -15.324  34.164 -23.985  1.00  0.00     0.211 HD
ENDBRANCH   1  13
TORSDOF 8
ENDMDL
MODEL 9
REMARK VINA RESULT:    -3.895      1.380      2.152
REMARK INTER + INTRA:          -6.184
REMARK INTER:                  -5.356
REMARK INTRA:                  -0.828
REMARK UNBOUND:                -0.922
REMARK SMILES O=C[C@H](O)[C@@H](O)[C@H](O)CO
REMARK SMILES IDX 7 1 9 2 10 3 5 5 3 6 2 7 1 8 4 9 6 11 8 13
REMARK H PARENT 10 4 4 10 6 12 8 14
REMARK Flexibility Score: inf
ROOT
ATOM      1  C   UNL     1     -18.406  35.702 -22.493  1.00  0.00     0.171 C 
ENDROOT
BRANCH   1   2
ATOM      2  C   UNL     1     -17.269  36.409 -21.729  1.00  0.00     0.190 C 
BRANCH   2   3
ATOM      3  O   UNL     1     -16.110  36.466 -22.517  1.00  0.00    -0.394 OA
ATOM      4  H   UNL     1     -15.411  35.956 -22.030  1.00  0.00     0.210 HD
ENDBRANCH   2   3
ENDBRANCH   1   2
BRANCH   1   5
ATOM      5  C   UNL     1     -18.280  34.153 -22.475  1.00  0.00     0.181 C 
BRANCH   5   6
ATOM      6  C   UNL     1     -17.669  33.538 -23.762  1.00  0.00     0.209 C 
BRANCH   6   7
ATOM      7  C   UNL     1     -17.490  32.044 -23.667  1.00  0.00     0.258 C 
ATOM      8  O   UNL     1     -16.476  31.566 -23.181  1.00  0.00    -0.300 OA
ENDBRANCH   6   7
BRANCH   6   9
ATOM      9  O   UNL     1     -16.437  34.145 -24.066  1.00  0.00    -0.383 OA
ATOM     10  H   UNL     1     -15.813  33.958 -23.316  1.00  0.00     0.211 HD
ENDBRANCH   6   9
ENDBRANCH   5   6
BRANCH   5  11
ATOM     11  O   UNL     1     -17.497  33.759 -21.376  1.00  0.00    -0.387 OA
ATOM     12  H   UNL     1     -17.445  32.768 -21.395  1.00  0.00     0.211 HD
ENDBRANCH   5  11
ENDBRANCH   1   5
BRANCH   1  13
ATOM     13  O   UNL     1     -18.457  36.164 -23.819  1.00  0.00    -0.388 OA
ATOM     14  H   UNL     1     -18.584  37.148 -23.779  1.00  0.00     0.211 HD
ENDBRANCH   1  13
TORSDOF 8
ENDMDL
