MODEL 1
REMARK VINA RESULT:    -6.530      0.000      0.000
REMARK INTER + INTRA:         -12.247
REMARK INTER:                 -11.493
REMARK INTRA:                  -0.754
REMARK UNBOUND:                -0.754
REMARK SMILES CCCCCCC=CCCCCCCCC(=O)[O-]
REMARK SMILES IDX 10 1 11 2 12 3 13 4 14 5 15 6 16 7 17 8 18 9 9 10 8 11 7 12
REMARK SMILES IDX 6 13 5 14 4 15 3 16 2 17 1 18
REMARK H PARENT
REMARK Flexibility Score: inf
ROOT
ATOM      1  C   UNL     1      16.503 119.908  16.937  1.00  0.00     0.004 C 
ENDROOT
BRANCH   1   2
ATOM      2  C   UNL     1      15.188 119.147  16.734  1.00  0.00     0.000 C 
BRANCH   2   3
ATOM      3  C   UNL     1      14.082 119.711  17.634  1.00  0.00     0.000 C 
BRANCH   3   4
ATOM      4  C   UNL     1      13.445 118.604  18.483  1.00  0.00     0.000 C 
BRANCH   4   5
ATOM      5  C   UNL     1      13.331 119.034  19.952  1.00  0.00     0.006 C 
BRANCH   5   6
ATOM      6  C   UNL     1      14.672 118.932  20.693  1.00  0.00     0.053 C 
BRANCH   6   7
ATOM      7  C   UNL     1      14.610 119.577  22.044  1.00  0.00     0.041 C 
ATOM      8  O   UNL     1      15.075 120.735  22.215  1.00  0.00    -0.550 OA
ATOM      9  O   UNL     1      14.070 118.887  23.121  1.00  0.00    -0.550 OA
ENDBRANCH   6   7
ENDBRANCH   5   6
ENDBRANCH   4   5
ENDBRANCH   3   4
ENDBRANCH   2   3
ENDBRANCH   1   2
BRANCH   1  10
ATOM     10  C   UNL     1      16.978 120.550  15.627  1.00  0.00     0.027 C 
BRANCH  10  11
ATOM     11  C   UNL     1      17.216 122.023  15.804  1.00  0.00    -0.031 C 
ATOM     12  C   UNL     1      17.958 122.496  16.816  1.00  0.00    -0.031 C 
BRANCH  12  13
ATOM     13  C   UNL     1      18.184 123.972  17.006  1.00  0.00     0.027 C 
BRANCH  13  14
ATOM     14  C   UNL     1      18.881 124.623  15.798  1.00  0.00     0.004 C 
BRANCH  14  15
ATOM     15  C   UNL     1      18.343 126.021  15.427  1.00  0.00     0.000 C 
BRANCH  15  16
ATOM     16  C   UNL     1      19.421 127.108  15.258  1.00  0.00    -0.000 C 
BRANCH  16  17
ATOM     17  C   UNL     1      19.359 128.184  16.351  1.00  0.00    -0.003 C 
ATOM     18  C   UNL     1      18.564 127.694  17.558  1.00  0.00     0.004 C 
ENDBRANCH  16  17
ENDBRANCH  15  16
ENDBRANCH  14  15
ENDBRANCH  13  14
ENDBRANCH  12  13
ENDBRANCH  10  11
ENDBRANCH   1  10
TORSDOF 13
ENDMDL
MODEL 2
REMARK VINA RESULT:    -6.436      0.720      1.613
REMARK INTER + INTRA:         -12.081
REMARK INTER:                 -11.395
REMARK INTRA:                  -0.685
REMARK UNBOUND:                -0.754
REMARK SMILES CCCCCCC=CCCCCCCCC(=O)[O-]
REMARK SMILES IDX 10 1 11 2 12 3 13 4 14 5 15 6 16 7 17 8 18 9 9 10 8 11 7 12
REMARK SMILES IDX 6 13 5 14 4 15 3 16 2 17 1 18
REMARK H PARENT
REMARK Flexibility Score: inf
ROOT
ATOM      1  C   UNL     1      15.069 119.206  16.503  1.00  0.00     0.004 C 
ENDROOT
BRANCH   1   2
ATOM      2  C   UNL     1      13.872 119.639  17.358  1.00  0.00     0.000 C 
BRANCH   2   3
ATOM      3  C   UNL     1      13.463 118.530  18.334  1.00  0.00     0.000 C 
BRANCH   3   4
ATOM      4  C   UNL     1      13.278 119.084  19.752  1.00  0.00     0.000 C 
BRANCH   4   5
ATOM      5  C   UNL     1      14.622 119.171  20.488  1.00  0.00     0.006 C 
BRANCH   5   6
ATOM      6  C   UNL     1      14.557 118.555  21.893  1.00  0.00     0.053 C 
BRANCH   6   7
ATOM      7  C   UNL     1      14.511 119.606  22.959  1.00  0.00     0.041 C 
ATOM      8  O   UNL     1      14.156 119.307  24.130  1.00  0.00    -0.550 OA
ATOM      9  O   UNL     1      14.828 120.924  22.652  1.00  0.00    -0.550 OA
ENDBRANCH   6   7
ENDBRANCH   5   6
ENDBRANCH   4   5
ENDBRANCH   3   4
ENDBRANCH   2   3
ENDBRANCH   1   2
BRANCH   1  10
ATOM     10  C   UNL     1      16.381 119.766  17.066  1.00  0.00     0.027 C 
BRANCH  10  11
ATOM     11  C   UNL     1      16.861 120.935  16.254  1.00  0.00    -0.031 C 
ATOM     12  C   UNL     1      17.556 121.937  16.811  1.00  0.00    -0.031 C 
BRANCH  12  13
ATOM     13  C   UNL     1      18.023 123.119  16.004  1.00  0.00     0.027 C 
BRANCH  13  14
ATOM     14  C   UNL     1      18.575 124.255  16.885  1.00  0.00     0.004 C 
BRANCH  14  15
ATOM     15  C   UNL     1      18.079 125.663  16.496  1.00  0.00     0.000 C 
BRANCH  15  16
ATOM     16  C   UNL     1      18.517 126.791  17.448  1.00  0.00    -0.000 C 
BRANCH  16  17
ATOM     17  C   UNL     1      19.165 127.973  16.713  1.00  0.00    -0.003 C 
ATOM     18  C   UNL     1      19.842 127.512  15.425  1.00  0.00     0.004 C 
ENDBRANCH  16  17
ENDBRANCH  15  16
ENDBRANCH  14  15
ENDBRANCH  13  14
ENDBRANCH  12  13
ENDBRANCH  10  11
ENDBRANCH   1  10
TORSDOF 13
ENDMDL
MODEL 3
REMARK VINA RESULT:    -6.353      1.212      2.055
REMARK INTER + INTRA:         -11.935
REMARK INTER:                 -11.376
REMARK INTRA:                  -0.559
REMARK UNBOUND:                -0.754
REMARK SMILES CCCCCCC=CCCCCCCCC(=O)[O-]
REMARK SMILES IDX 10 1 11 2 12 3 13 4 14 5 15 6 16 7 17 8 18 9 9 10 8 11 7 12
REMARK SMILES IDX 6 13 5 14 4 15 3 16 2 17 1 18
REMARK H PARENT
REMARK Flexibility Score: inf
ROOT
ATOM      1  C   UNL     1      14.530 119.368  16.809  1.00  0.00     0.004 C 
ENDROOT
BRANCH   1   2
ATOM      2  C   UNL     1      13.636 119.005  18.001  1.00  0.00     0.000 C 
BRANCH   2   3
ATOM      3  C   UNL     1      14.403 119.136  19.322  1.00  0.00     0.000 C 
BRANCH   3   4
ATOM      4  C   UNL     1      13.468 118.938  20.522  1.00  0.00     0.000 C 
BRANCH   4   5
ATOM      5  C   UNL     1      14.269 118.701  21.810  1.00  0.00     0.006 C 
BRANCH   5   6
ATOM      6  C   UNL     1      14.359 119.963  22.680  1.00  0.00     0.053 C 
BRANCH   6   7
ATOM      7  C   UNL     1      13.128 120.154  23.511  1.00  0.00     0.041 C 
ATOM      8  O   UNL     1      13.043 119.621  24.649  1.00  0.00    -0.550 OA
ATOM      9  O   UNL     1      12.062 120.895  23.017  1.00  0.00    -0.550 OA
ENDBRANCH   6   7
ENDBRANCH   5   6
ENDBRANCH   4   5
ENDBRANCH   3   4
ENDBRANCH   2   3
ENDBRANCH   1   2
BRANCH   1  10
ATOM     10  C   UNL     1      15.997 119.498  17.238  1.00  0.00     0.027 C 
BRANCH  10  11
ATOM     11  C   UNL     1      16.710 120.531  16.412  1.00  0.00    -0.031 C 
ATOM     12  C   UNL     1      17.301 121.594  16.977  1.00  0.00    -0.031 C 
BRANCH  12  13
ATOM     13  C   UNL     1      18.002 122.640  16.152  1.00  0.00     0.027 C 
BRANCH  13  14
ATOM     14  C   UNL     1      18.266 123.935  16.941  1.00  0.00     0.004 C 
BRANCH  14  15
ATOM     15  C   UNL     1      18.804 125.104  16.090  1.00  0.00     0.000 C 
BRANCH  15  16
ATOM     16  C   UNL     1      18.114 126.458  16.337  1.00  0.00    -0.000 C 
BRANCH  16  17
ATOM     17  C   UNL     1      19.092 127.641  16.299  1.00  0.00    -0.003 C 
ATOM     18  C   UNL     1      20.182 127.417  15.254  1.00  0.00     0.004 C 
ENDBRANCH  16  17
ENDBRANCH  15  16
ENDBRANCH  14  15
ENDBRANCH  13  14
ENDBRANCH  12  13
ENDBRANCH  10  11
ENDBRANCH   1  10
TORSDOF 13
ENDMDL
MODEL 4
REMARK VINA RESULT:    -6.316      3.621      4.386
REMARK INTER + INTRA:         -11.869
REMARK INTER:                 -11.186
REMARK INTRA:                  -0.683
REMARK UNBOUND:                -0.754
REMARK SMILES CCCCCCC=CCCCCCCCC(=O)[O-]
REMARK SMILES IDX 10 1 11 2 12 3 13 4 14 5 15 6 16 7 17 8 18 9 9 10 8 11 7 12
REMARK SMILES IDX 6 13 5 14 4 15 3 16 2 17 1 18
REMARK H PARENT
REMARK Flexibility Score: inf
ROOT
ATOM      1  C   UNL     1      16.382 119.986  16.287  1.00  0.00     0.004 C 
ENDROOT
BRANCH   1   2
ATOM      2  C   UNL     1      15.549 118.827  16.845  1.00  0.00     0.000 C 
BRANCH   2   3
ATOM      3  C   UNL     1      14.102 119.263  17.103  1.00  0.00     0.000 C 
BRANCH   3   4
ATOM      4  C   UNL     1      13.113 118.171  16.678  1.00  0.00     0.000 C 
BRANCH   4   5
ATOM      5  C   UNL     1      13.737 117.243  15.626  1.00  0.00     0.006 C 
BRANCH   5   6
ATOM      6  C   UNL     1      12.847 117.088  14.386  1.00  0.00     0.053 C 
BRANCH   6   7
ATOM      7  C   UNL     1      11.786 116.050  14.590  1.00  0.00     0.041 C 
ATOM      8  O   UNL     1      10.838 115.942  13.767  1.00  0.00    -0.550 OA
ATOM      9  O   UNL     1      11.826 115.223  15.705  1.00  0.00    -0.550 OA
ENDBRANCH   6   7
ENDBRANCH   5   6
ENDBRANCH   4   5
ENDBRANCH   3   4
ENDBRANCH   2   3
ENDBRANCH   1   2
BRANCH   1  10
ATOM     10  C   UNL     1      16.984 120.828  17.419  1.00  0.00     0.027 C 
BRANCH  10  11
ATOM     11  C   UNL     1      17.725 122.016  16.872  1.00  0.00    -0.031 C 
ATOM     12  C   UNL     1      17.728 122.297  15.561  1.00  0.00    -0.031 C 
BRANCH  12  13
ATOM     13  C   UNL     1      18.483 123.475  15.007  1.00  0.00     0.027 C 
BRANCH  13  14
ATOM     14  C   UNL     1      18.828 124.516  16.088  1.00  0.00     0.004 C 
BRANCH  14  15
ATOM     15  C   UNL     1      18.322 125.942  15.787  1.00  0.00     0.000 C 
BRANCH  15  16
ATOM     16  C   UNL     1      19.427 126.988  15.552  1.00  0.00    -0.000 C 
BRANCH  16  17
ATOM     17  C   UNL     1      19.263 128.234  16.433  1.00  0.00    -0.003 C 
ATOM     18  C   UNL     1      18.744 127.862  17.819  1.00  0.00     0.004 C 
ENDBRANCH  16  17
ENDBRANCH  15  16
ENDBRANCH  14  15
ENDBRANCH  13  14
ENDBRANCH  12  13
ENDBRANCH  10  11
ENDBRANCH   1  10
TORSDOF 13
ENDMDL
MODEL 5
REMARK VINA RESULT:    -6.275      3.313      8.020
REMARK INTER + INTRA:         -11.797
REMARK INTER:                 -11.035
REMARK INTRA:                  -0.762
REMARK UNBOUND:                -0.754
REMARK SMILES CCCCCCC=CCCCCCCCC(=O)[O-]
REMARK SMILES IDX 10 1 11 2 12 3 13 4 14 5 15 6 16 7 17 8 18 9 9 10 8 11 7 12
REMARK SMILES IDX 6 13 5 14 4 15 3 16 2 17 1 18
REMARK H PARENT
REMARK Flexibility Score: inf
ROOT
ATOM      1  C   UNL     1      16.432 121.159  15.908  1.00  0.00     0.004 C 
ENDROOT
BRANCH   1   2
ATOM      2  C   UNL     1      17.376 121.361  14.718  1.00  0.00     0.000 C 
BRANCH   2   3
ATOM      3  C   UNL     1      18.300 122.563  14.946  1.00  0.00     0.000 C 
BRANCH   3   4
ATOM      4  C   UNL     1      17.968 123.270  16.266  1.00  0.00     0.000 C 
BRANCH   4   5
ATOM      5  C   UNL     1      18.799 124.551  16.428  1.00  0.00     0.006 C 
BRANCH   5   6
ATOM      6  C   UNL     1      17.927 125.814  16.418  1.00  0.00     0.053 C 
BRANCH   6   7
ATOM      7  C   UNL     1      18.525 126.908  17.249  1.00  0.00     0.041 C 
ATOM      8  O   UNL     1      18.585 126.792  18.501  1.00  0.00    -0.550 OA
ATOM      9  O   UNL     1      18.986 128.070  16.642  1.00  0.00    -0.550 OA
ENDBRANCH   6   7
ENDBRANCH   5   6
ENDBRANCH   4   5
ENDBRANCH   3   4
ENDBRANCH   2   3
ENDBRANCH   1   2
BRANCH   1  10
ATOM     10  C   UNL     1      16.556 119.740  16.477  1.00  0.00     0.027 C 
BRANCH  10  11
ATOM     11  C   UNL     1      16.034 119.676  17.885  1.00  0.00    -0.031 C 
ATOM     12  C   UNL     1      16.859 119.734  18.941  1.00  0.00    -0.031 C 
BRANCH  12  13
ATOM     13  C   UNL     1      16.342 119.652  20.352  1.00  0.00     0.027 C 
BRANCH  13  14
ATOM     14  C   UNL     1      14.873 119.194  20.417  1.00  0.00     0.004 C 
BRANCH  14  15
ATOM     15  C   UNL     1      14.415 118.713  21.809  1.00  0.00     0.000 C 
BRANCH  15  16
ATOM     16  C   UNL     1      13.473 119.678  22.553  1.00  0.00    -0.000 C 
BRANCH  16  17
ATOM     17  C   UNL     1      14.228 120.691  23.425  1.00  0.00    -0.003 C 
ATOM     18  C   UNL     1      13.447 121.997  23.549  1.00  0.00     0.004 C 
ENDBRANCH  16  17
ENDBRANCH  15  16
ENDBRANCH  14  15
ENDBRANCH  13  14
ENDBRANCH  12  13
ENDBRANCH  10  11
ENDBRANCH   1  10
TORSDOF 13
ENDMDL
MODEL 6
REMARK VINA RESULT:    -6.249      4.739     10.200
REMARK INTER + INTRA:         -11.751
REMARK INTER:                 -11.316
REMARK INTRA:                  -0.435
REMARK UNBOUND:                -0.754
REMARK SMILES CCCCCCC=CCCCCCCCC(=O)[O-]
REMARK SMILES IDX 10 1 11 2 12 3 13 4 14 5 15 6 16 7 17 8 18 9 9 10 8 11 7 12
REMARK SMILES IDX 6 13 5 14 4 15 3 16 2 17 1 18
REMARK H PARENT
REMARK Flexibility Score: inf
ROOT
ATOM      1  C   UNL     1      16.087 119.489  16.769  1.00  0.00     0.004 C 
ENDROOT
BRANCH   1   2
ATOM      2  C   UNL     1      16.268 120.900  16.195  1.00  0.00     0.000 C 
BRANCH   2   3
ATOM      3  C   UNL     1      17.430 121.628  16.881  1.00  0.00     0.000 C 
BRANCH   3   4
ATOM      4  C   UNL     1      18.016 122.711  15.967  1.00  0.00     0.000 C 
BRANCH   4   5
ATOM      5  C   UNL     1      18.296 124.000  16.752  1.00  0.00     0.006 C 
BRANCH   5   6
ATOM      6  C   UNL     1      18.018 125.260  15.921  1.00  0.00     0.053 C 
BRANCH   6   7
ATOM      7  C   UNL     1      18.866 126.414  16.360  1.00  0.00     0.041 C 
ATOM      8  O   UNL     1      19.115 126.589  17.582  1.00  0.00    -0.550 OA
ATOM      9  O   UNL     1      19.353 127.316  15.423  1.00  0.00    -0.550 OA
ENDBRANCH   6   7
ENDBRANCH   5   6
ENDBRANCH   4   5
ENDBRANCH   3   4
ENDBRANCH   2   3
ENDBRANCH   1   2
BRANCH   1  10
ATOM     10  C   UNL     1      14.794 119.389  17.588  1.00  0.00     0.027 C 
BRANCH  10  11
ATOM     11  C   UNL     1      13.687 118.780  16.774  1.00  0.00    -0.031 C 
ATOM     12  C   UNL     1      13.883 117.675  16.039  1.00  0.00    -0.031 C 
BRANCH  12  13
ATOM     13  C   UNL     1      12.781 117.073  15.209  1.00  0.00     0.027 C 
BRANCH  13  14
ATOM     14  C   UNL     1      12.025 115.957  15.953  1.00  0.00     0.004 C 
BRANCH  14  15
ATOM     15  C   UNL     1      11.424 114.872  15.036  1.00  0.00     0.000 C 
BRANCH  15  16
ATOM     16  C   UNL     1      11.691 113.422  15.483  1.00  0.00    -0.000 C 
BRANCH  16  17
ATOM     17  C   UNL     1      10.540 112.833  16.310  1.00  0.00    -0.003 C 
ATOM     18  C   UNL     1      10.192 111.424  15.838  1.00  0.00     0.004 C 
ENDBRANCH  16  17
ENDBRANCH  15  16
ENDBRANCH  14  15
ENDBRANCH  13  14
ENDBRANCH  12  13
ENDBRANCH  10  11
ENDBRANCH   1  10
TORSDOF 13
ENDMDL
MODEL 7
REMARK VINA RESULT:    -6.236      4.238      5.235
REMARK INTER + INTRA:         -11.728
REMARK INTER:                 -11.129
REMARK INTRA:                  -0.599
REMARK UNBOUND:                -0.754
REMARK SMILES CCCCCCC=CCCCCCCCC(=O)[O-]
REMARK SMILES IDX 10 1 11 2 12 3 13 4 14 5 15 6 16 7 17 8 18 9 9 10 8 11 7 12
REMARK SMILES IDX 6 13 5 14 4 15 3 16 2 17 1 18
REMARK H PARENT
REMARK Flexibility Score: inf
ROOT
ATOM      1  C   UNL     1      14.129 119.458  17.008  1.00  0.00     0.004 C 
ENDROOT
BRANCH   1   2
ATOM      2  C   UNL     1      13.182 118.253  17.038  1.00  0.00     0.000 C 
BRANCH   2   3
ATOM      3  C   UNL     1      13.448 117.315  15.854  1.00  0.00     0.000 C 
BRANCH   3   4
ATOM      4  C   UNL     1      12.155 116.628  15.395  1.00  0.00     0.000 C 
BRANCH   4   5
ATOM      5  C   UNL     1      11.934 115.310  16.151  1.00  0.00     0.006 C 
BRANCH   5   6
ATOM      6  C   UNL     1      11.339 114.218  15.252  1.00  0.00     0.053 C 
BRANCH   6   7
ATOM      7  C   UNL     1      11.212 112.912  15.975  1.00  0.00     0.041 C 
ATOM      8  O   UNL     1      12.228 112.366  16.481  1.00  0.00    -0.550 OA
ATOM      9  O   UNL     1       9.977 112.281  16.061  1.00  0.00    -0.550 OA
ENDBRANCH   6   7
ENDBRANCH   5   6
ENDBRANCH   4   5
ENDBRANCH   3   4
ENDBRANCH   2   3
ENDBRANCH   1   2
BRANCH   1  10
ATOM     10  C   UNL     1      15.574 119.018  16.739  1.00  0.00     0.027 C 
BRANCH  10  11
ATOM     11  C   UNL     1      16.496 120.203  16.680  1.00  0.00    -0.031 C 
ATOM     12  C   UNL     1      16.583 120.970  15.583  1.00  0.00    -0.031 C 
BRANCH  12  13
ATOM     13  C   UNL     1      17.518 122.147  15.514  1.00  0.00     0.027 C 
BRANCH  13  14
ATOM     14  C   UNL     1      18.003 122.598  16.904  1.00  0.00     0.004 C 
BRANCH  14  15
ATOM     15  C   UNL     1      18.381 124.091  16.997  1.00  0.00     0.000 C 
BRANCH  15  16
ATOM     16  C   UNL     1      18.377 124.846  15.655  1.00  0.00    -0.000 C 
BRANCH  16  17
ATOM     17  C   UNL     1      18.311 126.370  15.830  1.00  0.00    -0.003 C 
ATOM     18  C   UNL     1      19.668 127.012  15.555  1.00  0.00     0.004 C 
ENDBRANCH  16  17
ENDBRANCH  15  16
ENDBRANCH  14  15
ENDBRANCH  13  14
ENDBRANCH  12  13
ENDBRANCH  10  11
ENDBRANCH   1  10
TORSDOF 13
ENDMDL
MODEL 8
REMARK VINA RESULT:    -6.205      3.275      8.166
REMARK INTER + INTRA:         -11.675
REMARK INTER:                 -10.777
REMARK INTRA:                  -0.898
REMARK UNBOUND:                -0.754
REMARK SMILES CCCCCCC=CCCCCCCCC(=O)[O-]
REMARK SMILES IDX 10 1 11 2 12 3 13 4 14 5 15 6 16 7 17 8 18 9 9 10 8 11 7 12
REMARK SMILES IDX 6 13 5 14 4 15 3 16 2 17 1 18
REMARK H PARENT
REMARK Flexibility Score: inf
ROOT
ATOM      1  C   UNL     1      16.836 120.329  15.978  1.00  0.00     0.004 C 
ENDROOT
BRANCH   1   2
ATOM      2  C   UNL     1      16.720 121.756  15.433  1.00  0.00     0.000 C 
BRANCH   2   3
ATOM      3  C   UNL     1      18.067 122.485  15.507  1.00  0.00     0.000 C 
BRANCH   3   4
ATOM      4  C   UNL     1      18.000 123.668  16.481  1.00  0.00     0.000 C 
BRANCH   4   5
ATOM      5  C   UNL     1      18.757 124.882  15.925  1.00  0.00     0.006 C 
BRANCH   5   6
ATOM      6  C   UNL     1      17.948 126.180  16.051  1.00  0.00     0.053 C 
BRANCH   6   7
ATOM      7  C   UNL     1      18.655 127.197  16.894  1.00  0.00     0.041 C 
ATOM      8  O   UNL     1      19.322 128.117  16.352  1.00  0.00    -0.550 OA
ATOM      9  O   UNL     1      18.604 127.109  18.280  1.00  0.00    -0.550 OA
ENDBRANCH   6   7
ENDBRANCH   5   6
ENDBRANCH   4   5
ENDBRANCH   3   4
ENDBRANCH   2   3
ENDBRANCH   1   2
BRANCH   1  10
ATOM     10  C   UNL     1      16.832 120.322  17.512  1.00  0.00     0.027 C 
BRANCH  10  11
ATOM     11  C   UNL     1      15.811 119.356  18.044  1.00  0.00    -0.031 C 
ATOM     12  C   UNL     1      14.500 119.524  17.813  1.00  0.00    -0.031 C 
BRANCH  12  13
ATOM     13  C   UNL     1      13.473 118.568  18.359  1.00  0.00     0.027 C 
BRANCH  13  14
ATOM     14  C   UNL     1      12.963 118.982  19.751  1.00  0.00     0.004 C 
BRANCH  14  15
ATOM     15  C   UNL     1      13.891 118.583  20.917  1.00  0.00     0.000 C 
BRANCH  15  16
ATOM     16  C   UNL     1      13.972 119.608  22.063  1.00  0.00    -0.000 C 
BRANCH  16  17
ATOM     17  C   UNL     1      15.406 119.829  22.564  1.00  0.00    -0.003 C 
ATOM     18  C   UNL     1      16.426 119.412  21.508  1.00  0.00     0.004 C 
ENDBRANCH  16  17
ENDBRANCH  15  16
ENDBRANCH  14  15
ENDBRANCH  13  14
ENDBRANCH  12  13
ENDBRANCH  10  11
ENDBRANCH   1  10
TORSDOF 13
ENDMDL
MODEL 9
REMARK VINA RESULT:    -6.153      4.859      5.710
REMARK INTER + INTRA:         -11.583
REMARK INTER:                 -11.026
REMARK INTRA:                  -0.557
REMARK UNBOUND:                -0.754
REMARK SMILES CCCCCCC=CCCCCCCCC(=O)[O-]
REMARK SMILES IDX 10 1 11 2 12 3 13 4 14 5 15 6 16 7 17 8 18 9 9 10 8 11 7 12
REMARK SMILES IDX 6 13 5 14 4 15 3 16 2 17 1 18
REMARK H PARENT
REMARK Flexibility Score: inf
ROOT
ATOM      1  C   UNL     1      14.460 119.800  16.898  1.00  0.00     0.004 C 
ENDROOT
BRANCH   1   2
ATOM      2  C   UNL     1      13.506 118.603  16.981  1.00  0.00     0.000 C 
BRANCH   2   3
ATOM      3  C   UNL     1      13.783 117.599  15.857  1.00  0.00     0.000 C 
BRANCH   3   4
ATOM      4  C   UNL     1      12.541 116.749  15.559  1.00  0.00     0.000 C 
BRANCH   4   5
ATOM      5  C   UNL     1      11.889 117.175  14.236  1.00  0.00     0.006 C 
BRANCH   5   6
ATOM      6  C   UNL     1      11.122 116.024  13.569  1.00  0.00     0.053 C 
BRANCH   6   7
ATOM      7  C   UNL     1      10.137 116.525  12.558  1.00  0.00     0.041 C 
ATOM      8  O   UNL     1      10.403 116.462  11.329  1.00  0.00    -0.550 OA
ATOM      9  O   UNL     1       8.938 117.091  12.975  1.00  0.00    -0.550 OA
ENDBRANCH   6   7
ENDBRANCH   5   6
ENDBRANCH   4   5
ENDBRANCH   3   4
ENDBRANCH   2   3
ENDBRANCH   1   2
BRANCH   1  10
ATOM     10  C   UNL     1      15.909 119.370  17.161  1.00  0.00     0.027 C 
BRANCH  10  11
ATOM     11  C   UNL     1      16.868 120.484  16.849  1.00  0.00    -0.031 C 
ATOM     12  C   UNL     1      16.779 121.186  15.710  1.00  0.00    -0.031 C 
BRANCH  12  13
ATOM     13  C   UNL     1      17.748 122.291  15.385  1.00  0.00     0.027 C 
BRANCH  13  14
ATOM     14  C   UNL     1      18.041 123.194  16.597  1.00  0.00     0.004 C 
BRANCH  14  15
ATOM     15  C   UNL     1      18.784 124.502  16.255  1.00  0.00     0.000 C 
BRANCH  15  16
ATOM     16  C   UNL     1      18.089 125.789  16.734  1.00  0.00    -0.000 C 
BRANCH  16  17
ATOM     17  C   UNL     1      19.055 126.975  16.863  1.00  0.00    -0.003 C 
ATOM     18  C   UNL     1      19.951 127.089  15.633  1.00  0.00     0.004 C 
ENDBRANCH  16  17
ENDBRANCH  15  16
ENDBRANCH  14  15
ENDBRANCH  13  14
ENDBRANCH  12  13
ENDBRANCH  10  11
ENDBRANCH   1  10
TORSDOF 13
ENDMDL
