MODEL 1
REMARK VINA RESULT:    -4.638      0.000      0.000
REMARK INTER + INTRA:          -9.228
REMARK INTER:                  -7.892
REMARK INTRA:                  -1.336
REMARK UNBOUND:                -1.336
REMARK SMILES CCCCCCCCCCCCCC(=O)[O-]
REMARK SMILES IDX 8 1 9 2 10 3 11 4 12 5 13 6 14 7 15 8 16 9 7 10 6 11 5 12
REMARK SMILES IDX 4 13 3 14 2 15 1 16
REMARK H PARENT
REMARK Flexibility Score: inf
ROOT
ATOM      1  C   UNL     1     -42.773 -50.113  30.578  1.00  0.00     0.000 C 
ENDROOT
BRANCH   1   2
ATOM      2  C   UNL     1     -43.859 -50.419  29.530  1.00  0.00     0.000 C 
BRANCH   2   3
ATOM      3  C   UNL     1     -45.125 -49.565  29.714  1.00  0.00     0.000 C 
BRANCH   3   4
ATOM      4  C   UNL     1     -45.470 -49.313  31.193  1.00  0.00     0.000 C 
BRANCH   4   5
ATOM      5  C   UNL     1     -46.784 -49.950  31.685  1.00  0.00     0.006 C 
BRANCH   5   6
ATOM      6  C   UNL     1     -46.598 -51.004  32.791  1.00  0.00     0.053 C 
BRANCH   6   7
ATOM      7  C   UNL     1     -45.550 -52.020  32.450  1.00  0.00     0.041 C 
ATOM      8  O   UNL     1     -45.765 -52.881  31.557  1.00  0.00    -0.550 OA
ATOM      9  O   UNL     1     -44.349 -52.043  33.148  1.00  0.00    -0.550 OA
ENDBRANCH   6   7
ENDBRANCH   5   6
ENDBRANCH   4   5
ENDBRANCH   3   4
ENDBRANCH   2   3
ENDBRANCH   1   2
BRANCH   1  10
ATOM     10  C   UNL     1     -41.445 -49.579  30.010  1.00  0.00     0.000 C 
BRANCH  10  11
ATOM     11  C   UNL     1     -41.224 -49.959  28.539  1.00  0.00    -0.000 C 
BRANCH  11  12
ATOM     12  C   UNL     1     -41.282 -48.717  27.637  1.00  0.00    -0.000 C 
BRANCH  12  13
ATOM     13  C   UNL     1     -40.970 -47.417  28.395  1.00  0.00    -0.000 C 
BRANCH  13  14
ATOM     14  C   UNL     1     -39.553 -46.890  28.107  1.00  0.00    -0.000 C 
BRANCH  14  15
ATOM     15  C   UNL     1     -38.549 -47.268  29.208  1.00  0.00    -0.003 C 
ATOM     16  C   UNL     1     -37.642 -48.433  28.810  1.00  0.00     0.004 C 
ENDBRANCH  14  15
ENDBRANCH  13  14
ENDBRANCH  12  13
ENDBRANCH  11  12
ENDBRANCH  10  11
ENDBRANCH   1  10
TORSDOF 12
ENDMDL
MODEL 2
REMARK VINA RESULT:    -4.619     13.023     15.474
REMARK INTER + INTRA:          -9.196
REMARK INTER:                  -8.412
REMARK INTRA:                  -0.784
REMARK UNBOUND:                -1.336
REMARK SMILES CCCCCCCCCCCCCC(=O)[O-]
REMARK SMILES IDX 8 1 9 2 10 3 11 4 12 5 13 6 14 7 15 8 16 9 7 10 6 11 5 12
REMARK SMILES IDX 4 13 3 14 2 15 1 16
REMARK H PARENT
REMARK Flexibility Score: inf
ROOT
ATOM      1  C   UNL     1     -49.545 -48.152  19.148  1.00  0.00     0.000 C 
ENDROOT
BRANCH   1   2
ATOM      2  C   UNL     1     -48.009 -48.128  19.035  1.00  0.00     0.000 C 
BRANCH   2   3
ATOM      3  C   UNL     1     -47.446 -49.342  18.278  1.00  0.00     0.000 C 
BRANCH   3   4
ATOM      4  C   UNL     1     -47.357 -49.114  16.758  1.00  0.00     0.000 C 
BRANCH   4   5
ATOM      5  C   UNL     1     -47.633 -50.353  15.885  1.00  0.00     0.006 C 
BRANCH   5   6
ATOM      6  C   UNL     1     -48.653 -51.336  16.489  1.00  0.00     0.053 C 
BRANCH   6   7
ATOM      7  C   UNL     1     -50.052 -51.080  16.014  1.00  0.00     0.041 C 
ATOM      8  O   UNL     1     -50.972 -50.849  16.842  1.00  0.00    -0.550 OA
ATOM      9  O   UNL     1     -50.350 -51.138  14.659  1.00  0.00    -0.550 OA
ENDBRANCH   6   7
ENDBRANCH   5   6
ENDBRANCH   4   5
ENDBRANCH   3   4
ENDBRANCH   2   3
ENDBRANCH   1   2
BRANCH   1  10
ATOM     10  C   UNL     1     -50.121 -49.281  20.024  1.00  0.00     0.000 C 
BRANCH  10  11
ATOM     11  C   UNL     1     -51.200 -48.792  21.000  1.00  0.00    -0.000 C 
BRANCH  11  12
ATOM     12  C   UNL     1     -52.606 -49.120  20.475  1.00  0.00    -0.000 C 
BRANCH  12  13
ATOM     13  C   UNL     1     -53.660 -49.173  21.592  1.00  0.00    -0.000 C 
BRANCH  13  14
ATOM     14  C   UNL     1     -54.128 -47.775  22.031  1.00  0.00    -0.000 C 
BRANCH  14  15
ATOM     15  C   UNL     1     -55.355 -47.290  21.243  1.00  0.00    -0.003 C 
ATOM     16  C   UNL     1     -56.454 -48.348  21.146  1.00  0.00     0.004 C 
ENDBRANCH  14  15
ENDBRANCH  13  14
ENDBRANCH  12  13
ENDBRANCH  11  12
ENDBRANCH  10  11
ENDBRANCH   1  10
TORSDOF 12
ENDMDL
MODEL 3
REMARK VINA RESULT:    -4.521      1.705      2.272
REMARK INTER + INTRA:          -9.030
REMARK INTER:                  -8.177
REMARK INTRA:                  -0.852
REMARK UNBOUND:                -1.336
REMARK SMILES CCCCCCCCCCCCCC(=O)[O-]
REMARK SMILES IDX 8 1 9 2 10 3 11 4 12 5 13 6 14 7 15 8 16 9 7 10 6 11 5 12
REMARK SMILES IDX 4 13 3 14 2 15 1 16
REMARK H PARENT
REMARK Flexibility Score: inf
ROOT
ATOM      1  C   UNL     1     -42.078 -49.999  29.494  1.00  0.00     0.000 C 
ENDROOT
BRANCH   1   2
ATOM      2  C   UNL     1     -42.428 -50.282  30.967  1.00  0.00     0.000 C 
BRANCH   2   3
ATOM      3  C   UNL     1     -43.687 -51.152  31.124  1.00  0.00     0.000 C 
BRANCH   3   4
ATOM      4  C   UNL     1     -44.014 -51.474  32.593  1.00  0.00     0.000 C 
BRANCH   4   5
ATOM      5  C   UNL     1     -45.417 -52.057  32.847  1.00  0.00     0.006 C 
BRANCH   5   6
ATOM      6  C   UNL     1     -46.337 -51.146  33.681  1.00  0.00     0.053 C 
BRANCH   6   7
ATOM      7  C   UNL     1     -46.856 -49.978  32.898  1.00  0.00     0.041 C 
ATOM      8  O   UNL     1     -47.116 -48.890  33.475  1.00  0.00    -0.550 OA
ATOM      9  O   UNL     1     -47.094 -50.103  31.535  1.00  0.00    -0.550 OA
ENDBRANCH   6   7
ENDBRANCH   5   6
ENDBRANCH   4   5
ENDBRANCH   3   4
ENDBRANCH   2   3
ENDBRANCH   1   2
BRANCH   1  10
ATOM     10  C   UNL     1     -42.848 -48.832  28.848  1.00  0.00     0.000 C 
BRANCH  10  11
ATOM     11  C   UNL     1     -42.412 -48.551  27.403  1.00  0.00    -0.000 C 
BRANCH  11  12
ATOM     12  C   UNL     1     -40.909 -48.242  27.333  1.00  0.00    -0.000 C 
BRANCH  12  13
ATOM     13  C   UNL     1     -40.568 -46.830  27.836  1.00  0.00    -0.000 C 
BRANCH  13  14
ATOM     14  C   UNL     1     -39.315 -46.807  28.729  1.00  0.00    -0.000 C 
BRANCH  14  15
ATOM     15  C   UNL     1     -38.723 -48.208  28.949  1.00  0.00    -0.003 C 
ATOM     16  C   UNL     1     -37.203 -48.243  28.783  1.00  0.00     0.004 C 
ENDBRANCH  14  15
ENDBRANCH  13  14
ENDBRANCH  12  13
ENDBRANCH  11  12
ENDBRANCH  10  11
ENDBRANCH   1  10
TORSDOF 12
ENDMDL
MODEL 4
REMARK VINA RESULT:    -4.521     13.461     15.650
REMARK INTER + INTRA:          -9.028
REMARK INTER:                  -8.183
REMARK INTRA:                  -0.845
REMARK UNBOUND:                -1.336
REMARK SMILES CCCCCCCCCCCCCC(=O)[O-]
REMARK SMILES IDX 8 1 9 2 10 3 11 4 12 5 13 6 14 7 15 8 16 9 7 10 6 11 5 12
REMARK SMILES IDX 4 13 3 14 2 15 1 16
REMARK H PARENT
REMARK Flexibility Score: inf
ROOT
ATOM      1  C   UNL     1     -51.563 -50.938  19.872  1.00  0.00     0.000 C 
ENDROOT
BRANCH   1   2
ATOM      2  C   UNL     1     -50.746 -50.247  18.765  1.00  0.00     0.000 C 
BRANCH   2   3
ATOM      3  C   UNL     1     -49.256 -50.630  18.795  1.00  0.00     0.000 C 
BRANCH   3   4
ATOM      4  C   UNL     1     -48.354 -49.584  18.115  1.00  0.00     0.000 C 
BRANCH   4   5
ATOM      5  C   UNL     1     -47.561 -50.087  16.894  1.00  0.00     0.006 C 
BRANCH   5   6
ATOM      6  C   UNL     1     -48.263 -51.207  16.104  1.00  0.00     0.053 C 
BRANCH   6   7
ATOM      7  C   UNL     1     -49.375 -50.693  15.238  1.00  0.00     0.041 C 
ATOM      8  O   UNL     1     -49.162 -49.765  14.414  1.00  0.00    -0.550 OA
ATOM      9  O   UNL     1     -50.657 -51.211  15.370  1.00  0.00    -0.550 OA
ENDBRANCH   6   7
ENDBRANCH   5   6
ENDBRANCH   4   5
ENDBRANCH   3   4
ENDBRANCH   2   3
ENDBRANCH   1   2
BRANCH   1  10
ATOM     10  C   UNL     1     -52.512 -50.017  20.661  1.00  0.00     0.000 C 
BRANCH  10  11
ATOM     11  C   UNL     1     -51.774 -48.915  21.435  1.00  0.00    -0.000 C 
BRANCH  11  12
ATOM     12  C   UNL     1     -52.671 -48.317  22.529  1.00  0.00    -0.000 C 
BRANCH  12  13
ATOM     13  C   UNL     1     -53.266 -46.957  22.132  1.00  0.00    -0.000 C 
BRANCH  13  14
ATOM     14  C   UNL     1     -54.802 -46.986  22.044  1.00  0.00    -0.000 C 
BRANCH  14  15
ATOM     15  C   UNL     1     -55.304 -47.553  20.708  1.00  0.00    -0.003 C 
ATOM     16  C   UNL     1     -56.510 -48.479  20.871  1.00  0.00     0.004 C 
ENDBRANCH  14  15
ENDBRANCH  13  14
ENDBRANCH  12  13
ENDBRANCH  11  12
ENDBRANCH  10  11
ENDBRANCH   1  10
TORSDOF 12
ENDMDL
MODEL 5
REMARK VINA RESULT:    -4.508     12.311     13.749
REMARK INTER + INTRA:          -9.007
REMARK INTER:                  -7.252
REMARK INTRA:                  -1.755
REMARK UNBOUND:                -1.336
REMARK SMILES CCCCCCCCCCCCCC(=O)[O-]
REMARK SMILES IDX 8 1 9 2 10 3 11 4 12 5 13 6 14 7 15 8 16 9 7 10 6 11 5 12
REMARK SMILES IDX 4 13 3 14 2 15 1 16
REMARK H PARENT
REMARK Flexibility Score: inf
ROOT
ATOM      1  C   UNL     1     -49.401 -48.079  19.349  1.00  0.00     0.000 C 
ENDROOT
BRANCH   1   2
ATOM      2  C   UNL     1     -49.128 -49.565  19.651  1.00  0.00     0.000 C 
BRANCH   2   3
ATOM      3  C   UNL     1     -50.304 -50.478  19.266  1.00  0.00     0.000 C 
BRANCH   3   4
ATOM      4  C   UNL     1     -51.647 -49.730  19.196  1.00  0.00     0.000 C 
BRANCH   4   5
ATOM      5  C   UNL     1     -52.606 -49.977  20.377  1.00  0.00     0.006 C 
BRANCH   5   6
ATOM      6  C   UNL     1     -53.020 -48.700  21.131  1.00  0.00     0.053 C 
BRANCH   6   7
ATOM      7  C   UNL     1     -51.908 -48.136  21.964  1.00  0.00     0.041 C 
ATOM      8  O   UNL     1     -51.727 -46.892  22.026  1.00  0.00    -0.550 OA
ATOM      9  O   UNL     1     -51.043 -48.988  22.640  1.00  0.00    -0.550 OA
ENDBRANCH   6   7
ENDBRANCH   5   6
ENDBRANCH   4   5
ENDBRANCH   3   4
ENDBRANCH   2   3
ENDBRANCH   1   2
BRANCH   1  10
ATOM     10  C   UNL     1     -48.317 -47.369  18.516  1.00  0.00     0.000 C 
BRANCH  10  11
ATOM     11  C   UNL     1     -47.347 -48.344  17.835  1.00  0.00    -0.000 C 
BRANCH  11  12
ATOM     12  C   UNL     1     -47.337 -48.137  16.314  1.00  0.00    -0.000 C 
BRANCH  12  13
ATOM     13  C   UNL     1     -47.688 -49.417  15.537  1.00  0.00    -0.000 C 
BRANCH  13  14
ATOM     14  C   UNL     1     -47.682 -50.670  16.430  1.00  0.00    -0.000 C 
BRANCH  14  15
ATOM     15  C   UNL     1     -48.766 -51.683  16.030  1.00  0.00    -0.003 C 
ATOM     16  C   UNL     1     -50.067 -51.014  15.584  1.00  0.00     0.004 C 
ENDBRANCH  14  15
ENDBRANCH  13  14
ENDBRANCH  12  13
ENDBRANCH  11  12
ENDBRANCH  10  11
ENDBRANCH   1  10
TORSDOF 12
ENDMDL
MODEL 6
REMARK VINA RESULT:    -4.464     13.118     14.370
REMARK INTER + INTRA:          -8.932
REMARK INTER:                  -7.968
REMARK INTRA:                  -0.963
REMARK UNBOUND:                -1.336
REMARK SMILES CCCCCCCCCCCCCC(=O)[O-]
REMARK SMILES IDX 8 1 9 2 10 3 11 4 12 5 13 6 14 7 15 8 16 9 7 10 6 11 5 12
REMARK SMILES IDX 4 13 3 14 2 15 1 16
REMARK H PARENT
REMARK Flexibility Score: inf
ROOT
ATOM      1  C   UNL     1     -50.430 -50.414  18.370  1.00  0.00     0.000 C 
ENDROOT
BRANCH   1   2
ATOM      2  C   UNL     1     -51.895 -50.574  18.818  1.00  0.00     0.000 C 
BRANCH   2   3
ATOM      3  C   UNL     1     -52.127 -50.128  20.271  1.00  0.00     0.000 C 
BRANCH   3   4
ATOM      4  C   UNL     1     -53.015 -48.876  20.381  1.00  0.00     0.000 C 
BRANCH   4   5
ATOM      5  C   UNL     1     -53.809 -48.740  21.695  1.00  0.00     0.006 C 
BRANCH   5   6
ATOM      6  C   UNL     1     -54.660 -47.460  21.787  1.00  0.00     0.053 C 
BRANCH   6   7
ATOM      7  C   UNL     1     -56.008 -47.615  21.149  1.00  0.00     0.041 C 
ATOM      8  O   UNL     1     -56.581 -46.624  20.623  1.00  0.00    -0.550 OA
ATOM      9  O   UNL     1     -56.652 -48.845  21.172  1.00  0.00    -0.550 OA
ENDBRANCH   6   7
ENDBRANCH   5   6
ENDBRANCH   4   5
ENDBRANCH   3   4
ENDBRANCH   2   3
ENDBRANCH   1   2
BRANCH   1  10
ATOM     10  C   UNL     1     -49.410 -50.239  19.511  1.00  0.00     0.000 C 
BRANCH  10  11
ATOM     11  C   UNL     1     -48.582 -48.952  19.384  1.00  0.00    -0.000 C 
BRANCH  11  12
ATOM     12  C   UNL     1     -47.440 -49.131  18.374  1.00  0.00    -0.000 C 
BRANCH  12  13
ATOM     13  C   UNL     1     -47.547 -48.170  17.179  1.00  0.00    -0.000 C 
BRANCH  13  14
ATOM     14  C   UNL     1     -47.363 -48.883  15.828  1.00  0.00    -0.000 C 
BRANCH  14  15
ATOM     15  C   UNL     1     -47.748 -50.369  15.890  1.00  0.00    -0.003 C 
ATOM     16  C   UNL     1     -48.919 -50.718  14.970  1.00  0.00     0.004 C 
ENDBRANCH  14  15
ENDBRANCH  13  14
ENDBRANCH  12  13
ENDBRANCH  11  12
ENDBRANCH  10  11
ENDBRANCH   1  10
TORSDOF 12
ENDMDL
MODEL 7
REMARK VINA RESULT:    -4.443      1.158      2.216
REMARK INTER + INTRA:          -8.896
REMARK INTER:                  -7.189
REMARK INTRA:                  -1.708
REMARK UNBOUND:                -1.336
REMARK SMILES CCCCCCCCCCCCCC(=O)[O-]
REMARK SMILES IDX 8 1 9 2 10 3 11 4 12 5 13 6 14 7 15 8 16 9 7 10 6 11 5 12
REMARK SMILES IDX 4 13 3 14 2 15 1 16
REMARK H PARENT
REMARK Flexibility Score: inf
ROOT
ATOM      1  C   UNL     1     -43.380 -50.766  29.709  1.00  0.00     0.000 C 
ENDROOT
BRANCH   1   2
ATOM      2  C   UNL     1     -44.831 -50.320  29.455  1.00  0.00     0.000 C 
BRANCH   2   3
ATOM      3  C   UNL     1     -45.285 -49.194  30.400  1.00  0.00     0.000 C 
BRANCH   3   4
ATOM      4  C   UNL     1     -46.583 -49.530  31.155  1.00  0.00     0.000 C 
BRANCH   4   5
ATOM      5  C   UNL     1     -46.449 -49.640  32.686  1.00  0.00     0.006 C 
BRANCH   5   6
ATOM      6  C   UNL     1     -46.615 -51.071  33.232  1.00  0.00     0.053 C 
BRANCH   6   7
ATOM      7  C   UNL     1     -45.548 -52.003  32.741  1.00  0.00     0.041 C 
ATOM      8  O   UNL     1     -45.817 -52.881  31.879  1.00  0.00    -0.550 OA
ATOM      9  O   UNL     1     -44.264 -51.930  33.265  1.00  0.00    -0.550 OA
ENDBRANCH   6   7
ENDBRANCH   5   6
ENDBRANCH   4   5
ENDBRANCH   3   4
ENDBRANCH   2   3
ENDBRANCH   1   2
BRANCH   1  10
ATOM     10  C   UNL     1     -42.637 -49.988  30.812  1.00  0.00     0.000 C 
BRANCH  10  11
ATOM     11  C   UNL     1     -41.177 -49.679  30.450  1.00  0.00    -0.000 C 
BRANCH  11  12
ATOM     12  C   UNL     1     -41.042 -49.334  28.959  1.00  0.00    -0.000 C 
BRANCH  12  13
ATOM     13  C   UNL     1     -40.489 -47.919  28.724  1.00  0.00    -0.000 C 
BRANCH  13  14
ATOM     14  C   UNL     1     -41.400 -47.071  27.818  1.00  0.00    -0.000 C 
BRANCH  14  15
ATOM     15  C   UNL     1     -42.892 -47.283  28.119  1.00  0.00    -0.003 C 
ATOM     16  C   UNL     1     -43.665 -47.844  26.925  1.00  0.00     0.004 C 
ENDBRANCH  14  15
ENDBRANCH  13  14
ENDBRANCH  12  13
ENDBRANCH  11  12
ENDBRANCH  10  11
ENDBRANCH   1  10
TORSDOF 12
ENDMDL
MODEL 8
REMARK VINA RESULT:    -4.443     11.816     14.055
REMARK INTER + INTRA:          -8.896
REMARK INTER:                  -7.180
REMARK INTRA:                  -1.716
REMARK UNBOUND:                -1.336
REMARK SMILES CCCCCCCCCCCCCC(=O)[O-]
REMARK SMILES IDX 8 1 9 2 10 3 11 4 12 5 13 6 14 7 15 8 16 9 7 10 6 11 5 12
REMARK SMILES IDX 4 13 3 14 2 15 1 16
REMARK H PARENT
REMARK Flexibility Score: inf
ROOT
ATOM      1  C   UNL     1     -50.292 -49.698  19.479  1.00  0.00     0.000 C 
ENDROOT
BRANCH   1   2
ATOM      2  C   UNL     1     -49.593 -48.371  19.126  1.00  0.00     0.000 C 
BRANCH   2   3
ATOM      3  C   UNL     1     -48.096 -48.373  19.476  1.00  0.00     0.000 C 
BRANCH   3   4
ATOM      4  C   UNL     1     -47.226 -49.033  18.392  1.00  0.00     0.000 C 
BRANCH   4   5
ATOM      5  C   UNL     1     -47.666 -48.769  16.938  1.00  0.00     0.006 C 
BRANCH   5   6
ATOM      6  C   UNL     1     -47.652 -50.019  16.039  1.00  0.00     0.053 C 
BRANCH   6   7
ATOM      7  C   UNL     1     -48.613 -51.073  16.500  1.00  0.00     0.041 C 
ATOM      8  O   UNL     1     -49.832 -51.001  16.193  1.00  0.00    -0.550 OA
ATOM      9  O   UNL     1     -48.170 -52.115  17.305  1.00  0.00    -0.550 OA
ENDBRANCH   6   7
ENDBRANCH   5   6
ENDBRANCH   4   5
ENDBRANCH   3   4
ENDBRANCH   2   3
ENDBRANCH   1   2
BRANCH   1  10
ATOM     10  C   UNL     1     -51.814 -49.720  19.249  1.00  0.00     0.000 C 
BRANCH  10  11
ATOM     11  C   UNL     1     -52.614 -49.946  20.540  1.00  0.00    -0.000 C 
BRANCH  11  12
ATOM     12  C   UNL     1     -52.940 -48.611  21.225  1.00  0.00    -0.000 C 
BRANCH  12  13
ATOM     13  C   UNL     1     -52.234 -48.450  22.581  1.00  0.00    -0.000 C 
BRANCH  13  14
ATOM     14  C   UNL     1     -50.946 -47.614  22.482  1.00  0.00    -0.000 C 
BRANCH  14  15
ATOM     15  C   UNL     1     -49.741 -48.311  23.131  1.00  0.00    -0.003 C 
ATOM     16  C   UNL     1     -49.846 -49.836  23.094  1.00  0.00     0.004 C 
ENDBRANCH  14  15
ENDBRANCH  13  14
ENDBRANCH  12  13
ENDBRANCH  11  12
ENDBRANCH  10  11
ENDBRANCH   1  10
TORSDOF 12
ENDMDL
MODEL 9
REMARK VINA RESULT:    -4.439     12.827     14.968
REMARK INTER + INTRA:          -8.889
REMARK INTER:                  -7.527
REMARK INTRA:                  -1.362
REMARK UNBOUND:                -1.336
REMARK SMILES CCCCCCCCCCCCCC(=O)[O-]
REMARK SMILES IDX 8 1 9 2 10 3 11 4 12 5 13 6 14 7 15 8 16 9 7 10 6 11 5 12
REMARK SMILES IDX 4 13 3 14 2 15 1 16
REMARK H PARENT
REMARK Flexibility Score: inf
ROOT
ATOM      1  C   UNL     1     -49.567 -47.896  20.061  1.00  0.00     0.000 C 
ENDROOT
BRANCH   1   2
ATOM      2  C   UNL     1     -48.660 -47.725  18.829  1.00  0.00     0.000 C 
BRANCH   2   3
ATOM      3  C   UNL     1     -47.478 -48.709  18.815  1.00  0.00     0.000 C 
BRANCH   3   4
ATOM      4  C   UNL     1     -47.440 -49.584  17.550  1.00  0.00     0.000 C 
BRANCH   4   5
ATOM      5  C   UNL     1     -48.568 -50.626  17.430  1.00  0.00     0.006 C 
BRANCH   5   6
ATOM      6  C   UNL     1     -48.602 -51.367  16.080  1.00  0.00     0.053 C 
BRANCH   6   7
ATOM      7  C   UNL     1     -49.493 -50.698  15.077  1.00  0.00     0.041 C 
ATOM      8  O   UNL     1     -50.601 -51.211  14.768  1.00  0.00    -0.550 OA
ATOM      9  O   UNL     1     -49.082 -49.529  14.450  1.00  0.00    -0.550 OA
ENDBRANCH   6   7
ENDBRANCH   5   6
ENDBRANCH   4   5
ENDBRANCH   3   4
ENDBRANCH   2   3
ENDBRANCH   1   2
BRANCH   1  10
ATOM     10  C   UNL     1     -49.382 -49.215  20.834  1.00  0.00     0.000 C 
BRANCH  10  11
ATOM     11  C   UNL     1     -50.687 -50.009  20.988  1.00  0.00    -0.000 C 
BRANCH  11  12
ATOM     12  C   UNL     1     -51.512 -49.967  19.694  1.00  0.00    -0.000 C 
BRANCH  12  13
ATOM     13  C   UNL     1     -52.900 -49.337  19.893  1.00  0.00    -0.000 C 
BRANCH  13  14
ATOM     14  C   UNL     1     -53.307 -49.259  21.375  1.00  0.00    -0.000 C 
BRANCH  14  15
ATOM     15  C   UNL     1     -53.636 -47.826  21.821  1.00  0.00    -0.003 C 
ATOM     16  C   UNL     1     -52.727 -47.330  22.946  1.00  0.00     0.004 C 
ENDBRANCH  14  15
ENDBRANCH  13  14
ENDBRANCH  12  13
ENDBRANCH  11  12
ENDBRANCH  10  11
ENDBRANCH   1  10
TORSDOF 12
ENDMDL
