MODEL 1
REMARK VINA RESULT:    16.318      0.000      0.000
REMARK INTER + INTRA:          39.997
REMARK INTER:                  41.121
REMARK INTRA:                  -1.124
REMARK UNBOUND:                -1.124
REMARK SMILES CCCCCCCCCCCCCCCCCCCCCCCCCCCC(=O)[O-]
REMARK SMILES IDX 15 1 16 2 17 3 18 4 19 5 20 6 21 7 22 8 23 9 24 10 25 11
REMARK SMILES IDX 26 12 27 13 28 14 29 15 30 16 14 17 13 18 12 19 11 20 10 21
REMARK SMILES IDX 9 22 8 23 7 24 6 25 5 26 4 27 3 28 2 29 1 30
REMARK H PARENT
REMARK Flexibility Score: inf
ROOT
ATOM      1  C   UNL     1      51.570 146.759   0.512  1.00  0.00     0.000 C 
ENDROOT
BRANCH   1   2
ATOM      2  C   UNL     1      52.842 147.559   0.159  1.00  0.00     0.000 C 
BRANCH   2   3
ATOM      3  C   UNL     1      53.172 147.524  -1.345  1.00  0.00     0.000 C 
BRANCH   3   4
ATOM      4  C   UNL     1      53.596 146.126  -1.837  1.00  0.00     0.000 C 
BRANCH   4   5
ATOM      5  C   UNL     1      54.620 145.406  -0.942  1.00  0.00     0.000 C 
BRANCH   5   6
ATOM      6  C   UNL     1      54.617 143.879  -1.135  1.00  0.00     0.000 C 
BRANCH   6   7
ATOM      7  C   UNL     1      55.631 143.170  -0.222  1.00  0.00     0.000 C 
BRANCH   7   8
ATOM      8  C   UNL     1      55.029 141.931   0.466  1.00  0.00     0.000 C 
BRANCH   8   9
ATOM      9  C   UNL     1      54.248 141.031  -0.504  1.00  0.00     0.000 C 
BRANCH   9  10
ATOM     10  C   UNL     1      53.817 139.699   0.132  1.00  0.00     0.000 C 
BRANCH  10  11
ATOM     11  C   UNL     1      52.307 139.472  -0.036  1.00  0.00     0.000 C 
BRANCH  11  12
ATOM     12  C   UNL     1      51.624 139.090   1.287  1.00  0.00     0.006 C 
BRANCH  12  13
ATOM     13  C   UNL     1      51.374 137.581   1.399  1.00  0.00     0.053 C 
BRANCH  13  14
ATOM     14  C   UNL     1      50.389 137.134   0.365  1.00  0.00     0.041 C 
ATOM     15  O   UNL     1      50.167 137.848  -0.649  1.00  0.00    -0.550 OA
ATOM     16  O   UNL     1      49.689 135.946   0.537  1.00  0.00    -0.550 OA
ENDBRANCH  13  14
ENDBRANCH  12  13
ENDBRANCH  11  12
ENDBRANCH  10  11
ENDBRANCH   9  10
ENDBRANCH   8   9
ENDBRANCH   7   8
ENDBRANCH   6   7
ENDBRANCH   5   6
ENDBRANCH   4   5
ENDBRANCH   3   4
ENDBRANCH   2   3
ENDBRANCH   1   2
BRANCH   1  17
ATOM     17  C   UNL     1      50.294 147.618   0.624  1.00  0.00     0.000 C 
BRANCH  17  18
ATOM     18  C   UNL     1      49.658 148.027  -0.716  1.00  0.00     0.000 C 
BRANCH  18  19
ATOM     19  C   UNL     1      48.257 147.431  -0.918  1.00  0.00     0.000 C 
BRANCH  19  20
ATOM     20  C   UNL     1      47.744 147.688  -2.343  1.00  0.00     0.000 C 
BRANCH  20  21
ATOM     21  C   UNL     1      48.688 147.128  -3.423  1.00  0.00     0.000 C 
BRANCH  21  22
ATOM     22  C   UNL     1      49.023 148.110  -4.564  1.00  0.00    -0.000 C 
BRANCH  22  23
ATOM     23  C   UNL     1      48.170 147.938  -5.837  1.00  0.00    -0.000 C 
BRANCH  23  24
ATOM     24  C   UNL     1      48.734 146.938  -6.866  1.00  0.00    -0.000 C 
BRANCH  24  25
ATOM     25  C   UNL     1      49.660 147.555  -7.935  1.00  0.00    -0.000 C 
BRANCH  25  26
ATOM     26  C   UNL     1      51.083 147.892  -7.450  1.00  0.00    -0.000 C 
BRANCH  26  27
ATOM     27  C   UNL     1      51.853 146.658  -6.943  1.00  0.00    -0.000 C 
BRANCH  27  28
ATOM     28  C   UNL     1      53.380 146.800  -7.130  1.00  0.00    -0.000 C 
BRANCH  28  29
ATOM     29  C   UNL     1      53.959 148.094  -6.536  1.00  0.00    -0.003 C 
ATOM     30  C   UNL     1      54.771 147.857  -5.263  1.00  0.00     0.004 C 
ENDBRANCH  28  29
ENDBRANCH  27  28
ENDBRANCH  26  27
ENDBRANCH  25  26
ENDBRANCH  24  25
ENDBRANCH  23  24
ENDBRANCH  22  23
ENDBRANCH  21  22
ENDBRANCH  20  21
ENDBRANCH  19  20
ENDBRANCH  18  19
ENDBRANCH  17  18
ENDBRANCH   1  17
TORSDOF 26
ENDMDL
