MODEL 1
REMARK VINA RESULT:    -3.377      0.000      0.000
REMARK INTER + INTRA:          -3.410
REMARK INTER:                  -4.167
REMARK INTRA:                   0.757
REMARK UNBOUND:                 0.757
REMARK SMILES CC1=CC=CC(C)(C)CC1=O
REMARK SMILES IDX 1 1 2 2 3 3 10 4 11 5 9 6 4 8 5 9 6 10 7 11 8 12
REMARK H PARENT
REMARK Flexibility Score: 80.00
ROOT
ATOM      1  C   UNL     1      56.505  19.376  -4.929  1.00  0.00     0.048 C 
ATOM      2  C   UNL     1      55.281  18.560  -4.584  1.00  0.00    -0.008 C 
ATOM      3  C   UNL     1      55.447  17.499  -3.765  1.00  0.00     0.007 C 
ENDROOT
BRANCH   2   4
ATOM      4  C   UNL     1      53.980  19.038  -5.114  1.00  0.00     0.159 C 
ATOM      5  O   UNL     1      53.922  20.180  -5.646  1.00  0.00    -0.295 OA
BRANCH   4   6
ATOM      6  C   UNL     1      52.721  18.228  -5.065  1.00  0.00     0.091 CG0
ATOM      7  G   UNL     1      52.299  17.843  -3.629  1.00  0.00     0.000 G0
ENDBRANCH   4   6
ENDBRANCH   2   4
BRANCH   3   8
ATOM      8  C   UNL     1      54.448  16.542  -3.234  1.00  0.00    -0.003 C 
ATOM      9  C   UNL     1      53.117  16.668  -3.156  1.00  0.00    -0.020 C 
BRANCH   9  10
ATOM     10  C   UNL     1      52.297  17.843  -3.630  1.00  0.00    -0.010 CG0
ATOM     11  C   UNL     1      52.425  19.015  -2.630  1.00  0.00     0.016 C 
ATOM     12  C   UNL     1      50.813  17.414  -3.675  1.00  0.00     0.016 C 
ATOM     13  G   UNL     1      52.728  18.234  -5.062  1.00  0.00     0.000 G0
ENDBRANCH   9  10
ENDBRANCH   3   8
TORSDOF 0
ENDMDL
MODEL 2
REMARK VINA RESULT:    -3.323      1.793      3.024
REMARK INTER + INTRA:          -3.344
REMARK INTER:                  -4.089
REMARK INTRA:                   0.745
REMARK UNBOUND:                 0.757
REMARK SMILES CC1=CC=CC(C)(C)CC1=O
REMARK SMILES IDX 1 1 2 2 3 3 10 4 11 5 9 6 4 8 5 9 6 10 7 11 8 12
REMARK H PARENT
REMARK Flexibility Score: 80.00
ROOT
ATOM      1  C   UNL     1      55.070  16.283  -2.175  1.00  0.00     0.048 C 
ATOM      2  C   UNL     1      54.662  17.482  -2.997  1.00  0.00    -0.008 C 
ATOM      3  C   UNL     1      55.506  17.889  -3.971  1.00  0.00     0.007 C 
ENDROOT
BRANCH   2   4
ATOM      4  C   UNL     1      53.330  18.071  -2.718  1.00  0.00     0.159 C 
ATOM      5  O   UNL     1      52.533  17.445  -1.965  1.00  0.00    -0.295 OA
BRANCH   4   6
ATOM      6  C   UNL     1      52.875  19.386  -3.272  1.00  0.00     0.091 CG0
ATOM      7  G   UNL     1      52.849  19.421  -4.817  1.00  0.00     0.000 G0
ENDBRANCH   4   6
ENDBRANCH   2   4
BRANCH   3   8
ATOM      8  C   UNL     1      55.370  18.999  -4.944  1.00  0.00    -0.003 C 
ATOM      9  C   UNL     1      54.269  19.658  -5.325  1.00  0.00    -0.020 C 
BRANCH   9  10
ATOM     10  C   UNL     1      52.866  19.433  -4.813  1.00  0.00    -0.010 CG0
ATOM     11  C   UNL     1      52.266  18.164  -5.460  1.00  0.00     0.016 C 
ATOM     12  C   UNL     1      51.996  20.639  -5.233  1.00  0.00     0.016 C 
ATOM     13  G   UNL     1      52.880  19.364  -3.269  1.00  0.00     0.000 G0
ENDBRANCH   9  10
ENDBRANCH   3   8
TORSDOF 0
ENDMDL
MODEL 3
REMARK VINA RESULT:    -3.323      1.593      2.207
REMARK INTER + INTRA:          -3.342
REMARK INTER:                  -4.096
REMARK INTRA:                   0.754
REMARK UNBOUND:                 0.757
REMARK SMILES CC1=CC=CC(C)(C)CC1=O
REMARK SMILES IDX 1 1 2 2 3 3 10 4 11 5 9 6 4 8 5 9 6 10 7 11 8 12
REMARK H PARENT
REMARK Flexibility Score: 80.00
ROOT
ATOM      1  C   UNL     1      56.646  19.402  -4.631  1.00  0.00     0.048 C 
ATOM      2  C   UNL     1      55.261  18.848  -4.394  1.00  0.00    -0.008 C 
ATOM      3  C   UNL     1      54.639  18.251  -5.435  1.00  0.00     0.007 C 
ENDROOT
BRANCH   2   4
ATOM      4  C   UNL     1      54.725  18.937  -3.014  1.00  0.00     0.159 C 
ATOM      5  O   UNL     1      55.499  19.291  -2.082  1.00  0.00    -0.295 OA
BRANCH   4   6
ATOM      6  C   UNL     1      53.301  18.641  -2.660  1.00  0.00     0.091 CG0
ATOM      7  G   UNL     1      52.871  17.199  -3.015  1.00  0.00     0.000 G0
ENDBRANCH   4   6
ENDBRANCH   2   4
BRANCH   3   8
ATOM      8  C   UNL     1      53.310  17.600  -5.501  1.00  0.00    -0.003 C 
ATOM      9  C   UNL     1      52.544  17.139  -4.504  1.00  0.00    -0.020 C 
BRANCH   9  10
ATOM     10  C   UNL     1      52.858  17.204  -3.028  1.00  0.00    -0.010 CG0
ATOM     11  C   UNL     1      53.908  16.130  -2.664  1.00  0.00     0.016 C 
ATOM     12  C   UNL     1      51.564  16.893  -2.243  1.00  0.00     0.016 C 
ATOM     13  G   UNL     1      53.315  18.633  -2.656  1.00  0.00     0.000 G0
ENDBRANCH   9  10
ENDBRANCH   3   8
TORSDOF 0
ENDMDL
MODEL 4
REMARK VINA RESULT:    -3.322      1.670      1.953
REMARK INTER + INTRA:          -3.342
REMARK INTER:                  -4.096
REMARK INTRA:                   0.753
REMARK UNBOUND:                 0.757
REMARK SMILES CC1=CC=CC(C)(C)CC1=O
REMARK SMILES IDX 1 1 2 2 3 3 10 4 11 5 9 6 4 8 5 9 6 10 7 11 8 12
REMARK H PARENT
REMARK Flexibility Score: 80.00
ROOT
ATOM      1  C   UNL     1      55.858  19.212  -5.305  1.00  0.00     0.048 C 
ATOM      2  C   UNL     1      55.127  18.541  -4.166  1.00  0.00    -0.008 C 
ATOM      3  C   UNL     1      55.326  19.028  -2.922  1.00  0.00     0.007 C 
ENDROOT
BRANCH   2   4
ATOM      4  C   UNL     1      54.189  17.447  -4.518  1.00  0.00     0.159 C 
ATOM      5  O   UNL     1      53.908  17.253  -5.733  1.00  0.00    -0.295 OA
BRANCH   4   6
ATOM      6  C   UNL     1      53.559  16.541  -3.505  1.00  0.00     0.091 CG0
ATOM      7  G   UNL     1      52.704  17.294  -2.462  1.00  0.00     0.000 G0
ENDBRANCH   4   6
ENDBRANCH   2   4
BRANCH   3   8
ATOM      8  C   UNL     1      54.738  18.603  -1.630  1.00  0.00    -0.003 C 
ATOM      9  C   UNL     1      53.633  17.882  -1.401  1.00  0.00    -0.020 C 
BRANCH   9  10
ATOM     10  C   UNL     1      52.714  17.293  -2.445  1.00  0.00    -0.010 CG0
ATOM     11  C   UNL     1      51.824  18.401  -3.051  1.00  0.00     0.016 C 
ATOM     12  C   UNL     1      51.791  16.264  -1.753  1.00  0.00     0.016 C 
ATOM     13  G   UNL     1      53.548  16.549  -3.513  1.00  0.00     0.000 G0
ENDBRANCH   9  10
ENDBRANCH   3   8
TORSDOF 0
ENDMDL
MODEL 5
REMARK VINA RESULT:    -3.274      2.052      2.837
REMARK INTER + INTRA:          -3.282
REMARK INTER:                  -4.046
REMARK INTRA:                   0.764
REMARK UNBOUND:                 0.757
REMARK SMILES CC1=CC=CC(C)(C)CC1=O
REMARK SMILES IDX 1 1 2 2 3 3 10 4 11 5 9 6 4 8 5 9 6 10 7 11 8 12
REMARK H PARENT
REMARK Flexibility Score: 80.00
ROOT
ATOM      1  C   UNL     1      55.465  19.348  -1.555  1.00  0.00     0.048 C 
ATOM      2  C   UNL     1      54.800  18.802  -2.796  1.00  0.00    -0.008 C 
ATOM      3  C   UNL     1      55.424  18.997  -3.978  1.00  0.00     0.007 C 
ENDROOT
BRANCH   2   4
ATOM      4  C   UNL     1      53.549  18.026  -2.606  1.00  0.00     0.159 C 
ATOM      5  O   UNL     1      53.201  17.711  -1.435  1.00  0.00    -0.295 OA
BRANCH   4   6
ATOM      6  C   UNL     1      52.661  17.602  -3.734  1.00  0.00     0.091 CG0
ATOM      7  G   UNL     1      53.381  16.722  -4.781  1.00  0.00     0.000 G0
ENDBRANCH   4   6
ENDBRANCH   2   4
BRANCH   3   8
ATOM      8  C   UNL     1      55.037  18.562  -5.341  1.00  0.00    -0.003 C 
ATOM      9  C   UNL     1      54.185  17.595  -5.709  1.00  0.00    -0.020 C 
BRANCH   9  10
ATOM     10  C   UNL     1      53.375  16.715  -4.788  1.00  0.00    -0.010 CG0
ATOM     11  C   UNL     1      54.283  15.634  -4.157  1.00  0.00     0.016 C 
ATOM     12  C   UNL     1      52.294  15.999  -5.629  1.00  0.00     0.016 C 
ATOM     13  G   UNL     1      52.662  17.586  -3.729  1.00  0.00     0.000 G0
ENDBRANCH   9  10
ENDBRANCH   3   8
TORSDOF 0
ENDMDL
MODEL 6
REMARK VINA RESULT:    -3.185      1.594      2.780
REMARK INTER + INTRA:          -3.173
REMARK INTER:                  -3.914
REMARK INTRA:                   0.741
REMARK UNBOUND:                 0.757
REMARK SMILES CC1=CC=CC(C)(C)CC1=O
REMARK SMILES IDX 1 1 2 2 3 3 10 4 11 5 9 6 4 8 5 9 6 10 7 11 8 12
REMARK H PARENT
REMARK Flexibility Score: 80.00
ROOT
ATOM      1  C   UNL     1      52.360  20.829  -5.601  1.00  0.00     0.048 C 
ATOM      2  C   UNL     1      53.165  19.658  -5.088  1.00  0.00    -0.008 C 
ATOM      3  C   UNL     1      54.490  19.648  -5.350  1.00  0.00     0.007 C 
ENDROOT
BRANCH   2   4
ATOM      4  C   UNL     1      52.446  18.651  -4.270  1.00  0.00     0.159 C 
ATOM      5  O   UNL     1      51.270  18.904  -3.888  1.00  0.00    -0.295 OA
BRANCH   4   6
ATOM      6  C   UNL     1      53.036  17.331  -3.879  1.00  0.00     0.091 CG0
ATOM      7  G   UNL     1      54.338  17.464  -3.059  1.00  0.00     0.000 G0
ENDBRANCH   4   6
ENDBRANCH   2   4
BRANCH   3   8
ATOM      8  C   UNL     1      55.528  18.665  -4.961  1.00  0.00    -0.003 C 
ATOM      9  C   UNL     1      55.494  17.738  -3.994  1.00  0.00    -0.020 C 
BRANCH   9  10
ATOM     10  C   UNL     1      54.340  17.455  -3.063  1.00  0.00    -0.010 CG0
ATOM     11  C   UNL     1      54.276  18.533  -1.958  1.00  0.00     0.016 C 
ATOM     12  C   UNL     1      54.588  16.089  -2.384  1.00  0.00     0.016 C 
ATOM     13  G   UNL     1      53.029  17.357  -3.875  1.00  0.00     0.000 G0
ENDBRANCH   9  10
ENDBRANCH   3   8
TORSDOF 0
ENDMDL
MODEL 7
REMARK VINA RESULT:    -3.184      1.665      2.102
REMARK INTER + INTRA:          -3.172
REMARK INTER:                  -3.923
REMARK INTRA:                   0.751
REMARK UNBOUND:                 0.757
REMARK SMILES CC1=CC=CC(C)(C)CC1=O
REMARK SMILES IDX 1 1 2 2 3 3 10 4 11 5 9 6 4 8 5 9 6 10 7 11 8 12
REMARK H PARENT
REMARK Flexibility Score: 80.00
ROOT
ATOM      1  C   UNL     1      55.193  19.120  -2.449  1.00  0.00     0.048 C 
ATOM      2  C   UNL     1      54.749  18.024  -3.389  1.00  0.00    -0.008 C 
ATOM      3  C   UNL     1      55.022  16.748  -3.037  1.00  0.00     0.007 C 
ENDROOT
BRANCH   2   4
ATOM      4  C   UNL     1      53.979  18.435  -4.589  1.00  0.00     0.159 C 
ATOM      5  O   UNL     1      53.563  19.624  -4.668  1.00  0.00    -0.295 OA
BRANCH   4   6
ATOM      6  C   UNL     1      53.676  17.514  -5.731  1.00  0.00     0.091 CG0
ATOM      7  G   UNL     1      52.866  16.267  -5.310  1.00  0.00     0.000 G0
ENDBRANCH   4   6
ENDBRANCH   2   4
BRANCH   3   8
ATOM      8  C   UNL     1      54.693  15.480  -3.729  1.00  0.00    -0.003 C 
ATOM      9  C   UNL     1      53.781  15.250  -4.683  1.00  0.00    -0.020 C 
BRANCH   9  10
ATOM     10  C   UNL     1      52.864  16.270  -5.312  1.00  0.00    -0.010 CG0
ATOM     11  C   UNL     1      51.700  16.600  -4.349  1.00  0.00     0.016 C 
ATOM     12  C   UNL     1      52.261  15.655  -6.595  1.00  0.00     0.016 C 
ATOM     13  G   UNL     1      53.676  17.522  -5.714  1.00  0.00     0.000 G0
ENDBRANCH   9  10
ENDBRANCH   3   8
TORSDOF 0
ENDMDL
MODEL 8
REMARK VINA RESULT:    -3.078      1.673      2.941
REMARK INTER + INTRA:          -3.041
REMARK INTER:                  -3.807
REMARK INTRA:                   0.766
REMARK UNBOUND:                 0.757
REMARK SMILES CC1=CC=CC(C)(C)CC1=O
REMARK SMILES IDX 1 1 2 2 3 3 10 4 11 5 9 6 4 8 5 9 6 10 7 11 8 12
REMARK H PARENT
REMARK Flexibility Score: 80.00
ROOT
ATOM      1  C   UNL     1      52.478  16.362  -6.899  1.00  0.00     0.048 C 
ATOM      2  C   UNL     1      53.137  16.757  -5.598  1.00  0.00    -0.008 C 
ATOM      3  C   UNL     1      53.933  15.845  -4.998  1.00  0.00     0.007 C 
ENDROOT
BRANCH   2   4
ATOM      4  C   UNL     1      52.917  18.145  -5.124  1.00  0.00     0.159 C 
ATOM      5  O   UNL     1      52.373  18.976  -5.903  1.00  0.00    -0.295 OA
BRANCH   4   6
ATOM      6  C   UNL     1      53.293  18.620  -3.754  1.00  0.00     0.091 CG0
ATOM      7  G   UNL     1      54.805  18.490  -3.458  1.00  0.00     0.000 G0
ENDBRANCH   4   6
ENDBRANCH   2   4
BRANCH   3   8
ATOM      8  C   UNL     1      54.723  15.948  -3.749  1.00  0.00    -0.003 C 
ATOM      9  C   UNL     1      55.113  17.044  -3.084  1.00  0.00    -0.020 C 
BRANCH   9  10
ATOM     10  C   UNL     1      54.804  18.475  -3.454  1.00  0.00    -0.010 CG0
ATOM     11  C   UNL     1      55.693  18.918  -4.638  1.00  0.00     0.016 C 
ATOM     12  C   UNL     1      55.141  19.373  -2.241  1.00  0.00     0.016 C 
ATOM     13  G   UNL     1      53.295  18.620  -3.755  1.00  0.00     0.000 G0
ENDBRANCH   9  10
ENDBRANCH   3   8
TORSDOF 0
ENDMDL
MODEL 9
REMARK VINA RESULT:    -3.036      1.719      2.744
REMARK INTER + INTRA:          -2.988
REMARK INTER:                  -3.764
REMARK INTRA:                   0.776
REMARK UNBOUND:                 0.757
REMARK SMILES CC1=CC=CC(C)(C)CC1=O
REMARK SMILES IDX 1 1 2 2 3 3 10 4 11 5 9 6 4 8 5 9 6 10 7 11 8 12
REMARK H PARENT
REMARK Flexibility Score: 80.00
ROOT
ATOM      1  C   UNL     1      55.261  16.056  -3.197  1.00  0.00     0.048 C 
ATOM      2  C   UNL     1      54.494  16.948  -4.145  1.00  0.00    -0.008 C 
ATOM      3  C   UNL     1      53.572  16.366  -4.943  1.00  0.00     0.007 C 
ENDROOT
BRANCH   2   4
ATOM      4  C   UNL     1      54.762  18.405  -4.067  1.00  0.00     0.159 C 
ATOM      5  O   UNL     1      55.459  18.845  -3.111  1.00  0.00    -0.295 OA
BRANCH   4   6
ATOM      6  C   UNL     1      54.261  19.392  -5.075  1.00  0.00     0.091 CG0
ATOM      7  G   UNL     1      52.721  19.408  -5.199  1.00  0.00     0.000 G0
ENDBRANCH   4   6
ENDBRANCH   2   4
BRANCH   3   8
ATOM      8  C   UNL     1      52.659  16.974  -5.940  1.00  0.00    -0.003 C 
ATOM      9  C   UNL     1      52.277  18.251  -6.068  1.00  0.00    -0.020 C 
BRANCH   9  10
ATOM     10  C   UNL     1      52.726  19.411  -5.212  1.00  0.00    -0.010 CG0
ATOM     11  C   UNL     1      52.015  19.362  -3.840  1.00  0.00     0.016 C 
ATOM     12  C   UNL     1      52.312  20.723  -5.917  1.00  0.00     0.016 C 
ATOM     13  G   UNL     1      54.266  19.400  -5.085  1.00  0.00     0.000 G0
ENDBRANCH   9  10
ENDBRANCH   3   8
TORSDOF 0
ENDMDL
