MODEL 1
REMARK VINA RESULT:    -4.135      0.000      0.000
REMARK INTER + INTRA:          -6.810
REMARK INTER:                  -5.949
REMARK INTRA:                  -0.861
REMARK UNBOUND:                -0.861
REMARK SMILES O=C(CO)[C@H](O)[C@H](O)[C@@H](O)CO
REMARK SMILES IDX 7 1 9 2 11 3 12 4 10 6 5 8 2 9 1 10 3 11 4 12 6 14 8 16
REMARK H PARENT 12 5 10 7 4 13 6 15 8 17
REMARK Flexibility Score: inf
ROOT
ATOM      1  C   UNL     1      -4.327  -5.265  -4.394  1.00  0.00     0.181 C 
ENDROOT
BRANCH   1   2
ATOM      2  C   UNL     1      -4.650  -6.738  -3.999  1.00  0.00     0.171 C 
BRANCH   2   3
ATOM      3  C   UNL     1      -5.915  -7.318  -4.661  1.00  0.00     0.190 C 
BRANCH   3   4
ATOM      4  O   UNL     1      -7.082  -6.733  -4.144  1.00  0.00    -0.394 OA
ATOM      5  H   UNL     1      -7.692  -7.476  -3.898  1.00  0.00     0.210 HD
ENDBRANCH   3   4
ENDBRANCH   2   3
BRANCH   2   6
ATOM      6  O   UNL     1      -4.746  -6.863  -2.601  1.00  0.00    -0.388 OA
ATOM      7  H   UNL     1      -3.824  -6.901  -2.238  1.00  0.00     0.211 HD
ENDBRANCH   2   6
ENDBRANCH   1   2
BRANCH   1   8
ATOM      8  C   UNL     1      -2.891  -4.838  -4.003  1.00  0.00     0.214 C 
BRANCH   8   9
ATOM      9  C   UNL     1      -2.393  -3.738  -4.922  1.00  0.00     0.189 C 
ATOM     10  O   UNL     1      -3.176  -3.234  -5.714  1.00  0.00    -0.294 OA
BRANCH   9  11
ATOM     11  C   UNL     1      -0.969  -3.239  -4.915  1.00  0.00     0.234 C 
BRANCH  11  12
ATOM     12  O   UNL     1      -0.379  -3.376  -3.652  1.00  0.00    -0.388 OA
ATOM     13  H   UNL     1       0.457  -3.891  -3.792  1.00  0.00     0.211 HD
ENDBRANCH  11  12
ENDBRANCH   9  11
ENDBRANCH   8   9
BRANCH   8  14
ATOM     14  O   UNL     1      -2.020  -5.935  -4.108  1.00  0.00    -0.382 OA
ATOM     15  H   UNL     1      -1.818  -6.231  -3.182  1.00  0.00     0.211 HD
ENDBRANCH   8  14
ENDBRANCH   1   8
BRANCH   1  16
ATOM     16  O   UNL     1      -5.244  -4.420  -3.743  1.00  0.00    -0.387 OA
ATOM     17  H   UNL     1      -4.962  -4.356  -2.792  1.00  0.00     0.211 HD
ENDBRANCH   1  16
TORSDOF 10
ENDMDL
MODEL 2
REMARK VINA RESULT:    -4.062     13.043     14.257
REMARK INTER + INTRA:          -6.704
REMARK INTER:                  -5.766
REMARK INTRA:                  -0.938
REMARK UNBOUND:                -0.861
REMARK SMILES O=C(CO)[C@H](O)[C@H](O)[C@@H](O)CO
REMARK SMILES IDX 7 1 9 2 11 3 12 4 10 6 5 8 2 9 1 10 3 11 4 12 6 14 8 16
REMARK H PARENT 12 5 10 7 4 13 6 15 8 17
REMARK Flexibility Score: inf
ROOT
ATOM      1  C   UNL     1      -2.967   4.250   6.237  1.00  0.00     0.181 C 
ENDROOT
BRANCH   1   2
ATOM      2  C   UNL     1      -2.092   2.965   6.139  1.00  0.00     0.171 C 
BRANCH   2   3
ATOM      3  C   UNL     1      -0.785   3.138   5.340  1.00  0.00     0.190 C 
BRANCH   3   4
ATOM      4  O   UNL     1      -1.037   3.310   3.970  1.00  0.00    -0.394 OA
ATOM      5  H   UNL     1      -0.728   2.484   3.514  1.00  0.00     0.210 HD
ENDBRANCH   3   4
ENDBRANCH   2   3
BRANCH   2   6
ATOM      6  O   UNL     1      -2.837   1.899   5.603  1.00  0.00    -0.388 OA
ATOM      7  H   UNL     1      -2.214   1.140   5.455  1.00  0.00     0.211 HD
ENDBRANCH   2   6
ENDBRANCH   1   2
BRANCH   1   8
ATOM      8  C   UNL     1      -4.424   4.024   5.762  1.00  0.00     0.214 C 
BRANCH   8   9
ATOM      9  C   UNL     1      -5.191   5.333   5.753  1.00  0.00     0.189 C 
ATOM     10  O   UNL     1      -4.931   6.161   4.892  1.00  0.00    -0.294 OA
BRANCH   9  11
ATOM     11  C   UNL     1      -6.259   5.670   6.765  1.00  0.00     0.234 C 
BRANCH  11  12
ATOM     12  O   UNL     1      -7.440   4.955   6.529  1.00  0.00    -0.388 OA
ATOM     13  H   UNL     1      -7.704   4.563   7.401  1.00  0.00     0.211 HD
ENDBRANCH  11  12
ENDBRANCH   9  11
ENDBRANCH   8   9
BRANCH   8  14
ATOM     14  O   UNL     1      -5.076   3.131   6.629  1.00  0.00    -0.382 OA
ATOM     15  H   UNL     1      -5.515   2.447   6.059  1.00  0.00     0.211 HD
ENDBRANCH   8  14
ENDBRANCH   1   8
BRANCH   1  16
ATOM     16  O   UNL     1      -2.381   5.248   5.437  1.00  0.00    -0.387 OA
ATOM     17  H   UNL     1      -2.925   6.072   5.548  1.00  0.00     0.211 HD
ENDBRANCH   1  16
TORSDOF 10
ENDMDL
MODEL 3
REMARK VINA RESULT:    -4.052     12.679     13.623
REMARK INTER + INTRA:          -6.690
REMARK INTER:                  -5.978
REMARK INTRA:                  -0.712
REMARK UNBOUND:                -0.861
REMARK SMILES O=C(CO)[C@H](O)[C@H](O)[C@@H](O)CO
REMARK SMILES IDX 7 1 9 2 11 3 12 4 10 6 5 8 2 9 1 10 3 11 4 12 6 14 8 16
REMARK H PARENT 12 5 10 7 4 13 6 15 8 17
REMARK Flexibility Score: inf
ROOT
ATOM      1  C   UNL     1      -3.469   3.912   5.615  1.00  0.00     0.181 C 
ENDROOT
BRANCH   1   2
ATOM      2  C   UNL     1      -4.778   3.934   6.461  1.00  0.00     0.171 C 
BRANCH   2   3
ATOM      3  C   UNL     1      -5.509   5.291   6.476  1.00  0.00     0.190 C 
BRANCH   3   4
ATOM      4  O   UNL     1      -5.658   5.811   5.181  1.00  0.00    -0.394 OA
ATOM      5  H   UNL     1      -6.023   6.729   5.279  1.00  0.00     0.210 HD
ENDBRANCH   3   4
ENDBRANCH   2   3
BRANCH   2   6
ATOM      6  O   UNL     1      -4.520   3.519   7.780  1.00  0.00    -0.388 OA
ATOM      7  H   UNL     1      -4.071   4.270   8.249  1.00  0.00     0.211 HD
ENDBRANCH   2   6
ENDBRANCH   1   2
BRANCH   1   8
ATOM      8  C   UNL     1      -2.507   2.770   6.024  1.00  0.00     0.214 C 
BRANCH   8   9
ATOM      9  C   UNL     1      -1.160   2.939   5.346  1.00  0.00     0.189 C 
ATOM     10  O   UNL     1      -1.132   3.262   4.167  1.00  0.00    -0.294 OA
BRANCH   9  11
ATOM     11  C   UNL     1       0.153   2.717   6.054  1.00  0.00     0.234 C 
BRANCH  11  12
ATOM     12  O   UNL     1       0.381   1.358   6.310  1.00  0.00    -0.388 OA
ATOM     13  H   UNL     1      -0.338   1.070   6.930  1.00  0.00     0.211 HD
ENDBRANCH  11  12
ENDBRANCH   9  11
ENDBRANCH   8   9
BRANCH   8  14
ATOM     14  O   UNL     1      -3.046   1.530   5.643  1.00  0.00    -0.382 OA
ATOM     15  H   UNL     1      -2.328   1.041   5.162  1.00  0.00     0.211 HD
ENDBRANCH   8  14
ENDBRANCH   1   8
BRANCH   1  16
ATOM     16  O   UNL     1      -2.809   5.143   5.786  1.00  0.00    -0.387 OA
ATOM     17  H   UNL     1      -3.474   5.860   5.609  1.00  0.00     0.211 HD
ENDBRANCH   1  16
TORSDOF 10
ENDMDL
MODEL 4
REMARK VINA RESULT:    -3.983     13.015     14.422
REMARK INTER + INTRA:          -6.590
REMARK INTER:                  -5.192
REMARK INTRA:                  -1.398
REMARK UNBOUND:                -0.861
REMARK SMILES O=C(CO)[C@H](O)[C@H](O)[C@@H](O)CO
REMARK SMILES IDX 7 1 9 2 11 3 12 4 10 6 5 8 2 9 1 10 3 11 4 12 6 14 8 16
REMARK H PARENT 12 5 10 7 4 13 6 15 8 17
REMARK Flexibility Score: inf
ROOT
ATOM      1  C   UNL     1      -1.923   3.036   6.481  1.00  0.00     0.181 C 
ENDROOT
BRANCH   1   2
ATOM      2  C   UNL     1      -0.736   3.264   5.498  1.00  0.00     0.171 C 
BRANCH   2   3
ATOM      3  C   UNL     1       0.012   4.597   5.693  1.00  0.00     0.190 C 
BRANCH   3   4
ATOM      4  O   UNL     1      -0.759   5.688   5.264  1.00  0.00    -0.394 OA
ATOM      5  H   UNL     1      -1.396   5.343   4.586  1.00  0.00     0.210 HD
ENDBRANCH   3   4
ENDBRANCH   2   3
BRANCH   2   6
ATOM      6  O   UNL     1      -1.170   3.154   4.165  1.00  0.00    -0.388 OA
ATOM      7  H   UNL     1      -1.943   3.766   4.049  1.00  0.00     0.211 HD
ENDBRANCH   2   6
ENDBRANCH   1   2
BRANCH   1   8
ATOM      8  C   UNL     1      -3.303   3.080   5.779  1.00  0.00     0.214 C 
BRANCH   8   9
ATOM      9  C   UNL     1      -4.024   4.376   6.099  1.00  0.00     0.189 C 
ATOM     10  O   UNL     1      -3.633   5.410   5.579  1.00  0.00    -0.294 OA
BRANCH   9  11
ATOM     11  C   UNL     1      -5.200   4.453   7.041  1.00  0.00     0.234 C 
BRANCH  11  12
ATOM     12  O   UNL     1      -4.871   3.991   8.322  1.00  0.00    -0.388 OA
ATOM     13  H   UNL     1      -4.517   4.775   8.815  1.00  0.00     0.211 HD
ENDBRANCH  11  12
ENDBRANCH   9  11
ENDBRANCH   8   9
BRANCH   8  14
ATOM     14  O   UNL     1      -4.097   2.007   6.218  1.00  0.00    -0.382 OA
ATOM     15  H   UNL     1      -4.434   1.548   5.405  1.00  0.00     0.211 HD
ENDBRANCH   8  14
ENDBRANCH   1   8
BRANCH   1  16
ATOM     16  O   UNL     1      -1.885   4.042   7.464  1.00  0.00    -0.387 OA
ATOM     17  H   UNL     1      -2.810   4.152   7.809  1.00  0.00     0.211 HD
ENDBRANCH   1  16
TORSDOF 10
ENDMDL
MODEL 5
REMARK VINA RESULT:    -3.946      1.925      2.701
REMARK INTER + INTRA:          -6.538
REMARK INTER:                  -5.362
REMARK INTRA:                  -1.176
REMARK UNBOUND:                -0.861
REMARK SMILES O=C(CO)[C@H](O)[C@H](O)[C@@H](O)CO
REMARK SMILES IDX 7 1 9 2 11 3 12 4 10 6 5 8 2 9 1 10 3 11 4 12 6 14 8 16
REMARK H PARENT 12 5 10 7 4 13 6 15 8 17
REMARK Flexibility Score: inf
ROOT
ATOM      1  C   UNL     1      -5.702  -6.302  -5.960  1.00  0.00     0.181 C 
ENDROOT
BRANCH   1   2
ATOM      2  C   UNL     1      -6.647  -7.291  -5.214  1.00  0.00     0.171 C 
BRANCH   2   3
ATOM      3  C   UNL     1      -7.984  -7.566  -5.930  1.00  0.00     0.190 C 
BRANCH   3   4
ATOM      4  O   UNL     1      -8.943  -6.589  -5.622  1.00  0.00    -0.394 OA
ATOM      5  H   UNL     1      -8.501  -5.927  -5.029  1.00  0.00     0.210 HD
ENDBRANCH   3   4
ENDBRANCH   2   3
BRANCH   2   6
ATOM      6  O   UNL     1      -6.893  -6.844  -3.903  1.00  0.00    -0.388 OA
ATOM      7  H   UNL     1      -7.877  -6.791  -3.784  1.00  0.00     0.211 HD
ENDBRANCH   2   6
ENDBRANCH   1   2
BRANCH   1   8
ATOM      8  C   UNL     1      -4.329  -6.138  -5.263  1.00  0.00     0.214 C 
BRANCH   8   9
ATOM      9  C   UNL     1      -4.263  -4.817  -4.520  1.00  0.00     0.189 C 
ATOM     10  O   UNL     1      -4.909  -4.688  -3.490  1.00  0.00    -0.294 OA
BRANCH   9  11
ATOM     11  C   UNL     1      -3.442  -3.644  -4.996  1.00  0.00     0.234 C 
BRANCH  11  12
ATOM     12  O   UNL     1      -3.873  -3.183  -6.247  1.00  0.00    -0.388 OA
ATOM     13  H   UNL     1      -4.864  -3.228  -6.231  1.00  0.00     0.211 HD
ENDBRANCH  11  12
ENDBRANCH   9  11
ENDBRANCH   8   9
BRANCH   8  14
ATOM     14  O   UNL     1      -3.301  -6.164  -6.219  1.00  0.00    -0.382 OA
ATOM     15  H   UNL     1      -3.616  -5.627  -6.994  1.00  0.00     0.211 HD
ENDBRANCH   8  14
ENDBRANCH   1   8
BRANCH   1  16
ATOM     16  O   UNL     1      -6.332  -5.046  -6.019  1.00  0.00    -0.387 OA
ATOM     17  H   UNL     1      -5.625  -4.369  -6.190  1.00  0.00     0.211 HD
ENDBRANCH   1  16
TORSDOF 10
ENDMDL
MODEL 6
REMARK VINA RESULT:    -3.944     12.711     13.771
REMARK INTER + INTRA:          -6.534
REMARK INTER:                  -5.792
REMARK INTRA:                  -0.742
REMARK UNBOUND:                -0.861
REMARK SMILES O=C(CO)[C@H](O)[C@H](O)[C@@H](O)CO
REMARK SMILES IDX 7 1 9 2 11 3 12 4 10 6 5 8 2 9 1 10 3 11 4 12 6 14 8 16
REMARK H PARENT 12 5 10 7 4 13 6 15 8 17
REMARK Flexibility Score: inf
ROOT
ATOM      1  C   UNL     1      -2.244   2.929   6.667  1.00  0.00     0.181 C 
ENDROOT
BRANCH   1   2
ATOM      2  C   UNL     1      -3.584   3.041   5.880  1.00  0.00     0.171 C 
BRANCH   2   3
ATOM      3  C   UNL     1      -4.662   3.902   6.567  1.00  0.00     0.190 C 
BRANCH   3   4
ATOM      4  O   UNL     1      -4.594   3.795   7.965  1.00  0.00    -0.394 OA
ATOM      5  H   UNL     1      -3.813   3.218   8.172  1.00  0.00     0.210 HD
ENDBRANCH   3   4
ENDBRANCH   2   3
BRANCH   2   6
ATOM      6  O   UNL     1      -4.103   1.764   5.603  1.00  0.00    -0.388 OA
ATOM      7  H   UNL     1      -3.660   1.430   4.780  1.00  0.00     0.211 HD
ENDBRANCH   2   6
ENDBRANCH   1   2
BRANCH   1   8
ATOM      8  C   UNL     1      -1.018   2.726   5.744  1.00  0.00     0.214 C 
BRANCH   8   9
ATOM      9  C   UNL     1       0.096   3.687   6.118  1.00  0.00     0.189 C 
ATOM     10  O   UNL     1       0.863   3.376   7.017  1.00  0.00    -0.294 OA
BRANCH   9  11
ATOM     11  C   UNL     1       0.298   5.019   5.438  1.00  0.00     0.234 C 
BRANCH  11  12
ATOM     12  O   UNL     1      -0.908   5.716   5.294  1.00  0.00    -0.388 OA
ATOM     13  H   UNL     1      -0.711   6.488   4.703  1.00  0.00     0.211 HD
ENDBRANCH  11  12
ENDBRANCH   9  11
ENDBRANCH   8   9
BRANCH   8  14
ATOM     14  O   UNL     1      -1.381   2.964   4.408  1.00  0.00    -0.382 OA
ATOM     15  H   UNL     1      -2.113   3.636   4.425  1.00  0.00     0.211 HD
ENDBRANCH   8  14
ENDBRANCH   1   8
BRANCH   1  16
ATOM     16  O   UNL     1      -2.336   1.832   7.544  1.00  0.00    -0.387 OA
ATOM     17  H   UNL     1      -3.291   1.560   7.577  1.00  0.00     0.211 HD
ENDBRANCH   1  16
TORSDOF 10
ENDMDL
MODEL 7
REMARK VINA RESULT:    -3.924      1.381      2.313
REMARK INTER + INTRA:          -6.506
REMARK INTER:                  -5.399
REMARK INTRA:                  -1.107
REMARK UNBOUND:                -0.861
REMARK SMILES O=C(CO)[C@H](O)[C@H](O)[C@@H](O)CO
REMARK SMILES IDX 7 1 9 2 11 3 12 4 10 6 5 8 2 9 1 10 3 11 4 12 6 14 8 16
REMARK H PARENT 12 5 10 7 4 13 6 15 8 17
REMARK Flexibility Score: inf
ROOT
ATOM      1  C   UNL     1      -3.346  -7.156  -4.453  1.00  0.00     0.181 C 
ENDROOT
BRANCH   1   2
ATOM      2  C   UNL     1      -4.619  -7.611  -3.678  1.00  0.00     0.171 C 
BRANCH   2   3
ATOM      3  C   UNL     1      -5.921  -7.570  -4.502  1.00  0.00     0.190 C 
BRANCH   3   4
ATOM      4  O   UNL     1      -6.832  -6.638  -3.981  1.00  0.00    -0.394 OA
ATOM      5  H   UNL     1      -7.640  -6.672  -4.555  1.00  0.00     0.210 HD
ENDBRANCH   3   4
ENDBRANCH   2   3
BRANCH   2   6
ATOM      6  O   UNL     1      -4.778  -6.855  -2.503  1.00  0.00    -0.388 OA
ATOM      7  H   UNL     1      -4.851  -7.491  -1.744  1.00  0.00     0.211 HD
ENDBRANCH   2   6
ENDBRANCH   1   2
BRANCH   1   8
ATOM      8  C   UNL     1      -2.899  -5.720  -4.087  1.00  0.00     0.214 C 
BRANCH   8   9
ATOM      9  C   UNL     1      -3.428  -4.722  -5.100  1.00  0.00     0.189 C 
ATOM     10  O   UNL     1      -2.809  -4.556  -6.141  1.00  0.00    -0.294 OA
BRANCH   9  11
ATOM     11  C   UNL     1      -4.682  -3.912  -4.880  1.00  0.00     0.234 C 
BRANCH  11  12
ATOM     12  O   UNL     1      -5.248  -4.162  -3.623  1.00  0.00    -0.388 OA
ATOM     13  H   UNL     1      -5.874  -3.413  -3.449  1.00  0.00     0.211 HD
ENDBRANCH  11  12
ENDBRANCH   9  11
ENDBRANCH   8   9
BRANCH   8  14
ATOM     14  O   UNL     1      -1.496  -5.644  -4.077  1.00  0.00    -0.382 OA
ATOM     15  H   UNL     1      -1.254  -4.880  -3.489  1.00  0.00     0.211 HD
ENDBRANCH   8  14
ENDBRANCH   1   8
BRANCH   1  16
ATOM     16  O   UNL     1      -3.625  -7.205  -5.832  1.00  0.00    -0.387 OA
ATOM     17  H   UNL     1      -4.302  -6.503  -6.020  1.00  0.00     0.211 HD
ENDBRANCH   1  16
TORSDOF 10
ENDMDL
MODEL 8
REMARK VINA RESULT:    -3.906     12.645     14.613
REMARK INTER + INTRA:          -6.481
REMARK INTER:                  -5.507
REMARK INTRA:                  -0.973
REMARK UNBOUND:                -0.861
REMARK SMILES O=C(CO)[C@H](O)[C@H](O)[C@@H](O)CO
REMARK SMILES IDX 7 1 9 2 11 3 12 4 10 6 5 8 2 9 1 10 3 11 4 12 6 14 8 16
REMARK H PARENT 12 5 10 7 4 13 6 15 8 17
REMARK Flexibility Score: inf
ROOT
ATOM      1  C   UNL     1       0.599   4.006   6.654  1.00  0.00     0.181 C 
ENDROOT
BRANCH   1   2
ATOM      2  C   UNL     1       1.952   3.790   7.395  1.00  0.00     0.171 C 
BRANCH   2   3
ATOM      3  C   UNL     1       3.067   3.173   6.528  1.00  0.00     0.190 C 
BRANCH   3   4
ATOM      4  O   UNL     1       3.676   4.137   5.709  1.00  0.00    -0.394 OA
ATOM      5  H   UNL     1       4.627   4.194   5.987  1.00  0.00     0.210 HD
ENDBRANCH   3   4
ENDBRANCH   2   3
BRANCH   2   6
ATOM      6  O   UNL     1       1.763   3.009   8.550  1.00  0.00    -0.388 OA
ATOM      7  H   UNL     1       1.386   3.599   9.254  1.00  0.00     0.211 HD
ENDBRANCH   2   6
ENDBRANCH   1   2
BRANCH   1   8
ATOM      8  C   UNL     1       0.009   2.694   6.081  1.00  0.00     0.214 C 
BRANCH   8   9
ATOM      9  C   UNL     1      -1.237   2.981   5.263  1.00  0.00     0.189 C 
ATOM     10  O   UNL     1      -1.108   3.344   4.103  1.00  0.00    -0.294 OA
BRANCH   9  11
ATOM     11  C   UNL     1      -2.634   2.850   5.817  1.00  0.00     0.234 C 
BRANCH  11  12
ATOM     12  O   UNL     1      -3.135   1.551   5.656  1.00  0.00    -0.388 OA
ATOM     13  H   UNL     1      -4.124   1.636   5.659  1.00  0.00     0.211 HD
ENDBRANCH  11  12
ENDBRANCH   9  11
ENDBRANCH   8   9
BRANCH   8  14
ATOM     14  O   UNL     1      -0.336   1.827   7.130  1.00  0.00    -0.382 OA
ATOM     15  H   UNL     1       0.460   1.759   7.720  1.00  0.00     0.211 HD
ENDBRANCH   8  14
ENDBRANCH   1   8
BRANCH   1  16
ATOM     16  O   UNL     1       0.813   4.907   5.593  1.00  0.00    -0.387 OA
ATOM     17  H   UNL     1       1.642   4.621   5.127  1.00  0.00     0.211 HD
ENDBRANCH   1  16
TORSDOF 10
ENDMDL
MODEL 9
REMARK VINA RESULT:    -3.891      1.271      4.538
REMARK INTER + INTRA:          -6.458
REMARK INTER:                  -5.216
REMARK INTRA:                  -1.242
REMARK UNBOUND:                -0.861
REMARK SMILES O=C(CO)[C@H](O)[C@H](O)[C@@H](O)CO
REMARK SMILES IDX 7 1 9 2 11 3 12 4 10 6 5 8 2 9 1 10 3 11 4 12 6 14 8 16
REMARK H PARENT 12 5 10 7 4 13 6 15 8 17
REMARK Flexibility Score: inf
ROOT
ATOM      1  C   UNL     1      -3.050  -4.278  -4.828  1.00  0.00     0.181 C 
ENDROOT
BRANCH   1   2
ATOM      2  C   UNL     1      -1.555  -4.349  -4.396  1.00  0.00     0.171 C 
BRANCH   2   3
ATOM      3  C   UNL     1      -0.626  -5.045  -5.410  1.00  0.00     0.190 C 
BRANCH   3   4
ATOM      4  O   UNL     1      -0.750  -6.441  -5.349  1.00  0.00    -0.394 OA
ATOM      5  H   UNL     1      -0.194  -6.813  -6.082  1.00  0.00     0.210 HD
ENDBRANCH   3   4
ENDBRANCH   2   3
BRANCH   2   6
ATOM      6  O   UNL     1      -1.433  -4.967  -3.139  1.00  0.00    -0.388 OA
ATOM      7  H   UNL     1      -0.779  -5.709  -3.230  1.00  0.00     0.211 HD
ENDBRANCH   2   6
ENDBRANCH   1   2
BRANCH   1   8
ATOM      8  C   UNL     1      -3.999  -4.991  -3.833  1.00  0.00     0.214 C 
BRANCH   8   9
ATOM      9  C   UNL     1      -4.302  -6.402  -4.302  1.00  0.00     0.189 C 
ATOM     10  O   UNL     1      -3.390  -7.214  -4.350  1.00  0.00    -0.294 OA
BRANCH   9  11
ATOM     11  C   UNL     1      -5.679  -6.852  -4.723  1.00  0.00     0.234 C 
BRANCH  11  12
ATOM     12  O   UNL     1      -6.598  -6.768  -3.669  1.00  0.00    -0.388 OA
ATOM     13  H   UNL     1      -6.319  -5.989  -3.122  1.00  0.00     0.211 HD
ENDBRANCH  11  12
ENDBRANCH   9  11
ENDBRANCH   8   9
BRANCH   8  14
ATOM     14  O   UNL     1      -5.209  -4.284  -3.736  1.00  0.00    -0.382 OA
ATOM     15  H   UNL     1      -5.858  -4.742  -4.332  1.00  0.00     0.211 HD
ENDBRANCH   8  14
ENDBRANCH   1   8
BRANCH   1  16
ATOM     16  O   UNL     1      -3.177  -4.889  -6.089  1.00  0.00    -0.387 OA
ATOM     17  H   UNL     1      -4.035  -5.389  -6.089  1.00  0.00     0.211 HD
ENDBRANCH   1  16
TORSDOF 10
ENDMDL
