MODEL 1
REMARK VINA RESULT:    -3.342      0.000      0.000
REMARK INTER + INTRA:          -3.635
REMARK INTER:                  -3.635
REMARK INTRA:                   0.000
REMARK UNBOUND:                 0.000
REMARK SMILES [NH3+]CC(=O)[O-]
REMARK SMILES IDX 2 1 1 2 3 6 4 7 5 8
REMARK H PARENT 1 3 1 4 1 5
REMARK Flexibility Score: inf
ROOT
ATOM      1  C   UNL     1      16.151  -8.647 -45.647  1.00  0.00     0.312 C 
ENDROOT
BRANCH   1   2
ATOM      2  N   UNL     1      16.144  -8.464 -47.096  1.00  0.00    -0.353 N 
ATOM      3  H   UNL     1      16.722  -9.206 -47.555  1.00  0.00     0.344 HD
ATOM      4  H   UNL     1      15.161  -8.536 -47.446  1.00  0.00     0.344 HD
ATOM      5  H   UNL     1      16.522  -7.520 -47.341  1.00  0.00     0.344 HD
ENDBRANCH   1   2
BRANCH   1   6
ATOM      6  C   UNL     1      14.883  -8.128 -45.043  1.00  0.00     0.096 C 
ATOM      7  O   UNL     1      13.770  -8.574 -45.426  1.00  0.00    -0.544 OA
ATOM      8  O   UNL     1      14.934  -7.188 -44.022  1.00  0.00    -0.544 OA
ENDBRANCH   1   6
TORSDOF 2
ENDMDL
MODEL 2
REMARK VINA RESULT:    -3.307      2.312      2.479
REMARK INTER + INTRA:          -3.597
REMARK INTER:                  -3.597
REMARK INTRA:                   0.000
REMARK UNBOUND:                 0.000
REMARK SMILES [NH3+]CC(=O)[O-]
REMARK SMILES IDX 2 1 1 2 3 6 4 7 5 8
REMARK H PARENT 1 3 1 4 1 5
REMARK Flexibility Score: inf
ROOT
ATOM      1  C   UNL     1      14.617  -7.484 -43.407  1.00  0.00     0.312 C 
ENDROOT
BRANCH   1   2
ATOM      2  N   UNL     1      15.346  -6.869 -44.514  1.00  0.00    -0.353 N 
ATOM      3  H   UNL     1      15.757  -7.610 -45.129  1.00  0.00     0.344 HD
ATOM      4  H   UNL     1      14.684  -6.289 -45.080  1.00  0.00     0.344 HD
ATOM      5  H   UNL     1      16.107  -6.253 -44.146  1.00  0.00     0.344 HD
ENDBRANCH   1   2
BRANCH   1   6
ATOM      6  C   UNL     1      14.082  -8.824 -43.806  1.00  0.00     0.096 C 
ATOM      7  O   UNL     1      13.497  -8.968 -44.912  1.00  0.00    -0.544 OA
ATOM      8  O   UNL     1      14.274  -9.924 -42.980  1.00  0.00    -0.544 OA
ENDBRANCH   1   6
TORSDOF 2
ENDMDL
MODEL 3
REMARK VINA RESULT:    -3.300      2.333      2.656
REMARK INTER + INTRA:          -3.590
REMARK INTER:                  -3.590
REMARK INTRA:                   0.000
REMARK UNBOUND:                 0.000
REMARK SMILES [NH3+]CC(=O)[O-]
REMARK SMILES IDX 2 1 1 2 3 6 4 7 5 8
REMARK H PARENT 1 3 1 4 1 5
REMARK Flexibility Score: inf
ROOT
ATOM      1  C   UNL     1      14.609  -7.470 -43.409  1.00  0.00     0.312 C 
ENDROOT
BRANCH   1   2
ATOM      2  N   UNL     1      15.343  -6.866 -44.518  1.00  0.00    -0.353 N 
ATOM      3  H   UNL     1      16.298  -6.577 -44.202  1.00  0.00     0.344 HD
ATOM      4  H   UNL     1      15.440  -7.569 -45.287  1.00  0.00     0.344 HD
ATOM      5  H   UNL     1      14.824  -6.035 -44.883  1.00  0.00     0.344 HD
ENDBRANCH   1   2
BRANCH   1   6
ATOM      6  C   UNL     1      14.077  -8.815 -43.797  1.00  0.00     0.096 C 
ATOM      7  O   UNL     1      14.187  -9.791 -43.010  1.00  0.00    -0.544 OA
ATOM      8  O   UNL     1      13.415  -8.977 -45.008  1.00  0.00    -0.544 OA
ENDBRANCH   1   6
TORSDOF 2
ENDMDL
MODEL 4
REMARK VINA RESULT:    -3.278      2.126      2.628
REMARK INTER + INTRA:          -3.566
REMARK INTER:                  -3.566
REMARK INTRA:                   0.000
REMARK UNBOUND:                 0.000
REMARK SMILES [NH3+]CC(=O)[O-]
REMARK SMILES IDX 2 1 1 2 3 6 4 7 5 8
REMARK H PARENT 1 3 1 4 1 5
REMARK Flexibility Score: inf
ROOT
ATOM      1  C   UNL     1      14.725  -7.630 -44.400  1.00  0.00     0.312 C 
ENDROOT
BRANCH   1   2
ATOM      2  N   UNL     1      15.669  -6.539 -44.172  1.00  0.00    -0.353 N 
ATOM      3  H   UNL     1      15.703  -5.911 -45.009  1.00  0.00     0.344 HD
ATOM      4  H   UNL     1      15.355  -5.982 -43.344  1.00  0.00     0.344 HD
ATOM      5  H   UNL     1      16.623  -6.923 -43.979  1.00  0.00     0.344 HD
ENDBRANCH   1   2
BRANCH   1   6
ATOM      6  C   UNL     1      15.221  -8.539 -45.482  1.00  0.00     0.096 C 
ATOM      7  O   UNL     1      16.455  -8.640 -45.708  1.00  0.00    -0.544 OA
ATOM      8  O   UNL     1      14.322  -9.312 -46.207  1.00  0.00    -0.544 OA
ENDBRANCH   1   6
TORSDOF 2
ENDMDL
MODEL 5
REMARK VINA RESULT:    -3.124      2.541      2.894
REMARK INTER + INTRA:          -3.398
REMARK INTER:                  -3.398
REMARK INTRA:                   0.000
REMARK UNBOUND:                 0.000
REMARK SMILES [NH3+]CC(=O)[O-]
REMARK SMILES IDX 2 1 1 2 3 6 4 7 5 8
REMARK H PARENT 1 3 1 4 1 5
REMARK Flexibility Score: inf
ROOT
ATOM      1  C   UNL     1      13.871  -9.313 -44.455  1.00  0.00     0.312 C 
ENDROOT
BRANCH   1   2
ATOM      2  N   UNL     1      13.637  -9.500 -43.025  1.00  0.00    -0.353 N 
ATOM      3  H   UNL     1      13.332 -10.483 -42.836  1.00  0.00     0.344 HD
ATOM      4  H   UNL     1      14.526  -9.316 -42.505  1.00  0.00     0.344 HD
ATOM      5  H   UNL     1      12.905  -8.832 -42.691  1.00  0.00     0.344 HD
ENDBRANCH   1   2
BRANCH   1   6
ATOM      6  C   UNL     1      14.993  -8.348 -44.685  1.00  0.00     0.096 C 
ATOM      7  O   UNL     1      14.972  -7.212 -44.142  1.00  0.00    -0.544 OA
ATOM      8  O   UNL     1      16.085  -8.722 -45.457  1.00  0.00    -0.544 OA
ENDBRANCH   1   6
TORSDOF 2
ENDMDL
MODEL 6
REMARK VINA RESULT:    -3.122      1.733      2.131
REMARK INTER + INTRA:          -3.396
REMARK INTER:                  -3.396
REMARK INTRA:                   0.000
REMARK UNBOUND:                 0.000
REMARK SMILES [NH3+]CC(=O)[O-]
REMARK SMILES IDX 2 1 1 2 3 6 4 7 5 8
REMARK H PARENT 1 3 1 4 1 5
REMARK Flexibility Score: inf
ROOT
ATOM      1  C   UNL     1      13.854  -9.030 -45.542  1.00  0.00     0.312 C 
ENDROOT
BRANCH   1   2
ATOM      2  N   UNL     1      14.048  -9.733 -46.808  1.00  0.00    -0.353 N 
ATOM      3  H   UNL     1      13.311  -9.446 -47.494  1.00  0.00     0.344 HD
ATOM      4  H   UNL     1      14.987  -9.486 -47.197  1.00  0.00     0.344 HD
ATOM      5  H   UNL     1      14.006 -10.767 -46.655  1.00  0.00     0.344 HD
ENDBRANCH   1   2
BRANCH   1   6
ATOM      6  C   UNL     1      15.090  -8.274 -45.163  1.00  0.00     0.096 C 
ATOM      7  O   UNL     1      15.019  -7.304 -44.364  1.00  0.00    -0.544 OA
ATOM      8  O   UNL     1      16.327  -8.673 -45.655  1.00  0.00    -0.544 OA
ENDBRANCH   1   6
TORSDOF 2
ENDMDL
MODEL 7
REMARK VINA RESULT:    -3.004      2.223      2.372
REMARK INTER + INTRA:          -3.268
REMARK INTER:                  -3.268
REMARK INTRA:                   0.000
REMARK UNBOUND:                 0.000
REMARK SMILES [NH3+]CC(=O)[O-]
REMARK SMILES IDX 2 1 1 2 3 6 4 7 5 8
REMARK H PARENT 1 3 1 4 1 5
REMARK Flexibility Score: inf
ROOT
ATOM      1  C   UNL     1      14.259  -9.850 -43.442  1.00  0.00     0.312 C 
ENDROOT
BRANCH   1   2
ATOM      2  N   UNL     1      14.978 -10.626 -44.449  1.00  0.00    -0.353 N 
ATOM      3  H   UNL     1      14.697 -11.633 -44.396  1.00  0.00     0.344 HD
ATOM      4  H   UNL     1      14.740 -10.259 -45.400  1.00  0.00     0.344 HD
ATOM      5  H   UNL     1      16.010 -10.538 -44.302  1.00  0.00     0.344 HD
ENDBRANCH   1   2
BRANCH   1   6
ATOM      6  C   UNL     1      14.397  -8.383 -43.709  1.00  0.00     0.096 C 
ATOM      7  O   UNL     1      14.331  -7.944 -44.887  1.00  0.00    -0.544 OA
ATOM      8  O   UNL     1      14.546  -7.495 -42.651  1.00  0.00    -0.544 OA
ENDBRANCH   1   6
TORSDOF 2
ENDMDL
MODEL 8
REMARK VINA RESULT:    -3.002     15.733     16.138
REMARK INTER + INTRA:          -3.265
REMARK INTER:                  -3.265
REMARK INTRA:                   0.000
REMARK UNBOUND:                 0.000
REMARK SMILES [NH3+]CC(=O)[O-]
REMARK SMILES IDX 2 1 1 2 3 6 4 7 5 8
REMARK H PARENT 1 3 1 4 1 5
REMARK Flexibility Score: inf
ROOT
ATOM      1  C   UNL     1      23.650  -3.165 -31.955  1.00  0.00     0.312 C 
ENDROOT
BRANCH   1   2
ATOM      2  N   UNL     1      24.704  -3.585 -31.035  1.00  0.00    -0.353 N 
ATOM      3  H   UNL     1      25.515  -3.973 -31.571  1.00  0.00     0.344 HD
ATOM      4  H   UNL     1      25.028  -2.756 -30.484  1.00  0.00     0.344 HD
ATOM      5  H   UNL     1      24.338  -4.308 -30.374  1.00  0.00     0.344 HD
ENDBRANCH   1   2
BRANCH   1   6
ATOM      6  C   UNL     1      23.333  -4.257 -32.929  1.00  0.00     0.096 C 
ATOM      7  O   UNL     1      24.250  -5.001 -33.366  1.00  0.00    -0.544 OA
ATOM      8  O   UNL     1      22.019  -4.485 -33.315  1.00  0.00    -0.544 OA
ENDBRANCH   1   6
TORSDOF 2
ENDMDL
MODEL 9
REMARK VINA RESULT:    -2.985     14.886     15.149
REMARK INTER + INTRA:          -3.247
REMARK INTER:                  -3.247
REMARK INTRA:                   0.000
REMARK UNBOUND:                 0.000
REMARK SMILES [NH3+]CC(=O)[O-]
REMARK SMILES IDX 2 1 1 2 3 6 4 7 5 8
REMARK H PARENT 1 3 1 4 1 5
REMARK Flexibility Score: inf
ROOT
ATOM      1  C   UNL     1      22.090  -5.219 -33.274  1.00  0.00     0.312 C 
ENDROOT
BRANCH   1   2
ATOM      2  N   UNL     1      20.923  -4.457 -33.711  1.00  0.00    -0.353 N 
ATOM      3  H   UNL     1      20.942  -3.498 -33.291  1.00  0.00     0.344 HD
ATOM      4  H   UNL     1      20.940  -4.370 -34.753  1.00  0.00     0.344 HD
ATOM      5  H   UNL     1      20.045  -4.949 -33.427  1.00  0.00     0.344 HD
ENDBRANCH   1   2
BRANCH   1   6
ATOM      6  C   UNL     1      23.231  -4.302 -32.957  1.00  0.00     0.096 C 
ATOM      7  O   UNL     1      23.026  -3.231 -32.328  1.00  0.00    -0.544 OA
ATOM      8  O   UNL     1      24.527  -4.656 -33.311  1.00  0.00    -0.544 OA
ENDBRANCH   1   6
TORSDOF 2
ENDMDL
