MODEL 1
REMARK VINA RESULT:    -3.958      0.000      0.000
REMARK INTER + INTRA:          -4.729
REMARK INTER:                  -4.652
REMARK INTRA:                  -0.077
REMARK UNBOUND:                -0.077
REMARK SMILES O=C([O-])CCC(=O)[O-]
REMARK SMILES IDX 4 1 2 2 1 3 3 4 5 5 6 6 7 7 8 8
REMARK H PARENT
REMARK Flexibility Score: inf
ROOT
ATOM      1  C   UNL     1      15.316   3.405  15.759  1.00  0.00     0.059 C 
ENDROOT
BRANCH   1   2
ATOM      2  C   UNL     1      15.035   2.734  14.448  1.00  0.00     0.042 C 
ATOM      3  O   UNL     1      14.469   3.369  13.521  1.00  0.00    -0.550 OA
ATOM      4  O   UNL     1      15.363   1.396  14.268  1.00  0.00    -0.550 OA
ENDBRANCH   1   2
BRANCH   1   5
ATOM      5  C   UNL     1      16.811   3.696  15.934  1.00  0.00     0.059 C 
BRANCH   5   6
ATOM      6  C   UNL     1      17.064   5.147  16.204  1.00  0.00     0.042 C 
ATOM      7  O   UNL     1      16.438   6.030  15.560  1.00  0.00    -0.550 OA
ATOM      8  O   UNL     1      17.960   5.525  17.196  1.00  0.00    -0.550 OA
ENDBRANCH   5   6
ENDBRANCH   1   5
TORSDOF 3
ENDMDL
MODEL 2
REMARK VINA RESULT:    -3.951      0.185      3.951
REMARK INTER + INTRA:          -4.721
REMARK INTER:                  -4.632
REMARK INTRA:                  -0.089
REMARK UNBOUND:                -0.077
REMARK SMILES O=C([O-])CCC(=O)[O-]
REMARK SMILES IDX 4 1 2 2 1 3 3 4 5 5 6 6 7 7 8 8
REMARK H PARENT
REMARK Flexibility Score: inf
ROOT
ATOM      1  C   UNL     1      16.726   3.807  16.056  1.00  0.00     0.059 C 
ENDROOT
BRANCH   1   2
ATOM      2  C   UNL     1      16.956   5.272  16.275  1.00  0.00     0.042 C 
ATOM      3  O   UNL     1      16.460   6.116  15.483  1.00  0.00    -0.550 OA
ATOM      4  O   UNL     1      17.751   5.701  17.330  1.00  0.00    -0.550 OA
ENDBRANCH   1   2
BRANCH   1   5
ATOM      5  C   UNL     1      15.237   3.493  15.868  1.00  0.00     0.059 C 
BRANCH   5   6
ATOM      6  C   UNL     1      14.972   2.849  14.542  1.00  0.00     0.042 C 
ATOM      7  O   UNL     1      14.468   3.519  13.602  1.00  0.00    -0.550 OA
ATOM      8  O   UNL     1      15.317   1.520  14.332  1.00  0.00    -0.550 OA
ENDBRANCH   5   6
ENDBRANCH   1   5
TORSDOF 3
ENDMDL
MODEL 3
REMARK VINA RESULT:    -3.938      0.930      4.039
REMARK INTER + INTRA:          -4.706
REMARK INTER:                  -4.606
REMARK INTRA:                  -0.100
REMARK UNBOUND:                -0.077
REMARK SMILES O=C([O-])CCC(=O)[O-]
REMARK SMILES IDX 4 1 2 2 1 3 3 4 5 5 6 6 7 7 8 8
REMARK H PARENT
REMARK Flexibility Score: inf
ROOT
ATOM      1  C   UNL     1      16.646   4.079  15.656  1.00  0.00     0.059 C 
ENDROOT
BRANCH   1   2
ATOM      2  C   UNL     1      16.941   5.444  16.204  1.00  0.00     0.042 C 
ATOM      3  O   UNL     1      17.725   5.578  17.180  1.00  0.00    -0.550 OA
ATOM      4  O   UNL     1      16.318   6.560  15.661  1.00  0.00    -0.550 OA
ENDBRANCH   1   2
BRANCH   1   5
ATOM      5  C   UNL     1      15.179   3.692  15.870  1.00  0.00     0.059 C 
BRANCH   5   6
ATOM      6  C   UNL     1      14.365   3.902  14.630  1.00  0.00     0.042 C 
ATOM      7  O   UNL     1      13.524   4.837  14.576  1.00  0.00    -0.550 OA
ATOM      8  O   UNL     1      14.565   3.091  13.520  1.00  0.00    -0.550 OA
ENDBRANCH   5   6
ENDBRANCH   1   5
TORSDOF 3
ENDMDL
MODEL 4
REMARK VINA RESULT:    -3.934      0.902      1.866
REMARK INTER + INTRA:          -4.702
REMARK INTER:                  -4.593
REMARK INTRA:                  -0.109
REMARK UNBOUND:                -0.077
REMARK SMILES O=C([O-])CCC(=O)[O-]
REMARK SMILES IDX 4 1 2 2 1 3 3 4 5 5 6 6 7 7 8 8
REMARK H PARENT
REMARK Flexibility Score: inf
ROOT
ATOM      1  C   UNL     1      15.319   3.528  15.740  1.00  0.00     0.059 C 
ENDROOT
BRANCH   1   2
ATOM      2  C   UNL     1      14.442   3.803  14.556  1.00  0.00     0.042 C 
ATOM      3  O   UNL     1      14.563   3.119  13.506  1.00  0.00    -0.550 OA
ATOM      4  O   UNL     1      13.521   4.842  14.600  1.00  0.00    -0.550 OA
ENDBRANCH   1   2
BRANCH   1   5
ATOM      5  C   UNL     1      16.744   4.047  15.518  1.00  0.00     0.059 C 
BRANCH   5   6
ATOM      6  C   UNL     1      16.951   5.384  16.162  1.00  0.00     0.042 C 
ATOM      7  O   UNL     1      17.713   5.496  17.158  1.00  0.00    -0.550 OA
ATOM      8  O   UNL     1      16.335   6.513  15.636  1.00  0.00    -0.550 OA
ENDBRANCH   5   6
ENDBRANCH   1   5
TORSDOF 3
ENDMDL
MODEL 5
REMARK VINA RESULT:    -3.921      0.946      4.042
REMARK INTER + INTRA:          -4.686
REMARK INTER:                  -4.601
REMARK INTRA:                  -0.085
REMARK UNBOUND:                -0.077
REMARK SMILES O=C([O-])CCC(=O)[O-]
REMARK SMILES IDX 4 1 2 2 1 3 3 4 5 5 6 6 7 7 8 8
REMARK H PARENT
REMARK Flexibility Score: inf
ROOT
ATOM      1  C   UNL     1      16.660   3.971  15.603  1.00  0.00     0.059 C 
ENDROOT
BRANCH   1   2
ATOM      2  C   UNL     1      17.036   5.299  16.189  1.00  0.00     0.042 C 
ATOM      3  O   UNL     1      17.954   5.375  17.047  1.00  0.00    -0.550 OA
ATOM      4  O   UNL     1      16.344   6.444  15.816  1.00  0.00    -0.550 OA
ENDBRANCH   1   2
BRANCH   1   5
ATOM      5  C   UNL     1      15.173   3.664  15.810  1.00  0.00     0.059 C 
BRANCH   5   6
ATOM      6  C   UNL     1      14.376   3.931  14.570  1.00  0.00     0.042 C 
ATOM      7  O   UNL     1      14.532   3.209  13.550  1.00  0.00    -0.550 OA
ATOM      8  O   UNL     1      13.431   4.949  14.554  1.00  0.00    -0.550 OA
ENDBRANCH   5   6
ENDBRANCH   1   5
TORSDOF 3
ENDMDL
MODEL 6
REMARK VINA RESULT:    -3.911      0.768      1.448
REMARK INTER + INTRA:          -4.674
REMARK INTER:                  -4.584
REMARK INTRA:                  -0.090
REMARK UNBOUND:                -0.077
REMARK SMILES O=C([O-])CCC(=O)[O-]
REMARK SMILES IDX 4 1 2 2 1 3 3 4 5 5 6 6 7 7 8 8
REMARK H PARENT
REMARK Flexibility Score: inf
ROOT
ATOM      1  C   UNL     1      15.330   3.494  15.957  1.00  0.00     0.059 C 
ENDROOT
BRANCH   1   2
ATOM      2  C   UNL     1      14.605   3.625  14.651  1.00  0.00     0.042 C 
ATOM      3  O   UNL     1      13.730   4.517  14.500  1.00  0.00    -0.550 OA
ATOM      4  O   UNL     1      14.870   2.737  13.617  1.00  0.00    -0.550 OA
ENDBRANCH   1   2
BRANCH   1   5
ATOM      5  C   UNL     1      16.820   3.818  15.809  1.00  0.00     0.059 C 
BRANCH   5   6
ATOM      6  C   UNL     1      17.141   5.190  16.318  1.00  0.00     0.042 C 
ATOM      7  O   UNL     1      18.089   5.358  17.130  1.00  0.00    -0.550 OA
ATOM      8  O   UNL     1      16.419   6.287  15.866  1.00  0.00    -0.550 OA
ENDBRANCH   5   6
ENDBRANCH   1   5
TORSDOF 3
ENDMDL
MODEL 7
REMARK VINA RESULT:    -3.814      1.213      4.094
REMARK INTER + INTRA:          -4.560
REMARK INTER:                  -4.533
REMARK INTRA:                  -0.028
REMARK UNBOUND:                -0.077
REMARK SMILES O=C([O-])CCC(=O)[O-]
REMARK SMILES IDX 4 1 2 2 1 3 3 4 5 5 6 6 7 7 8 8
REMARK H PARENT
REMARK Flexibility Score: inf
ROOT
ATOM      1  C   UNL     1      16.802   4.233  15.575  1.00  0.00     0.059 C 
ENDROOT
BRANCH   1   2
ATOM      2  C   UNL     1      17.444   4.570  16.887  1.00  0.00     0.042 C 
ATOM      3  O   UNL     1      17.772   3.653  17.685  1.00  0.00    -0.550 OA
ATOM      4  O   UNL     1      17.641   5.897  17.243  1.00  0.00    -0.550 OA
ENDBRANCH   1   2
BRANCH   1   5
ATOM      5  C   UNL     1      15.407   3.630  15.769  1.00  0.00     0.059 C 
BRANCH   5   6
ATOM      6  C   UNL     1      14.521   3.895  14.589  1.00  0.00     0.042 C 
ATOM      7  O   UNL     1      13.731   4.875  14.599  1.00  0.00    -0.550 OA
ATOM      8  O   UNL     1      14.598   3.083  13.464  1.00  0.00    -0.550 OA
ENDBRANCH   5   6
ENDBRANCH   1   5
TORSDOF 3
ENDMDL
MODEL 8
REMARK VINA RESULT:    -3.691      2.318      3.612
REMARK INTER + INTRA:          -4.416
REMARK INTER:                  -4.309
REMARK INTRA:                  -0.107
REMARK UNBOUND:                -0.077
REMARK SMILES O=C([O-])CCC(=O)[O-]
REMARK SMILES IDX 4 1 2 2 1 3 3 4 5 5 6 6 7 7 8 8
REMARK H PARENT
REMARK Flexibility Score: inf
ROOT
ATOM      1  C   UNL     1      16.666   3.817  16.207  1.00  0.00     0.059 C 
ENDROOT
BRANCH   1   2
ATOM      2  C   UNL     1      18.071   3.913  16.719  1.00  0.00     0.042 C 
ATOM      3  O   UNL     1      18.720   2.868  16.986  1.00  0.00    -0.550 OA
ATOM      4  O   UNL     1      18.648   5.158  16.937  1.00  0.00    -0.550 OA
ENDBRANCH   1   2
BRANCH   1   5
ATOM      5  C   UNL     1      16.432   4.759  15.021  1.00  0.00     0.059 C 
BRANCH   5   6
ATOM      6  C   UNL     1      15.600   5.942  15.410  1.00  0.00     0.042 C 
ATOM      7  O   UNL     1      16.152   7.032  15.716  1.00  0.00    -0.550 OA
ATOM      8  O   UNL     1      14.214   5.854  15.395  1.00  0.00    -0.550 OA
ENDBRANCH   5   6
ENDBRANCH   1   5
TORSDOF 3
ENDMDL
MODEL 9
REMARK VINA RESULT:    -3.497      1.701      2.434
REMARK INTER + INTRA:          -4.187
REMARK INTER:                  -4.123
REMARK INTRA:                  -0.064
REMARK UNBOUND:                -0.077
REMARK SMILES O=C([O-])CCC(=O)[O-]
REMARK SMILES IDX 4 1 2 2 1 3 3 4 5 5 6 6 7 7 8 8
REMARK H PARENT
REMARK Flexibility Score: inf
ROOT
ATOM      1  C   UNL     1      16.653   4.587  15.411  1.00  0.00     0.059 C 
ENDROOT
BRANCH   1   2
ATOM      2  C   UNL     1      15.549   3.841  14.723  1.00  0.00     0.042 C 
ATOM      3  O   UNL     1      15.608   2.589  14.606  1.00  0.00    -0.550 OA
ATOM      4  O   UNL     1      14.476   4.535  14.178  1.00  0.00    -0.550 OA
ENDBRANCH   1   2
BRANCH   1   5
ATOM      5  C   UNL     1      16.994   3.962  16.768  1.00  0.00     0.059 C 
BRANCH   5   6
ATOM      6  C   UNL     1      18.458   3.671  16.890  1.00  0.00     0.042 C 
ATOM      7  O   UNL     1      18.860   2.485  17.024  1.00  0.00    -0.550 OA
ATOM      8  O   UNL     1      19.382   4.706  16.816  1.00  0.00    -0.550 OA
ENDBRANCH   5   6
ENDBRANCH   1   5
TORSDOF 3
ENDMDL
