MODEL 1
REMARK VINA RESULT:    -3.766      0.000      0.000
REMARK INTER + INTRA:          -5.869
REMARK INTER:                  -5.747
REMARK INTRA:                  -0.122
REMARK UNBOUND:                -0.122
REMARK SMILES CC1=CCC[C@@H](C)C(=O)C[C@H](C(C)C)C(=O)C1
REMARK SMILES IDX 8 1 9 2 6 3 7 4 5 5 4 6 3 7 2 8 1 9 10 11 11 12 15 13 16 14
REMARK SMILES IDX 17 15 12 17 13 18 14 19
REMARK H PARENT
REMARK Flexibility Score: 70.00
ROOT
ATOM      1  C   UNL     1      -2.739 -26.870  14.249  1.00  0.00     0.136 C 
ATOM      2  O   UNL     1      -2.897 -26.843  15.462  1.00  0.00    -0.299 OA
ENDROOT
BRANCH   1   3
ATOM      3  C   UNL     1      -3.746 -27.587  13.378  1.00  0.00     0.053 C 
ATOM      4  C   UNL     1      -4.202 -28.885  14.054  1.00  0.00     0.016 C 
BRANCH   3   5
ATOM      5  C   UNL     1      -3.170 -27.873  11.978  1.00  0.00     0.015 C 
BRANCH   5   6
ATOM      6  C   UNL     1      -2.252 -29.114  11.949  1.00  0.00     0.028 C 
BRANCH   6   7
ATOM      7  C   UNL     1      -1.286 -29.064  10.789  1.00  0.00    -0.028 C 
ATOM      8  C   UNL     1       0.035 -28.765  10.833  1.00  0.00    -0.070 CG0
ATOM      9  C   UNL     1       0.784 -28.734   9.523  1.00  0.00     0.039 C 
ATOM     10  G   UNL     1       0.818 -28.483  12.106  1.00  0.00     0.000 G0
ENDBRANCH   6   7
ENDBRANCH   5   6
ENDBRANCH   3   5
ENDBRANCH   1   3
BRANCH   1  11
ATOM     11  C   UNL     1      -1.583 -26.134  13.612  1.00  0.00     0.087 C 
BRANCH  11  12
ATOM     12  C   UNL     1      -0.207 -26.792  13.878  1.00  0.00     0.066 C 
BRANCH  12  13
ATOM     13  C   UNL     1       0.585 -27.084  12.611  1.00  0.00     0.140 C 
ATOM     14  O   UNL     1       0.981 -26.135  11.948  1.00  0.00    -0.299 OA
BRANCH  13  15
ATOM     15  C   UNL     1       0.845 -28.482  12.097  1.00  0.00     0.106 CG0
ATOM     16  G   UNL     1       0.045 -28.758  10.833  1.00  0.00     0.000 G0
ENDBRANCH  13  15
ENDBRANCH  12  13
BRANCH  12  17
ATOM     17  C   UNL     1       0.619 -26.018  14.950  1.00  0.00    -0.006 C 
ATOM     18  C   UNL     1       0.020 -24.629  15.223  1.00  0.00     0.008 C 
ATOM     19  C   UNL     1       0.799 -26.778  16.275  1.00  0.00     0.008 C 
ENDBRANCH  12  17
ENDBRANCH  11  12
ENDBRANCH   1  11
TORSDOF 1
ENDMDL
MODEL 2
REMARK VINA RESULT:    -3.711      2.041      4.425
REMARK INTER + INTRA:          -5.786
REMARK INTER:                  -6.045
REMARK INTRA:                   0.259
REMARK UNBOUND:                -0.122
REMARK SMILES CC1=CCC[C@@H](C)C(=O)C[C@H](C(C)C)C(=O)C1
REMARK SMILES IDX 8 1 9 2 6 3 7 4 5 5 4 6 3 7 2 8 1 9 10 11 11 12 15 13 16 14
REMARK SMILES IDX 17 15 12 17 13 18 14 19
REMARK H PARENT
REMARK Flexibility Score: 70.00
ROOT
ATOM      1  C   UNL     1       0.674 -25.411  13.788  1.00  0.00     0.136 C 
ATOM      2  O   UNL     1       1.545 -24.627  13.437  1.00  0.00    -0.299 OA
ENDROOT
BRANCH   1   3
ATOM      3  C   UNL     1       0.378 -25.594  15.259  1.00  0.00     0.053 C 
ATOM      4  C   UNL     1       1.001 -26.900  15.766  1.00  0.00     0.016 C 
BRANCH   3   5
ATOM      5  C   UNL     1      -1.138 -25.569  15.531  1.00  0.00     0.015 C 
BRANCH   5   6
ATOM      6  C   UNL     1      -1.640 -26.843  16.245  1.00  0.00     0.028 C 
BRANCH   6   7
ATOM      7  C   UNL     1      -2.706 -27.548  15.440  1.00  0.00    -0.028 C 
ATOM      8  C   UNL     1      -2.524 -28.501  14.493  1.00  0.00    -0.070 CG0
ATOM      9  C   UNL     1      -3.752 -29.023  13.788  1.00  0.00     0.039 C 
ATOM     10  G   UNL     1      -1.177 -29.094  14.109  1.00  0.00     0.000 G0
ENDBRANCH   6   7
ENDBRANCH   5   6
ENDBRANCH   3   5
ENDBRANCH   1   3
BRANCH   1  11
ATOM     11  C   UNL     1      -0.154 -26.145  12.758  1.00  0.00     0.087 C 
BRANCH  11  12
ATOM     12  C   UNL     1       0.325 -27.594  12.497  1.00  0.00     0.066 C 
BRANCH  12  13
ATOM     13  C   UNL     1      -0.753 -28.644  12.731  1.00  0.00     0.140 C 
ATOM     14  O   UNL     1      -1.337 -29.098  11.757  1.00  0.00    -0.299 OA
BRANCH  13  15
ATOM     15  C   UNL     1      -1.184 -29.099  14.108  1.00  0.00     0.106 CG0
ATOM     16  G   UNL     1      -2.527 -28.496  14.489  1.00  0.00     0.000 G0
ENDBRANCH  13  15
ENDBRANCH  12  13
BRANCH  12  17
ATOM     17  C   UNL     1       1.030 -27.742  11.114  1.00  0.00    -0.006 C 
ATOM     18  C   UNL     1       1.904 -26.518  10.797  1.00  0.00     0.008 C 
ATOM     19  C   UNL     1       1.860 -29.028  10.967  1.00  0.00     0.008 C 
ENDBRANCH  12  17
ENDBRANCH  11  12
ENDBRANCH   1  11
TORSDOF 1
ENDMDL
MODEL 3
REMARK VINA RESULT:    -3.679     17.233     19.687
REMARK INTER + INTRA:          -5.737
REMARK INTER:                  -5.441
REMARK INTRA:                  -0.296
REMARK UNBOUND:                -0.122
REMARK SMILES CC1=CCC[C@@H](C)C(=O)C[C@H](C(C)C)C(=O)C1
REMARK SMILES IDX 8 1 9 2 6 3 7 4 5 5 4 6 3 7 2 8 1 9 10 11 11 12 15 13 16 14
REMARK SMILES IDX 17 15 12 17 13 18 14 19
REMARK H PARENT
REMARK Flexibility Score: 70.00
ROOT
ATOM      1  C   UNL     1      10.125 -13.209  17.187  1.00  0.00     0.136 C 
ATOM      2  O   UNL     1      10.294 -13.283  18.396  1.00  0.00    -0.299 OA
ENDROOT
BRANCH   1   3
ATOM      3  C   UNL     1      10.209 -14.459  16.341  1.00  0.00     0.053 C 
ATOM      4  C   UNL     1       9.215 -15.510  16.850  1.00  0.00     0.016 C 
BRANCH   3   5
ATOM      5  C   UNL     1      11.642 -15.026  16.323  1.00  0.00     0.015 C 
BRANCH   5   6
ATOM      6  C   UNL     1      12.576 -14.264  15.357  1.00  0.00     0.028 C 
BRANCH   6   7
ATOM      7  C   UNL     1      11.914 -14.020  14.021  1.00  0.00    -0.028 C 
ATOM      8  C   UNL     1      11.746 -12.831  13.394  1.00  0.00    -0.070 CG0
ATOM      9  C   UNL     1      11.006 -12.839  12.078  1.00  0.00     0.039 C 
ATOM     10  G   UNL     1      12.267 -11.498  13.909  1.00  0.00     0.000 G0
ENDBRANCH   6   7
ENDBRANCH   5   6
ENDBRANCH   3   5
ENDBRANCH   1   3
BRANCH   1  11
ATOM     11  C   UNL     1       9.765 -11.889  16.544  1.00  0.00     0.087 C 
BRANCH  11  12
ATOM     12  C   UNL     1      10.991 -10.998  16.230  1.00  0.00     0.066 C 
BRANCH  12  13
ATOM     13  C   UNL     1      11.210 -10.765  14.741  1.00  0.00     0.140 C 
ATOM     14  O   UNL     1      10.464  -9.987  14.164  1.00  0.00    -0.299 OA
BRANCH  13  15
ATOM     15  C   UNL     1      12.256 -11.498  13.930  1.00  0.00     0.106 CG0
ATOM     16  G   UNL     1      11.713 -12.817  13.401  1.00  0.00     0.000 G0
ENDBRANCH  13  15
ENDBRANCH  12  13
BRANCH  12  17
ATOM     17  C   UNL     1      10.990  -9.679  17.060  1.00  0.00    -0.006 C 
ATOM     18  C   UNL     1      10.418  -9.904  18.469  1.00  0.00     0.008 C 
ATOM     19  C   UNL     1      12.365  -8.997  17.159  1.00  0.00     0.008 C 
ENDBRANCH  12  17
ENDBRANCH  11  12
ENDBRANCH   1  11
TORSDOF 1
ENDMDL
MODEL 4
REMARK VINA RESULT:    -3.553     17.208     19.061
REMARK INTER + INTRA:          -5.545
REMARK INTER:                  -5.314
REMARK INTRA:                  -0.231
REMARK UNBOUND:                -0.122
REMARK SMILES CC1=CCC[C@@H](C)C(=O)C[C@H](C(C)C)C(=O)C1
REMARK SMILES IDX 8 1 9 2 6 3 7 4 5 5 4 6 3 7 2 8 1 9 10 11 11 12 15 13 16 14
REMARK SMILES IDX 17 15 12 17 13 18 14 19
REMARK H PARENT
REMARK Flexibility Score: 70.00
ROOT
ATOM      1  C   UNL     1      10.466 -14.952  13.905  1.00  0.00     0.136 C 
ATOM      2  O   UNL     1      10.753 -16.130  13.743  1.00  0.00    -0.299 OA
ENDROOT
BRANCH   1   3
ATOM      3  C   UNL     1      10.596 -13.984  12.750  1.00  0.00     0.053 C 
ATOM      4  C   UNL     1       9.713 -14.435  11.580  1.00  0.00     0.016 C 
BRANCH   3   5
ATOM      5  C   UNL     1      12.064 -13.841  12.304  1.00  0.00     0.015 C 
BRANCH   5   6
ATOM      6  C   UNL     1      12.848 -12.809  13.143  1.00  0.00     0.028 C 
BRANCH   6   7
ATOM      7  C   UNL     1      11.983 -11.631  13.524  1.00  0.00    -0.028 C 
ATOM      8  C   UNL     1      11.665 -11.216  14.774  1.00  0.00    -0.070 CG0
ATOM      9  C   UNL     1      10.738 -10.031  14.898  1.00  0.00     0.039 C 
ATOM     10  G   UNL     1      12.193 -11.844  16.055  1.00  0.00     0.000 G0
ENDBRANCH   6   7
ENDBRANCH   5   6
ENDBRANCH   3   5
ENDBRANCH   1   3
BRANCH   1  11
ATOM     11  C   UNL     1       9.919 -14.473  15.230  1.00  0.00     0.087 C 
BRANCH  11  12
ATOM     12  C   UNL     1      11.011 -14.235  16.301  1.00  0.00     0.066 C 
BRANCH  12  13
ATOM     13  C   UNL     1      11.168 -12.774  16.699  1.00  0.00     0.140 C 
ATOM     14  O   UNL     1      10.393 -12.315  17.525  1.00  0.00    -0.299 OA
BRANCH  13  15
ATOM     15  C   UNL     1      12.186 -11.848  16.071  1.00  0.00     0.106 CG0
ATOM     16  G   UNL     1      11.650 -11.232  14.788  1.00  0.00     0.000 G0
ENDBRANCH  13  15
ENDBRANCH  12  13
BRANCH  12  17
ATOM     17  C   UNL     1      10.851 -15.186  17.527  1.00  0.00    -0.006 C 
ATOM     18  C   UNL     1       9.373 -15.361  17.911  1.00  0.00     0.008 C 
ATOM     19  C   UNL     1      11.508 -16.564  17.343  1.00  0.00     0.008 C 
ENDBRANCH  12  17
ENDBRANCH  11  12
ENDBRANCH   1  11
TORSDOF 1
ENDMDL
MODEL 5
REMARK VINA RESULT:    -3.431      2.367      3.528
REMARK INTER + INTRA:          -5.359
REMARK INTER:                  -5.343
REMARK INTRA:                  -0.015
REMARK UNBOUND:                -0.122
REMARK SMILES CC1=CCC[C@@H](C)C(=O)C[C@H](C(C)C)C(=O)C1
REMARK SMILES IDX 8 1 9 2 6 3 7 4 5 5 4 6 3 7 2 8 1 9 10 11 11 12 15 13 16 14
REMARK SMILES IDX 17 15 12 17 13 18 14 19
REMARK H PARENT
REMARK Flexibility Score: 70.00
ROOT
ATOM      1  C   UNL     1      -2.568 -28.130  14.705  1.00  0.00     0.136 C 
ATOM      2  O   UNL     1      -2.320 -29.124  15.373  1.00  0.00    -0.299 OA
ENDROOT
BRANCH   1   3
ATOM      3  C   UNL     1      -2.585 -28.226  13.196  1.00  0.00     0.053 C 
ATOM      4  C   UNL     1      -3.911 -28.830  12.719  1.00  0.00     0.016 C 
BRANCH   3   5
ATOM      5  C   UNL     1      -1.391 -29.050  12.675  1.00  0.00     0.015 C 
BRANCH   5   6
ATOM      6  C   UNL     1      -0.039 -28.327  12.857  1.00  0.00     0.028 C 
BRANCH   6   7
ATOM      7  C   UNL     1       0.756 -28.914  14.000  1.00  0.00    -0.028 C 
ATOM      8  C   UNL     1       1.154 -28.284  15.131  1.00  0.00    -0.070 CG0
ATOM      9  C   UNL     1       1.986 -29.076  16.111  1.00  0.00     0.039 C 
ATOM     10  G   UNL     1       0.805 -26.849  15.492  1.00  0.00     0.000 G0
ENDBRANCH   6   7
ENDBRANCH   5   6
ENDBRANCH   3   5
ENDBRANCH   1   3
BRANCH   1  11
ATOM     11  C   UNL     1      -2.924 -26.825  15.379  1.00  0.00     0.087 C 
BRANCH  11  12
ATOM     12  C   UNL     1      -1.693 -25.960  15.744  1.00  0.00     0.066 C 
BRANCH  12  13
ATOM     13  C   UNL     1      -0.506 -26.771  16.248  1.00  0.00     0.140 C 
ATOM     14  O   UNL     1      -0.615 -27.344  17.322  1.00  0.00    -0.299 OA
BRANCH  13  15
ATOM     15  C   UNL     1       0.818 -26.843  15.521  1.00  0.00     0.106 CG0
ATOM     16  G   UNL     1       1.144 -28.272  15.116  1.00  0.00     0.000 G0
ENDBRANCH  13  15
ENDBRANCH  12  13
BRANCH  12  17
ATOM     17  C   UNL     1      -1.312 -24.965  14.605  1.00  0.00    -0.006 C 
ATOM     18  C   UNL     1      -2.517 -24.664  13.698  1.00  0.00     0.008 C 
ATOM     19  C   UNL     1      -0.693 -23.648  15.102  1.00  0.00     0.008 C 
ENDBRANCH  12  17
ENDBRANCH  11  12
ENDBRANCH   1  11
TORSDOF 1
ENDMDL
MODEL 6
REMARK VINA RESULT:    -3.426      2.120      4.805
REMARK INTER + INTRA:          -5.351
REMARK INTER:                  -6.186
REMARK INTRA:                   0.835
REMARK UNBOUND:                -0.122
REMARK SMILES CC1=CCC[C@@H](C)C(=O)C[C@H](C(C)C)C(=O)C1
REMARK SMILES IDX 8 1 9 2 6 3 7 4 5 5 4 6 3 7 2 8 1 9 10 11 11 12 15 13 16 14
REMARK SMILES IDX 17 15 12 17 13 18 14 19
REMARK H PARENT
REMARK Flexibility Score: 70.00
ROOT
ATOM      1  C   UNL     1      -2.123 -25.293  14.193  1.00  0.00     0.136 C 
ATOM      2  O   UNL     1      -2.596 -24.572  13.325  1.00  0.00    -0.299 OA
ENDROOT
BRANCH   1   3
ATOM      3  C   UNL     1      -1.193 -24.705  15.230  1.00  0.00     0.053 C 
ATOM      4  C   UNL     1      -1.547 -23.236  15.487  1.00  0.00     0.016 C 
BRANCH   3   5
ATOM      5  C   UNL     1       0.281 -24.845  14.802  1.00  0.00     0.015 C 
BRANCH   5   6
ATOM      6  C   UNL     1       1.062 -25.861  15.663  1.00  0.00     0.028 C 
BRANCH   6   7
ATOM      7  C   UNL     1       0.140 -26.653  16.561  1.00  0.00    -0.028 C 
ATOM      8  C   UNL     1      -0.373 -27.885  16.329  1.00  0.00    -0.070 CG0
ATOM      9  C   UNL     1      -1.316 -28.451  17.364  1.00  0.00     0.039 C 
ATOM     10  G   UNL     1      -0.049 -28.744  15.117  1.00  0.00     0.000 G0
ENDBRANCH   6   7
ENDBRANCH   5   6
ENDBRANCH   3   5
ENDBRANCH   1   3
BRANCH   1  11
ATOM     11  C   UNL     1      -2.517 -26.750  14.275  1.00  0.00     0.087 C 
BRANCH  11  12
ATOM     12  C   UNL     1      -1.720 -27.662  13.311  1.00  0.00     0.066 C 
BRANCH  12  13
ATOM     13  C   UNL     1      -0.320 -27.999  13.808  1.00  0.00     0.140 C 
ATOM     14  O   UNL     1       0.631 -27.693  13.104  1.00  0.00    -0.299 OA
BRANCH  13  15
ATOM     15  C   UNL     1      -0.055 -28.755  15.091  1.00  0.00     0.106 CG0
ATOM     16  G   UNL     1      -0.356 -27.894  16.308  1.00  0.00     0.000 G0
ENDBRANCH  13  15
ENDBRANCH  12  13
BRANCH  12  17
ATOM     17  C   UNL     1      -2.534 -28.920  12.882  1.00  0.00    -0.006 C 
ATOM     18  C   UNL     1      -3.888 -28.986  13.606  1.00  0.00     0.008 C 
ATOM     19  C   UNL     1      -2.749 -29.042  11.364  1.00  0.00     0.008 C 
ENDBRANCH  12  17
ENDBRANCH  11  12
ENDBRANCH   1  11
TORSDOF 1
ENDMDL
MODEL 7
REMARK VINA RESULT:    -2.954      2.742      3.831
REMARK INTER + INTRA:          -4.629
REMARK INTER:                  -5.138
REMARK INTRA:                   0.509
REMARK UNBOUND:                -0.122
REMARK SMILES CC1=CCC[C@@H](C)C(=O)C[C@H](C(C)C)C(=O)C1
REMARK SMILES IDX 8 1 9 2 6 3 7 4 5 5 4 6 3 7 2 8 1 9 10 11 11 12 15 13 16 14
REMARK SMILES IDX 17 15 12 17 13 18 14 19
REMARK H PARENT
REMARK Flexibility Score: 70.00
ROOT
ATOM      1  C   UNL     1      -1.736 -27.130  13.480  1.00  0.00     0.136 C 
ATOM      2  O   UNL     1      -1.035 -27.785  12.721  1.00  0.00    -0.299 OA
ENDROOT
BRANCH   1   3
ATOM      3  C   UNL     1      -2.632 -27.838  14.471  1.00  0.00     0.053 C 
ATOM      4  C   UNL     1      -4.054 -27.955  13.909  1.00  0.00     0.016 C 
BRANCH   3   5
ATOM      5  C   UNL     1      -2.640 -27.116  15.832  1.00  0.00     0.015 C 
BRANCH   5   6
ATOM      6  C   UNL     1      -1.767 -27.824  16.891  1.00  0.00     0.028 C 
BRANCH   6   7
ATOM      7  C   UNL     1      -0.526 -28.427  16.275  1.00  0.00    -0.028 C 
ATOM      8  C   UNL     1       0.615 -27.782  15.932  1.00  0.00    -0.070 CG0
ATOM      9  C   UNL     1       1.706 -28.600  15.284  1.00  0.00     0.039 C 
ATOM     10  G   UNL     1       0.882 -26.305  16.172  1.00  0.00     0.000 G0
ENDBRANCH   6   7
ENDBRANCH   5   6
ENDBRANCH   3   5
ENDBRANCH   1   3
BRANCH   1  11
ATOM     11  C   UNL     1      -1.660 -25.621  13.480  1.00  0.00     0.087 C 
BRANCH  11  12
ATOM     12  C   UNL     1      -1.012 -25.034  14.757  1.00  0.00     0.066 C 
BRANCH  12  13
ATOM     13  C   UNL     1       0.431 -25.477  14.968  1.00  0.00     0.140 C 
ATOM     14  O   UNL     1       1.250 -25.202  14.102  1.00  0.00    -0.299 OA
BRANCH  13  15
ATOM     15  C   UNL     1       0.882 -26.297  16.156  1.00  0.00     0.106 CG0
ATOM     16  G   UNL     1       0.632 -27.779  15.925  1.00  0.00     0.000 G0
ENDBRANCH  13  15
ENDBRANCH  12  13
BRANCH  12  17
ATOM     17  C   UNL     1      -1.195 -23.489  14.856  1.00  0.00    -0.006 C 
ATOM     18  C   UNL     1      -2.271 -22.989  13.878  1.00  0.00     0.008 C 
ATOM     19  C   UNL     1      -1.505 -22.981  16.274  1.00  0.00     0.008 C 
ENDBRANCH  12  17
ENDBRANCH  11  12
ENDBRANCH   1  11
TORSDOF 1
ENDMDL
MODEL 8
REMARK VINA RESULT:    -2.946      2.558      4.982
REMARK INTER + INTRA:          -4.618
REMARK INTER:                  -5.184
REMARK INTRA:                   0.566
REMARK UNBOUND:                -0.122
REMARK SMILES CC1=CCC[C@@H](C)C(=O)C[C@H](C(C)C)C(=O)C1
REMARK SMILES IDX 8 1 9 2 6 3 7 4 5 5 4 6 3 7 2 8 1 9 10 11 11 12 15 13 16 14
REMARK SMILES IDX 17 15 12 17 13 18 14 19
REMARK H PARENT
REMARK Flexibility Score: 70.00
ROOT
ATOM      1  C   UNL     1      -1.387 -28.020  16.326  1.00  0.00     0.136 C 
ATOM      2  O   UNL     1      -1.711 -29.040  16.920  1.00  0.00    -0.299 OA
ENDROOT
BRANCH   1   3
ATOM      3  C   UNL     1       0.039 -27.851  15.851  1.00  0.00     0.053 C 
ATOM      4  C   UNL     1       0.848 -29.120  16.144  1.00  0.00     0.016 C 
BRANCH   3   5
ATOM      5  C   UNL     1       0.701 -26.620  16.499  1.00  0.00     0.015 C 
BRANCH   5   6
ATOM      6  C   UNL     1       1.100 -25.542  15.468  1.00  0.00     0.028 C 
BRANCH   6   7
ATOM      7  C   UNL     1       0.031 -24.483  15.329  1.00  0.00    -0.028 C 
ATOM      8  C   UNL     1      -0.989 -24.459  14.438  1.00  0.00    -0.070 CG0
ATOM      9  C   UNL     1      -1.907 -23.261  14.465  1.00  0.00     0.039 C 
ATOM     10  G   UNL     1      -1.287 -25.560  13.431  1.00  0.00     0.000 G0
ENDBRANCH   6   7
ENDBRANCH   5   6
ENDBRANCH   3   5
ENDBRANCH   1   3
BRANCH   1  11
ATOM     11  C   UNL     1      -2.417 -26.962  16.004  1.00  0.00     0.087 C 
BRANCH  11  12
ATOM     12  C   UNL     1      -3.091 -27.154  14.624  1.00  0.00     0.066 C 
BRANCH  12  13
ATOM     13  C   UNL     1      -2.702 -26.094  13.602  1.00  0.00     0.140 C 
ATOM     14  O   UNL     1      -3.566 -25.685  12.839  1.00  0.00    -0.299 OA
BRANCH  13  15
ATOM     15  C   UNL     1      -1.290 -25.577  13.438  1.00  0.00     0.106 CG0
ATOM     16  G   UNL     1      -1.001 -24.452  14.420  1.00  0.00     0.000 G0
ENDBRANCH  13  15
ENDBRANCH  12  13
BRANCH  12  17
ATOM     17  C   UNL     1      -2.927 -28.608  14.085  1.00  0.00    -0.006 C 
ATOM     18  C   UNL     1      -4.221 -29.110  13.423  1.00  0.00     0.008 C 
ATOM     19  C   UNL     1      -1.744 -28.792  13.120  1.00  0.00     0.008 C 
ENDBRANCH  12  17
ENDBRANCH  11  12
ENDBRANCH   1  11
TORSDOF 1
ENDMDL
MODEL 9
REMARK VINA RESULT:    -2.909      2.949      4.614
REMARK INTER + INTRA:          -4.561
REMARK INTER:                  -4.888
REMARK INTRA:                   0.326
REMARK UNBOUND:                -0.122
REMARK SMILES CC1=CCC[C@@H](C)C(=O)C[C@H](C(C)C)C(=O)C1
REMARK SMILES IDX 8 1 9 2 6 3 7 4 5 5 4 6 3 7 2 8 1 9 10 11 11 12 15 13 16 14
REMARK SMILES IDX 17 15 12 17 13 18 14 19
REMARK H PARENT
REMARK Flexibility Score: 70.00
ROOT
ATOM      1  C   UNL     1       0.095 -25.118  15.556  1.00  0.00     0.136 C 
ATOM      2  O   UNL     1       0.409 -24.775  16.687  1.00  0.00    -0.299 OA
ENDROOT
BRANCH   1   3
ATOM      3  C   UNL     1      -0.578 -24.127  14.633  1.00  0.00     0.053 C 
ATOM      4  C   UNL     1      -1.601 -23.290  15.411  1.00  0.00     0.016 C 
BRANCH   3   5
ATOM      5  C   UNL     1      -1.248 -24.839  13.442  1.00  0.00     0.015 C 
BRANCH   5   6
ATOM      6  C   UNL     1      -2.716 -25.229  13.724  1.00  0.00     0.028 C 
BRANCH   6   7
ATOM      7  C   UNL     1      -2.890 -26.728  13.786  1.00  0.00    -0.028 C 
ATOM      8  C   UNL     1      -2.668 -27.537  14.849  1.00  0.00    -0.070 CG0
ATOM      9  C   UNL     1      -2.870 -29.020  14.648  1.00  0.00     0.039 C 
ATOM     10  G   UNL     1      -2.254 -27.057  16.232  1.00  0.00     0.000 G0
ENDBRANCH   6   7
ENDBRANCH   5   6
ENDBRANCH   3   5
ENDBRANCH   1   3
BRANCH   1  11
ATOM     11  C   UNL     1       0.438 -26.501  15.052  1.00  0.00     0.087 C 
BRANCH  11  12
ATOM     12  C   UNL     1       0.392 -27.589  16.152  1.00  0.00     0.066 C 
BRANCH  12  13
ATOM     13  C   UNL     1      -1.003 -27.829  16.715  1.00  0.00     0.140 C 
ATOM     14  O   UNL     1      -1.146 -28.718  17.542  1.00  0.00    -0.299 OA
BRANCH  13  15
ATOM     15  C   UNL     1      -2.227 -27.072  16.250  1.00  0.00     0.106 CG0
ATOM     16  G   UNL     1      -2.663 -27.531  14.867  1.00  0.00     0.000 G0
ENDBRANCH  13  15
ENDBRANCH  12  13
BRANCH  12  17
ATOM     17  C   UNL     1       1.105 -28.904  15.711  1.00  0.00    -0.006 C 
ATOM     18  C   UNL     1       1.116 -29.050  14.181  1.00  0.00     0.008 C 
ATOM     19  C   UNL     1       2.534 -29.057  16.259  1.00  0.00     0.008 C 
ENDBRANCH  12  17
ENDBRANCH  11  12
ENDBRANCH   1  11
TORSDOF 1
ENDMDL
