MODEL 1
REMARK VINA RESULT:    -3.817      0.000      0.000
REMARK INTER + INTRA:          -3.817
REMARK INTER:                  -3.817
REMARK INTRA:                   0.000
REMARK UNBOUND:                 0.000
REMARK SMILES C=C1CCC[C@@]2(C)CC(=O)C(=C(C)C)C[C@H]12
REMARK SMILES IDX 13 1 12 2 11 3 15 4 16 5 2 6 1 7 3 8 4 9 5 10 6 11 8 12 9 13
REMARK SMILES IDX 10 14 7 15 14 16
REMARK H PARENT
REMARK Flexibility Score: inf
ROOT
ATOM      1  C   UNL     1      16.244 -11.847  12.618  1.00  0.00     0.039 C 
ATOM      2  C   UNL     1      15.004 -11.016  12.357  1.00  0.00    -0.070 C 
ATOM      3  C   UNL     1      15.089  -9.655  12.204  1.00  0.00    -0.006 C 
ATOM      4  C   UNL     1      16.454  -8.983  12.328  1.00  0.00     0.047 C 
ATOM      5  C   UNL     1      16.494  -7.495  11.908  1.00  0.00     0.025 C 
ATOM      6  C   UNL     1      17.822  -6.790  12.205  1.00  0.00    -0.073 C 
ATOM      7  C   UNL     1      18.942  -7.437  12.586  1.00  0.00     0.008 C 
ATOM      8  C   UNL     1      17.905  -5.318  11.875  1.00  0.00     0.031 C 
ATOM      9  C   UNL     1      16.723  -4.555  12.481  1.00  0.00     0.005 C 
ATOM     10  C   UNL     1      15.388  -5.206  12.094  1.00  0.00     0.008 C 
ATOM     11  C   UNL     1      15.298  -6.703  12.510  1.00  0.00    -0.018 C 
ATOM     12  C   UNL     1      13.991  -7.280  11.918  1.00  0.00     0.088 C 
ATOM     13  C   UNL     1      13.883  -8.777  12.023  1.00  0.00     0.159 C 
ATOM     14  O   UNL     1      12.731  -9.267  11.877  1.00  0.00    -0.295 OA
ATOM     15  C   UNL     1      15.257  -6.804  14.061  1.00  0.00     0.012 C 
ATOM     16  C   UNL     1      13.693 -11.766  12.295  1.00  0.00     0.039 C 
ENDROOT
TORSDOF 0
ENDMDL
MODEL 2
REMARK VINA RESULT:    -3.218      1.130      1.397
REMARK INTER + INTRA:          -3.218
REMARK INTER:                  -3.218
REMARK INTRA:                   0.000
REMARK UNBOUND:                 0.000
REMARK SMILES C=C1CCC[C@@]2(C)CC(=O)C(=C(C)C)C[C@H]12
REMARK SMILES IDX 13 1 12 2 11 3 15 4 16 5 2 6 1 7 3 8 4 9 5 10 6 11 8 12 9 13
REMARK SMILES IDX 10 14 7 15 14 16
REMARK H PARENT
REMARK Flexibility Score: inf
ROOT
ATOM      1  C   UNL     1      17.720 -10.630  13.417  1.00  0.00     0.039 C 
ATOM      2  C   UNL     1      16.301 -10.460  12.915  1.00  0.00    -0.070 C 
ATOM      3  C   UNL     1      15.812  -9.219  12.592  1.00  0.00    -0.006 C 
ATOM      4  C   UNL     1      16.716  -8.002  12.772  1.00  0.00     0.047 C 
ATOM      5  C   UNL     1      16.175  -6.687  12.164  1.00  0.00     0.025 C 
ATOM      6  C   UNL     1      17.005  -5.444  12.506  1.00  0.00    -0.073 C 
ATOM      7  C   UNL     1      18.219  -5.495  13.089  1.00  0.00     0.008 C 
ATOM      8  C   UNL     1      16.494  -4.117  11.994  1.00  0.00     0.031 C 
ATOM      9  C   UNL     1      15.021  -3.920  12.362  1.00  0.00     0.005 C 
ATOM     10  C   UNL     1      14.176  -5.124  11.923  1.00  0.00     0.008 C 
ATOM     11  C   UNL     1      14.677  -6.470  12.523  1.00  0.00    -0.018 C 
ATOM     12  C   UNL     1      13.857  -7.610  11.875  1.00  0.00     0.088 C 
ATOM     13  C   UNL     1      14.390  -8.986  12.167  1.00  0.00     0.159 C 
ATOM     14  O   UNL     1      13.600  -9.948  11.963  1.00  0.00    -0.295 OA
ATOM     15  C   UNL     1      14.443  -6.467  14.060  1.00  0.00     0.012 C 
ATOM     16  C   UNL     1      15.468 -11.719  12.812  1.00  0.00     0.039 C 
ENDROOT
TORSDOF 0
ENDMDL
MODEL 3
REMARK VINA RESULT:    -2.911      1.906      3.223
REMARK INTER + INTRA:          -2.911
REMARK INTER:                  -2.911
REMARK INTRA:                   0.000
REMARK UNBOUND:                 0.000
REMARK SMILES C=C1CCC[C@@]2(C)CC(=O)C(=C(C)C)C[C@H]12
REMARK SMILES IDX 13 1 12 2 11 3 15 4 16 5 2 6 1 7 3 8 4 9 5 10 6 11 8 12 9 13
REMARK SMILES IDX 10 14 7 15 14 16
REMARK H PARENT
REMARK Flexibility Score: inf
ROOT
ATOM      1  C   UNL     1      12.605 -10.582  11.879  1.00  0.00     0.039 C 
ATOM      2  C   UNL     1      13.993 -11.082  12.228  1.00  0.00    -0.070 C 
ATOM      3  C   UNL     1      14.925 -10.242  12.782  1.00  0.00    -0.006 C 
ATOM      4  C   UNL     1      14.551  -8.781  13.018  1.00  0.00     0.047 C 
ATOM      5  C   UNL     1      15.566  -7.970  13.858  1.00  0.00     0.025 C 
ATOM      6  C   UNL     1      15.267  -6.469  13.935  1.00  0.00    -0.073 C 
ATOM      7  C   UNL     1      14.113  -5.915  13.512  1.00  0.00     0.008 C 
ATOM      8  C   UNL     1      16.256  -5.611  14.690  1.00  0.00     0.031 C 
ATOM      9  C   UNL     1      17.685  -5.869  14.203  1.00  0.00     0.005 C 
ATOM     10  C   UNL     1      18.016  -7.368  14.226  1.00  0.00     0.008 C 
ATOM     11  C   UNL     1      17.026  -8.221  13.382  1.00  0.00    -0.018 C 
ATOM     12  C   UNL     1      17.361  -9.712  13.624  1.00  0.00     0.088 C 
ATOM     13  C   UNL     1      16.337 -10.665  13.073  1.00  0.00     0.159 C 
ATOM     14  O   UNL     1      16.704 -11.864  12.936  1.00  0.00    -0.295 OA
ATOM     15  C   UNL     1      17.210  -7.884  11.875  1.00  0.00     0.012 C 
ATOM     16  C   UNL     1      14.283 -12.534  11.917  1.00  0.00     0.039 C 
ENDROOT
TORSDOF 0
ENDMDL
MODEL 4
REMARK VINA RESULT:    -2.879      3.065      5.147
REMARK INTER + INTRA:          -2.879
REMARK INTER:                  -2.879
REMARK INTRA:                   0.000
REMARK UNBOUND:                 0.000
REMARK SMILES C=C1CCC[C@@]2(C)CC(=O)C(=C(C)C)C[C@H]12
REMARK SMILES IDX 13 1 12 2 11 3 15 4 16 5 2 6 1 7 3 8 4 9 5 10 6 11 8 12 9 13
REMARK SMILES IDX 10 14 7 15 14 16
REMARK H PARENT
REMARK Flexibility Score: inf
ROOT
ATOM      1  C   UNL     1      17.083  -5.800  18.775  1.00  0.00     0.039 C 
ATOM      2  C   UNL     1      16.051  -5.342  17.764  1.00  0.00    -0.070 C 
ATOM      3  C   UNL     1      16.024  -5.870  16.498  1.00  0.00    -0.006 C 
ATOM      4  C   UNL     1      17.072  -6.911  16.111  1.00  0.00     0.047 C 
ATOM      5  C   UNL     1      16.825  -7.621  14.760  1.00  0.00     0.025 C 
ATOM      6  C   UNL     1      17.972  -8.529  14.303  1.00  0.00    -0.073 C 
ATOM      7  C   UNL     1      19.011  -8.872  15.092  1.00  0.00     0.008 C 
ATOM      8  C   UNL     1      17.819  -9.204  12.960  1.00  0.00     0.031 C 
ATOM      9  C   UNL     1      17.451  -8.187  11.877  1.00  0.00     0.005 C 
ATOM     10  C   UNL     1      16.235  -7.349  12.295  1.00  0.00     0.008 C 
ATOM     11  C   UNL     1      16.445  -6.604  13.645  1.00  0.00    -0.018 C 
ATOM     12  C   UNL     1      15.101  -5.943  14.034  1.00  0.00     0.088 C 
ATOM     13  C   UNL     1      15.074  -5.395  15.434  1.00  0.00     0.159 C 
ATOM     14  O   UNL     1      14.162  -4.565  15.694  1.00  0.00    -0.295 OA
ATOM     15  C   UNL     1      17.532  -5.508  13.465  1.00  0.00     0.012 C 
ATOM     16  C   UNL     1      15.083  -4.276  18.226  1.00  0.00     0.039 C 
ENDROOT
TORSDOF 0
ENDMDL
MODEL 5
REMARK VINA RESULT:    -2.118      1.979      3.246
REMARK INTER + INTRA:          -2.118
REMARK INTER:                  -2.118
REMARK INTRA:                   0.000
REMARK UNBOUND:                 0.000
REMARK SMILES C=C1CCC[C@@]2(C)CC(=O)C(=C(C)C)C[C@H]12
REMARK SMILES IDX 13 1 12 2 11 3 15 4 16 5 2 6 1 7 3 8 4 9 5 10 6 11 8 12 9 13
REMARK SMILES IDX 10 14 7 15 14 16
REMARK H PARENT
REMARK Flexibility Score: inf
ROOT
ATOM      1  C   UNL     1      14.599 -11.588  11.875  1.00  0.00     0.039 C 
ATOM      2  C   UNL     1      15.859 -11.385  12.691  1.00  0.00    -0.070 C 
ATOM      3  C   UNL     1      16.254 -10.128  13.076  1.00  0.00    -0.006 C 
ATOM      4  C   UNL     1      15.414  -8.929  12.644  1.00  0.00     0.047 C 
ATOM      5  C   UNL     1      15.791  -7.587  13.315  1.00  0.00     0.025 C 
ATOM      6  C   UNL     1      15.063  -6.366  12.742  1.00  0.00    -0.073 C 
ATOM      7  C   UNL     1      14.020  -6.452  11.891  1.00  0.00     0.008 C 
ATOM      8  C   UNL     1      15.433  -5.017  13.312  1.00  0.00     0.031 C 
ATOM      9  C   UNL     1      16.951  -4.816  13.296  1.00  0.00     0.005 C 
ATOM     10  C   UNL     1      17.672  -5.994  13.965  1.00  0.00     0.008 C 
ATOM     11  C   UNL     1      17.331  -7.365  13.312  1.00  0.00    -0.018 C 
ATOM     12  C   UNL     1      17.979  -8.473  14.176  1.00  0.00     0.088 C 
ATOM     13  C   UNL     1      17.534  -9.864  13.817  1.00  0.00     0.159 C 
ATOM     14  O   UNL     1      18.256 -10.809  14.235  1.00  0.00    -0.295 OA
ATOM     15  C   UNL     1      17.922  -7.412  11.875  1.00  0.00     0.012 C 
ATOM     16  C   UNL     1      16.648 -12.630  13.033  1.00  0.00     0.039 C 
ENDROOT
TORSDOF 0
ENDMDL
MODEL 6
REMARK VINA RESULT:    -1.628      1.332      1.799
REMARK INTER + INTRA:          -1.628
REMARK INTER:                  -1.628
REMARK INTRA:                   0.000
REMARK UNBOUND:                 0.000
REMARK SMILES C=C1CCC[C@@]2(C)CC(=O)C(=C(C)C)C[C@H]12
REMARK SMILES IDX 13 1 12 2 11 3 15 4 16 5 2 6 1 7 3 8 4 9 5 10 6 11 8 12 9 13
REMARK SMILES IDX 10 14 7 15 14 16
REMARK H PARENT
REMARK Flexibility Score: inf
ROOT
ATOM      1  C   UNL     1      14.786 -10.714  12.360  1.00  0.00     0.039 C 
ATOM      2  C   UNL     1      14.083  -9.407  12.670  1.00  0.00    -0.070 C 
ATOM      3  C   UNL     1      14.771  -8.220  12.665  1.00  0.00    -0.006 C 
ATOM      4  C   UNL     1      16.268  -8.237  12.368  1.00  0.00     0.047 C 
ATOM      5  C   UNL     1      16.910  -6.847  12.148  1.00  0.00     0.025 C 
ATOM      6  C   UNL     1      18.438  -6.868  12.029  1.00  0.00    -0.073 C 
ATOM      7  C   UNL     1      19.161  -7.999  11.897  1.00  0.00     0.008 C 
ATOM      8  C   UNL     1      19.132  -5.535  11.876  1.00  0.00     0.031 C 
ATOM      9  C   UNL     1      18.673  -4.553  12.956  1.00  0.00     0.005 C 
ATOM     10  C   UNL     1      17.141  -4.456  13.001  1.00  0.00     0.008 C 
ATOM     11  C   UNL     1      16.453  -5.832  13.235  1.00  0.00    -0.018 C 
ATOM     12  C   UNL     1      14.926  -5.627  13.089  1.00  0.00     0.088 C 
ATOM     13  C   UNL     1      14.140  -6.908  13.042  1.00  0.00     0.159 C 
ATOM     14  O   UNL     1      12.903  -6.816  13.263  1.00  0.00    -0.295 OA
ATOM     15  C   UNL     1      16.777  -6.333  14.670  1.00  0.00     0.012 C 
ATOM     16  C   UNL     1      12.609  -9.497  12.995  1.00  0.00     0.039 C 
ENDROOT
TORSDOF 0
ENDMDL
MODEL 7
REMARK VINA RESULT:    -1.412      2.649      4.222
REMARK INTER + INTRA:          -1.412
REMARK INTER:                  -1.412
REMARK INTRA:                   0.000
REMARK UNBOUND:                 0.000
REMARK SMILES C=C1CCC[C@@]2(C)CC(=O)C(=C(C)C)C[C@H]12
REMARK SMILES IDX 13 1 12 2 11 3 15 4 16 5 2 6 1 7 3 8 4 9 5 10 6 11 8 12 9 13
REMARK SMILES IDX 10 14 7 15 14 16
REMARK H PARENT
REMARK Flexibility Score: inf
ROOT
ATOM      1  C   UNL     1      18.004  -8.345  16.318  1.00  0.00     0.039 C 
ATOM      2  C   UNL     1      18.050  -8.266  14.805  1.00  0.00    -0.070 C 
ATOM      3  C   UNL     1      17.191  -7.447  14.117  1.00  0.00    -0.006 C 
ATOM      4  C   UNL     1      16.164  -6.632  14.899  1.00  0.00     0.047 C 
ATOM      5  C   UNL     1      15.405  -5.566  14.075  1.00  0.00     0.025 C 
ATOM      6  C   UNL     1      14.258  -4.882  14.828  1.00  0.00    -0.073 C 
ATOM      7  C   UNL     1      14.054  -5.014  16.154  1.00  0.00     0.008 C 
ATOM      8  C   UNL     1      13.437  -3.875  14.058  1.00  0.00     0.031 C 
ATOM      9  C   UNL     1      12.955  -4.465  12.729  1.00  0.00     0.005 C 
ATOM     10  C   UNL     1      14.125  -5.056  11.930  1.00  0.00     0.008 C 
ATOM     11  C   UNL     1      14.910  -6.145  12.718  1.00  0.00    -0.018 C 
ATOM     12  C   UNL     1      16.151  -6.532  11.879  1.00  0.00     0.088 C 
ATOM     13  C   UNL     1      17.141  -7.391  12.616  1.00  0.00     0.159 C 
ATOM     14  O   UNL     1      17.982  -8.010  11.909  1.00  0.00    -0.295 OA
ATOM     15  C   UNL     1      14.004  -7.392  12.915  1.00  0.00     0.012 C 
ATOM     16  C   UNL     1      19.071  -9.143  14.116  1.00  0.00     0.039 C 
ENDROOT
TORSDOF 0
ENDMDL
