MODEL 1
REMARK VINA RESULT:    -3.676      0.000      0.000
REMARK INTER + INTRA:          -4.477
REMARK INTER:                  -4.428
REMARK INTRA:                  -0.049
REMARK UNBOUND:                -0.049
REMARK SMILES CC[C@H](C)[C@H]([NH3+])C(=O)[O-]
REMARK SMILES IDX 3 1 4 2 5 3 6 4 7 8 8 9 9 10 2 11 1 12
REMARK H PARENT 6 5 6 6 6 7
REMARK Flexibility Score: inf
ROOT
ATOM      1  C   UNL     1      36.155 -11.910  26.025  1.00  0.00     0.050 C 
ATOM      2  C   UNL     1      37.563 -12.436  26.366  1.00  0.00     0.014 C 
ENDROOT
BRANCH   1   3
ATOM      3  C   UNL     1      35.132 -12.313  27.137  1.00  0.00     0.230 C 
BRANCH   3   4
ATOM      4  N   UNL     1      33.856 -11.593  27.004  1.00  0.00    -0.350 N 
ATOM      5  H   UNL     1      34.027 -10.571  26.878  1.00  0.00     0.345 HD
ATOM      6  H   UNL     1      33.346 -11.926  26.155  1.00  0.00     0.345 HD
ATOM      7  H   UNL     1      33.254 -11.753  27.844  1.00  0.00     0.345 HD
ENDBRANCH   3   4
BRANCH   3   8
ATOM      8  C   UNL     1      35.699 -12.067  28.514  1.00  0.00     0.099 C 
ATOM      9  O   UNL     1      36.013 -13.036  29.257  1.00  0.00    -0.544 OA
ATOM     10  O   UNL     1      35.876 -10.767  28.971  1.00  0.00    -0.544 OA
ENDBRANCH   3   8
ENDBRANCH   1   3
BRANCH   1  11
ATOM     11  C   UNL     1      35.738 -12.433  24.618  1.00  0.00     0.006 C 
ATOM     12  C   UNL     1      35.391 -11.302  23.648  1.00  0.00     0.004 C 
ENDBRANCH   1  11
TORSDOF 4
ENDMDL
MODEL 2
REMARK VINA RESULT:    -3.658     10.007     10.788
REMARK INTER + INTRA:          -4.455
REMARK INTER:                  -4.331
REMARK INTRA:                  -0.124
REMARK UNBOUND:                -0.049
REMARK SMILES CC[C@H](C)[C@H]([NH3+])C(=O)[O-]
REMARK SMILES IDX 3 1 4 2 5 3 6 4 7 8 8 9 9 10 2 11 1 12
REMARK H PARENT 6 5 6 6 6 7
REMARK Flexibility Score: inf
ROOT
ATOM      1  C   UNL     1      35.372  -2.583  24.507  1.00  0.00     0.050 C 
ATOM      2  C   UNL     1      34.040  -3.261  24.126  1.00  0.00     0.014 C 
ENDROOT
BRANCH   1   3
ATOM      3  C   UNL     1      35.160  -1.053  24.752  1.00  0.00     0.230 C 
BRANCH   3   4
ATOM      4  N   UNL     1      35.547  -0.246  23.586  1.00  0.00    -0.350 N 
ATOM      5  H   UNL     1      35.387  -0.782  22.704  1.00  0.00     0.345 HD
ATOM      6  H   UNL     1      34.955   0.614  23.534  1.00  0.00     0.345 HD
ATOM      7  H   UNL     1      36.552   0.040  23.653  1.00  0.00     0.345 HD
ENDBRANCH   3   4
BRANCH   3   8
ATOM      8  C   UNL     1      35.933  -0.582  25.960  1.00  0.00     0.099 C 
ATOM      9  O   UNL     1      35.379  -0.528  27.091  1.00  0.00    -0.544 OA
ATOM     10  O   UNL     1      37.263  -0.203  25.830  1.00  0.00    -0.544 OA
ENDBRANCH   3   8
ENDBRANCH   1   3
BRANCH   1  11
ATOM     11  C   UNL     1      36.428  -2.866  23.399  1.00  0.00     0.006 C 
ATOM     12  C   UNL     1      37.622  -3.672  23.915  1.00  0.00     0.004 C 
ENDBRANCH   1  11
TORSDOF 4
ENDMDL
MODEL 3
REMARK VINA RESULT:    -3.648      9.878     10.744
REMARK INTER + INTRA:          -4.444
REMARK INTER:                  -4.397
REMARK INTRA:                  -0.047
REMARK UNBOUND:                -0.049
REMARK SMILES CC[C@H](C)[C@H]([NH3+])C(=O)[O-]
REMARK SMILES IDX 3 1 4 2 5 3 6 4 7 8 8 9 9 10 2 11 1 12
REMARK H PARENT 6 5 6 6 6 7
REMARK Flexibility Score: inf
ROOT
ATOM      1  C   UNL     1      35.825  -2.412  24.699  1.00  0.00     0.050 C 
ATOM      2  C   UNL     1      36.613  -3.297  23.713  1.00  0.00     0.014 C 
ENDROOT
BRANCH   1   3
ATOM      3  C   UNL     1      34.297  -2.744  24.635  1.00  0.00     0.230 C 
BRANCH   3   4
ATOM      4  N   UNL     1      33.860  -3.081  23.273  1.00  0.00    -0.350 N 
ATOM      5  H   UNL     1      33.858  -2.228  22.670  1.00  0.00     0.345 HD
ATOM      6  H   UNL     1      34.528  -3.760  22.841  1.00  0.00     0.345 HD
ATOM      7  H   UNL     1      32.906  -3.510  23.287  1.00  0.00     0.345 HD
ENDBRANCH   3   4
BRANCH   3   8
ATOM      8  C   UNL     1      33.468  -1.593  25.152  1.00  0.00     0.099 C 
ATOM      9  O   UNL     1      33.439  -1.331  26.385  1.00  0.00    -0.544 OA
ATOM     10  O   UNL     1      32.728  -0.818  24.269  1.00  0.00    -0.544 OA
ENDBRANCH   3   8
ENDBRANCH   1   3
BRANCH   1  11
ATOM     11  C   UNL     1      36.120  -0.914  24.396  1.00  0.00     0.006 C 
ATOM     12  C   UNL     1      36.857  -0.215  25.539  1.00  0.00     0.004 C 
ENDBRANCH   1  11
TORSDOF 4
ENDMDL
MODEL 4
REMARK VINA RESULT:    -3.633     10.193     11.040
REMARK INTER + INTRA:          -4.425
REMARK INTER:                  -4.321
REMARK INTRA:                  -0.104
REMARK UNBOUND:                -0.049
REMARK SMILES CC[C@H](C)[C@H]([NH3+])C(=O)[O-]
REMARK SMILES IDX 3 1 4 2 5 3 6 4 7 8 8 9 9 10 2 11 1 12
REMARK H PARENT 6 5 6 6 6 7
REMARK Flexibility Score: inf
ROOT
ATOM      1  C   UNL     1      35.234  -0.875  24.989  1.00  0.00     0.050 C 
ATOM      2  C   UNL     1      35.434  -0.697  26.508  1.00  0.00     0.014 C 
ENDROOT
BRANCH   1   3
ATOM      3  C   UNL     1      35.863  -2.224  24.506  1.00  0.00     0.230 C 
BRANCH   3   4
ATOM      4  N   UNL     1      36.588  -2.074  23.237  1.00  0.00    -0.350 N 
ATOM      5  H   UNL     1      36.156  -2.671  22.497  1.00  0.00     0.345 HD
ATOM      6  H   UNL     1      36.527  -1.084  22.906  1.00  0.00     0.345 HD
ATOM      7  H   UNL     1      37.596  -2.327  23.356  1.00  0.00     0.345 HD
ENDBRANCH   3   4
BRANCH   3   8
ATOM      8  C   UNL     1      34.807  -3.292  24.351  1.00  0.00     0.099 C 
ATOM      9  O   UNL     1      33.585  -2.999  24.442  1.00  0.00    -0.544 OA
ATOM     10  O   UNL     1      35.180  -4.608  24.110  1.00  0.00    -0.544 OA
ENDBRANCH   3   8
ENDBRANCH   1   3
BRANCH   1  11
ATOM     11  C   UNL     1      35.828   0.357  24.245  1.00  0.00     0.006 C 
ATOM     12  C   UNL     1      34.749   1.275  23.670  1.00  0.00     0.004 C 
ENDBRANCH   1  11
TORSDOF 4
ENDMDL
MODEL 5
REMARK VINA RESULT:    -3.591     10.031     10.871
REMARK INTER + INTRA:          -4.375
REMARK INTER:                  -4.233
REMARK INTRA:                  -0.141
REMARK UNBOUND:                -0.049
REMARK SMILES CC[C@H](C)[C@H]([NH3+])C(=O)[O-]
REMARK SMILES IDX 3 1 4 2 5 3 6 4 7 8 8 9 9 10 2 11 1 12
REMARK H PARENT 6 5 6 6 6 7
REMARK Flexibility Score: inf
ROOT
ATOM      1  C   UNL     1      34.573  -1.290  25.351  1.00  0.00     0.050 C 
ATOM      2  C   UNL     1      34.981  -0.609  26.673  1.00  0.00     0.014 C 
ENDROOT
BRANCH   1   3
ATOM      3  C   UNL     1      35.822  -1.919  24.648  1.00  0.00     0.230 C 
BRANCH   3   4
ATOM      4  N   UNL     1      36.325  -1.076  23.554  1.00  0.00    -0.350 N 
ATOM      5  H   UNL     1      37.263  -0.686  23.797  1.00  0.00     0.345 HD
ATOM      6  H   UNL     1      36.447  -1.650  22.689  1.00  0.00     0.345 HD
ATOM      7  H   UNL     1      35.657  -0.297  23.351  1.00  0.00     0.345 HD
ENDBRANCH   3   4
BRANCH   3   8
ATOM      8  C   UNL     1      35.509  -3.295  24.111  1.00  0.00     0.099 C 
ATOM      9  O   UNL     1      36.431  -4.032  23.670  1.00  0.00    -0.544 OA
ATOM     10  O   UNL     1      34.198  -3.754  24.098  1.00  0.00    -0.544 OA
ENDBRANCH   3   8
ENDBRANCH   1   3
BRANCH   1  11
ATOM     11  C   UNL     1      33.840  -0.257  24.445  1.00  0.00     0.006 C 
ATOM     12  C   UNL     1      32.420  -0.695  24.082  1.00  0.00     0.004 C 
ENDBRANCH   1  11
TORSDOF 4
ENDMDL
MODEL 6
REMARK VINA RESULT:    -3.588      3.046      4.205
REMARK INTER + INTRA:          -4.371
REMARK INTER:                  -4.291
REMARK INTRA:                  -0.080
REMARK UNBOUND:                -0.049
REMARK SMILES CC[C@H](C)[C@H]([NH3+])C(=O)[O-]
REMARK SMILES IDX 3 1 4 2 5 3 6 4 7 8 8 9 9 10 2 11 1 12
REMARK H PARENT 6 5 6 6 6 7
REMARK Flexibility Score: inf
ROOT
ATOM      1  C   UNL     1      35.877 -11.968  26.454  1.00  0.00     0.050 C 
ATOM      2  C   UNL     1      34.608 -11.986  27.329  1.00  0.00     0.014 C 
ENDROOT
BRANCH   1   3
ATOM      3  C   UNL     1      35.571 -12.530  25.027  1.00  0.00     0.230 C 
BRANCH   3   4
ATOM      4  N   UNL     1      36.223 -13.827  24.791  1.00  0.00    -0.350 N 
ATOM      5  H   UNL     1      36.276 -14.026  23.767  1.00  0.00     0.345 HD
ATOM      6  H   UNL     1      37.205 -13.803  25.149  1.00  0.00     0.345 HD
ATOM      7  H   UNL     1      35.704 -14.594  25.277  1.00  0.00     0.345 HD
ENDBRANCH   3   4
BRANCH   3   8
ATOM      8  C   UNL     1      35.998 -11.557  23.955  1.00  0.00     0.099 C 
ATOM      9  O   UNL     1      37.193 -11.160  23.893  1.00  0.00    -0.544 OA
ATOM     10  O   UNL     1      35.072 -11.091  23.030  1.00  0.00    -0.544 OA
ENDBRANCH   3   8
ENDBRANCH   1   3
BRANCH   1  11
ATOM     11  C   UNL     1      37.008 -12.760  27.174  1.00  0.00     0.006 C 
ATOM     12  C   UNL     1      36.788 -12.862  28.685  1.00  0.00     0.004 C 
ENDBRANCH   1  11
TORSDOF 4
ENDMDL
MODEL 7
REMARK VINA RESULT:    -3.573      9.356     10.299
REMARK INTER + INTRA:          -4.353
REMARK INTER:                  -4.265
REMARK INTRA:                  -0.088
REMARK UNBOUND:                -0.049
REMARK SMILES CC[C@H](C)[C@H]([NH3+])C(=O)[O-]
REMARK SMILES IDX 3 1 4 2 5 3 6 4 7 8 8 9 9 10 2 11 1 12
REMARK H PARENT 6 5 6 6 6 7
REMARK Flexibility Score: inf
ROOT
ATOM      1  C   UNL     1      36.006  -2.741  23.752  1.00  0.00     0.050 C 
ATOM      2  C   UNL     1      37.275  -3.613  23.685  1.00  0.00     0.014 C 
ENDROOT
BRANCH   1   3
ATOM      3  C   UNL     1      36.200  -1.563  24.763  1.00  0.00     0.230 C 
BRANCH   3   4
ATOM      4  N   UNL     1      36.768  -2.018  26.041  1.00  0.00    -0.350 N 
ATOM      5  H   UNL     1      37.478  -2.766  25.878  1.00  0.00     0.345 HD
ATOM      6  H   UNL     1      37.260  -1.226  26.515  1.00  0.00     0.345 HD
ATOM      7  H   UNL     1      36.014  -2.374  26.673  1.00  0.00     0.345 HD
ENDBRANCH   3   4
BRANCH   3   8
ATOM      8  C   UNL     1      34.896  -0.849  25.026  1.00  0.00     0.099 C 
ATOM      9  O   UNL     1      34.385  -0.111  24.142  1.00  0.00    -0.544 OA
ATOM     10  O   UNL     1      34.254  -1.002  26.248  1.00  0.00    -0.544 OA
ENDBRANCH   3   8
ENDBRANCH   1   3
BRANCH   1  11
ATOM     11  C   UNL     1      34.784  -3.637  24.112  1.00  0.00     0.006 C 
ATOM     12  C   UNL     1      35.126  -5.128  24.109  1.00  0.00     0.004 C 
ENDBRANCH   1  11
TORSDOF 4
ENDMDL
MODEL 8
REMARK VINA RESULT:    -3.524      9.626     10.517
REMARK INTER + INTRA:          -4.294
REMARK INTER:                  -4.220
REMARK INTRA:                  -0.075
REMARK UNBOUND:                -0.049
REMARK SMILES CC[C@H](C)[C@H]([NH3+])C(=O)[O-]
REMARK SMILES IDX 3 1 4 2 5 3 6 4 7 8 8 9 9 10 2 11 1 12
REMARK H PARENT 6 5 6 6 6 7
REMARK Flexibility Score: inf
ROOT
ATOM      1  C   UNL     1      34.893  -2.715  24.755  1.00  0.00     0.050 C 
ATOM      2  C   UNL     1      34.633  -4.077  24.081  1.00  0.00     0.014 C 
ENDROOT
BRANCH   1   3
ATOM      3  C   UNL     1      33.733  -1.714  24.438  1.00  0.00     0.230 C 
BRANCH   3   4
ATOM      4  N   UNL     1      34.236  -0.421  23.950  1.00  0.00    -0.350 N 
ATOM      5  H   UNL     1      33.726  -0.135  23.085  1.00  0.00     0.345 HD
ATOM      6  H   UNL     1      34.063   0.322  24.666  1.00  0.00     0.345 HD
ATOM      7  H   UNL     1      35.263  -0.473  23.759  1.00  0.00     0.345 HD
ENDBRANCH   3   4
BRANCH   3   8
ATOM      8  C   UNL     1      32.865  -1.484  25.651  1.00  0.00     0.099 C 
ATOM      9  O   UNL     1      31.625  -1.703  25.599  1.00  0.00    -0.544 OA
ATOM     10  O   UNL     1      33.431  -1.024  26.833  1.00  0.00    -0.544 OA
ENDBRANCH   3   8
ENDBRANCH   1   3
BRANCH   1  11
ATOM     11  C   UNL     1      36.283  -2.176  24.304  1.00  0.00     0.006 C 
ATOM     12  C   UNL     1      37.160  -3.260  23.676  1.00  0.00     0.004 C 
ENDBRANCH   1  11
TORSDOF 4
ENDMDL
MODEL 9
REMARK VINA RESULT:    -3.464     15.253     16.375
REMARK INTER + INTRA:          -4.222
REMARK INTER:                  -4.115
REMARK INTRA:                  -0.108
REMARK UNBOUND:                -0.049
REMARK SMILES CC[C@H](C)[C@H]([NH3+])C(=O)[O-]
REMARK SMILES IDX 3 1 4 2 5 3 6 4 7 8 8 9 9 10 2 11 1 12
REMARK H PARENT 6 5 6 6 6 7
REMARK Flexibility Score: inf
ROOT
ATOM      1  C   UNL     1      36.261   3.069  22.722  1.00  0.00     0.050 C 
ATOM      2  C   UNL     1      36.353   4.226  23.737  1.00  0.00     0.014 C 
ENDROOT
BRANCH   1   3
ATOM      3  C   UNL     1      36.487   3.595  21.266  1.00  0.00     0.230 C 
BRANCH   3   4
ATOM      4  N   UNL     1      35.968   2.663  20.254  1.00  0.00    -0.350 N 
ATOM      5  H   UNL     1      36.658   1.899  20.075  1.00  0.00     0.345 HD
ATOM      6  H   UNL     1      35.093   2.209  20.602  1.00  0.00     0.345 HD
ATOM      7  H   UNL     1      35.755   3.167  19.363  1.00  0.00     0.345 HD
ENDBRANCH   3   4
BRANCH   3   8
ATOM      8  C   UNL     1      37.951   3.851  21.001  1.00  0.00     0.099 C 
ATOM      9  O   UNL     1      38.342   4.992  20.634  1.00  0.00    -0.544 OA
ATOM     10  O   UNL     1      38.875   2.827  21.157  1.00  0.00    -0.544 OA
ENDBRANCH   3   8
ENDBRANCH   1   3
BRANCH   1  11
ATOM     11  C   UNL     1      34.891   2.348  22.887  1.00  0.00     0.006 C 
ATOM     12  C   UNL     1      35.002   1.043  23.677  1.00  0.00     0.004 C 
ENDBRANCH   1  11
TORSDOF 4
ENDMDL
