MODEL 1
REMARK VINA RESULT:    -7.293      0.000      0.000
REMARK INTER + INTRA:          -8.856
REMARK INTER:                  -8.572
REMARK INTRA:                  -0.284
REMARK UNBOUND:                -0.284
REMARK SMILES O=c1c(O)c(-c2ccc(O)c(O)c2)oc2cc(O)ccc12
REMARK SMILES IDX 5 1 3 2 2 3 1 4 21 5 15 6 14 7 16 8 17 9 19 10 20 11 6 12
REMARK SMILES IDX 7 13 8 14 9 15 13 16 11 17 10 18 12 20 4 22 18 24
REMARK H PARENT 10 19 12 21 4 23 18 25
REMARK Flexibility Score: inf
ROOT
ATOM      1  C   UNL     1      33.477 -20.170 -19.714  1.00  0.00     0.180 A 
ATOM      2  C   UNL     1      32.759 -20.425 -18.528  1.00  0.00     0.208 A 
ATOM      3  C   UNL     1      32.673 -21.745 -18.059  1.00  0.00     0.235 A 
ATOM      4  O   UNL     1      32.046 -21.996 -16.994  1.00  0.00    -0.285 OA
ATOM      5  C   UNL     1      33.283 -22.777 -18.789  1.00  0.00     0.069 A 
ATOM      6  C   UNL     1      33.962 -22.444 -19.980  1.00  0.00     0.142 A 
ATOM      7  O   UNL     1      34.028 -21.180 -20.384  1.00  0.00    -0.452 OA
ATOM      8  C   UNL     1      34.574 -23.446 -20.741  1.00  0.00     0.094 A 
ATOM      9  C   UNL     1      34.517 -24.783 -20.324  1.00  0.00     0.119 A 
ATOM     10  C   UNL     1      33.845 -25.116 -19.143  1.00  0.00     0.047 A 
ATOM     11  C   UNL     1      33.229 -24.122 -18.376  1.00  0.00     0.020 A 
ENDROOT
BRANCH   1  12
ATOM     12  C   UNL     1      33.629 -18.803 -20.263  1.00  0.00     0.025 A 
ATOM     13  C   UNL     1      34.571 -17.931 -19.693  1.00  0.00     0.016 A 
ATOM     14  C   UNL     1      34.718 -16.631 -20.181  1.00  0.00     0.051 A 
ATOM     15  C   UNL     1      33.914 -16.178 -21.236  1.00  0.00     0.157 A 
ATOM     16  C   UNL     1      32.810 -18.337 -21.308  1.00  0.00     0.062 A 
ATOM     17  C   UNL     1      32.956 -17.031 -21.797  1.00  0.00     0.158 A 
BRANCH  15  18
ATOM     18  O   UNL     1      34.058 -14.881 -21.726  1.00  0.00    -0.504 OA
ATOM     19  H   UNL     1      34.488 -14.700 -22.626  1.00  0.00     0.293 HD
ENDBRANCH  15  18
BRANCH  17  20
ATOM     20  O   UNL     1      32.148 -16.572 -22.836  1.00  0.00    -0.504 OA
ATOM     21  H   UNL     1      31.471 -17.177 -23.288  1.00  0.00     0.293 HD
ENDBRANCH  17  20
ENDBRANCH   1  12
BRANCH   2  22
ATOM     22  O   UNL     1      32.122 -19.383 -17.849  1.00  0.00    -0.502 OA
ATOM     23  H   UNL     1      31.137 -19.178 -17.972  1.00  0.00     0.293 HD
ENDBRANCH   2  22
BRANCH   9  24
ATOM     24  O   UNL     1      35.123 -25.787 -21.075  1.00  0.00    -0.508 OA
ATOM     25  H   UNL     1      36.107 -26.006 -20.971  1.00  0.00     0.293 HD
ENDBRANCH   9  24
TORSDOF 5
ENDMDL
MODEL 2
REMARK VINA RESULT:    -6.827      2.327      6.833
REMARK INTER + INTRA:          -8.308
REMARK INTER:                  -8.000
REMARK INTRA:                  -0.308
REMARK UNBOUND:                -0.284
REMARK SMILES O=c1c(O)c(-c2ccc(O)c(O)c2)oc2cc(O)ccc12
REMARK SMILES IDX 5 1 3 2 2 3 1 4 21 5 15 6 14 7 16 8 17 9 19 10 20 11 6 12
REMARK SMILES IDX 7 13 8 14 9 15 13 16 11 17 10 18 12 20 4 22 18 24
REMARK H PARENT 10 19 12 21 4 23 18 25
REMARK Flexibility Score: inf
ROOT
ATOM      1  C   UNL     1      32.962 -19.460 -20.930  1.00  0.00     0.180 A 
ATOM      2  C   UNL     1      33.742 -18.305 -21.146  1.00  0.00     0.208 A 
ATOM      3  C   UNL     1      33.155 -17.201 -21.783  1.00  0.00     0.235 A 
ATOM      4  O   UNL     1      33.828 -16.153 -21.978  1.00  0.00    -0.285 OA
ATOM      5  C   UNL     1      31.818 -17.280 -22.207  1.00  0.00     0.069 A 
ATOM      6  C   UNL     1      31.113 -18.480 -21.976  1.00  0.00     0.142 A 
ATOM      7  O   UNL     1      31.703 -19.499 -21.360  1.00  0.00    -0.452 OA
ATOM      8  C   UNL     1      29.782 -18.601 -22.392  1.00  0.00     0.094 A 
ATOM      9  C   UNL     1      29.145 -17.533 -23.038  1.00  0.00     0.119 A 
ATOM     10  C   UNL     1      29.842 -16.342 -23.267  1.00  0.00     0.047 A 
ATOM     11  C   UNL     1      31.172 -16.211 -22.856  1.00  0.00     0.020 A 
ENDROOT
BRANCH   1  12
ATOM     12  C   UNL     1      33.504 -20.658 -20.248  1.00  0.00     0.025 A 
ATOM     13  C   UNL     1      33.521 -20.705 -18.844  1.00  0.00     0.016 A 
ATOM     14  C   UNL     1      34.045 -21.816 -18.179  1.00  0.00     0.051 A 
ATOM     15  C   UNL     1      34.574 -22.889 -18.908  1.00  0.00     0.157 A 
ATOM     16  C   UNL     1      34.055 -21.729 -20.975  1.00  0.00     0.062 A 
ATOM     17  C   UNL     1      34.583 -22.843 -20.307  1.00  0.00     0.158 A 
BRANCH  15  18
ATOM     18  O   UNL     1      35.098 -24.000 -18.248  1.00  0.00    -0.504 OA
ATOM     19  H   UNL     1      34.651 -24.386 -17.425  1.00  0.00     0.293 HD
ENDBRANCH  15  18
BRANCH  17  20
ATOM     20  O   UNL     1      35.124 -23.906 -21.029  1.00  0.00    -0.504 OA
ATOM     21  H   UNL     1      36.100 -23.919 -21.303  1.00  0.00     0.293 HD
ENDBRANCH  17  20
ENDBRANCH   1  12
BRANCH   2  22
ATOM     22  O   UNL     1      35.084 -18.274 -20.757  1.00  0.00    -0.502 OA
ATOM     23  H   UNL     1      35.469 -18.930 -20.087  1.00  0.00     0.293 HD
ENDBRANCH   2  22
BRANCH   9  24
ATOM     24  O   UNL     1      27.821 -17.644 -23.456  1.00  0.00    -0.508 OA
ATOM     25  H   UNL     1      27.499 -17.217 -24.316  1.00  0.00     0.293 HD
ENDBRANCH   9  24
TORSDOF 5
ENDMDL
MODEL 3
REMARK VINA RESULT:    -6.811      1.445      6.738
REMARK INTER + INTRA:          -8.290
REMARK INTER:                  -8.004
REMARK INTRA:                  -0.286
REMARK UNBOUND:                -0.284
REMARK SMILES O=c1c(O)c(-c2ccc(O)c(O)c2)oc2cc(O)ccc12
REMARK SMILES IDX 5 1 3 2 2 3 1 4 21 5 15 6 14 7 16 8 17 9 19 10 20 11 6 12
REMARK SMILES IDX 7 13 8 14 9 15 13 16 11 17 10 18 12 20 4 22 18 24
REMARK H PARENT 10 19 12 21 4 23 18 25
REMARK Flexibility Score: inf
ROOT
ATOM      1  C   UNL     1      33.819 -21.239 -19.991  1.00  0.00     0.180 A 
ATOM      2  C   UNL     1      34.426 -20.615 -18.881  1.00  0.00     0.208 A 
ATOM      3  C   UNL     1      34.590 -19.221 -18.895  1.00  0.00     0.235 A 
ATOM      4  O   UNL     1      35.118 -18.638 -17.910  1.00  0.00    -0.285 OA
ATOM      5  C   UNL     1      34.168 -18.488 -20.016  1.00  0.00     0.069 A 
ATOM      6  C   UNL     1      33.593 -19.190 -21.097  1.00  0.00     0.142 A 
ATOM      7  O   UNL     1      33.447 -20.509 -21.040  1.00  0.00    -0.452 OA
ATOM      8  C   UNL     1      33.170 -18.496 -22.237  1.00  0.00     0.094 A 
ATOM      9  C   UNL     1      33.313 -17.104 -22.309  1.00  0.00     0.119 A 
ATOM     10  C   UNL     1      33.882 -16.406 -21.238  1.00  0.00     0.047 A 
ATOM     11  C   UNL     1      34.309 -17.090 -20.096  1.00  0.00     0.020 A 
ENDROOT
BRANCH   1  12
ATOM     12  C   UNL     1      33.594 -22.702 -20.043  1.00  0.00     0.025 A 
ATOM     13  C   UNL     1      32.510 -23.259 -19.344  1.00  0.00     0.016 A 
ATOM     14  C   UNL     1      32.290 -24.638 -19.363  1.00  0.00     0.051 A 
ATOM     15  C   UNL     1      33.158 -25.482 -20.067  1.00  0.00     0.157 A 
ATOM     16  C   UNL     1      34.474 -23.555 -20.732  1.00  0.00     0.062 A 
ATOM     17  C   UNL     1      34.254 -24.941 -20.749  1.00  0.00     0.158 A 
BRANCH  15  18
ATOM     18  O   UNL     1      32.941 -26.859 -20.089  1.00  0.00    -0.504 OA
ATOM     19  H   UNL     1      32.596 -27.354 -19.276  1.00  0.00     0.293 HD
ENDBRANCH  15  18
BRANCH  17  20
ATOM     20  O   UNL     1      35.125 -25.785 -21.437  1.00  0.00    -0.504 OA
ATOM     21  H   UNL     1      34.804 -26.368 -22.202  1.00  0.00     0.293 HD
ENDBRANCH  17  20
ENDBRANCH   1  12
BRANCH   2  22
ATOM     22  O   UNL     1      34.879 -21.376 -17.801  1.00  0.00    -0.502 OA
ATOM     23  H   UNL     1      35.452 -22.202 -17.923  1.00  0.00     0.293 HD
ENDBRANCH   2  22
BRANCH   9  24
ATOM     24  O   UNL     1      32.894 -16.406 -23.439  1.00  0.00    -0.508 OA
ATOM     25  H   UNL     1      33.356 -16.520 -24.334  1.00  0.00     0.293 HD
ENDBRANCH   9  24
TORSDOF 5
ENDMDL
MODEL 4
REMARK VINA RESULT:    -6.689      2.060      3.884
REMARK INTER + INTRA:          -8.146
REMARK INTER:                  -8.020
REMARK INTRA:                  -0.126
REMARK UNBOUND:                -0.284
REMARK SMILES O=c1c(O)c(-c2ccc(O)c(O)c2)oc2cc(O)ccc12
REMARK SMILES IDX 5 1 3 2 2 3 1 4 21 5 15 6 14 7 16 8 17 9 19 10 20 11 6 12
REMARK SMILES IDX 7 13 8 14 9 15 13 16 11 17 10 18 12 20 4 22 18 24
REMARK H PARENT 10 19 12 21 4 23 18 25
REMARK Flexibility Score: inf
ROOT
ATOM      1  C   UNL     1      33.902 -22.653 -19.076  1.00  0.00     0.180 A 
ATOM      2  C   UNL     1      34.349 -23.731 -19.867  1.00  0.00     0.208 A 
ATOM      3  C   UNL     1      34.025 -25.039 -19.474  1.00  0.00     0.235 A 
ATOM      4  O   UNL     1      34.404 -26.020 -20.171  1.00  0.00    -0.285 OA
ATOM      5  C   UNL     1      33.285 -25.243 -18.299  1.00  0.00     0.069 A 
ATOM      6  C   UNL     1      32.896 -24.113 -17.549  1.00  0.00     0.142 A 
ATOM      7  O   UNL     1      33.215 -22.891 -17.961  1.00  0.00    -0.452 OA
ATOM      8  C   UNL     1      32.166 -24.275 -16.365  1.00  0.00     0.094 A 
ATOM      9  C   UNL     1      31.817 -25.558 -15.922  1.00  0.00     0.119 A 
ATOM     10  C   UNL     1      32.201 -26.680 -16.664  1.00  0.00     0.047 A 
ATOM     11  C   UNL     1      32.932 -26.528 -17.846  1.00  0.00     0.020 A 
ENDROOT
BRANCH   1  12
ATOM     12  C   UNL     1      34.186 -21.245 -19.434  1.00  0.00     0.025 A 
ATOM     13  C   UNL     1      34.855 -20.420 -18.514  1.00  0.00     0.016 A 
ATOM     14  C   UNL     1      35.116 -19.083 -18.821  1.00  0.00     0.051 A 
ATOM     15  C   UNL     1      34.699 -18.546 -20.047  1.00  0.00     0.157 A 
ATOM     16  C   UNL     1      33.751 -20.696 -20.654  1.00  0.00     0.062 A 
ATOM     17  C   UNL     1      34.012 -19.352 -20.962  1.00  0.00     0.158 A 
BRANCH  15  18
ATOM     18  O   UNL     1      34.958 -17.213 -20.358  1.00  0.00    -0.504 OA
ATOM     19  H   UNL     1      34.575 -16.455 -19.805  1.00  0.00     0.293 HD
ENDBRANCH  15  18
BRANCH  17  20
ATOM     20  O   UNL     1      33.585 -18.811 -22.174  1.00  0.00    -0.504 OA
ATOM     21  H   UNL     1      32.904 -18.061 -22.209  1.00  0.00     0.293 HD
ENDBRANCH  17  20
ENDBRANCH   1  12
BRANCH   2  22
ATOM     22  O   UNL     1      35.125 -23.500 -21.005  1.00  0.00    -0.502 OA
ATOM     23  H   UNL     1      34.896 -23.901 -21.908  1.00  0.00     0.293 HD
ENDBRANCH   2  22
BRANCH   9  24
ATOM     24  O   UNL     1      31.091 -25.728 -14.746  1.00  0.00    -0.508 OA
ATOM     25  H   UNL     1      31.252 -25.144 -13.933  1.00  0.00     0.293 HD
ENDBRANCH   9  24
TORSDOF 5
ENDMDL
MODEL 5
REMARK VINA RESULT:    -6.491      2.903      3.881
REMARK INTER + INTRA:          -7.914
REMARK INTER:                  -7.597
REMARK INTRA:                  -0.317
REMARK UNBOUND:                -0.284
REMARK SMILES O=c1c(O)c(-c2ccc(O)c(O)c2)oc2cc(O)ccc12
REMARK SMILES IDX 5 1 3 2 2 3 1 4 21 5 15 6 14 7 16 8 17 9 19 10 20 11 6 12
REMARK SMILES IDX 7 13 8 14 9 15 13 16 11 17 10 18 12 20 4 22 18 24
REMARK H PARENT 10 19 12 21 4 23 18 25
REMARK Flexibility Score: inf
ROOT
ATOM      1  C   UNL     1      31.469 -19.087 -20.729  1.00  0.00     0.180 A 
ATOM      2  C   UNL     1      31.907 -18.562 -19.496  1.00  0.00     0.208 A 
ATOM      3  C   UNL     1      32.953 -19.208 -18.819  1.00  0.00     0.235 A 
ATOM      4  O   UNL     1      33.370 -18.751 -17.720  1.00  0.00    -0.285 OA
ATOM      5  C   UNL     1      33.522 -20.366 -19.372  1.00  0.00     0.069 A 
ATOM      6  C   UNL     1      33.011 -20.842 -20.598  1.00  0.00     0.142 A 
ATOM      7  O   UNL     1      32.025 -20.196 -21.212  1.00  0.00    -0.452 OA
ATOM      8  C   UNL     1      33.544 -22.000 -21.177  1.00  0.00     0.094 A 
ATOM      9  C   UNL     1      34.588 -22.689 -20.544  1.00  0.00     0.119 A 
ATOM     10  C   UNL     1      35.096 -22.218 -19.328  1.00  0.00     0.047 A 
ATOM     11  C   UNL     1      34.569 -21.063 -18.741  1.00  0.00     0.020 A 
ENDROOT
BRANCH   1  12
ATOM     12  C   UNL     1      30.384 -18.453 -21.513  1.00  0.00     0.025 A 
ATOM     13  C   UNL     1      30.697 -17.428 -22.422  1.00  0.00     0.016 A 
ATOM     14  C   UNL     1      29.688 -16.802 -23.157  1.00  0.00     0.051 A 
ATOM     15  C   UNL     1      28.350 -17.179 -22.983  1.00  0.00     0.157 A 
ATOM     16  C   UNL     1      29.038 -18.813 -21.326  1.00  0.00     0.062 A 
ATOM     17  C   UNL     1      28.024 -18.183 -22.063  1.00  0.00     0.158 A 
BRANCH  15  18
ATOM     18  O   UNL     1      27.340 -16.557 -23.715  1.00  0.00    -0.504 OA
ATOM     19  H   UNL     1      26.923 -17.000 -24.524  1.00  0.00     0.293 HD
ENDBRANCH  15  18
BRANCH  17  20
ATOM     20  O   UNL     1      26.690 -18.545 -21.880  1.00  0.00    -0.504 OA
ATOM     21  H   UNL     1      26.304 -18.698 -20.955  1.00  0.00     0.293 HD
ENDBRANCH  17  20
ENDBRANCH   1  12
BRANCH   2  22
ATOM     22  O   UNL     1      31.289 -17.436 -18.947  1.00  0.00    -0.502 OA
ATOM     23  H   UNL     1      30.377 -17.115 -19.251  1.00  0.00     0.293 HD
ENDBRANCH   2  22
BRANCH   9  24
ATOM     24  O   UNL     1      35.124 -23.841 -21.112  1.00  0.00    -0.508 OA
ATOM     25  H   UNL     1      36.122 -23.942 -21.264  1.00  0.00     0.293 HD
ENDBRANCH   9  24
TORSDOF 5
ENDMDL
MODEL 6
REMARK VINA RESULT:    -6.465      2.599      4.094
REMARK INTER + INTRA:          -7.882
REMARK INTER:                  -7.665
REMARK INTRA:                  -0.217
REMARK UNBOUND:                -0.284
REMARK SMILES O=c1c(O)c(-c2ccc(O)c(O)c2)oc2cc(O)ccc12
REMARK SMILES IDX 5 1 3 2 2 3 1 4 21 5 15 6 14 7 16 8 17 9 19 10 20 11 6 12
REMARK SMILES IDX 7 13 8 14 9 15 13 16 11 17 10 18 12 20 4 22 18 24
REMARK H PARENT 10 19 12 21 4 23 18 25
REMARK Flexibility Score: inf
ROOT
ATOM      1  C   UNL     1      32.993 -23.792 -18.572  1.00  0.00     0.180 A 
ATOM      2  C   UNL     1      32.346 -23.620 -17.331  1.00  0.00     0.208 A 
ATOM      3  C   UNL     1      32.252 -24.716 -16.459  1.00  0.00     0.235 A 
ATOM      4  O   UNL     1      31.688 -24.584 -15.338  1.00  0.00    -0.285 OA
ATOM      5  C   UNL     1      32.783 -25.955 -16.849  1.00  0.00     0.069 A 
ATOM      6  C   UNL     1      33.393 -26.052 -18.118  1.00  0.00     0.142 A 
ATOM      7  O   UNL     1      33.470 -24.988 -18.909  1.00  0.00    -0.452 OA
ATOM      8  C   UNL     1      33.926 -27.273 -18.547  1.00  0.00     0.094 A 
ATOM      9  C   UNL     1      33.857 -28.403 -17.721  1.00  0.00     0.119 A 
ATOM     10  C   UNL     1      33.254 -28.309 -16.462  1.00  0.00     0.047 A 
ATOM     11  C   UNL     1      32.717 -27.094 -16.024  1.00  0.00     0.020 A 
ENDROOT
BRANCH   1  12
ATOM     12  C   UNL     1      33.149 -22.680 -19.538  1.00  0.00     0.025 A 
ATOM     13  C   UNL     1      34.028 -21.626 -19.241  1.00  0.00     0.016 A 
ATOM     14  C   UNL     1      34.176 -20.557 -20.128  1.00  0.00     0.051 A 
ATOM     15  C   UNL     1      33.435 -20.518 -21.317  1.00  0.00     0.157 A 
ATOM     16  C   UNL     1      32.392 -22.627 -20.722  1.00  0.00     0.062 A 
ATOM     17  C   UNL     1      32.539 -21.553 -21.612  1.00  0.00     0.158 A 
BRANCH  15  18
ATOM     18  O   UNL     1      33.581 -19.454 -22.205  1.00  0.00    -0.504 OA
ATOM     19  H   UNL     1      33.013 -18.619 -22.128  1.00  0.00     0.293 HD
ENDBRANCH  15  18
BRANCH  17  20
ATOM     20  O   UNL     1      31.793 -21.504 -22.788  1.00  0.00    -0.504 OA
ATOM     21  H   UNL     1      32.238 -21.432 -23.696  1.00  0.00     0.293 HD
ENDBRANCH  17  20
ENDBRANCH   1  12
BRANCH   2  22
ATOM     22  O   UNL     1      31.784 -22.387 -16.990  1.00  0.00    -0.502 OA
ATOM     23  H   UNL     1      32.173 -21.797 -16.264  1.00  0.00     0.293 HD
ENDBRANCH   2  22
BRANCH   9  24
ATOM     24  O   UNL     1      34.384 -29.622 -18.140  1.00  0.00    -0.508 OA
ATOM     25  H   UNL     1      34.191 -30.483 -17.641  1.00  0.00     0.293 HD
ENDBRANCH   9  24
TORSDOF 5
ENDMDL
MODEL 7
REMARK VINA RESULT:    -6.305      1.838      6.807
REMARK INTER + INTRA:          -7.695
REMARK INTER:                  -7.394
REMARK INTRA:                  -0.301
REMARK UNBOUND:                -0.284
REMARK SMILES O=c1c(O)c(-c2ccc(O)c(O)c2)oc2cc(O)ccc12
REMARK SMILES IDX 5 1 3 2 2 3 1 4 21 5 15 6 14 7 16 8 17 9 19 10 20 11 6 12
REMARK SMILES IDX 7 13 8 14 9 15 13 16 11 17 10 18 12 20 4 22 18 24
REMARK H PARENT 10 19 12 21 4 23 18 25
REMARK Flexibility Score: inf
ROOT
ATOM      1  C   UNL     1      33.187 -20.920 -20.250  1.00  0.00     0.180 A 
ATOM      2  C   UNL     1      32.647 -21.343 -21.482  1.00  0.00     0.208 A 
ATOM      3  C   UNL     1      32.519 -20.408 -22.521  1.00  0.00     0.235 A 
ATOM      4  O   UNL     1      32.049 -20.765 -23.636  1.00  0.00    -0.285 OA
ATOM      5  C   UNL     1      32.910 -19.077 -22.304  1.00  0.00     0.069 A 
ATOM      6  C   UNL     1      33.418 -18.727 -21.035  1.00  0.00     0.142 A 
ATOM      7  O   UNL     1      33.532 -19.645 -20.081  1.00  0.00    -0.452 OA
ATOM      8  C   UNL     1      33.809 -17.408 -20.777  1.00  0.00     0.094 A 
ATOM      9  C   UNL     1      33.699 -16.431 -21.775  1.00  0.00     0.119 A 
ATOM     10  C   UNL     1      33.196 -16.776 -23.034  1.00  0.00     0.047 A 
ATOM     11  C   UNL     1      32.802 -18.090 -23.302  1.00  0.00     0.020 A 
ENDROOT
BRANCH   1  12
ATOM     12  C   UNL     1      33.372 -21.849 -19.112  1.00  0.00     0.025 A 
ATOM     13  C   UNL     1      34.617 -22.474 -18.926  1.00  0.00     0.016 A 
ATOM     14  C   UNL     1      34.808 -23.369 -17.872  1.00  0.00     0.051 A 
ATOM     15  C   UNL     1      33.755 -23.666 -16.997  1.00  0.00     0.157 A 
ATOM     16  C   UNL     1      32.312 -22.166 -18.244  1.00  0.00     0.062 A 
ATOM     17  C   UNL     1      32.504 -23.067 -17.187  1.00  0.00     0.158 A 
BRANCH  15  18
ATOM     18  O   UNL     1      33.942 -24.559 -15.944  1.00  0.00    -0.504 OA
ATOM     19  H   UNL     1      34.860 -24.918 -15.710  1.00  0.00     0.293 HD
ENDBRANCH  15  18
BRANCH  17  20
ATOM     20  O   UNL     1      31.453 -23.376 -16.324  1.00  0.00    -0.504 OA
ATOM     21  H   UNL     1      31.227 -22.785 -15.531  1.00  0.00     0.293 HD
ENDBRANCH  17  20
ENDBRANCH   1  12
BRANCH   2  22
ATOM     22  O   UNL     1      32.222 -22.662 -21.652  1.00  0.00    -0.502 OA
ATOM     23  H   UNL     1      31.360 -22.897 -22.130  1.00  0.00     0.293 HD
ENDBRANCH   2  22
BRANCH   9  24
ATOM     24  O   UNL     1      34.085 -15.117 -21.527  1.00  0.00    -0.508 OA
ATOM     25  H   UNL     1      33.405 -14.393 -21.323  1.00  0.00     0.293 HD
ENDBRANCH   9  24
TORSDOF 5
ENDMDL
MODEL 8
REMARK VINA RESULT:    -6.296      4.355      6.887
REMARK INTER + INTRA:          -7.684
REMARK INTER:                  -7.366
REMARK INTRA:                  -0.317
REMARK UNBOUND:                -0.284
REMARK SMILES O=c1c(O)c(-c2ccc(O)c(O)c2)oc2cc(O)ccc12
REMARK SMILES IDX 5 1 3 2 2 3 1 4 21 5 15 6 14 7 16 8 17 9 19 10 20 11 6 12
REMARK SMILES IDX 7 13 8 14 9 15 13 16 11 17 10 18 12 20 4 22 18 24
REMARK H PARENT 10 19 12 21 4 23 18 25
REMARK Flexibility Score: inf
ROOT
ATOM      1  C   UNL     1      30.128 -19.232 -22.162  1.00  0.00     0.180 A 
ATOM      2  C   UNL     1      30.416 -18.039 -22.856  1.00  0.00     0.208 A 
ATOM      3  C   UNL     1      31.642 -17.397 -22.619  1.00  0.00     0.235 A 
ATOM      4  O   UNL     1      31.928 -16.334 -23.235  1.00  0.00    -0.285 OA
ATOM      5  C   UNL     1      32.538 -17.944 -21.686  1.00  0.00     0.069 A 
ATOM      6  C   UNL     1      32.165 -19.128 -21.015  1.00  0.00     0.142 A 
ATOM      7  O   UNL     1      30.999 -19.709 -21.275  1.00  0.00    -0.452 OA
ATOM      8  C   UNL     1      33.026 -19.698 -20.070  1.00  0.00     0.094 A 
ATOM      9  C   UNL     1      34.262 -19.099 -19.789  1.00  0.00     0.119 A 
ATOM     10  C   UNL     1      34.634 -17.925 -20.454  1.00  0.00     0.047 A 
ATOM     11  C   UNL     1      33.779 -17.347 -21.398  1.00  0.00     0.020 A 
ENDROOT
BRANCH   1  12
ATOM     12  C   UNL     1      28.866 -19.978 -22.371  1.00  0.00     0.025 A 
ATOM     13  C   UNL     1      28.794 -20.941 -23.391  1.00  0.00     0.016 A 
ATOM     14  C   UNL     1      27.608 -21.643 -23.620  1.00  0.00     0.051 A 
ATOM     15  C   UNL     1      26.472 -21.380 -22.843  1.00  0.00     0.157 A 
ATOM     16  C   UNL     1      27.717 -19.703 -21.608  1.00  0.00     0.062 A 
ATOM     17  C   UNL     1      26.525 -20.406 -21.839  1.00  0.00     0.158 A 
BRANCH  15  18
ATOM     18  O   UNL     1      25.287 -22.078 -23.068  1.00  0.00    -0.504 OA
ATOM     19  H   UNL     1      24.781 -21.997 -23.942  1.00  0.00     0.293 HD
ENDBRANCH  15  18
BRANCH  17  20
ATOM     20  O   UNL     1      25.389 -20.136 -21.078  1.00  0.00    -0.504 OA
ATOM     21  H   UNL     1      24.914 -19.242 -21.133  1.00  0.00     0.293 HD
ENDBRANCH  17  20
ENDBRANCH   1  12
BRANCH   2  22
ATOM     22  O   UNL     1      29.485 -17.493 -23.742  1.00  0.00    -0.502 OA
ATOM     23  H   UNL     1      28.505 -17.752 -23.726  1.00  0.00     0.293 HD
ENDBRANCH   2  22
BRANCH   9  24
ATOM     24  O   UNL     1      35.125 -19.659 -18.852  1.00  0.00    -0.508 OA
ATOM     25  H   UNL     1      35.204 -20.663 -18.737  1.00  0.00     0.293 HD
ENDBRANCH   9  24
TORSDOF 5
ENDMDL
MODEL 9
REMARK VINA RESULT:    -6.270      3.179      5.156
REMARK INTER + INTRA:          -7.653
REMARK INTER:                  -7.358
REMARK INTRA:                  -0.295
REMARK UNBOUND:                -0.284
REMARK SMILES O=c1c(O)c(-c2ccc(O)c(O)c2)oc2cc(O)ccc12
REMARK SMILES IDX 5 1 3 2 2 3 1 4 21 5 15 6 14 7 16 8 17 9 19 10 20 11 6 12
REMARK SMILES IDX 7 13 8 14 9 15 13 16 11 17 10 18 12 20 4 22 18 24
REMARK H PARENT 10 19 12 21 4 23 18 25
REMARK Flexibility Score: inf
ROOT
ATOM      1  C   UNL     1      32.540 -23.143 -17.451  1.00  0.00     0.180 A 
ATOM      2  C   UNL     1      33.417 -23.926 -16.672  1.00  0.00     0.208 A 
ATOM      3  C   UNL     1      32.882 -24.935 -15.857  1.00  0.00     0.235 A 
ATOM      4  O   UNL     1      33.648 -25.656 -15.160  1.00  0.00    -0.285 OA
ATOM      5  C   UNL     1      31.492 -25.127 -15.820  1.00  0.00     0.069 A 
ATOM      6  C   UNL     1      30.679 -24.286 -16.609  1.00  0.00     0.142 A 
ATOM      7  O   UNL     1      31.226 -23.348 -17.375  1.00  0.00    -0.452 OA
ATOM      8  C   UNL     1      29.288 -24.439 -16.592  1.00  0.00     0.094 A 
ATOM      9  C   UNL     1      28.697 -25.428 -15.793  1.00  0.00     0.119 A 
ATOM     10  C   UNL     1      29.501 -26.263 -15.010  1.00  0.00     0.047 A 
ATOM     11  C   UNL     1      30.892 -26.117 -15.019  1.00  0.00     0.020 A 
ENDROOT
BRANCH   1  12
ATOM     12  C   UNL     1      33.028 -22.073 -18.350  1.00  0.00     0.025 A 
ATOM     13  C   UNL     1      33.530 -22.411 -19.617  1.00  0.00     0.016 A 
ATOM     14  C   UNL     1      34.015 -21.421 -20.474  1.00  0.00     0.051 A 
ATOM     15  C   UNL     1      34.019 -20.079 -20.071  1.00  0.00     0.157 A 
ATOM     16  C   UNL     1      33.053 -20.727 -17.941  1.00  0.00     0.062 A 
ATOM     17  C   UNL     1      33.542 -19.733 -18.801  1.00  0.00     0.158 A 
BRANCH  15  18
ATOM     18  O   UNL     1      34.501 -19.087 -20.923  1.00  0.00    -0.504 OA
ATOM     19  H   UNL     1      34.043 -18.874 -21.801  1.00  0.00     0.293 HD
ENDBRANCH  15  18
BRANCH  17  20
ATOM     20  O   UNL     1      33.562 -18.398 -18.397  1.00  0.00    -0.504 OA
ATOM     21  H   UNL     1      32.747 -17.957 -17.986  1.00  0.00     0.293 HD
ENDBRANCH  17  20
ENDBRANCH   1  12
BRANCH   2  22
ATOM     22  O   UNL     1      34.792 -23.679 -16.693  1.00  0.00    -0.502 OA
ATOM     23  H   UNL     1      35.385 -23.978 -17.459  1.00  0.00     0.293 HD
ENDBRANCH   2  22
BRANCH   9  24
ATOM     24  O   UNL     1      27.314 -25.588 -15.769  1.00  0.00    -0.508 OA
ATOM     25  H   UNL     1      26.814 -26.000 -16.549  1.00  0.00     0.293 HD
ENDBRANCH   9  24
TORSDOF 5
ENDMDL
