MODEL 1
REMARK VINA RESULT:    -5.955      0.000      0.000
REMARK INTER + INTRA:          -6.556
REMARK INTER:                  -6.303
REMARK INTRA:                  -0.253
REMARK UNBOUND:                -0.253
REMARK SMILES O=c1cc(-c2ccccc2)oc2ccccc12
REMARK SMILES IDX 4 1 3 2 2 3 1 4 17 5 16 6 15 7 14 8 13 9 12 10 11 11 5 12
REMARK SMILES IDX 8 13 7 14 9 15 6 16 10 17
REMARK H PARENT
REMARK Flexibility Score: inf
ROOT
ATOM      1  C   UNL     1      14.307  47.100  32.282  1.00  0.00     0.138 A 
ATOM      2  C   UNL     1      15.416  46.327  31.878  1.00  0.00     0.100 A 
ATOM      3  C   UNL     1      16.342  46.867  30.983  1.00  0.00     0.193 A 
ATOM      4  O   UNL     1      17.334  46.176  30.622  1.00  0.00    -0.289 OA
ATOM      5  C   UNL     1      16.156  48.170  30.499  1.00  0.00     0.065 A 
ATOM      6  C   UNL     1      17.050  48.773  29.597  1.00  0.00     0.016 A 
ATOM      7  C   UNL     1      16.817  50.076  29.146  1.00  0.00     0.001 A 
ATOM      8  C   UNL     1      15.696  50.783  29.589  1.00  0.00     0.004 A 
ATOM      9  C   UNL     1      14.802  50.192  30.486  1.00  0.00     0.048 A 
ATOM     10  C   UNL     1      15.026  48.889  30.943  1.00  0.00     0.138 A 
ATOM     11  O   UNL     1      14.170  48.334  31.796  1.00  0.00    -0.456 OA
ENDROOT
BRANCH   1  12
ATOM     12  C   UNL     1      13.270  46.598  33.235  1.00  0.00     0.017 A 
ATOM     13  C   UNL     1      11.245  45.703  34.986  1.00  0.00     0.000 A 
ATOM     14  C   UNL     1      12.563  45.287  35.173  1.00  0.00     0.001 A 
ATOM     15  C   UNL     1      10.929  46.560  33.934  1.00  0.00     0.001 A 
ATOM     16  C   UNL     1      13.571  45.727  34.309  1.00  0.00     0.012 A 
ATOM     17  C   UNL     1      11.929  47.005  33.066  1.00  0.00     0.012 A 
ENDBRANCH   1  12
TORSDOF 1
ENDMDL
MODEL 2
REMARK VINA RESULT:    -5.608      1.665      2.775
REMARK INTER + INTRA:          -6.189
REMARK INTER:                  -5.958
REMARK INTRA:                  -0.231
REMARK UNBOUND:                -0.253
REMARK SMILES O=c1cc(-c2ccccc2)oc2ccccc12
REMARK SMILES IDX 4 1 3 2 2 3 1 4 17 5 16 6 15 7 14 8 13 9 12 10 11 11 5 12
REMARK SMILES IDX 8 13 7 14 9 15 6 16 10 17
REMARK H PARENT
REMARK Flexibility Score: inf
ROOT
ATOM      1  C   UNL     1      14.225  46.669  32.095  1.00  0.00     0.138 A 
ATOM      2  C   UNL     1      14.732  47.957  31.821  1.00  0.00     0.100 A 
ATOM      3  C   UNL     1      15.720  48.115  30.848  1.00  0.00     0.193 A 
ATOM      4  O   UNL     1      16.172  49.268  30.602  1.00  0.00    -0.289 OA
ATOM      5  C   UNL     1      16.195  46.992  30.156  1.00  0.00     0.065 A 
ATOM      6  C   UNL     1      17.189  47.082  29.165  1.00  0.00     0.016 A 
ATOM      7  C   UNL     1      17.626  45.929  28.506  1.00  0.00     0.001 A 
ATOM      8  C   UNL     1      17.079  44.685  28.829  1.00  0.00     0.004 A 
ATOM      9  C   UNL     1      16.091  44.585  29.813  1.00  0.00     0.048 A 
ATOM     10  C   UNL     1      15.647  45.732  30.478  1.00  0.00     0.138 A 
ATOM     11  O   UNL     1      14.707  45.629  31.413  1.00  0.00    -0.456 OA
ENDROOT
BRANCH   1  12
ATOM     12  C   UNL     1      13.168  46.411  33.120  1.00  0.00     0.017 A 
ATOM     13  C   UNL     1      11.110  45.982  35.004  1.00  0.00     0.000 A 
ATOM     14  C   UNL     1      12.363  45.398  35.194  1.00  0.00     0.001 A 
ATOM     15  C   UNL     1      10.876  46.777  33.884  1.00  0.00     0.001 A 
ATOM     16  C   UNL     1      13.387  45.608  34.264  1.00  0.00     0.012 A 
ATOM     17  C   UNL     1      11.893  46.991  32.950  1.00  0.00     0.012 A 
ENDBRANCH   1  12
TORSDOF 1
ENDMDL
MODEL 3
REMARK VINA RESULT:    -5.544      7.511      9.307
REMARK INTER + INTRA:          -6.121
REMARK INTER:                  -5.901
REMARK INTRA:                  -0.220
REMARK UNBOUND:                -0.253
REMARK SMILES O=c1cc(-c2ccccc2)oc2ccccc12
REMARK SMILES IDX 4 1 3 2 2 3 1 4 17 5 16 6 15 7 14 8 13 9 12 10 11 11 5 12
REMARK SMILES IDX 8 13 7 14 9 15 6 16 10 17
REMARK H PARENT
REMARK Flexibility Score: inf
ROOT
ATOM      1  C   UNL     1      14.973  56.014  33.110  1.00  0.00     0.138 A 
ATOM      2  C   UNL     1      14.568  55.911  31.762  1.00  0.00     0.100 A 
ATOM      3  C   UNL     1      14.938  56.905  30.854  1.00  0.00     0.193 A 
ATOM      4  O   UNL     1      14.576  56.811  29.649  1.00  0.00    -0.289 OA
ATOM      5  C   UNL     1      15.706  57.992  31.294  1.00  0.00     0.065 A 
ATOM      6  C   UNL     1      16.111  59.026  30.432  1.00  0.00     0.016 A 
ATOM      7  C   UNL     1      16.878  60.087  30.924  1.00  0.00     0.001 A 
ATOM      8  C   UNL     1      17.243  60.125  32.272  1.00  0.00     0.004 A 
ATOM      9  C   UNL     1      16.845  59.101  33.136  1.00  0.00     0.048 A 
ATOM     10  C   UNL     1      16.078  58.035  32.655  1.00  0.00     0.138 A 
ATOM     11  O   UNL     1      15.703  57.066  33.484  1.00  0.00    -0.456 OA
ENDROOT
BRANCH   1  12
ATOM     12  C   UNL     1      14.621  54.996  34.146  1.00  0.00     0.017 A 
ATOM     13  C   UNL     1      13.880  53.129  36.129  1.00  0.00     0.000 A 
ATOM     14  C   UNL     1      14.998  52.891  35.330  1.00  0.00     0.001 A 
ATOM     15  C   UNL     1      13.129  54.289  35.947  1.00  0.00     0.001 A 
ATOM     16  C   UNL     1      15.371  53.813  34.346  1.00  0.00     0.012 A 
ATOM     17  C   UNL     1      13.494  55.215  34.966  1.00  0.00     0.012 A 
ENDBRANCH   1  12
TORSDOF 1
ENDMDL
MODEL 4
REMARK VINA RESULT:    -5.534      7.674     11.076
REMARK INTER + INTRA:          -6.111
REMARK INTER:                  -5.882
REMARK INTRA:                  -0.229
REMARK UNBOUND:                -0.253
REMARK SMILES O=c1cc(-c2ccccc2)oc2ccccc12
REMARK SMILES IDX 4 1 3 2 2 3 1 4 17 5 16 6 15 7 14 8 13 9 12 10 11 11 5 12
REMARK SMILES IDX 8 13 7 14 9 15 6 16 10 17
REMARK H PARENT
REMARK Flexibility Score: inf
ROOT
ATOM      1  C   UNL     1      14.703  57.159  33.128  1.00  0.00     0.138 A 
ATOM      2  C   UNL     1      13.342  57.291  33.480  1.00  0.00     0.100 A 
ATOM      3  C   UNL     1      12.729  56.294  34.241  1.00  0.00     0.193 A 
ATOM      4  O   UNL     1      11.512  56.413  34.556  1.00  0.00    -0.289 OA
ATOM      5  C   UNL     1      13.472  55.176  34.644  1.00  0.00     0.065 A 
ATOM      6  C   UNL     1      12.915  54.138  35.411  1.00  0.00     0.016 A 
ATOM      7  C   UNL     1      13.703  53.045  35.787  1.00  0.00     0.001 A 
ATOM      8  C   UNL     1      15.044  52.980  35.403  1.00  0.00     0.004 A 
ATOM      9  C   UNL     1      15.607  54.008  34.641  1.00  0.00     0.048 A 
ATOM     10  C   UNL     1      14.828  55.106  34.259  1.00  0.00     0.138 A 
ATOM     11  O   UNL     1      15.371  56.078  33.534  1.00  0.00    -0.456 OA
ENDROOT
BRANCH   1  12
ATOM     12  C   UNL     1      15.436  58.178  32.317  1.00  0.00     0.017 A 
ATOM     13  C   UNL     1      16.875  60.125  30.865  1.00  0.00     0.000 A 
ATOM     14  C   UNL     1      15.856  59.402  30.243  1.00  0.00     0.001 A 
ATOM     15  C   UNL     1      17.181  59.885  32.203  1.00  0.00     0.001 A 
ATOM     16  C   UNL     1      15.140  58.436  30.958  1.00  0.00     0.012 A 
ATOM     17  C   UNL     1      16.470  58.923  32.924  1.00  0.00     0.012 A 
ENDBRANCH   1  12
TORSDOF 1
ENDMDL
MODEL 5
REMARK VINA RESULT:    -5.450      2.471      6.305
REMARK INTER + INTRA:          -6.022
REMARK INTER:                  -5.768
REMARK INTRA:                  -0.254
REMARK UNBOUND:                -0.253
REMARK SMILES O=c1cc(-c2ccccc2)oc2ccccc12
REMARK SMILES IDX 4 1 3 2 2 3 1 4 17 5 16 6 15 7 14 8 13 9 12 10 11 11 5 12
REMARK SMILES IDX 8 13 7 14 9 15 6 16 10 17
REMARK H PARENT
REMARK Flexibility Score: inf
ROOT
ATOM      1  C   UNL     1      14.933  46.347  32.028  1.00  0.00     0.138 A 
ATOM      2  C   UNL     1      14.251  46.469  33.257  1.00  0.00     0.100 A 
ATOM      3  C   UNL     1      13.720  45.330  33.865  1.00  0.00     0.193 A 
ATOM      4  O   UNL     1      13.110  45.439  34.965  1.00  0.00    -0.289 OA
ATOM      5  C   UNL     1      13.870  44.082  33.246  1.00  0.00     0.065 A 
ATOM      6  C   UNL     1      13.360  42.896  33.804  1.00  0.00     0.016 A 
ATOM      7  C   UNL     1      13.539  41.677  33.143  1.00  0.00     0.001 A 
ATOM      8  C   UNL     1      14.226  41.631  31.927  1.00  0.00     0.004 A 
ATOM      9  C   UNL     1      14.737  42.804  31.364  1.00  0.00     0.048 A 
ATOM     10  C   UNL     1      14.563  44.029  32.017  1.00  0.00     0.138 A 
ATOM     11  O   UNL     1      15.053  45.139  31.474  1.00  0.00    -0.456 OA
ENDROOT
BRANCH   1  12
ATOM     12  C   UNL     1      15.531  47.514  31.310  1.00  0.00     0.017 A 
ATOM     13  C   UNL     1      16.733  49.659  29.923  1.00  0.00     0.000 A 
ATOM     14  C   UNL     1      15.575  49.873  30.671  1.00  0.00     0.001 A 
ATOM     15  C   UNL     1      17.296  48.385  29.862  1.00  0.00     0.001 A 
ATOM     16  C   UNL     1      14.975  48.814  31.360  1.00  0.00     0.012 A 
ATOM     17  C   UNL     1      16.703  47.322  30.547  1.00  0.00     0.012 A 
ENDBRANCH   1  12
TORSDOF 1
ENDMDL
MODEL 6
REMARK VINA RESULT:    -5.266      7.490      9.726
REMARK INTER + INTRA:          -5.827
REMARK INTER:                  -5.569
REMARK INTRA:                  -0.258
REMARK UNBOUND:                -0.253
REMARK SMILES O=c1cc(-c2ccccc2)oc2ccccc12
REMARK SMILES IDX 4 1 3 2 2 3 1 4 17 5 16 6 15 7 14 8 13 9 12 10 11 11 5 12
REMARK SMILES IDX 8 13 7 14 9 15 6 16 10 17
REMARK H PARENT
REMARK Flexibility Score: inf
ROOT
ATOM      1  C   UNL     1      15.402  56.575  32.550  1.00  0.00     0.138 A 
ATOM      2  C   UNL     1      15.505  57.864  33.116  1.00  0.00     0.100 A 
ATOM      3  C   UNL     1      15.655  58.972  32.280  1.00  0.00     0.193 A 
ATOM      4  O   UNL     1      15.746  60.124  32.787  1.00  0.00    -0.289 OA
ATOM      5  C   UNL     1      15.700  58.789  30.891  1.00  0.00     0.065 A 
ATOM      6  C   UNL     1      15.849  59.862  29.994  1.00  0.00     0.016 A 
ATOM      7  C   UNL     1      15.888  59.623  28.617  1.00  0.00     0.001 A 
ATOM      8  C   UNL     1      15.780  58.319  28.127  1.00  0.00     0.004 A 
ATOM      9  C   UNL     1      15.631  57.246  29.010  1.00  0.00     0.048 A 
ATOM     10  C   UNL     1      15.591  57.474  30.390  1.00  0.00     0.138 A 
ATOM     11  O   UNL     1      15.450  56.448  31.223  1.00  0.00    -0.456 OA
ENDROOT
BRANCH   1  12
ATOM     12  C   UNL     1      15.240  55.336  33.372  1.00  0.00     0.017 A 
ATOM     13  C   UNL     1      14.895  53.053  34.995  1.00  0.00     0.000 A 
ATOM     14  C   UNL     1      15.470  52.929  33.730  1.00  0.00     0.001 A 
ATOM     15  C   UNL     1      14.492  54.305  35.456  1.00  0.00     0.001 A 
ATOM     16  C   UNL     1      15.643  54.058  32.921  1.00  0.00     0.012 A 
ATOM     17  C   UNL     1      14.661  55.436  34.655  1.00  0.00     0.012 A 
ENDBRANCH   1  12
TORSDOF 1
ENDMDL
MODEL 7
REMARK VINA RESULT:    -5.259      6.066      9.375
REMARK INTER + INTRA:          -5.820
REMARK INTER:                  -5.582
REMARK INTRA:                  -0.238
REMARK UNBOUND:                -0.253
REMARK SMILES O=c1cc(-c2ccccc2)oc2ccccc12
REMARK SMILES IDX 4 1 3 2 2 3 1 4 17 5 16 6 15 7 14 8 13 9 12 10 11 11 5 12
REMARK SMILES IDX 8 13 7 14 9 15 6 16 10 17
REMARK H PARENT
REMARK Flexibility Score: inf
ROOT
ATOM      1  C   UNL     1      15.745  55.700  32.467  1.00  0.00     0.138 A 
ATOM      2  C   UNL     1      15.370  54.960  33.608  1.00  0.00     0.100 A 
ATOM      3  C   UNL     1      14.987  53.625  33.467  1.00  0.00     0.193 A 
ATOM      4  O   UNL     1      14.652  52.963  34.488  1.00  0.00    -0.289 OA
ATOM      5  C   UNL     1      14.979  53.038  32.194  1.00  0.00     0.065 A 
ATOM      6  C   UNL     1      14.604  51.699  31.983  1.00  0.00     0.016 A 
ATOM      7  C   UNL     1      14.615  51.165  30.690  1.00  0.00     0.001 A 
ATOM      8  C   UNL     1      14.999  51.957  29.605  1.00  0.00     0.004 A 
ATOM      9  C   UNL     1      15.373  53.289  29.805  1.00  0.00     0.048 A 
ATOM     10  C   UNL     1      15.365  53.834  31.094  1.00  0.00     0.138 A 
ATOM     11  O   UNL     1      15.723  55.101  31.275  1.00  0.00    -0.456 OA
ENDROOT
BRANCH   1  12
ATOM     12  C   UNL     1      16.168  57.132  32.529  1.00  0.00     0.017 A 
ATOM     13  C   UNL     1      17.051  59.812  32.601  1.00  0.00     0.000 A 
ATOM     14  C   UNL     1      15.811  59.471  33.142  1.00  0.00     0.001 A 
ATOM     15  C   UNL     1      17.854  58.828  32.026  1.00  0.00     0.001 A 
ATOM     16  C   UNL     1      15.368  58.145  33.108  1.00  0.00     0.012 A 
ATOM     17  C   UNL     1      17.419  57.501  31.989  1.00  0.00     0.012 A 
ENDBRANCH   1  12
TORSDOF 1
ENDMDL
MODEL 8
REMARK VINA RESULT:    -5.202      4.744      7.337
REMARK INTER + INTRA:          -5.760
REMARK INTER:                  -5.521
REMARK INTRA:                  -0.239
REMARK UNBOUND:                -0.253
REMARK SMILES O=c1cc(-c2ccccc2)oc2ccccc12
REMARK SMILES IDX 4 1 3 2 2 3 1 4 17 5 16 6 15 7 14 8 13 9 12 10 11 11 5 12
REMARK SMILES IDX 8 13 7 14 9 15 6 16 10 17
REMARK H PARENT
REMARK Flexibility Score: inf
ROOT
ATOM      1  C   UNL     1      14.632  52.259  31.502  1.00  0.00     0.138 A 
ATOM      2  C   UNL     1      13.301  52.689  31.310  1.00  0.00     0.100 A 
ATOM      3  C   UNL     1      12.671  53.443  32.302  1.00  0.00     0.193 A 
ATOM      4  O   UNL     1      11.482  53.827  32.129  1.00  0.00    -0.289 OA
ATOM      5  C   UNL     1      13.369  53.761  33.475  1.00  0.00     0.065 A 
ATOM      6  C   UNL     1      12.793  54.516  34.513  1.00  0.00     0.016 A 
ATOM      7  C   UNL     1      13.535  54.806  35.662  1.00  0.00     0.001 A 
ATOM      8  C   UNL     1      14.849  54.347  35.785  1.00  0.00     0.004 A 
ATOM      9  C   UNL     1      15.430  53.596  34.759  1.00  0.00     0.048 A 
ATOM     10  C   UNL     1      14.697  53.300  33.605  1.00  0.00     0.138 A 
ATOM     11  O   UNL     1      15.257  52.586  32.635  1.00  0.00    -0.456 OA
ENDROOT
BRANCH   1  12
ATOM     12  C   UNL     1      15.379  51.450  30.492  1.00  0.00     0.017 A 
ATOM     13  C   UNL     1      16.766  49.988  28.515  1.00  0.00     0.000 A 
ATOM     14  C   UNL     1      16.725  49.520  29.829  1.00  0.00     0.001 A 
ATOM     15  C   UNL     1      16.121  51.177  28.180  1.00  0.00     0.001 A 
ATOM     16  C   UNL     1      16.040  50.240  30.812  1.00  0.00     0.012 A 
ATOM     17  C   UNL     1      15.434  51.903  29.156  1.00  0.00     0.012 A 
ENDBRANCH   1  12
TORSDOF 1
ENDMDL
MODEL 9
REMARK VINA RESULT:    -5.038      4.475      6.174
REMARK INTER + INTRA:          -5.586
REMARK INTER:                  -5.353
REMARK INTRA:                  -0.233
REMARK UNBOUND:                -0.253
REMARK SMILES O=c1cc(-c2ccccc2)oc2ccccc12
REMARK SMILES IDX 4 1 3 2 2 3 1 4 17 5 16 6 15 7 14 8 13 9 12 10 11 11 5 12
REMARK SMILES IDX 8 13 7 14 9 15 6 16 10 17
REMARK H PARENT
REMARK Flexibility Score: inf
ROOT
ATOM      1  C   UNL     1      14.958  52.793  31.743  1.00  0.00     0.138 A 
ATOM      2  C   UNL     1      14.864  53.556  30.560  1.00  0.00     0.100 A 
ATOM      3  C   UNL     1      15.223  52.981  29.340  1.00  0.00     0.193 A 
ATOM      4  O   UNL     1      15.137  53.664  28.282  1.00  0.00    -0.289 OA
ATOM      5  C   UNL     1      15.672  51.654  29.306  1.00  0.00     0.065 A 
ATOM      6  C   UNL     1      16.048  51.015  28.111  1.00  0.00     0.016 A 
ATOM      7  C   UNL     1      16.488  49.688  28.136  1.00  0.00     0.001 A 
ATOM      8  C   UNL     1      16.556  48.992  29.345  1.00  0.00     0.004 A 
ATOM      9  C   UNL     1      16.184  49.618  30.538  1.00  0.00     0.048 A 
ATOM     10  C   UNL     1      15.742  50.945  30.525  1.00  0.00     0.138 A 
ATOM     11  O   UNL     1      15.391  51.533  31.664  1.00  0.00    -0.456 OA
ENDROOT
BRANCH   1  12
ATOM     12  C   UNL     1      14.595  53.331  33.090  1.00  0.00     0.017 A 
ATOM     13  C   UNL     1      14.002  54.331  35.662  1.00  0.00     0.000 A 
ATOM     14  C   UNL     1      13.004  54.273  34.689  1.00  0.00     0.001 A 
ATOM     15  C   UNL     1      15.291  53.894  35.363  1.00  0.00     0.001 A 
ATOM     16  C   UNL     1      13.292  53.778  33.413  1.00  0.00     0.012 A 
ATOM     17  C   UNL     1      15.588  53.399  34.091  1.00  0.00     0.012 A 
ENDBRANCH   1  12
TORSDOF 1
ENDMDL
