MODEL 1
REMARK VINA RESULT:    -3.931      0.000      0.000
REMARK INTER + INTRA:          -4.658
REMARK INTER:                  -4.621
REMARK INTRA:                  -0.037
REMARK UNBOUND:                -0.037
REMARK SMILES O=C([O-])CCC(=O)[O-]
REMARK SMILES IDX 4 1 2 2 1 3 3 4 5 5 6 6 7 7 8 8
REMARK H PARENT
REMARK Flexibility Score: inf
ROOT
ATOM      1  C   UNL     1      -1.542  -1.429   4.551  1.00  0.00     0.059 C 
ENDROOT
BRANCH   1   2
ATOM      2  C   UNL     1      -1.587  -2.864   4.132  1.00  0.00     0.042 C 
ATOM      3  O   UNL     1      -1.837  -3.764   4.976  1.00  0.00    -0.550 OA
ATOM      4  O   UNL     1      -1.305  -3.213   2.817  1.00  0.00    -0.550 OA
ENDBRANCH   1   2
BRANCH   1   5
ATOM      5  C   UNL     1      -1.338  -1.319   6.063  1.00  0.00     0.059 C 
BRANCH   5   6
ATOM      6  C   UNL     1      -1.287   0.117   6.481  1.00  0.00     0.042 C 
ATOM      7  O   UNL     1      -1.490   0.434   7.682  1.00  0.00    -0.550 OA
ATOM      8  O   UNL     1      -1.063   1.109   5.534  1.00  0.00    -0.550 OA
ENDBRANCH   5   6
ENDBRANCH   1   5
TORSDOF 3
ENDMDL
MODEL 2
REMARK VINA RESULT:    -3.809      0.337      4.277
REMARK INTER + INTRA:          -4.514
REMARK INTER:                  -4.473
REMARK INTRA:                  -0.041
REMARK UNBOUND:                -0.037
REMARK SMILES O=C([O-])CCC(=O)[O-]
REMARK SMILES IDX 4 1 2 2 1 3 3 4 5 5 6 6 7 7 8 8
REMARK H PARENT
REMARK Flexibility Score: inf
ROOT
ATOM      1  C   UNL     1      -1.466  -1.168   5.974  1.00  0.00     0.059 C 
ENDROOT
BRANCH   1   2
ATOM      2  C   UNL     1      -1.109   0.220   6.400  1.00  0.00     0.042 C 
ATOM      3  O   UNL     1      -1.114   1.161   5.565  1.00  0.00    -0.550 OA
ATOM      4  O   UNL     1      -0.722   0.466   7.712  1.00  0.00    -0.550 OA
ENDBRANCH   1   2
BRANCH   1   5
ATOM      5  C   UNL     1      -1.499  -1.268   4.448  1.00  0.00     0.059 C 
BRANCH   5   6
ATOM      6  C   UNL     1      -1.512  -2.701   4.017  1.00  0.00     0.042 C 
ATOM      7  O   UNL     1      -1.632  -3.618   4.871  1.00  0.00    -0.550 OA
ATOM      8  O   UNL     1      -1.344  -3.026   2.677  1.00  0.00    -0.550 OA
ENDBRANCH   5   6
ENDBRANCH   1   5
TORSDOF 3
ENDMDL
MODEL 3
REMARK VINA RESULT:    -3.592      1.353      1.997
REMARK INTER + INTRA:          -4.259
REMARK INTER:                  -4.225
REMARK INTRA:                  -0.035
REMARK UNBOUND:                -0.037
REMARK SMILES O=C([O-])CCC(=O)[O-]
REMARK SMILES IDX 4 1 2 2 1 3 3 4 5 5 6 6 7 7 8 8
REMARK H PARENT
REMARK Flexibility Score: inf
ROOT
ATOM      1  C   UNL     1      -1.245  -1.539   6.113  1.00  0.00     0.059 C 
ENDROOT
BRANCH   1   2
ATOM      2  C   UNL     1      -1.536  -1.792   4.668  1.00  0.00     0.042 C 
ATOM      3  O   UNL     1      -1.801  -0.833   3.897  1.00  0.00    -0.550 OA
ATOM      4  O   UNL     1      -1.564  -3.093   4.183  1.00  0.00    -0.550 OA
ENDBRANCH   1   2
BRANCH   1   5
ATOM      5  C   UNL     1      -1.264  -0.039   6.409  1.00  0.00     0.059 C 
BRANCH   5   6
ATOM      6  C   UNL     1      -1.257   0.204   7.885  1.00  0.00     0.042 C 
ATOM      7  O   UNL     1      -2.333   0.440   8.493  1.00  0.00    -0.550 OA
ATOM      8  O   UNL     1      -0.055   0.216   8.582  1.00  0.00    -0.550 OA
ENDBRANCH   5   6
ENDBRANCH   1   5
TORSDOF 3
ENDMDL
MODEL 4
REMARK VINA RESULT:    -3.496      2.148      4.266
REMARK INTER + INTRA:          -4.147
REMARK INTER:                  -4.098
REMARK INTRA:                  -0.049
REMARK UNBOUND:                -0.037
REMARK SMILES O=C([O-])CCC(=O)[O-]
REMARK SMILES IDX 4 1 2 2 1 3 3 4 5 5 6 6 7 7 8 8
REMARK H PARENT
REMARK Flexibility Score: inf
ROOT
ATOM      1  C   UNL     1      -1.194   0.046   7.880  1.00  0.00     0.059 C 
ENDROOT
BRANCH   1   2
ATOM      2  C   UNL     1      -0.204  -0.381   8.917  1.00  0.00     0.042 C 
ATOM      3  O   UNL     1      -0.329  -1.493   9.493  1.00  0.00    -0.550 OA
ATOM      4  O   UNL     1       0.830   0.471   9.282  1.00  0.00    -0.550 OA
ENDBRANCH   1   2
BRANCH   1   5
ATOM      5  C   UNL     1      -1.161  -0.906   6.683  1.00  0.00     0.059 C 
BRANCH   5   6
ATOM      6  C   UNL     1      -1.294  -0.141   5.404  1.00  0.00     0.042 C 
ATOM      7  O   UNL     1      -1.030   1.089   5.371  1.00  0.00    -0.550 OA
ATOM      8  O   UNL     1      -1.756  -0.778   4.259  1.00  0.00    -0.550 OA
ENDBRANCH   5   6
ENDBRANCH   1   5
TORSDOF 3
ENDMDL
MODEL 5
REMARK VINA RESULT:    -3.388      2.067      3.225
REMARK INTER + INTRA:          -4.020
REMARK INTER:                  -3.976
REMARK INTRA:                  -0.044
REMARK UNBOUND:                -0.037
REMARK SMILES O=C([O-])CCC(=O)[O-]
REMARK SMILES IDX 4 1 2 2 1 3 3 4 5 5 6 6 7 7 8 8
REMARK H PARENT
REMARK Flexibility Score: inf
ROOT
ATOM      1  C   UNL     1      -1.183  -0.952   6.693  1.00  0.00     0.059 C 
ENDROOT
BRANCH   1   2
ATOM      2  C   UNL     1      -1.302  -0.293   5.355  1.00  0.00     0.042 C 
ATOM      3  O   UNL     1      -1.551  -0.980   4.331  1.00  0.00    -0.550 OA
ATOM      4  O   UNL     1      -1.090   1.074   5.233  1.00  0.00    -0.550 OA
ENDBRANCH   1   2
BRANCH   1   5
ATOM      5  C   UNL     1      -1.174   0.096   7.807  1.00  0.00     0.059 C 
BRANCH   5   6
ATOM      6  C   UNL     1      -0.205  -0.289   8.880  1.00  0.00     0.042 C 
ATOM      7  O   UNL     1      -0.348  -1.373   9.503  1.00  0.00    -0.550 OA
ATOM      8  O   UNL     1       0.829   0.573   9.225  1.00  0.00    -0.550 OA
ENDBRANCH   5   6
ENDBRANCH   1   5
TORSDOF 3
ENDMDL
MODEL 6
REMARK VINA RESULT:    -3.296      2.329      3.463
REMARK INTER + INTRA:          -3.911
REMARK INTER:                  -3.869
REMARK INTRA:                  -0.042
REMARK UNBOUND:                -0.037
REMARK SMILES O=C([O-])CCC(=O)[O-]
REMARK SMILES IDX 4 1 2 2 1 3 3 4 5 5 6 6 7 7 8 8
REMARK H PARENT
REMARK Flexibility Score: inf
ROOT
ATOM      1  C   UNL     1      -1.173  -4.086   5.516  1.00  0.00     0.059 C 
ENDROOT
BRANCH   1   2
ATOM      2  C   UNL     1      -0.492  -4.700   6.698  1.00  0.00     0.042 C 
ATOM      3  O   UNL     1      -0.280  -4.017   7.734  1.00  0.00    -0.550 OA
ATOM      4  O   UNL     1      -0.048  -6.015   6.638  1.00  0.00    -0.550 OA
ENDBRANCH   1   2
BRANCH   1   5
ATOM      5  C   UNL     1      -1.303  -2.574   5.699  1.00  0.00     0.059 C 
BRANCH   5   6
ATOM      6  C   UNL     1      -1.505  -1.902   4.377  1.00  0.00     0.042 C 
ATOM      7  O   UNL     1      -1.725  -0.664   4.323  1.00  0.00    -0.550 OA
ATOM      8  O   UNL     1      -1.499  -2.652   3.208  1.00  0.00    -0.550 OA
ENDBRANCH   5   6
ENDBRANCH   1   5
TORSDOF 3
ENDMDL
MODEL 7
REMARK VINA RESULT:    -3.206     12.863     13.418
REMARK INTER + INTRA:          -3.806
REMARK INTER:                  -3.774
REMARK INTRA:                  -0.033
REMARK UNBOUND:                -0.037
REMARK SMILES O=C([O-])CCC(=O)[O-]
REMARK SMILES IDX 4 1 2 2 1 3 3 4 5 5 6 6 7 7 8 8
REMARK H PARENT
REMARK Flexibility Score: inf
ROOT
ATOM      1  C   UNL     1       7.811  -7.658  -1.485  1.00  0.00     0.059 C 
ENDROOT
BRANCH   1   2
ATOM      2  C   UNL     1       7.698  -8.802  -0.527  1.00  0.00     0.042 C 
ATOM      3  O   UNL     1       7.705  -9.987  -0.951  1.00  0.00    -0.550 OA
ATOM      4  O   UNL     1       7.535  -8.557   0.831  1.00  0.00    -0.550 OA
ENDBRANCH   1   2
BRANCH   1   5
ATOM      5  C   UNL     1       7.263  -8.052  -2.857  1.00  0.00     0.059 C 
BRANCH   5   6
ATOM      6  C   UNL     1       6.714  -6.854  -3.565  1.00  0.00     0.042 C 
ATOM      7  O   UNL     1       5.495  -6.806  -3.877  1.00  0.00    -0.550 OA
ATOM      8  O   UNL     1       7.558  -5.810  -3.923  1.00  0.00    -0.550 OA
ENDBRANCH   5   6
ENDBRANCH   1   5
TORSDOF 3
ENDMDL
MODEL 8
REMARK VINA RESULT:    -3.077      8.218      9.358
REMARK INTER + INTRA:          -3.654
REMARK INTER:                  -3.537
REMARK INTRA:                  -0.116
REMARK UNBOUND:                -0.037
REMARK SMILES O=C([O-])CCC(=O)[O-]
REMARK SMILES IDX 4 1 2 2 1 3 3 4 5 5 6 6 7 7 8 8
REMARK H PARENT
REMARK Flexibility Score: inf
ROOT
ATOM      1  C   UNL     1       5.632   0.014   7.998  1.00  0.00     0.059 C 
ENDROOT
BRANCH   1   2
ATOM      2  C   UNL     1       4.868   0.966   8.863  1.00  0.00     0.042 C 
ATOM      3  O   UNL     1       3.666   0.733   9.155  1.00  0.00    -0.550 OA
ATOM      4  O   UNL     1       5.470   2.137   9.305  1.00  0.00    -0.550 OA
ENDBRANCH   1   2
BRANCH   1   5
ATOM      5  C   UNL     1       6.958  -0.364   8.660  1.00  0.00     0.059 C 
BRANCH   5   6
ATOM      6  C   UNL     1       8.108   0.196   7.883  1.00  0.00     0.042 C 
ATOM      7  O   UNL     1       8.636  -0.477   6.960  1.00  0.00    -0.550 OA
ATOM      8  O   UNL     1       8.627   1.442   8.210  1.00  0.00    -0.550 OA
ENDBRANCH   5   6
ENDBRANCH   1   5
TORSDOF 3
ENDMDL
MODEL 9
REMARK VINA RESULT:    -3.005     11.535     12.484
REMARK INTER + INTRA:          -3.570
REMARK INTER:                  -3.460
REMARK INTRA:                  -0.109
REMARK UNBOUND:                -0.037
REMARK SMILES O=C([O-])CCC(=O)[O-]
REMARK SMILES IDX 4 1 2 2 1 3 3 4 5 5 6 6 7 7 8 8
REMARK H PARENT
REMARK Flexibility Score: inf
ROOT
ATOM      1  C   UNL     1      -6.072   9.474   0.007  1.00  0.00     0.059 C 
ENDROOT
BRANCH   1   2
ATOM      2  C   UNL     1      -4.806   9.911   0.674  1.00  0.00     0.042 C 
ATOM      3  O   UNL     1      -3.749  10.043   0.004  1.00  0.00    -0.550 OA
ATOM      4  O   UNL     1      -4.783  10.124   2.046  1.00  0.00    -0.550 OA
ENDBRANCH   1   2
BRANCH   1   5
ATOM      5  C   UNL     1      -6.182   7.949   0.014  1.00  0.00     0.059 C 
BRANCH   5   6
ATOM      6  C   UNL     1      -7.240   7.505   0.974  1.00  0.00     0.042 C 
ATOM      7  O   UNL     1      -7.138   7.777   2.199  1.00  0.00    -0.550 OA
ATOM      8  O   UNL     1      -8.316   6.750   0.524  1.00  0.00    -0.550 OA
ENDBRANCH   5   6
ENDBRANCH   1   5
TORSDOF 3
ENDMDL
