MODEL 1
REMARK VINA RESULT:    -3.274      0.000      0.000
REMARK INTER + INTRA:          -4.389
REMARK INTER:                  -4.231
REMARK INTRA:                  -0.159
REMARK UNBOUND:                -0.159
REMARK SMILES C=CC(=O)CCCCC
REMARK SMILES IDX 6 1 7 2 8 3 9 4 5 5 3 6 4 7 2 8 1 9
REMARK H PARENT
REMARK Flexibility Score: inf
ROOT
ATOM      1  C   UNL     1      31.244  28.607  75.675  1.00  0.00     0.008 C 
ENDROOT
BRANCH   1   2
ATOM      2  C   UNL     1      31.048  28.113  77.123  1.00  0.00     0.000 C 
BRANCH   2   3
ATOM      3  C   UNL     1      32.283  28.256  78.030  1.00  0.00    -0.003 C 
ATOM      4  C   UNL     1      32.097  29.297  79.133  1.00  0.00     0.004 C 
ENDBRANCH   2   3
ENDBRANCH   1   2
BRANCH   1   5
ATOM      5  C   UNL     1      30.241  28.029  74.662  1.00  0.00     0.080 C 
BRANCH   5   6
ATOM      6  C   UNL     1      29.433  29.102  73.978  1.00  0.00     0.155 C 
ATOM      7  O   UNL     1      30.030  30.128  73.556  1.00  0.00    -0.295 OA
BRANCH   6   8
ATOM      8  C   UNL     1      27.975  28.999  73.749  1.00  0.00     0.039 C 
ATOM      9  C   UNL     1      27.133  28.377  74.574  1.00  0.00     0.012 C 
ENDBRANCH   6   8
ENDBRANCH   5   6
ENDBRANCH   1   5
TORSDOF 5
ENDMDL
MODEL 2
REMARK VINA RESULT:    -3.227     14.395     15.981
REMARK INTER + INTRA:          -4.329
REMARK INTER:                  -3.807
REMARK INTRA:                  -0.522
REMARK UNBOUND:                -0.159
REMARK SMILES C=CC(=O)CCCCC
REMARK SMILES IDX 6 1 7 2 8 3 9 4 5 5 3 6 4 7 2 8 1 9
REMARK H PARENT
REMARK Flexibility Score: inf
ROOT
ATOM      1  C   UNL     1      23.598  34.968  86.173  1.00  0.00     0.008 C 
ENDROOT
BRANCH   1   2
ATOM      2  C   UNL     1      22.599  35.398  85.078  1.00  0.00     0.000 C 
BRANCH   2   3
ATOM      3  C   UNL     1      21.760  36.642  85.419  1.00  0.00    -0.003 C 
ATOM      4  C   UNL     1      22.506  37.953  85.168  1.00  0.00     0.004 C 
ENDBRANCH   2   3
ENDBRANCH   1   2
BRANCH   1   5
ATOM      5  C   UNL     1      22.948  34.562  87.506  1.00  0.00     0.080 C 
BRANCH   5   6
ATOM      6  C   UNL     1      23.481  35.357  88.671  1.00  0.00     0.155 C 
ATOM      7  O   UNL     1      24.158  34.757  89.547  1.00  0.00    -0.295 OA
BRANCH   6   8
ATOM      8  C   UNL     1      23.272  36.813  88.823  1.00  0.00     0.039 C 
ATOM      9  C   UNL     1      24.166  37.736  88.469  1.00  0.00     0.012 C 
ENDBRANCH   6   8
ENDBRANCH   5   6
ENDBRANCH   1   5
TORSDOF 5
ENDMDL
MODEL 3
REMARK VINA RESULT:    -3.204      2.236      3.809
REMARK INTER + INTRA:          -4.300
REMARK INTER:                  -3.864
REMARK INTRA:                  -0.435
REMARK UNBOUND:                -0.159
REMARK SMILES C=CC(=O)CCCCC
REMARK SMILES IDX 6 1 7 2 8 3 9 4 5 5 3 6 4 7 2 8 1 9
REMARK H PARENT
REMARK Flexibility Score: inf
ROOT
ATOM      1  C   UNL     1      27.925  29.067  73.705  1.00  0.00     0.008 C 
ENDROOT
BRANCH   1   2
ATOM      2  C   UNL     1      29.138  28.130  73.880  1.00  0.00     0.000 C 
BRANCH   2   3
ATOM      3  C   UNL     1      29.870  28.262  75.227  1.00  0.00    -0.003 C 
ATOM      4  C   UNL     1      31.371  28.508  75.070  1.00  0.00     0.004 C 
ENDBRANCH   2   3
ENDBRANCH   1   2
BRANCH   1   5
ATOM      5  C   UNL     1      27.997  29.979  72.469  1.00  0.00     0.080 C 
BRANCH   5   6
ATOM      6  C   UNL     1      28.482  31.367  72.806  1.00  0.00     0.155 C 
ATOM      7  O   UNL     1      27.713  32.133  73.444  1.00  0.00    -0.295 OA
BRANCH   6   8
ATOM      8  C   UNL     1      29.828  31.864  72.450  1.00  0.00     0.039 C 
ATOM      9  C   UNL     1      30.964  31.270  72.815  1.00  0.00     0.012 C 
ENDBRANCH   6   8
ENDBRANCH   5   6
ENDBRANCH   1   5
TORSDOF 5
ENDMDL
MODEL 4
REMARK VINA RESULT:    -3.176     13.880     15.020
REMARK INTER + INTRA:          -4.263
REMARK INTER:                  -3.746
REMARK INTRA:                  -0.517
REMARK UNBOUND:                -0.159
REMARK SMILES C=CC(=O)CCCCC
REMARK SMILES IDX 6 1 7 2 8 3 9 4 5 5 3 6 4 7 2 8 1 9
REMARK H PARENT
REMARK Flexibility Score: inf
ROOT
ATOM      1  C   UNL     1      23.094  34.534  87.191  1.00  0.00     0.008 C 
ENDROOT
BRANCH   1   2
ATOM      2  C   UNL     1      23.617  35.432  88.331  1.00  0.00     0.000 C 
BRANCH   2   3
ATOM      3  C   UNL     1      24.060  36.840  87.896  1.00  0.00    -0.003 C 
ATOM      4  C   UNL     1      23.289  37.955  88.604  1.00  0.00     0.004 C 
ENDBRANCH   2   3
ENDBRANCH   1   2
BRANCH   1   5
ATOM      5  C   UNL     1      23.475  35.009  85.778  1.00  0.00     0.080 C 
BRANCH   5   6
ATOM      6  C   UNL     1      22.269  35.383  84.954  1.00  0.00     0.155 C 
ATOM      7  O   UNL     1      21.849  34.560  84.098  1.00  0.00    -0.295 OA
BRANCH   6   8
ATOM      8  C   UNL     1      21.537  36.657  85.118  1.00  0.00     0.039 C 
ATOM      9  C   UNL     1      22.103  37.860  85.027  1.00  0.00     0.012 C 
ENDBRANCH   6   8
ENDBRANCH   5   6
ENDBRANCH   1   5
TORSDOF 5
ENDMDL
MODEL 5
REMARK VINA RESULT:    -3.170     14.397     15.825
REMARK INTER + INTRA:          -4.255
REMARK INTER:                  -3.649
REMARK INTRA:                  -0.606
REMARK UNBOUND:                -0.159
REMARK SMILES C=CC(=O)CCCCC
REMARK SMILES IDX 6 1 7 2 8 3 9 4 5 5 3 6 4 7 2 8 1 9
REMARK H PARENT
REMARK Flexibility Score: inf
ROOT
ATOM      1  C   UNL     1      23.100  34.586  87.255  1.00  0.00     0.008 C 
ENDROOT
BRANCH   1   2
ATOM      2  C   UNL     1      23.580  34.914  85.826  1.00  0.00     0.000 C 
BRANCH   2   3
ATOM      3  C   UNL     1      22.474  34.920  84.756  1.00  0.00    -0.003 C 
ATOM      4  C   UNL     1      21.081  34.672  85.335  1.00  0.00     0.004 C 
ENDBRANCH   2   3
ENDBRANCH   1   2
BRANCH   1   5
ATOM      5  C   UNL     1      23.718  35.467  88.354  1.00  0.00     0.080 C 
BRANCH   5   6
ATOM      6  C   UNL     1      23.454  36.935  88.130  1.00  0.00     0.155 C 
ATOM      7  O   UNL     1      24.438  37.719  88.067  1.00  0.00    -0.295 OA
BRANCH   6   8
ATOM      8  C   UNL     1      22.099  37.498  87.951  1.00  0.00     0.039 C 
ATOM      9  C   UNL     1      21.684  38.107  86.840  1.00  0.00     0.012 C 
ENDBRANCH   6   8
ENDBRANCH   5   6
ENDBRANCH   1   5
TORSDOF 5
ENDMDL
MODEL 6
REMARK VINA RESULT:    -3.142     14.111     15.347
REMARK INTER + INTRA:          -4.219
REMARK INTER:                  -3.663
REMARK INTRA:                  -0.556
REMARK UNBOUND:                -0.159
REMARK SMILES C=CC(=O)CCCCC
REMARK SMILES IDX 6 1 7 2 8 3 9 4 5 5 3 6 4 7 2 8 1 9
REMARK H PARENT
REMARK Flexibility Score: inf
ROOT
ATOM      1  C   UNL     1      22.710  37.849  85.334  1.00  0.00     0.008 C 
ENDROOT
BRANCH   1   2
ATOM      2  C   UNL     1      22.498  38.773  86.552  1.00  0.00     0.000 C 
BRANCH   2   3
ATOM      3  C   UNL     1      22.686  38.095  87.920  1.00  0.00    -0.003 C 
ATOM      4  C   UNL     1      24.146  37.765  88.229  1.00  0.00     0.004 C 
ENDBRANCH   2   3
ENDBRANCH   1   2
BRANCH   1   5
ATOM      5  C   UNL     1      21.651  36.744  85.180  1.00  0.00     0.080 C 
BRANCH   5   6
ATOM      6  C   UNL     1      22.265  35.374  85.044  1.00  0.00     0.155 C 
ATOM      7  O   UNL     1      21.893  34.641  84.090  1.00  0.00    -0.295 OA
BRANCH   6   8
ATOM      8  C   UNL     1      23.304  34.857  85.959  1.00  0.00     0.039 C 
ATOM      9  C   UNL     1      23.058  34.398  87.186  1.00  0.00     0.012 C 
ENDBRANCH   6   8
ENDBRANCH   5   6
ENDBRANCH   1   5
TORSDOF 5
ENDMDL
MODEL 7
REMARK VINA RESULT:    -3.137     14.595     15.956
REMARK INTER + INTRA:          -4.212
REMARK INTER:                  -3.708
REMARK INTRA:                  -0.504
REMARK UNBOUND:                -0.159
REMARK SMILES C=CC(=O)CCCCC
REMARK SMILES IDX 6 1 7 2 8 3 9 4 5 5 3 6 4 7 2 8 1 9
REMARK H PARENT
REMARK Flexibility Score: inf
ROOT
ATOM      1  C   UNL     1      21.730  36.739  85.358  1.00  0.00     0.008 C 
ENDROOT
BRANCH   1   2
ATOM      2  C   UNL     1      22.329  35.385  84.923  1.00  0.00     0.000 C 
BRANCH   2   3
ATOM      3  C   UNL     1      23.475  34.869  85.810  1.00  0.00    -0.003 C 
ATOM      4  C   UNL     1      22.996  34.354  87.167  1.00  0.00     0.004 C 
ENDBRANCH   2   3
ENDBRANCH   1   2
BRANCH   1   5
ATOM      5  C   UNL     1      22.744  37.893  85.428  1.00  0.00     0.080 C 
BRANCH   5   6
ATOM      6  C   UNL     1      22.535  38.770  86.637  1.00  0.00     0.155 C 
ATOM      7  O   UNL     1      21.872  39.832  86.500  1.00  0.00    -0.295 OA
BRANCH   6   8
ATOM      8  C   UNL     1      23.044  38.432  87.983  1.00  0.00     0.039 C 
ATOM      9  C   UNL     1      24.131  37.694  88.206  1.00  0.00     0.012 C 
ENDBRANCH   6   8
ENDBRANCH   5   6
ENDBRANCH   1   5
TORSDOF 5
ENDMDL
MODEL 8
REMARK VINA RESULT:    -3.054     14.518     16.029
REMARK INTER + INTRA:          -4.106
REMARK INTER:                  -3.594
REMARK INTRA:                  -0.511
REMARK UNBOUND:                -0.159
REMARK SMILES C=CC(=O)CCCCC
REMARK SMILES IDX 6 1 7 2 8 3 9 4 5 5 3 6 4 7 2 8 1 9
REMARK H PARENT
REMARK Flexibility Score: inf
ROOT
ATOM      1  C   UNL     1      23.243  36.456  89.046  1.00  0.00     0.008 C 
ENDROOT
BRANCH   1   2
ATOM      2  C   UNL     1      23.857  37.620  88.241  1.00  0.00     0.000 C 
BRANCH   2   3
ATOM      3  C   UNL     1      22.836  38.605  87.645  1.00  0.00    -0.003 C 
ATOM      4  C   UNL     1      22.670  38.453  86.133  1.00  0.00     0.004 C 
ENDBRANCH   2   3
ENDBRANCH   1   2
BRANCH   1   5
ATOM      5  C   UNL     1      23.788  35.066  88.673  1.00  0.00     0.080 C 
BRANCH   5   6
ATOM      6  C   UNL     1      22.845  34.300  87.780  1.00  0.00     0.155 C 
ATOM      7  O   UNL     1      22.184  33.351  88.278  1.00  0.00    -0.295 OA
BRANCH   6   8
ATOM      8  C   UNL     1      22.635  34.625  86.353  1.00  0.00     0.039 C 
ATOM      9  C   UNL     1      23.612  34.975  85.515  1.00  0.00     0.012 C 
ENDBRANCH   6   8
ENDBRANCH   5   6
ENDBRANCH   1   5
TORSDOF 5
ENDMDL
MODEL 9
REMARK VINA RESULT:    -3.047     17.643     19.196
REMARK INTER + INTRA:          -4.096
REMARK INTER:                  -3.521
REMARK INTRA:                  -0.575
REMARK UNBOUND:                -0.159
REMARK SMILES C=CC(=O)CCCCC
REMARK SMILES IDX 6 1 7 2 8 3 9 4 5 5 3 6 4 7 2 8 1 9
REMARK H PARENT
REMARK Flexibility Score: inf
ROOT
ATOM      1  C   UNL     1      28.527  46.653  83.053  1.00  0.00     0.008 C 
ENDROOT
BRANCH   1   2
ATOM      2  C   UNL     1      29.336  46.128  81.849  1.00  0.00     0.000 C 
BRANCH   2   3
ATOM      3  C   UNL     1      28.902  44.746  81.329  1.00  0.00    -0.003 C 
ATOM      4  C   UNL     1      27.508  44.339  81.806  1.00  0.00     0.004 C 
ENDBRANCH   2   3
ENDBRANCH   1   2
BRANCH   1   5
ATOM      5  C   UNL     1      29.364  46.919  84.316  1.00  0.00     0.080 C 
BRANCH   5   6
ATOM      6  C   UNL     1      29.070  45.933  85.418  1.00  0.00     0.155 C 
ATOM      7  O   UNL     1      28.563  46.362  86.489  1.00  0.00    -0.295 OA
BRANCH   6   8
ATOM      8  C   UNL     1      29.321  44.481  85.296  1.00  0.00     0.039 C 
ATOM      9  C   UNL     1      30.425  43.956  84.766  1.00  0.00     0.012 C 
ENDBRANCH   6   8
ENDBRANCH   5   6
ENDBRANCH   1   5
TORSDOF 5
ENDMDL
