MODEL 1
REMARK VINA RESULT:    -6.272      0.000      0.000
REMARK INTER + INTRA:          -9.702
REMARK INTER:                  -8.655
REMARK INTRA:                  -1.047
REMARK UNBOUND:                -1.047
REMARK SMILES O=C([O-])[C@H]1O[C@H](Oc2cc3oc(-c4ccccc4)cc(=O)c3c(O)c2O)[C@H](O)[C@H](O)[C@@H]1O
REMARK SMILES IDX 7 1 6 2 4 3 31 4 5 5 29 6 27 7 2 8 1 9 3 10 32 11 30 13
REMARK SMILES IDX 28 15 8 17 25 18 9 19 23 20 10 21 22 22 11 23 20 24 12 25
REMARK SMILES IDX 19 26 21 27 26 28 24 30 13 32 14 33 18 34 15 35 17 36 16 37
REMARK H PARENT 32 12 30 14 28 16 26 29 24 31
REMARK Flexibility Score: inf
ROOT
ATOM      1  O   UNL     1      42.950  18.028  -2.008  1.00  0.00    -0.458 OA
ENDROOT
BRANCH   1   2
ATOM      2  C   UNL     1      43.070  19.270  -2.723  1.00  0.00     0.339 C 
ATOM      3  C   UNL     1      40.784  19.112  -3.269  1.00  0.00     0.199 C 
ATOM      4  C   UNL     1      40.464  19.879  -1.946  1.00  0.00     0.180 C 
ATOM      5  O   UNL     1      42.107  19.329  -3.758  1.00  0.00    -0.328 OA
ATOM      6  C   UNL     1      41.478  21.023  -1.750  1.00  0.00     0.181 C 
ATOM      7  C   UNL     1      42.940  20.513  -1.799  1.00  0.00     0.214 C 
BRANCH   3   8
ATOM      8  C   UNL     1      39.816  19.486  -4.353  1.00  0.00     0.073 C 
ATOM      9  O   UNL     1      38.969  18.652  -4.768  1.00  0.00    -0.547 OA
ATOM     10  O   UNL     1      38.875  18.572  -4.819  1.00  0.00    -0.547 OA
ENDBRANCH   3   8
BRANCH   4  11
ATOM     11  O   UNL     1      40.528  18.981  -0.863  1.00  0.00    -0.387 OA
ATOM     12  H   UNL     1      41.001  19.442  -0.121  1.00  0.00     0.211 HD
ENDBRANCH   4  11
BRANCH   6  13
ATOM     13  O   UNL     1      41.214  21.777  -0.590  1.00  0.00    -0.387 OA
ATOM     14  H   UNL     1      40.421  22.348  -0.763  1.00  0.00     0.211 HD
ENDBRANCH   6  13
BRANCH   7  15
ATOM     15  O   UNL     1      43.421  20.237  -0.507  1.00  0.00    -0.384 OA
ATOM     16  H   UNL     1      44.165  20.877  -0.339  1.00  0.00     0.211 HD
ENDBRANCH   7  15
ENDBRANCH   1   2
BRANCH   1  17
ATOM     17  C   UNL     1      43.523  16.823  -2.432  1.00  0.00     0.172 A 
ATOM     18  C   UNL     1      42.789  15.618  -2.478  1.00  0.00     0.201 A 
ATOM     19  C   UNL     1      44.867  16.829  -2.810  1.00  0.00     0.098 A 
ATOM     20  C   UNL     1      43.372  14.458  -3.026  1.00  0.00     0.176 A 
ATOM     21  C   UNL     1      45.465  15.680  -3.329  1.00  0.00     0.146 A 
ATOM     22  C   UNL     1      44.719  14.486  -3.460  1.00  0.00     0.111 A 
ATOM     23  O   UNL     1      46.738  15.730  -3.708  1.00  0.00    -0.456 OA
ATOM     24  C   UNL     1      45.373  13.367  -4.020  1.00  0.00     0.197 A 
ATOM     25  C   UNL     1      47.387  14.687  -4.223  1.00  0.00     0.138 A 
ATOM     26  C   UNL     1      46.711  13.469  -4.400  1.00  0.00     0.100 A 
ATOM     27  O   UNL     1      44.771  12.271  -4.190  1.00  0.00    -0.289 OA
BRANCH  18  28
ATOM     28  O   UNL     1      41.502  15.540  -1.943  1.00  0.00    -0.502 OA
ATOM     29  H   UNL     1      40.714  15.187  -2.470  1.00  0.00     0.293 HD
ENDBRANCH  18  28
BRANCH  20  30
ATOM     30  O   UNL     1      42.622  13.282  -3.125  1.00  0.00    -0.504 OA
ATOM     31  H   UNL     1      41.931  13.139  -3.850  1.00  0.00     0.293 HD
ENDBRANCH  20  30
BRANCH  25  32
ATOM     32  C   UNL     1      48.808  14.853  -4.615  1.00  0.00     0.017 A 
ATOM     33  C   UNL     1      49.742  13.859  -4.271  1.00  0.00     0.012 A 
ATOM     34  C   UNL     1      49.244  15.977  -5.344  1.00  0.00     0.012 A 
ATOM     35  C   UNL     1      51.084  13.988  -4.644  1.00  0.00     0.001 A 
ATOM     36  C   UNL     1      50.587  16.096  -5.719  1.00  0.00     0.001 A 
ATOM     37  C   UNL     1      51.506  15.106  -5.367  1.00  0.00     0.000 A 
ENDBRANCH  25  32
ENDBRANCH   1  17
TORSDOF 9
ENDMDL
MODEL 2
REMARK VINA RESULT:    -6.111      1.377      1.780
REMARK INTER + INTRA:          -9.480
REMARK INTER:                  -8.271
REMARK INTRA:                  -1.209
REMARK UNBOUND:                -1.047
REMARK SMILES O=C([O-])[C@H]1O[C@H](Oc2cc3oc(-c4ccccc4)cc(=O)c3c(O)c2O)[C@H](O)[C@H](O)[C@@H]1O
REMARK SMILES IDX 7 1 6 2 4 3 31 4 5 5 29 6 27 7 2 8 1 9 3 10 32 11 30 13
REMARK SMILES IDX 28 15 8 17 25 18 9 19 23 20 10 21 22 22 11 23 20 24 12 25
REMARK SMILES IDX 19 26 21 27 26 28 24 30 13 32 14 33 18 34 15 35 17 36 16 37
REMARK H PARENT 32 12 30 14 28 16 26 29 24 31
REMARK Flexibility Score: inf
ROOT
ATOM      1  O   UNL     1      43.020  17.578  -3.327  1.00  0.00    -0.458 OA
ENDROOT
BRANCH   1   2
ATOM      2  C   UNL     1      43.266  18.768  -2.560  1.00  0.00     0.339 C 
ATOM      3  C   UNL     1      41.989  19.977  -4.128  1.00  0.00     0.199 C 
ATOM      4  C   UNL     1      40.722  19.658  -3.270  1.00  0.00     0.180 C 
ATOM      5  O   UNL     1      43.214  19.907  -3.400  1.00  0.00    -0.328 OA
ATOM      6  C   UNL     1      41.060  19.802  -1.773  1.00  0.00     0.181 C 
ATOM      7  C   UNL     1      42.279  18.935  -1.371  1.00  0.00     0.214 C 
BRANCH   3   8
ATOM      8  C   UNL     1      41.889  21.339  -4.748  1.00  0.00     0.073 C 
ATOM      9  O   UNL     1      42.014  21.485  -5.992  1.00  0.00    -0.547 OA
ATOM     10  O   UNL     1      42.026  21.513  -6.122  1.00  0.00    -0.547 OA
ENDBRANCH   3   8
BRANCH   4  11
ATOM     11  O   UNL     1      40.292  18.347  -3.549  1.00  0.00    -0.387 OA
ATOM     12  H   UNL     1      40.781  17.736  -2.937  1.00  0.00     0.211 HD
ENDBRANCH   4  11
BRANCH   6  13
ATOM     13  O   UNL     1      39.942  19.565  -0.950  1.00  0.00    -0.387 OA
ATOM     14  H   UNL     1      39.290  20.300  -1.092  1.00  0.00     0.211 HD
ENDBRANCH   6  13
BRANCH   7  15
ATOM     15  O   UNL     1      41.868  17.686  -0.874  1.00  0.00    -0.384 OA
ATOM     16  H   UNL     1      42.690  17.132  -0.785  1.00  0.00     0.211 HD
ENDBRANCH   7  15
ENDBRANCH   1   2
BRANCH   1  17
ATOM     17  C   UNL     1      43.849  16.450  -3.308  1.00  0.00     0.172 A 
ATOM     18  C   UNL     1      43.391  15.190  -2.865  1.00  0.00     0.201 A 
ATOM     19  C   UNL     1      45.169  16.594  -3.737  1.00  0.00     0.098 A 
ATOM     20  C   UNL     1      44.223  14.058  -2.979  1.00  0.00     0.176 A 
ATOM     21  C   UNL     1      46.012  15.486  -3.829  1.00  0.00     0.146 A 
ATOM     22  C   UNL     1      45.543  14.202  -3.468  1.00  0.00     0.111 A 
ATOM     23  O   UNL     1      47.255  15.654  -4.271  1.00  0.00    -0.456 OA
ATOM     24  C   UNL     1      46.435  13.117  -3.612  1.00  0.00     0.197 A 
ATOM     25  C   UNL     1      48.125  14.655  -4.401  1.00  0.00     0.138 A 
ATOM     26  C   UNL     1      47.730  13.346  -4.078  1.00  0.00     0.100 A 
ATOM     27  O   UNL     1      46.087  11.937  -3.331  1.00  0.00    -0.289 OA
BRANCH  18  28
ATOM     28  O   UNL     1      42.137  15.051  -2.267  1.00  0.00    -0.502 OA
ATOM     29  H   UNL     1      41.837  14.192  -1.824  1.00  0.00     0.293 HD
ENDBRANCH  18  28
BRANCH  20  30
ATOM     30  O   UNL     1      43.744  12.802  -2.595  1.00  0.00    -0.504 OA
ATOM     31  H   UNL     1      44.215  11.942  -2.846  1.00  0.00     0.293 HD
ENDBRANCH  20  30
BRANCH  25  32
ATOM     32  C   UNL     1      49.487  14.954  -4.906  1.00  0.00     0.017 A 
ATOM     33  C   UNL     1      50.508  14.000  -4.752  1.00  0.00     0.012 A 
ATOM     34  C   UNL     1      49.780  16.169  -5.558  1.00  0.00     0.012 A 
ATOM     35  C   UNL     1      51.796  14.256  -5.234  1.00  0.00     0.001 A 
ATOM     36  C   UNL     1      51.069  16.416  -6.043  1.00  0.00     0.001 A 
ATOM     37  C   UNL     1      52.076  15.464  -5.878  1.00  0.00     0.000 A 
ENDBRANCH  25  32
ENDBRANCH   1  17
TORSDOF 9
ENDMDL
MODEL 3
REMARK VINA RESULT:    -6.061      1.413      2.390
REMARK INTER + INTRA:          -9.411
REMARK INTER:                  -8.493
REMARK INTRA:                  -0.917
REMARK UNBOUND:                -1.047
REMARK SMILES O=C([O-])[C@H]1O[C@H](Oc2cc3oc(-c4ccccc4)cc(=O)c3c(O)c2O)[C@H](O)[C@H](O)[C@@H]1O
REMARK SMILES IDX 7 1 6 2 4 3 31 4 5 5 29 6 27 7 2 8 1 9 3 10 32 11 30 13
REMARK SMILES IDX 28 15 8 17 25 18 9 19 23 20 10 21 22 22 11 23 20 24 12 25
REMARK SMILES IDX 19 26 21 27 26 28 24 30 13 32 14 33 18 34 15 35 17 36 16 37
REMARK H PARENT 32 12 30 14 28 16 26 29 24 31
REMARK Flexibility Score: inf
ROOT
ATOM      1  O   UNL     1      43.487  17.864  -3.198  1.00  0.00    -0.458 OA
ENDROOT
BRANCH   1   2
ATOM      2  C   UNL     1      42.222  18.059  -3.852  1.00  0.00     0.339 C 
ATOM      3  C   UNL     1      41.579  19.459  -2.069  1.00  0.00     0.199 C 
ATOM      4  C   UNL     1      42.195  20.662  -2.854  1.00  0.00     0.180 C 
ATOM      5  O   UNL     1      41.221  18.352  -2.895  1.00  0.00    -0.328 OA
ATOM      6  C   UNL     1      41.841  20.542  -4.349  1.00  0.00     0.181 C 
ATOM      7  C   UNL     1      42.268  19.173  -4.935  1.00  0.00     0.214 C 
BRANCH   3   8
ATOM      8  C   UNL     1      40.362  19.886  -1.303  1.00  0.00     0.073 C 
ATOM      9  O   UNL     1      40.454  20.216  -0.091  1.00  0.00    -0.547 OA
ATOM     10  O   UNL     1      40.451  20.253   0.037  1.00  0.00    -0.547 OA
ENDBRANCH   3   8
BRANCH   4  11
ATOM     11  O   UNL     1      43.593  20.658  -2.682  1.00  0.00    -0.387 OA
ATOM     12  H   UNL     1      43.994  20.288  -3.512  1.00  0.00     0.211 HD
ENDBRANCH   4  11
BRANCH   6  13
ATOM     13  O   UNL     1      42.338  21.623  -5.102  1.00  0.00    -0.387 OA
ATOM     14  H   UNL     1      41.603  21.970  -5.671  1.00  0.00     0.211 HD
ENDBRANCH   6  13
BRANCH   7  15
ATOM     15  O   UNL     1      43.540  19.252  -5.528  1.00  0.00    -0.384 OA
ATOM     16  H   UNL     1      43.409  19.649  -6.431  1.00  0.00     0.211 HD
ENDBRANCH   7  15
ENDBRANCH   1   2
BRANCH   1  17
ATOM     17  C   UNL     1      44.204  16.662  -3.224  1.00  0.00     0.172 A 
ATOM     18  C   UNL     1      43.627  15.436  -2.829  1.00  0.00     0.201 A 
ATOM     19  C   UNL     1      45.533  16.696  -3.649  1.00  0.00     0.098 A 
ATOM     20  C   UNL     1      44.347  14.235  -2.988  1.00  0.00     0.176 A 
ATOM     21  C   UNL     1      46.267  15.517  -3.784  1.00  0.00     0.146 A 
ATOM     22  C   UNL     1      45.676  14.270  -3.473  1.00  0.00     0.111 A 
ATOM     23  O   UNL     1      47.521  15.583  -4.221  1.00  0.00    -0.456 OA
ATOM     24  C   UNL     1      46.461  13.112  -3.659  1.00  0.00     0.197 A 
ATOM     25  C   UNL     1      48.291  14.511  -4.391  1.00  0.00     0.138 A 
ATOM     26  C   UNL     1      47.773  13.234  -4.118  1.00  0.00     0.100 A 
ATOM     27  O   UNL     1      46.001  11.961  -3.424  1.00  0.00    -0.289 OA
BRANCH  18  28
ATOM     28  O   UNL     1      42.364  15.394  -2.235  1.00  0.00    -0.502 OA
ATOM     29  H   UNL     1      41.905  14.526  -1.992  1.00  0.00     0.293 HD
ENDBRANCH  18  28
BRANCH  20  30
ATOM     30  O   UNL     1      43.750  13.016  -2.651  1.00  0.00    -0.504 OA
ATOM     31  H   UNL     1      43.520  12.771  -1.697  1.00  0.00     0.293 HD
ENDBRANCH  20  30
BRANCH  25  32
ATOM     32  C   UNL     1      49.677  14.698  -4.886  1.00  0.00     0.017 A 
ATOM     33  C   UNL     1      50.549  13.596  -4.937  1.00  0.00     0.012 A 
ATOM     34  C   UNL     1      50.138  15.955  -5.327  1.00  0.00     0.012 A 
ATOM     35  C   UNL     1      51.856  13.747  -5.415  1.00  0.00     0.001 A 
ATOM     36  C   UNL     1      51.444  16.097  -5.809  1.00  0.00     0.001 A 
ATOM     37  C   UNL     1      52.302  14.998  -5.849  1.00  0.00     0.000 A 
ENDBRANCH  25  32
ENDBRANCH   1  17
TORSDOF 9
ENDMDL
MODEL 4
REMARK VINA RESULT:    -5.898      1.904      2.864
REMARK INTER + INTRA:          -9.186
REMARK INTER:                  -8.128
REMARK INTRA:                  -1.059
REMARK UNBOUND:                -1.047
REMARK SMILES O=C([O-])[C@H]1O[C@H](Oc2cc3oc(-c4ccccc4)cc(=O)c3c(O)c2O)[C@H](O)[C@H](O)[C@@H]1O
REMARK SMILES IDX 7 1 6 2 4 3 31 4 5 5 29 6 27 7 2 8 1 9 3 10 32 11 30 13
REMARK SMILES IDX 28 15 8 17 25 18 9 19 23 20 10 21 22 22 11 23 20 24 12 25
REMARK SMILES IDX 19 26 21 27 26 28 24 30 13 32 14 33 18 34 15 35 17 36 16 37
REMARK H PARENT 32 12 30 14 28 16 26 29 24 31
REMARK Flexibility Score: inf
ROOT
ATOM      1  O   UNL     1      44.503  17.175  -3.644  1.00  0.00    -0.458 OA
ENDROOT
BRANCH   1   2
ATOM      2  C   UNL     1      43.481  17.364  -4.636  1.00  0.00     0.339 C 
ATOM      3  C   UNL     1      41.876  17.315  -2.912  1.00  0.00     0.199 C 
ATOM      4  C   UNL     1      42.053  18.861  -2.768  1.00  0.00     0.180 C 
ATOM      5  O   UNL     1      42.260  16.804  -4.188  1.00  0.00    -0.328 OA
ATOM      6  C   UNL     1      42.156  19.503  -4.165  1.00  0.00     0.181 C 
ATOM      7  C   UNL     1      43.276  18.857  -5.017  1.00  0.00     0.214 C 
BRANCH   3   8
ATOM      8  C   UNL     1      40.454  16.911  -2.654  1.00  0.00     0.073 C 
ATOM      9  O   UNL     1      40.195  15.838  -2.048  1.00  0.00    -0.547 OA
ATOM     10  O   UNL     1      40.156  15.727  -1.985  1.00  0.00    -0.547 OA
ENDBRANCH   3   8
BRANCH   4  11
ATOM     11  O   UNL     1      43.218  19.126  -2.023  1.00  0.00    -0.387 OA
ATOM     12  H   UNL     1      43.751  18.288  -1.995  1.00  0.00     0.211 HD
ENDBRANCH   4  11
BRANCH   6  13
ATOM     13  O   UNL     1      42.276  20.905  -4.099  1.00  0.00    -0.387 OA
ATOM     14  H   UNL     1      43.224  21.144  -4.273  1.00  0.00     0.211 HD
ENDBRANCH   6  13
BRANCH   7  15
ATOM     15  O   UNL     1      44.478  19.578  -4.901  1.00  0.00    -0.384 OA
ATOM     16  H   UNL     1      44.226  20.537  -4.817  1.00  0.00     0.211 HD
ENDBRANCH   7  15
ENDBRANCH   1   2
BRANCH   1  17
ATOM     17  C   UNL     1      45.300  16.028  -3.549  1.00  0.00     0.172 A 
ATOM     18  C   UNL     1      44.815  14.822  -3.000  1.00  0.00     0.201 A 
ATOM     19  C   UNL     1      46.615  16.099  -4.011  1.00  0.00     0.098 A 
ATOM     20  C   UNL     1      45.613  13.659  -3.038  1.00  0.00     0.176 A 
ATOM     21  C   UNL     1      47.425  14.963  -4.029  1.00  0.00     0.146 A 
ATOM     22  C   UNL     1      46.927  13.725  -3.559  1.00  0.00     0.111 A 
ATOM     23  O   UNL     1      48.663  15.059  -4.504  1.00  0.00    -0.456 OA
ATOM     24  C   UNL     1      47.785  12.607  -3.632  1.00  0.00     0.197 A 
ATOM     25  C   UNL     1      49.501  14.027  -4.569  1.00  0.00     0.138 A 
ATOM     26  C   UNL     1      49.077  12.760  -4.136  1.00  0.00     0.100 A 
ATOM     27  O   UNL     1      47.409  11.463  -3.252  1.00  0.00    -0.289 OA
BRANCH  18  28
ATOM     28  O   UNL     1      43.570  14.767  -2.371  1.00  0.00    -0.502 OA
ATOM     29  H   UNL     1      42.828  15.424  -2.575  1.00  0.00     0.293 HD
ENDBRANCH  18  28
BRANCH  20  30
ATOM     30  O   UNL     1      45.106  12.452  -2.547  1.00  0.00    -0.504 OA
ATOM     31  H   UNL     1      44.127  12.325  -2.326  1.00  0.00     0.293 HD
ENDBRANCH  20  30
BRANCH  25  32
ATOM     32  C   UNL     1      50.861  14.245  -5.119  1.00  0.00     0.017 A 
ATOM     33  C   UNL     1      51.356  15.555  -5.247  1.00  0.00     0.012 A 
ATOM     34  C   UNL     1      51.683  13.165  -5.501  1.00  0.00     0.012 A 
ATOM     35  C   UNL     1      52.641  15.783  -5.749  1.00  0.00     0.001 A 
ATOM     36  C   UNL     1      52.970  13.399  -5.997  1.00  0.00     0.001 A 
ATOM     37  C   UNL     1      53.447  14.705  -6.125  1.00  0.00     0.000 A 
ENDBRANCH  25  32
ENDBRANCH   1  17
TORSDOF 9
ENDMDL
MODEL 5
REMARK VINA RESULT:    -5.499      2.424      7.796
REMARK INTER + INTRA:          -8.635
REMARK INTER:                  -8.169
REMARK INTRA:                  -0.466
REMARK UNBOUND:                -1.047
REMARK SMILES O=C([O-])[C@H]1O[C@H](Oc2cc3oc(-c4ccccc4)cc(=O)c3c(O)c2O)[C@H](O)[C@H](O)[C@@H]1O
REMARK SMILES IDX 7 1 6 2 4 3 31 4 5 5 29 6 27 7 2 8 1 9 3 10 32 11 30 13
REMARK SMILES IDX 28 15 8 17 25 18 9 19 23 20 10 21 22 22 11 23 20 24 12 25
REMARK SMILES IDX 19 26 21 27 26 28 24 30 13 32 14 33 18 34 15 35 17 36 16 37
REMARK H PARENT 32 12 30 14 28 16 26 29 24 31
REMARK Flexibility Score: inf
ROOT
ATOM      1  O   UNL     1      47.015  13.458  -3.396  1.00  0.00    -0.458 OA
ENDROOT
BRANCH   1   2
ATOM      2  C   UNL     1      47.746  13.225  -4.613  1.00  0.00     0.339 C 
ATOM      3  C   UNL     1      47.728  15.549  -5.001  1.00  0.00     0.199 C 
ATOM      4  C   UNL     1      49.061  15.646  -4.193  1.00  0.00     0.180 C 
ATOM      5  O   UNL     1      47.474  14.255  -5.546  1.00  0.00    -0.328 OA
ATOM      6  C   UNL     1      49.983  14.469  -4.567  1.00  0.00     0.181 C 
ATOM      7  C   UNL     1      49.278  13.102  -4.382  1.00  0.00     0.214 C 
BRANCH   3   8
ATOM      8  C   UNL     1      47.708  16.543  -6.125  1.00  0.00     0.073 C 
ATOM      9  O   UNL     1      47.029  17.599  -6.032  1.00  0.00    -0.547 OA
ATOM     10  O   UNL     1      46.961  17.714  -6.033  1.00  0.00    -0.547 OA
ENDBRANCH   3   8
BRANCH   4  11
ATOM     11  O   UNL     1      48.770  15.617  -2.815  1.00  0.00    -0.387 OA
ATOM     12  H   UNL     1      47.974  16.191  -2.667  1.00  0.00     0.211 HD
ENDBRANCH   4  11
BRANCH   6  13
ATOM     13  O   UNL     1      51.220  14.527  -3.897  1.00  0.00    -0.387 OA
ATOM     14  H   UNL     1      51.478  13.603  -3.639  1.00  0.00     0.211 HD
ENDBRANCH   6  13
BRANCH   7  15
ATOM     15  O   UNL     1      49.558  12.557  -3.117  1.00  0.00    -0.384 OA
ATOM     16  H   UNL     1      48.850  12.889  -2.502  1.00  0.00     0.211 HD
ENDBRANCH   7  15
ENDBRANCH   1   2
BRANCH   1  17
ATOM     17  C   UNL     1      45.659  13.803  -3.352  1.00  0.00     0.172 A 
ATOM     18  C   UNL     1      44.639  12.877  -3.663  1.00  0.00     0.201 A 
ATOM     19  C   UNL     1      45.322  15.109  -2.996  1.00  0.00     0.098 A 
ATOM     20  C   UNL     1      43.287  13.234  -3.486  1.00  0.00     0.176 A 
ATOM     21  C   UNL     1      43.987  15.484  -2.844  1.00  0.00     0.146 A 
ATOM     22  C   UNL     1      42.953  14.545  -3.070  1.00  0.00     0.111 A 
ATOM     23  O   UNL     1      43.703  16.728  -2.473  1.00  0.00    -0.456 OA
ATOM     24  C   UNL     1      41.624  14.977  -2.871  1.00  0.00     0.197 A 
ATOM     25  C   UNL     1      42.460  17.170  -2.294  1.00  0.00     0.138 A 
ATOM     26  C   UNL     1      41.378  16.295  -2.484  1.00  0.00     0.100 A 
ATOM     27  O   UNL     1      40.647  14.195  -3.031  1.00  0.00    -0.289 OA
BRANCH  18  28
ATOM     28  O   UNL     1      44.944  11.622  -4.191  1.00  0.00    -0.502 OA
ATOM     29  H   UNL     1      45.879  11.366  -4.483  1.00  0.00     0.293 HD
ENDBRANCH  18  28
BRANCH  20  30
ATOM     30  O   UNL     1      42.281  12.295  -3.738  1.00  0.00    -0.504 OA
ATOM     31  H   UNL     1      41.615  12.012  -3.031  1.00  0.00     0.293 HD
ENDBRANCH  20  30
BRANCH  25  32
ATOM     32  C   UNL     1      42.255  18.579  -1.878  1.00  0.00     0.017 A 
ATOM     33  C   UNL     1      42.925  19.609  -2.562  1.00  0.00     0.012 A 
ATOM     34  C   UNL     1      41.386  18.916  -0.820  1.00  0.00     0.012 A 
ATOM     35  C   UNL     1      42.735  20.945  -2.196  1.00  0.00     0.001 A 
ATOM     36  C   UNL     1      41.196  20.255  -0.463  1.00  0.00     0.001 A 
ATOM     37  C   UNL     1      41.872  21.268  -1.146  1.00  0.00     0.000 A 
ENDBRANCH  25  32
ENDBRANCH   1  17
TORSDOF 9
ENDMDL
MODEL 6
REMARK VINA RESULT:    -5.467      2.423      8.708
REMARK INTER + INTRA:          -8.592
REMARK INTER:                  -7.686
REMARK INTRA:                  -0.905
REMARK UNBOUND:                -1.047
REMARK SMILES O=C([O-])[C@H]1O[C@H](Oc2cc3oc(-c4ccccc4)cc(=O)c3c(O)c2O)[C@H](O)[C@H](O)[C@@H]1O
REMARK SMILES IDX 7 1 6 2 4 3 31 4 5 5 29 6 27 7 2 8 1 9 3 10 32 11 30 13
REMARK SMILES IDX 28 15 8 17 25 18 9 19 23 20 10 21 22 22 11 23 20 24 12 25
REMARK SMILES IDX 19 26 21 27 26 28 24 30 13 32 14 33 18 34 15 35 17 36 16 37
REMARK H PARENT 32 12 30 14 28 16 26 29 24 31
REMARK Flexibility Score: inf
ROOT
ATOM      1  O   UNL     1      47.232  13.871  -4.133  1.00  0.00    -0.458 OA
ENDROOT
BRANCH   1   2
ATOM      2  C   UNL     1      47.844  13.994  -5.428  1.00  0.00     0.339 C 
ATOM      3  C   UNL     1      49.760  14.874  -4.377  1.00  0.00     0.199 C 
ATOM      4  C   UNL     1      50.296  13.413  -4.238  1.00  0.00     0.180 C 
ATOM      5  O   UNL     1      48.797  15.041  -5.417  1.00  0.00    -0.328 OA
ATOM      6  C   UNL     1      50.007  12.628  -5.533  1.00  0.00     0.181 C 
ATOM      7  C   UNL     1      48.505  12.674  -5.911  1.00  0.00     0.214 C 
BRANCH   3   8
ATOM      8  C   UNL     1      50.885  15.837  -4.620  1.00  0.00     0.073 C 
ATOM      9  O   UNL     1      51.290  16.063  -5.790  1.00  0.00    -0.547 OA
ATOM     10  O   UNL     1      51.341  16.095  -5.910  1.00  0.00    -0.547 OA
ENDBRANCH   3   8
BRANCH   4  11
ATOM     11  O   UNL     1      49.668  12.792  -3.141  1.00  0.00    -0.387 OA
ATOM     12  H   UNL     1      48.716  12.649  -3.385  1.00  0.00     0.211 HD
ENDBRANCH   4  11
BRANCH   6  13
ATOM     13  O   UNL     1      50.505  11.312  -5.481  1.00  0.00    -0.387 OA
ATOM     14  H   UNL     1      51.457  11.350  -5.203  1.00  0.00     0.211 HD
ENDBRANCH   6  13
BRANCH   7  15
ATOM     15  O   UNL     1      47.824  11.552  -5.408  1.00  0.00    -0.384 OA
ATOM     16  H   UNL     1      48.373  11.200  -4.656  1.00  0.00     0.211 HD
ENDBRANCH   7  15
ENDBRANCH   1   2
BRANCH   1  17
ATOM     17  C   UNL     1      45.875  14.110  -3.883  1.00  0.00     0.172 A 
ATOM     18  C   UNL     1      44.898  13.101  -4.021  1.00  0.00     0.201 A 
ATOM     19  C   UNL     1      45.493  15.394  -3.493  1.00  0.00     0.098 A 
ATOM     20  C   UNL     1      43.565  13.354  -3.640  1.00  0.00     0.176 A 
ATOM     21  C   UNL     1      44.171  15.667  -3.140  1.00  0.00     0.146 A 
ATOM     22  C   UNL     1      43.195  14.645  -3.192  1.00  0.00     0.111 A 
ATOM     23  O   UNL     1      43.848  16.893  -2.743  1.00  0.00    -0.456 OA
ATOM     24  C   UNL     1      41.882  14.976  -2.794  1.00  0.00     0.197 A 
ATOM     25  C   UNL     1      42.615  17.241  -2.378  1.00  0.00     0.138 A 
ATOM     26  C   UNL     1      41.592  16.279  -2.388  1.00  0.00     0.100 A 
ATOM     27  O   UNL     1      40.958  14.116  -2.792  1.00  0.00    -0.289 OA
BRANCH  18  28
ATOM     28  O   UNL     1      45.219  11.861  -4.576  1.00  0.00    -0.502 OA
ATOM     29  H   UNL     1      45.129  11.667  -5.565  1.00  0.00     0.293 HD
ENDBRANCH  18  28
BRANCH  20  30
ATOM     30  O   UNL     1      42.612  12.334  -3.722  1.00  0.00    -0.504 OA
ATOM     31  H   UNL     1      42.048  12.185  -4.550  1.00  0.00     0.293 HD
ENDBRANCH  20  30
BRANCH  25  32
ATOM     32  C   UNL     1      42.364  18.639  -1.950  1.00  0.00     0.017 A 
ATOM     33  C   UNL     1      42.980  19.697  -2.642  1.00  0.00     0.012 A 
ATOM     34  C   UNL     1      41.503  18.937  -0.874  1.00  0.00     0.012 A 
ATOM     35  C   UNL     1      42.745  21.023  -2.266  1.00  0.00     0.001 A 
ATOM     36  C   UNL     1      41.268  20.266  -0.507  1.00  0.00     0.001 A 
ATOM     37  C   UNL     1      41.890  21.307  -1.197  1.00  0.00     0.000 A 
ENDBRANCH  25  32
ENDBRANCH   1  17
TORSDOF 9
ENDMDL
MODEL 7
REMARK VINA RESULT:    -5.210      2.995      8.744
REMARK INTER + INTRA:          -8.237
REMARK INTER:                  -7.791
REMARK INTRA:                  -0.446
REMARK UNBOUND:                -1.047
REMARK SMILES O=C([O-])[C@H]1O[C@H](Oc2cc3oc(-c4ccccc4)cc(=O)c3c(O)c2O)[C@H](O)[C@H](O)[C@@H]1O
REMARK SMILES IDX 7 1 6 2 4 3 31 4 5 5 29 6 27 7 2 8 1 9 3 10 32 11 30 13
REMARK SMILES IDX 28 15 8 17 25 18 9 19 23 20 10 21 22 22 11 23 20 24 12 25
REMARK SMILES IDX 19 26 21 27 26 28 24 30 13 32 14 33 18 34 15 35 17 36 16 37
REMARK H PARENT 32 12 30 14 28 16 26 29 24 31
REMARK Flexibility Score: inf
ROOT
ATOM      1  O   UNL     1      46.223  12.753  -2.748  1.00  0.00    -0.458 OA
ENDROOT
BRANCH   1   2
ATOM      2  C   UNL     1      46.464  11.340  -2.647  1.00  0.00     0.339 C 
ATOM      3  C   UNL     1      48.315  11.610  -4.081  1.00  0.00     0.199 C 
ATOM      4  C   UNL     1      49.195  11.873  -2.816  1.00  0.00     0.180 C 
ATOM      5  O   UNL     1      47.121  10.876  -3.812  1.00  0.00    -0.328 OA
ATOM      6  C   UNL     1      48.799  10.893  -1.695  1.00  0.00     0.181 C 
ATOM      7  C   UNL     1      47.283  10.955  -1.383  1.00  0.00     0.214 C 
BRANCH   3   8
ATOM      8  C   UNL     1      49.092  10.875  -5.132  1.00  0.00     0.073 C 
ATOM      9  O   UNL     1      49.754  11.508  -5.996  1.00  0.00    -0.547 OA
ATOM     10  O   UNL     1      49.828  11.564  -6.092  1.00  0.00    -0.547 OA
ENDBRANCH   3   8
BRANCH   4  11
ATOM     11  O   UNL     1      49.008  13.202  -2.390  1.00  0.00    -0.387 OA
ATOM     12  H   UNL     1      48.236  13.571  -2.895  1.00  0.00     0.211 HD
ENDBRANCH   4  11
BRANCH   6  13
ATOM     13  O   UNL     1      49.589  11.057  -0.540  1.00  0.00    -0.387 OA
ATOM     14  H   UNL     1      49.874  12.006  -0.491  1.00  0.00     0.211 HD
ENDBRANCH   6  13
BRANCH   7  15
ATOM     15  O   UNL     1      47.022  11.840  -0.322  1.00  0.00    -0.384 OA
ATOM     16  H   UNL     1      47.529  12.674  -0.517  1.00  0.00     0.211 HD
ENDBRANCH   7  15
ENDBRANCH   1   2
BRANCH   1  17
ATOM     17  C   UNL     1      44.959  13.319  -2.954  1.00  0.00     0.172 A 
ATOM     18  C   UNL     1      43.879  12.571  -3.471  1.00  0.00     0.201 A 
ATOM     19  C   UNL     1      44.781  14.667  -2.641  1.00  0.00     0.098 A 
ATOM     20  C   UNL     1      42.595  13.148  -3.546  1.00  0.00     0.176 A 
ATOM     21  C   UNL     1      43.521  15.259  -2.738  1.00  0.00     0.146 A 
ATOM     22  C   UNL     1      42.409  14.501  -3.174  1.00  0.00     0.111 A 
ATOM     23  O   UNL     1      43.380  16.537  -2.402  1.00  0.00    -0.456 OA
ATOM     24  C   UNL     1      41.156  15.149  -3.221  1.00  0.00     0.197 A 
ATOM     25  C   UNL     1      42.215  17.181  -2.452  1.00  0.00     0.138 A 
ATOM     26  C   UNL     1      41.061  16.494  -2.861  1.00  0.00     0.100 A 
ATOM     27  O   UNL     1      40.112  14.538  -3.579  1.00  0.00    -0.289 OA
BRANCH  18  28
ATOM     28  O   UNL     1      44.068  11.276  -3.957  1.00  0.00    -0.502 OA
ATOM     29  H   UNL     1      44.282  10.493  -3.353  1.00  0.00     0.293 HD
ENDBRANCH  18  28
BRANCH  20  30
ATOM     30  O   UNL     1      41.515  12.386  -4.003  1.00  0.00    -0.504 OA
ATOM     31  H   UNL     1      40.724  12.160  -3.414  1.00  0.00     0.293 HD
ENDBRANCH  20  30
BRANCH  25  32
ATOM     32  C   UNL     1      42.170  18.609  -2.053  1.00  0.00     0.017 A 
ATOM     33  C   UNL     1      41.424  18.990  -0.924  1.00  0.00     0.012 A 
ATOM     34  C   UNL     1      42.878  19.596  -2.769  1.00  0.00     0.012 A 
ATOM     35  C   UNL     1      41.380  20.329  -0.521  1.00  0.00     0.001 A 
ATOM     36  C   UNL     1      42.834  20.932  -2.357  1.00  0.00     0.001 A 
ATOM     37  C   UNL     1      42.084  21.299  -1.238  1.00  0.00     0.000 A 
ENDBRANCH  25  32
ENDBRANCH   1  17
TORSDOF 9
ENDMDL
MODEL 8
REMARK VINA RESULT:    -5.046      1.105      2.628
REMARK INTER + INTRA:          -8.011
REMARK INTER:                  -7.616
REMARK INTRA:                  -0.395
REMARK UNBOUND:                -1.047
REMARK SMILES O=C([O-])[C@H]1O[C@H](Oc2cc3oc(-c4ccccc4)cc(=O)c3c(O)c2O)[C@H](O)[C@H](O)[C@@H]1O
REMARK SMILES IDX 7 1 6 2 4 3 31 4 5 5 29 6 27 7 2 8 1 9 3 10 32 11 30 13
REMARK SMILES IDX 28 15 8 17 25 18 9 19 23 20 10 21 22 22 11 23 20 24 12 25
REMARK SMILES IDX 19 26 21 27 26 28 24 30 13 32 14 33 18 34 15 35 17 36 16 37
REMARK H PARENT 32 12 30 14 28 16 26 29 24 31
REMARK Flexibility Score: inf
ROOT
ATOM      1  O   UNL     1      42.794  16.961  -3.228  1.00  0.00    -0.458 OA
ENDROOT
BRANCH   1   2
ATOM      2  C   UNL     1      41.849  17.224  -2.178  1.00  0.00     0.339 C 
ATOM      3  C   UNL     1      42.509  19.485  -2.227  1.00  0.00     0.199 C 
ATOM      4  C   UNL     1      41.409  19.733  -3.309  1.00  0.00     0.180 C 
ATOM      5  O   UNL     1      42.272  18.337  -1.413  1.00  0.00    -0.328 OA
ATOM      6  C   UNL     1      40.128  18.963  -2.933  1.00  0.00     0.181 C 
ATOM      7  C   UNL     1      40.406  17.456  -2.707  1.00  0.00     0.214 C 
BRANCH   3   8
ATOM      8  C   UNL     1      42.655  20.677  -1.327  1.00  0.00     0.073 C 
ATOM      9  O   UNL     1      41.690  21.063  -0.618  1.00  0.00    -0.547 OA
ATOM     10  O   UNL     1      41.594  21.113  -0.539  1.00  0.00    -0.547 OA
ENDBRANCH   3   8
BRANCH   4  11
ATOM     11  O   UNL     1      41.887  19.302  -4.561  1.00  0.00    -0.387 OA
ATOM     12  H   UNL     1      41.734  20.040  -5.208  1.00  0.00     0.211 HD
ENDBRANCH   4  11
BRANCH   6  13
ATOM     13  O   UNL     1      39.086  19.182  -3.854  1.00  0.00    -0.387 OA
ATOM     14  H   UNL     1      38.399  18.478  -3.720  1.00  0.00     0.211 HD
ENDBRANCH   6  13
BRANCH   7  15
ATOM     15  O   UNL     1      40.173  16.719  -3.881  1.00  0.00    -0.384 OA
ATOM     16  H   UNL     1      40.488  15.792  -3.702  1.00  0.00     0.211 HD
ENDBRANCH   7  15
ENDBRANCH   1   2
BRANCH   1  17
ATOM     17  C   UNL     1      43.591  15.811  -3.294  1.00  0.00     0.172 A 
ATOM     18  C   UNL     1      43.071  14.523  -3.040  1.00  0.00     0.201 A 
ATOM     19  C   UNL     1      44.941  15.962  -3.614  1.00  0.00     0.098 A 
ATOM     20  C   UNL     1      43.880  13.386  -3.238  1.00  0.00     0.176 A 
ATOM     21  C   UNL     1      45.760  14.846  -3.786  1.00  0.00     0.146 A 
ATOM     22  C   UNL     1      45.235  13.543  -3.617  1.00  0.00     0.111 A 
ATOM     23  O   UNL     1      47.034  15.025  -4.121  1.00  0.00    -0.456 OA
ATOM     24  C   UNL     1      46.107  12.455  -3.834  1.00  0.00     0.197 A 
ATOM     25  C   UNL     1      47.885  14.020  -4.316  1.00  0.00     0.138 A 
ATOM     26  C   UNL     1      47.437  12.695  -4.182  1.00  0.00     0.100 A 
ATOM     27  O   UNL     1      45.710  11.262  -3.725  1.00  0.00    -0.289 OA
BRANCH  18  28
ATOM     28  O   UNL     1      41.776  14.355  -2.548  1.00  0.00    -0.502 OA
ATOM     29  H   UNL     1      41.039  13.923  -3.090  1.00  0.00     0.293 HD
ENDBRANCH  18  28
BRANCH  20  30
ATOM     30  O   UNL     1      43.345  12.109  -3.043  1.00  0.00    -0.504 OA
ATOM     31  H   UNL     1      43.888  11.347  -2.658  1.00  0.00     0.293 HD
ENDBRANCH  20  30
BRANCH  25  32
ATOM     32  C   UNL     1      49.286  14.332  -4.689  1.00  0.00     0.017 A 
ATOM     33  C   UNL     1      50.201  13.283  -4.888  1.00  0.00     0.012 A 
ATOM     34  C   UNL     1      49.721  15.661  -4.870  1.00  0.00     0.012 A 
ATOM     35  C   UNL     1      51.523  13.555  -5.256  1.00  0.00     0.001 A 
ATOM     36  C   UNL     1      51.043  15.925  -5.244  1.00  0.00     0.001 A 
ATOM     37  C   UNL     1      51.944  14.875  -5.432  1.00  0.00     0.000 A 
ENDBRANCH  25  32
ENDBRANCH   1  17
TORSDOF 9
ENDMDL
