MODEL 1
REMARK VINA RESULT:    -4.282      0.000      0.000
REMARK INTER + INTRA:          -8.142
REMARK INTER:                  -5.783
REMARK INTRA:                  -2.359
REMARK UNBOUND:                -2.359
REMARK SMILES CC[C@@H](CC[C@@H](C)[C@H]1CC[C@@H]2[C@@H]3CC(=O)C4=CC(=O)CC[C@]4(C)[C@H]3CC[C@@]21C)C(C)C
REMARK SMILES IDX 4 1 3 2 2 3 1 4 29 5 30 6 31 7 5 8 6 9 7 10 8 11 9 12 27 13
REMARK SMILES IDX 10 14 11 15 26 16 28 17 12 18 25 19 24 20 13 21 22 22 14 23
REMARK SMILES IDX 16 24 21 25 23 26 15 27 17 28 20 29 18 30 19 31
REMARK H PARENT
REMARK Flexibility Score: inf
ROOT
ATOM      1  C   UNL     1      81.866   6.200  56.067  1.00  0.00     0.004 C 
ENDROOT
BRANCH   1   2
ATOM      2  C   UNL     1      80.431   6.081  56.652  1.00  0.00    -0.009 C 
BRANCH   2   3
ATOM      3  C   UNL     1      79.400   5.429  55.680  1.00  0.00     0.000 C 
ATOM      4  C   UNL     1      79.984   4.726  54.455  1.00  0.00     0.004 C 
ENDBRANCH   2   3
BRANCH   2   5
ATOM      5  C   UNL     1      79.976   7.416  57.341  1.00  0.00    -0.014 C 
ATOM      6  C   UNL     1      81.127   8.415  57.531  1.00  0.00     0.007 C 
ATOM      7  C   UNL     1      79.195   7.239  58.658  1.00  0.00     0.007 C 
ENDBRANCH   2   5
ENDBRANCH   1   2
BRANCH   1   8
ATOM      8  C   UNL     1      82.900   5.295  56.770  1.00  0.00     0.004 C 
BRANCH   8   9
ATOM      9  C   UNL     1      82.277   3.970  57.309  1.00  0.00    -0.011 C 
ATOM     10  C   UNL     1      83.125   2.778  56.802  1.00  0.00     0.008 C 
BRANCH   9  11
ATOM     11  C   UNL     1      82.193   3.927  58.879  1.00  0.00    -0.002 C 
ATOM     12  C   UNL     1      82.317   5.292  59.569  1.00  0.00     0.005 C 
ATOM     13  C   UNL     1      80.917   3.248  59.544  1.00  0.00    -0.026 C 
ATOM     14  C   UNL     1      81.653   5.123  60.919  1.00  0.00     0.005 C 
ATOM     15  C   UNL     1      80.424   4.292  60.591  1.00  0.00    -0.001 C 
ATOM     16  C   UNL     1      81.372   1.929  60.237  1.00  0.00     0.007 C 
ATOM     17  C   UNL     1      79.739   2.962  58.569  1.00  0.00     0.012 C 
ATOM     18  C   UNL     1      79.603   3.739  61.804  1.00  0.00     0.004 C 
ATOM     19  C   UNL     1      80.381   1.399  61.268  1.00  0.00     0.005 C 
ATOM     20  C   UNL     1      80.172   2.425  62.408  1.00  0.00     0.003 C 
ATOM     21  C   UNL     1      79.430   4.822  62.884  1.00  0.00     0.085 C 
ATOM     22  C   UNL     1      79.289   1.845  63.593  1.00  0.00    -0.000 C 
ATOM     23  C   UNL     1      78.641   4.319  64.044  1.00  0.00     0.159 C 
ATOM     24  C   UNL     1      78.903   2.964  64.569  1.00  0.00     0.005 C 
ATOM     25  C   UNL     1      80.117   0.762  64.360  1.00  0.00     0.020 C 
ATOM     26  C   UNL     1      77.972   1.211  63.068  1.00  0.00     0.017 C 
ATOM     27  O   UNL     1      77.824   5.088  64.620  1.00  0.00    -0.295 OA
ATOM     28  C   UNL     1      78.703   2.723  65.880  1.00  0.00     0.055 C 
ATOM     29  C   UNL     1      79.420   0.257  65.630  1.00  0.00     0.081 C 
ATOM     30  C   UNL     1      78.949   1.401  66.473  1.00  0.00     0.156 C 
ATOM     31  O   UNL     1      78.731   1.221  67.700  1.00  0.00    -0.295 OA
ENDBRANCH   9  11
ENDBRANCH   8   9
ENDBRANCH   1   8
TORSDOF 6
ENDMDL
MODEL 2
REMARK VINA RESULT:    -4.278      4.441      9.156
REMARK INTER + INTRA:          -8.138
REMARK INTER:                  -6.174
REMARK INTRA:                  -1.963
REMARK UNBOUND:                -2.359
REMARK SMILES CC[C@@H](CC[C@@H](C)[C@H]1CC[C@@H]2[C@@H]3CC(=O)C4=CC(=O)CC[C@]4(C)[C@H]3CC[C@@]21C)C(C)C
REMARK SMILES IDX 4 1 3 2 2 3 1 4 29 5 30 6 31 7 5 8 6 9 7 10 8 11 9 12 27 13
REMARK SMILES IDX 10 14 11 15 26 16 28 17 12 18 25 19 24 20 13 21 22 22 14 23
REMARK SMILES IDX 16 24 21 25 23 26 15 27 17 28 20 29 18 30 19 31
REMARK H PARENT
REMARK Flexibility Score: inf
ROOT
ATOM      1  C   UNL     1      80.825   5.002  60.770  1.00  0.00     0.004 C 
ENDROOT
BRANCH   1   2
ATOM      2  C   UNL     1      80.799   3.506  61.191  1.00  0.00    -0.009 C 
BRANCH   2   3
ATOM      3  C   UNL     1      80.760   2.509  59.993  1.00  0.00     0.000 C 
ATOM      4  C   UNL     1      81.982   1.606  59.830  1.00  0.00     0.004 C 
ENDBRANCH   2   3
BRANCH   2   5
ATOM      5  C   UNL     1      79.758   3.247  62.336  1.00  0.00    -0.014 C 
ATOM      6  C   UNL     1      79.753   4.351  63.403  1.00  0.00     0.007 C 
ATOM      7  C   UNL     1      79.849   1.859  63.000  1.00  0.00     0.007 C 
ENDBRANCH   2   5
ENDBRANCH   1   2
BRANCH   1   8
ATOM      8  C   UNL     1      82.090   5.405  59.983  1.00  0.00     0.004 C 
BRANCH   8   9
ATOM      9  C   UNL     1      81.768   6.225  58.696  1.00  0.00    -0.011 C 
ATOM     10  C   UNL     1      82.613   7.522  58.706  1.00  0.00     0.008 C 
BRANCH   9  11
ATOM     11  C   UNL     1      82.047   5.423  57.372  1.00  0.00    -0.002 C 
ATOM     12  C   UNL     1      83.077   4.294  57.508  1.00  0.00     0.005 C 
ATOM     13  C   UNL     1      80.811   4.759  56.622  1.00  0.00    -0.026 C 
ATOM     14  C   UNL     1      82.775   3.335  56.377  1.00  0.00     0.005 C 
ATOM     15  C   UNL     1      81.256   3.287  56.369  1.00  0.00    -0.001 C 
ATOM     16  C   UNL     1      80.591   5.520  55.280  1.00  0.00     0.007 C 
ATOM     17  C   UNL     1      79.487   4.720  57.439  1.00  0.00     0.012 C 
ATOM     18  C   UNL     1      80.581   2.545  55.167  1.00  0.00     0.004 C 
ATOM     19  C   UNL     1      79.751   4.750  54.266  1.00  0.00     0.005 C 
ATOM     20  C   UNL     1      80.433   3.413  53.887  1.00  0.00     0.003 C 
ATOM     21  C   UNL     1      81.310   1.223  54.866  1.00  0.00     0.085 C 
ATOM     22  C   UNL     1      79.687   2.664  52.703  1.00  0.00    -0.000 C 
ATOM     23  C   UNL     1      80.674   0.493  53.731  1.00  0.00     0.159 C 
ATOM     24  C   UNL     1      80.241   1.244  52.535  1.00  0.00     0.005 C 
ATOM     25  C   UNL     1      79.911   3.460  51.376  1.00  0.00     0.020 C 
ATOM     26  C   UNL     1      78.163   2.538  52.977  1.00  0.00     0.017 C 
ATOM     27  O   UNL     1      80.597  -0.765  53.768  1.00  0.00    -0.295 OA
ATOM     28  C   UNL     1      80.256   0.626  51.338  1.00  0.00     0.055 C 
ATOM     29  C   UNL     1      79.374   2.732  50.137  1.00  0.00     0.081 C 
ATOM     30  C   UNL     1      79.846   1.312  50.105  1.00  0.00     0.156 C 
ATOM     31  O   UNL     1      79.861   0.686  49.012  1.00  0.00    -0.295 OA
ENDBRANCH   9  11
ENDBRANCH   8   9
ENDBRANCH   1   8
TORSDOF 6
ENDMDL
MODEL 3
REMARK VINA RESULT:    -4.161      4.381      8.444
REMARK INTER + INTRA:          -7.979
REMARK INTER:                  -5.937
REMARK INTRA:                  -2.042
REMARK UNBOUND:                -2.359
REMARK SMILES CC[C@@H](CC[C@@H](C)[C@H]1CC[C@@H]2[C@@H]3CC(=O)C4=CC(=O)CC[C@]4(C)[C@H]3CC[C@@]21C)C(C)C
REMARK SMILES IDX 4 1 3 2 2 3 1 4 29 5 30 6 31 7 5 8 6 9 7 10 8 11 9 12 27 13
REMARK SMILES IDX 10 14 11 15 26 16 28 17 12 18 25 19 24 20 13 21 22 22 14 23
REMARK SMILES IDX 16 24 21 25 23 26 15 27 17 28 20 29 18 30 19 31
REMARK H PARENT
REMARK Flexibility Score: inf
ROOT
ATOM      1  C   UNL     1      80.154   4.793  61.409  1.00  0.00     0.004 C 
ENDROOT
BRANCH   1   2
ATOM      2  C   UNL     1      79.942   3.419  62.102  1.00  0.00    -0.009 C 
BRANCH   2   3
ATOM      3  C   UNL     1      79.383   2.310  61.158  1.00  0.00     0.000 C 
ATOM      4  C   UNL     1      80.154   0.991  61.141  1.00  0.00     0.004 C 
ENDBRANCH   2   3
BRANCH   2   5
ATOM      5  C   UNL     1      79.215   3.575  63.484  1.00  0.00    -0.014 C 
ATOM      6  C   UNL     1      78.686   4.997  63.725  1.00  0.00     0.007 C 
ATOM      7  C   UNL     1      80.019   3.088  64.705  1.00  0.00     0.007 C 
ENDBRANCH   2   5
ENDBRANCH   1   2
BRANCH   1   8
ATOM      8  C   UNL     1      81.638   5.146  61.170  1.00  0.00     0.004 C 
BRANCH   8   9
ATOM      9  C   UNL     1      81.919   5.626  59.712  1.00  0.00    -0.011 C 
ATOM     10  C   UNL     1      83.090   6.638  59.738  1.00  0.00     0.008 C 
BRANCH   9  11
ATOM     11  C   UNL     1      82.264   4.444  58.734  1.00  0.00    -0.002 C 
ATOM     12  C   UNL     1      82.665   3.133  59.423  1.00  0.00     0.005 C 
ATOM     13  C   UNL     1      81.175   4.022  57.654  1.00  0.00    -0.026 C 
ATOM     14  C   UNL     1      82.386   2.044  58.410  1.00  0.00     0.005 C 
ATOM     15  C   UNL     1      81.060   2.474  57.806  1.00  0.00    -0.001 C 
ATOM     16  C   UNL     1      81.711   4.410  56.243  1.00  0.00     0.007 C 
ATOM     17  C   UNL     1      79.758   4.626  57.875  1.00  0.00     0.012 C 
ATOM     18  C   UNL     1      80.566   1.680  56.550  1.00  0.00     0.004 C 
ATOM     19  C   UNL     1      81.005   3.694  55.097  1.00  0.00     0.005 C 
ATOM     20  C   UNL     1      81.187   2.161  55.210  1.00  0.00     0.003 C 
ATOM     21  C   UNL     1      80.770   0.167  56.749  1.00  0.00     0.085 C 
ATOM     22  C   UNL     1      80.624   1.387  53.943  1.00  0.00    -0.000 C 
ATOM     23  C   UNL     1      80.294  -0.610  55.569  1.00  0.00     0.159 C 
ATOM     24  C   UNL     1      80.596  -0.123  54.208  1.00  0.00     0.005 C 
ATOM     25  C   UNL     1      81.553   1.674  52.718  1.00  0.00     0.020 C 
ATOM     26  C   UNL     1      79.173   1.826  53.603  1.00  0.00     0.017 C 
ATOM     27  O   UNL     1      79.721  -1.720  55.746  1.00  0.00    -0.295 OA
ATOM     28  C   UNL     1      80.746  -1.019  53.213  1.00  0.00     0.055 C 
ATOM     29  C   UNL     1      81.196   0.839  51.482  1.00  0.00     0.081 C 
ATOM     30  C   UNL     1      81.054  -0.608  51.836  1.00  0.00     0.156 C 
ATOM     31  O   UNL     1      81.168  -1.483  50.938  1.00  0.00    -0.295 OA
ENDBRANCH   9  11
ENDBRANCH   8   9
ENDBRANCH   1   8
TORSDOF 6
ENDMDL
MODEL 4
REMARK VINA RESULT:    -4.129      3.968      5.607
REMARK INTER + INTRA:          -7.937
REMARK INTER:                  -6.119
REMARK INTRA:                  -1.818
REMARK UNBOUND:                -2.359
REMARK SMILES CC[C@@H](CC[C@@H](C)[C@H]1CC[C@@H]2[C@@H]3CC(=O)C4=CC(=O)CC[C@]4(C)[C@H]3CC[C@@]21C)C(C)C
REMARK SMILES IDX 4 1 3 2 2 3 1 4 29 5 30 6 31 7 5 8 6 9 7 10 8 11 9 12 27 13
REMARK SMILES IDX 10 14 11 15 26 16 28 17 12 18 25 19 24 20 13 21 22 22 14 23
REMARK SMILES IDX 16 24 21 25 23 26 15 27 17 28 20 29 18 30 19 31
REMARK H PARENT
REMARK Flexibility Score: inf
ROOT
ATOM      1  C   UNL     1      76.285   6.630  60.809  1.00  0.00     0.004 C 
ENDROOT
BRANCH   1   2
ATOM      2  C   UNL     1      75.671   6.683  62.236  1.00  0.00    -0.009 C 
BRANCH   2   3
ATOM      3  C   UNL     1      74.112   6.697  62.257  1.00  0.00     0.000 C 
ATOM      4  C   UNL     1      73.462   7.739  63.167  1.00  0.00     0.004 C 
ENDBRANCH   2   3
BRANCH   2   5
ATOM      5  C   UNL     1      76.380   7.762  63.129  1.00  0.00    -0.014 C 
ATOM      6  C   UNL     1      76.867   8.978  62.327  1.00  0.00     0.007 C 
ATOM      7  C   UNL     1      77.509   7.225  64.030  1.00  0.00     0.007 C 
ENDBRANCH   2   5
ENDBRANCH   1   2
BRANCH   1   8
ATOM      8  C   UNL     1      77.457   5.633  60.675  1.00  0.00     0.004 C 
BRANCH   8   9
ATOM      9  C   UNL     1      77.138   4.236  61.291  1.00  0.00    -0.011 C 
ATOM     10  C   UNL     1      76.747   3.266  60.150  1.00  0.00     0.008 C 
BRANCH   9  11
ATOM     11  C   UNL     1      78.343   3.636  62.104  1.00  0.00    -0.002 C 
ATOM     12  C   UNL     1      79.417   4.654  62.511  1.00  0.00     0.005 C 
ATOM     13  C   UNL     1      78.021   2.828  63.436  1.00  0.00    -0.026 C 
ATOM     14  C   UNL     1      80.117   4.044  63.706  1.00  0.00     0.005 C 
ATOM     15  C   UNL     1      78.970   3.449  64.505  1.00  0.00    -0.001 C 
ATOM     16  C   UNL     1      78.358   1.326  63.188  1.00  0.00     0.007 C 
ATOM     17  C   UNL     1      76.562   2.970  63.957  1.00  0.00     0.012 C 
ATOM     18  C   UNL     1      79.355   2.537  65.719  1.00  0.00     0.004 C 
ATOM     19  C   UNL     1      78.521   0.511  64.467  1.00  0.00     0.005 C 
ATOM     20  C   UNL     1      79.679   1.067  65.331  1.00  0.00     0.003 C 
ATOM     21  C   UNL     1      80.501   3.167  66.530  1.00  0.00     0.085 C 
ATOM     22  C   UNL     1      80.002   0.145  66.581  1.00  0.00    -0.000 C 
ATOM     23  C   UNL     1      80.875   2.319  67.699  1.00  0.00     0.159 C 
ATOM     24  C   UNL     1      80.971   0.855  67.534  1.00  0.00     0.005 C 
ATOM     25  C   UNL     1      80.660  -1.181  66.078  1.00  0.00     0.020 C 
ATOM     26  C   UNL     1      78.719  -0.192  67.390  1.00  0.00     0.017 C 
ATOM     27  O   UNL     1      81.195   2.870  68.788  1.00  0.00    -0.295 OA
ATOM     28  C   UNL     1      81.844   0.169  68.298  1.00  0.00     0.055 C 
ATOM     29  C   UNL     1      81.168  -2.074  67.218  1.00  0.00     0.081 C 
ATOM     30  C   UNL     1      81.998  -1.288  68.184  1.00  0.00     0.156 C 
ATOM     31  O   UNL     1      82.816  -1.886  68.932  1.00  0.00    -0.295 OA
ENDBRANCH   9  11
ENDBRANCH   8   9
ENDBRANCH   1   8
TORSDOF 6
ENDMDL
MODEL 5
REMARK VINA RESULT:    -4.001      1.810      2.581
REMARK INTER + INTRA:          -7.763
REMARK INTER:                  -5.222
REMARK INTRA:                  -2.541
REMARK UNBOUND:                -2.359
REMARK SMILES CC[C@@H](CC[C@@H](C)[C@H]1CC[C@@H]2[C@@H]3CC(=O)C4=CC(=O)CC[C@]4(C)[C@H]3CC[C@@]21C)C(C)C
REMARK SMILES IDX 4 1 3 2 2 3 1 4 29 5 30 6 31 7 5 8 6 9 7 10 8 11 9 12 27 13
REMARK SMILES IDX 10 14 11 15 26 16 28 17 12 18 25 19 24 20 13 21 22 22 14 23
REMARK SMILES IDX 16 24 21 25 23 26 15 27 17 28 20 29 18 30 19 31
REMARK H PARENT
REMARK Flexibility Score: inf
ROOT
ATOM      1  C   UNL     1      82.179   2.309  54.903  1.00  0.00     0.004 C 
ENDROOT
BRANCH   1   2
ATOM      2  C   UNL     1      80.678   2.276  55.304  1.00  0.00    -0.009 C 
BRANCH   2   3
ATOM      3  C   UNL     1      79.793   1.380  54.384  1.00  0.00     0.000 C 
ATOM      4  C   UNL     1      79.779  -0.112  54.714  1.00  0.00     0.004 C 
ENDBRANCH   2   3
BRANCH   2   5
ATOM      5  C   UNL     1      80.127   3.717  55.594  1.00  0.00    -0.014 C 
ATOM      6  C   UNL     1      81.239   4.770  55.718  1.00  0.00     0.007 C 
ATOM      7  C   UNL     1      79.157   3.818  56.788  1.00  0.00     0.007 C 
ENDBRANCH   2   5
ENDBRANCH   1   2
BRANCH   1   8
ATOM      8  C   UNL     1      83.124   1.755  55.991  1.00  0.00     0.004 C 
BRANCH   8   9
ATOM      9  C   UNL     1      82.397   0.824  57.009  1.00  0.00    -0.011 C 
ATOM     10  C   UNL     1      83.120  -0.544  57.040  1.00  0.00     0.008 C 
BRANCH   9  11
ATOM     11  C   UNL     1      82.346   1.427  58.461  1.00  0.00    -0.002 C 
ATOM     12  C   UNL     1      82.609   2.937  58.542  1.00  0.00     0.005 C 
ATOM     13  C   UNL     1      81.029   1.195  59.324  1.00  0.00    -0.026 C 
ATOM     14  C   UNL     1      81.964   3.389  59.835  1.00  0.00     0.005 C 
ATOM     15  C   UNL     1      80.658   2.613  59.853  1.00  0.00    -0.001 C 
ATOM     16  C   UNL     1      81.380   0.231  60.498  1.00  0.00     0.007 C 
ATOM     17  C   UNL     1      79.808   0.649  58.530  1.00  0.00     0.012 C 
ATOM     18  C   UNL     1      79.819   2.674  61.174  1.00  0.00     0.004 C 
ATOM     19  C   UNL     1      80.370   0.257  61.640  1.00  0.00     0.005 C 
ATOM     20  C   UNL     1      80.281   1.670  62.265  1.00  0.00     0.003 C 
ATOM     21  C   UNL     1      79.771   4.112  61.721  1.00  0.00     0.085 C 
ATOM     22  C   UNL     1      79.378   1.701  63.570  1.00  0.00    -0.000 C 
ATOM     23  C   UNL     1      78.966   4.195  62.974  1.00  0.00     0.159 C 
ATOM     24  C   UNL     1      79.117   3.149  64.005  1.00  0.00     0.005 C 
ATOM     25  C   UNL     1      80.122   0.948  64.722  1.00  0.00     0.020 C 
ATOM     26  C   UNL     1      77.997   1.034  63.326  1.00  0.00     0.017 C 
ATOM     27  O   UNL     1      78.236   5.203  63.177  1.00  0.00    -0.295 OA
ATOM     28  C   UNL     1      78.927   3.477  65.298  1.00  0.00     0.055 C 
ATOM     29  C   UNL     1      79.412   1.065  66.076  1.00  0.00     0.081 C 
ATOM     30  C   UNL     1      79.067   2.490  66.379  1.00  0.00     0.156 C 
ATOM     31  O   UNL     1      78.863   2.842  67.571  1.00  0.00    -0.295 OA
ENDBRANCH   9  11
ENDBRANCH   8   9
ENDBRANCH   1   8
TORSDOF 6
ENDMDL
MODEL 6
REMARK VINA RESULT:    -3.984      4.631      8.865
REMARK INTER + INTRA:          -7.740
REMARK INTER:                  -5.437
REMARK INTRA:                  -2.304
REMARK UNBOUND:                -2.359
REMARK SMILES CC[C@@H](CC[C@@H](C)[C@H]1CC[C@@H]2[C@@H]3CC(=O)C4=CC(=O)CC[C@]4(C)[C@H]3CC[C@@]21C)C(C)C
REMARK SMILES IDX 4 1 3 2 2 3 1 4 29 5 30 6 31 7 5 8 6 9 7 10 8 11 9 12 27 13
REMARK SMILES IDX 10 14 11 15 26 16 28 17 12 18 25 19 24 20 13 21 22 22 14 23
REMARK SMILES IDX 16 24 21 25 23 26 15 27 17 28 20 29 18 30 19 31
REMARK H PARENT
REMARK Flexibility Score: inf
ROOT
ATOM      1  C   UNL     1      79.755  -1.482  67.213  1.00  0.00     0.004 C 
ENDROOT
BRANCH   1   2
ATOM      2  C   UNL     1      79.911  -0.048  67.790  1.00  0.00    -0.009 C 
BRANCH   2   3
ATOM      3  C   UNL     1      81.318   0.245  68.395  1.00  0.00     0.000 C 
ATOM      4  C   UNL     1      82.232  -0.965  68.586  1.00  0.00     0.004 C 
ENDBRANCH   2   3
BRANCH   2   5
ATOM      5  C   UNL     1      78.683   0.351  68.683  1.00  0.00    -0.014 C 
ATOM      6  C   UNL     1      77.419  -0.459  68.360  1.00  0.00     0.007 C 
ATOM      7  C   UNL     1      78.361   1.858  68.716  1.00  0.00     0.007 C 
ENDBRANCH   2   5
ENDBRANCH   1   2
BRANCH   1   8
ATOM      8  C   UNL     1      79.584  -1.519  65.678  1.00  0.00     0.004 C 
BRANCH   8   9
ATOM      9  C   UNL     1      80.116  -0.230  64.979  1.00  0.00    -0.011 C 
ATOM     10  C   UNL     1      81.116  -0.640  63.871  1.00  0.00     0.008 C 
BRANCH   9  11
ATOM     11  C   UNL     1      78.969   0.647  64.356  1.00  0.00    -0.002 C 
ATOM     12  C   UNL     1      77.547   0.209  64.732  1.00  0.00     0.005 C 
ATOM     13  C   UNL     1      78.995   2.215  64.620  1.00  0.00    -0.026 C 
ATOM     14  C   UNL     1      76.684   1.439  64.549  1.00  0.00     0.005 C 
ATOM     15  C   UNL     1      77.555   2.550  65.112  1.00  0.00    -0.001 C 
ATOM     16  C   UNL     1      79.310   2.931  63.271  1.00  0.00     0.007 C 
ATOM     17  C   UNL     1      79.992   2.682  65.720  1.00  0.00     0.012 C 
ATOM     18  C   UNL     1      77.058   4.018  64.886  1.00  0.00     0.004 C 
ATOM     19  C   UNL     1      78.945   4.411  63.258  1.00  0.00     0.005 C 
ATOM     20  C   UNL     1      77.428   4.607  63.496  1.00  0.00     0.003 C 
ATOM     21  C   UNL     1      75.546   4.128  65.155  1.00  0.00     0.085 C 
ATOM     22  C   UNL     1      76.973   6.116  63.313  1.00  0.00    -0.000 C 
ATOM     23  C   UNL     1      75.054   5.521  64.957  1.00  0.00     0.159 C 
ATOM     24  C   UNL     1      75.530   6.303  63.799  1.00  0.00     0.005 C 
ATOM     25  C   UNL     1      77.053   6.491  61.796  1.00  0.00     0.020 C 
ATOM     26  C   UNL     1      77.868   7.087  64.131  1.00  0.00     0.017 C 
ATOM     27  O   UNL     1      74.168   5.982  65.728  1.00  0.00    -0.295 OA
ATOM     28  C   UNL     1      74.715   7.230  63.259  1.00  0.00     0.055 C 
ATOM     29  C   UNL     1      76.474   7.876  61.485  1.00  0.00     0.081 C 
ATOM     30  C   UNL     1      75.120   8.040  62.101  1.00  0.00     0.156 C 
ATOM     31  O   UNL     1      74.328   8.906  61.643  1.00  0.00    -0.295 OA
ENDBRANCH   9  11
ENDBRANCH   8   9
ENDBRANCH   1   8
TORSDOF 6
ENDMDL
MODEL 7
REMARK VINA RESULT:    -3.894      9.709     13.963
REMARK INTER + INTRA:          -7.619
REMARK INTER:                  -5.266
REMARK INTRA:                  -2.353
REMARK UNBOUND:                -2.359
REMARK SMILES CC[C@@H](CC[C@@H](C)[C@H]1CC[C@@H]2[C@@H]3CC(=O)C4=CC(=O)CC[C@]4(C)[C@H]3CC[C@@]21C)C(C)C
REMARK SMILES IDX 4 1 3 2 2 3 1 4 29 5 30 6 31 7 5 8 6 9 7 10 8 11 9 12 27 13
REMARK SMILES IDX 10 14 11 15 26 16 28 17 12 18 25 19 24 20 13 21 22 22 14 23
REMARK SMILES IDX 16 24 21 25 23 26 15 27 17 28 20 29 18 30 19 31
REMARK H PARENT
REMARK Flexibility Score: inf
ROOT
ATOM      1  C   UNL     1      71.100  -9.116  65.104  1.00  0.00     0.004 C 
ENDROOT
BRANCH   1   2
ATOM      2  C   UNL     1      71.534  -7.997  64.116  1.00  0.00    -0.009 C 
BRANCH   2   3
ATOM      3  C   UNL     1      70.390  -7.008  63.733  1.00  0.00     0.000 C 
ATOM      4  C   UNL     1      69.208  -6.942  64.699  1.00  0.00     0.004 C 
ENDBRANCH   2   3
BRANCH   2   5
ATOM      5  C   UNL     1      72.371  -8.575  62.921  1.00  0.00    -0.014 C 
ATOM      6  C   UNL     1      72.259 -10.102  62.794  1.00  0.00     0.007 C 
ATOM      7  C   UNL     1      73.850  -8.141  62.888  1.00  0.00     0.007 C 
ENDBRANCH   2   5
ENDBRANCH   1   2
BRANCH   1   8
ATOM      8  C   UNL     1      71.749  -8.997  66.500  1.00  0.00     0.004 C 
BRANCH   8   9
ATOM      9  C   UNL     1      72.254  -7.554  66.812  1.00  0.00    -0.011 C 
ATOM     10  C   UNL     1      71.526  -7.034  68.075  1.00  0.00     0.008 C 
BRANCH   9  11
ATOM     11  C   UNL     1      73.810  -7.485  67.033  1.00  0.00    -0.002 C 
ATOM     12  C   UNL     1      74.588  -8.708  66.530  1.00  0.00     0.005 C 
ATOM     13  C   UNL     1      74.595  -6.232  66.447  1.00  0.00    -0.026 C 
ATOM     14  C   UNL     1      76.002  -8.219  66.299  1.00  0.00     0.005 C 
ATOM     15  C   UNL     1      75.790  -6.855  65.663  1.00  0.00    -0.001 C 
ATOM     16  C   UNL     1      75.098  -5.369  67.644  1.00  0.00     0.007 C 
ATOM     17  C   UNL     1      73.785  -5.351  65.454  1.00  0.00     0.012 C 
ATOM     18  C   UNL     1      77.059  -5.957  65.483  1.00  0.00     0.004 C 
ATOM     19  C   UNL     1      76.215  -4.398  67.278  1.00  0.00     0.005 C 
ATOM     20  C   UNL     1      77.458  -5.159  66.756  1.00  0.00     0.003 C 
ATOM     21  C   UNL     1      78.241  -6.786  64.950  1.00  0.00     0.085 C 
ATOM     22  C   UNL     1      78.706  -4.205  66.533  1.00  0.00    -0.000 C 
ATOM     23  C   UNL     1      79.458  -5.946  64.759  1.00  0.00     0.159 C 
ATOM     24  C   UNL     1      79.821  -4.948  65.785  1.00  0.00     0.005 C 
ATOM     25  C   UNL     1      79.247  -3.741  67.925  1.00  0.00     0.020 C 
ATOM     26  C   UNL     1      78.330  -2.958  65.686  1.00  0.00     0.017 C 
ATOM     27  O   UNL     1      80.212  -6.160  63.771  1.00  0.00    -0.295 OA
ATOM     28  C   UNL     1      81.121  -4.647  65.971  1.00  0.00     0.055 C 
ATOM     29  C   UNL     1      80.557  -2.950  67.831  1.00  0.00     0.081 C 
ATOM     30  C   UNL     1      81.556  -3.669  66.978  1.00  0.00     0.156 C 
ATOM     31  O   UNL     1      82.782  -3.410  67.103  1.00  0.00    -0.295 OA
ENDBRANCH   9  11
ENDBRANCH   8   9
ENDBRANCH   1   8
TORSDOF 6
ENDMDL
MODEL 8
REMARK VINA RESULT:    -3.832      7.854     11.332
REMARK INTER + INTRA:          -7.535
REMARK INTER:                  -5.497
REMARK INTRA:                  -2.037
REMARK UNBOUND:                -2.359
REMARK SMILES CC[C@@H](CC[C@@H](C)[C@H]1CC[C@@H]2[C@@H]3CC(=O)C4=CC(=O)CC[C@]4(C)[C@H]3CC[C@@]21C)C(C)C
REMARK SMILES IDX 4 1 3 2 2 3 1 4 29 5 30 6 31 7 5 8 6 9 7 10 8 11 9 12 27 13
REMARK SMILES IDX 10 14 11 15 26 16 28 17 12 18 25 19 24 20 13 21 22 22 14 23
REMARK SMILES IDX 16 24 21 25 23 26 15 27 17 28 20 29 18 30 19 31
REMARK H PARENT
REMARK Flexibility Score: inf
ROOT
ATOM      1  C   UNL     1      80.791  -0.471  66.578  1.00  0.00     0.004 C 
ENDROOT
BRANCH   1   2
ATOM      2  C   UNL     1      79.837   0.510  67.315  1.00  0.00    -0.009 C 
BRANCH   2   3
ATOM      3  C   UNL     1      78.366   0.005  67.424  1.00  0.00     0.000 C 
ATOM      4  C   UNL     1      77.790  -0.085  68.837  1.00  0.00     0.004 C 
ENDBRANCH   2   3
BRANCH   2   5
ATOM      5  C   UNL     1      80.022   1.984  66.807  1.00  0.00    -0.014 C 
ATOM      6  C   UNL     1      81.067   2.769  67.614  1.00  0.00     0.007 C 
ATOM      7  C   UNL     1      78.720   2.799  66.679  1.00  0.00     0.007 C 
ENDBRANCH   2   5
ENDBRANCH   1   2
BRANCH   1   8
ATOM      8  C   UNL     1      81.150  -1.726  67.404  1.00  0.00     0.004 C 
BRANCH   8   9
ATOM      9  C   UNL     1      80.841  -3.056  66.649  1.00  0.00    -0.011 C 
ATOM     10  C   UNL     1      82.126  -3.916  66.607  1.00  0.00     0.008 C 
BRANCH   9  11
ATOM     11  C   UNL     1      79.676  -3.880  67.311  1.00  0.00    -0.002 C 
ATOM     12  C   UNL     1      79.293  -3.430  68.728  1.00  0.00     0.005 C 
ATOM     13  C   UNL     1      78.294  -3.987  66.530  1.00  0.00    -0.026 C 
ATOM     14  C   UNL     1      77.871  -3.905  68.930  1.00  0.00     0.005 C 
ATOM     15  C   UNL     1      77.218  -3.605  67.591  1.00  0.00    -0.001 C 
ATOM     16  C   UNL     1      78.116  -5.460  66.054  1.00  0.00     0.007 C 
ATOM     17  C   UNL     1      78.140  -3.013  65.326  1.00  0.00     0.012 C 
ATOM     18  C   UNL     1      75.776  -4.171  67.366  1.00  0.00     0.004 C 
ATOM     19  C   UNL     1      76.681  -5.821  65.686  1.00  0.00     0.005 C 
ATOM     20  C   UNL     1      75.742  -5.654  66.905  1.00  0.00     0.003 C 
ATOM     21  C   UNL     1      74.905  -3.954  68.617  1.00  0.00     0.085 C 
ATOM     22  C   UNL     1      74.275  -6.189  66.619  1.00  0.00    -0.000 C 
ATOM     23  C   UNL     1      73.523  -4.476  68.420  1.00  0.00     0.159 C 
ATOM     24  C   UNL     1      73.325  -5.778  67.752  1.00  0.00     0.005 C 
ATOM     25  C   UNL     1      74.312  -7.750  66.526  1.00  0.00     0.020 C 
ATOM     26  C   UNL     1      73.701  -5.607  65.298  1.00  0.00     0.017 C 
ATOM     27  O   UNL     1      72.546  -3.844  68.906  1.00  0.00    -0.295 OA
ATOM     28  C   UNL     1      72.259  -6.529  68.090  1.00  0.00     0.055 C 
ATOM     29  C   UNL     1      72.918  -8.382  66.420  1.00  0.00     0.081 C 
ATOM     30  C   UNL     1      72.003  -7.838  67.473  1.00  0.00     0.156 C 
ATOM     31  O   UNL     1      70.983  -8.495  67.810  1.00  0.00    -0.295 OA
ENDBRANCH   9  11
ENDBRANCH   8   9
ENDBRANCH   1   8
TORSDOF 6
ENDMDL
MODEL 9
REMARK VINA RESULT:    -3.813      9.566     12.359
REMARK INTER + INTRA:          -7.509
REMARK INTER:                  -5.159
REMARK INTRA:                  -2.349
REMARK UNBOUND:                -2.359
REMARK SMILES CC[C@@H](CC[C@@H](C)[C@H]1CC[C@@H]2[C@@H]3CC(=O)C4=CC(=O)CC[C@]4(C)[C@H]3CC[C@@]21C)C(C)C
REMARK SMILES IDX 4 1 3 2 2 3 1 4 29 5 30 6 31 7 5 8 6 9 7 10 8 11 9 12 27 13
REMARK SMILES IDX 10 14 11 15 26 16 28 17 12 18 25 19 24 20 13 21 22 22 14 23
REMARK SMILES IDX 16 24 21 25 23 26 15 27 17 28 20 29 18 30 19 31
REMARK H PARENT
REMARK Flexibility Score: inf
ROOT
ATOM      1  C   UNL     1      80.362   2.495  52.180  1.00  0.00     0.004 C 
ENDROOT
BRANCH   1   2
ATOM      2  C   UNL     1      79.388   1.775  53.153  1.00  0.00    -0.009 C 
BRANCH   2   3
ATOM      3  C   UNL     1      78.011   2.488  53.319  1.00  0.00     0.000 C 
ATOM      4  C   UNL     1      76.887   1.998  52.406  1.00  0.00     0.004 C 
ENDBRANCH   2   3
BRANCH   2   5
ATOM      5  C   UNL     1      80.108   1.353  54.482  1.00  0.00    -0.014 C 
ATOM      6  C   UNL     1      81.293   2.263  54.837  1.00  0.00     0.007 C 
ATOM      7  C   UNL     1      80.527  -0.128  54.557  1.00  0.00     0.007 C 
ENDBRANCH   2   5
ENDBRANCH   1   2
BRANCH   1   8
ATOM      8  C   UNL     1      80.871   1.596  51.032  1.00  0.00     0.004 C 
BRANCH   8   9
ATOM      9  C   UNL     1      79.790   0.591  50.525  1.00  0.00    -0.011 C 
ATOM     10  C   UNL     1      79.346   1.012  49.104  1.00  0.00     0.008 C 
BRANCH   9  11
ATOM     11  C   UNL     1      80.301  -0.896  50.500  1.00  0.00    -0.002 C 
ATOM     12  C   UNL     1      81.667  -1.120  51.164  1.00  0.00     0.005 C 
ATOM     13  C   UNL     1      79.360  -2.023  51.112  1.00  0.00    -0.026 C 
ATOM     14  C   UNL     1      81.694  -2.584  51.545  1.00  0.00     0.005 C 
ATOM     15  C   UNL     1      80.289  -2.824  52.074  1.00  0.00    -0.001 C 
ATOM     16  C   UNL     1      78.853  -2.921  49.943  1.00  0.00     0.007 C 
ATOM     17  C   UNL     1      78.156  -1.497  51.945  1.00  0.00     0.012 C 
ATOM     18  C   UNL     1      79.889  -4.309  52.365  1.00  0.00     0.004 C 
ATOM     19  C   UNL     1      78.313  -4.274  50.395  1.00  0.00     0.005 C 
ATOM     20  C   UNL     1      79.413  -5.095  51.111  1.00  0.00     0.003 C 
ATOM     21  C   UNL     1      81.029  -5.048  53.088  1.00  0.00     0.085 C 
ATOM     22  C   UNL     1      78.949  -6.577  51.439  1.00  0.00    -0.000 C 
ATOM     23  C   UNL     1      80.664  -6.463  53.385  1.00  0.00     0.159 C 
ATOM     24  C   UNL     1      79.965  -7.264  52.361  1.00  0.00     0.005 C 
ATOM     25  C   UNL     1      78.846  -7.384  50.103  1.00  0.00     0.020 C 
ATOM     26  C   UNL     1      77.575  -6.600  52.162  1.00  0.00     0.017 C 
ATOM     27  O   UNL     1      81.037  -6.985  54.471  1.00  0.00    -0.295 OA
ATOM     28  C   UNL     1      80.166  -8.596  52.325  1.00  0.00     0.055 C 
ATOM     29  C   UNL     1      78.569  -8.877  50.319  1.00  0.00     0.081 C 
ATOM     30  C   UNL     1      79.510  -9.455  51.330  1.00  0.00     0.156 C 
ATOM     31  O   UNL     1      79.718 -10.697  51.348  1.00  0.00    -0.295 OA
ENDBRANCH   9  11
ENDBRANCH   8   9
ENDBRANCH   1   8
TORSDOF 6
ENDMDL
