MODEL 1
REMARK VINA RESULT:    -3.546      0.000      0.000
REMARK INTER + INTRA:          -6.172
REMARK INTER:                  -4.790
REMARK INTRA:                  -1.383
REMARK UNBOUND:                -1.383
REMARK SMILES CC(=O)CCC=C(C)CCC=C(C)C
REMARK SMILES IDX 7 1 6 2 8 3 9 4 10 5 11 6 13 7 12 8 14 9 5 10 4 11 2 12 3 13
REMARK SMILES IDX 1 14
REMARK H PARENT
REMARK Flexibility Score: inf
ROOT
ATOM      1  C   UNL     1     187.479 200.686 214.082  1.00  0.00    -0.077 C 
ATOM      2  C   UNL     1     188.753 201.137 214.098  1.00  0.00    -0.028 C 
ATOM      3  C   UNL     1     187.246 199.197 214.125  1.00  0.00     0.039 C 
ENDROOT
BRANCH   1   4
ATOM      4  C   UNL     1     186.279 201.617 214.039  1.00  0.00     0.034 C 
BRANCH   4   5
ATOM      5  C   UNL     1     185.545 201.557 212.691  1.00  0.00     0.032 C 
BRANCH   5   6
ATOM      6  C   UNL     1     186.280 202.340 211.628  1.00  0.00    -0.028 C 
ATOM      7  C   UNL     1     187.187 200.296 210.496  1.00  0.00     0.039 C 
ATOM      8  C   UNL     1     187.041 201.792 210.655  1.00  0.00    -0.080 C 
ATOM      9  C   UNL     1     187.765 202.712 209.707  1.00  0.00     0.039 C 
ENDBRANCH   5   6
ENDBRANCH   4   5
ENDBRANCH   1   4
BRANCH   2  10
ATOM     10  C   UNL     1     189.129 202.598 214.032  1.00  0.00     0.035 C 
BRANCH  10  11
ATOM     11  C   UNL     1     189.974 202.897 212.789  1.00  0.00     0.079 C 
BRANCH  11  12
ATOM     12  C   UNL     1     190.257 204.373 212.679  1.00  0.00     0.130 C 
ATOM     13  O   UNL     1     189.838 204.994 211.715  1.00  0.00    -0.300 OA
ATOM     14  C   UNL     1     191.053 205.096 213.725  1.00  0.00     0.087 C 
ENDBRANCH  11  12
ENDBRANCH  10  11
ENDBRANCH   2  10
TORSDOF 6
ENDMDL
MODEL 2
REMARK VINA RESULT:    -3.509      1.475      3.270
REMARK INTER + INTRA:          -6.122
REMARK INTER:                  -4.486
REMARK INTRA:                  -1.636
REMARK UNBOUND:                -1.383
REMARK SMILES CC(=O)CCC=C(C)CCC=C(C)C
REMARK SMILES IDX 7 1 6 2 8 3 9 4 10 5 11 6 13 7 12 8 14 9 5 10 4 11 2 12 3 13
REMARK SMILES IDX 1 14
REMARK H PARENT
REMARK Flexibility Score: inf
ROOT
ATOM      1  C   UNL     1     185.534 201.385 211.238  1.00  0.00    -0.077 C 
ATOM      2  C   UNL     1     186.534 201.571 210.348  1.00  0.00    -0.028 C 
ATOM      3  C   UNL     1     184.595 200.225 211.027  1.00  0.00     0.039 C 
ENDROOT
BRANCH   1   4
ATOM      4  C   UNL     1     185.331 202.286 212.445  1.00  0.00     0.034 C 
BRANCH   4   5
ATOM      5  C   UNL     1     185.842 201.642 213.742  1.00  0.00     0.032 C 
BRANCH   5   6
ATOM      6  C   UNL     1     187.304 201.949 213.970  1.00  0.00    -0.028 C 
ATOM      7  C   UNL     1     188.080 199.688 213.217  1.00  0.00     0.039 C 
ATOM      8  C   UNL     1     188.316 201.076 213.766  1.00  0.00    -0.080 C 
ATOM      9  C   UNL     1     189.717 201.511 214.104  1.00  0.00     0.039 C 
ENDBRANCH   5   6
ENDBRANCH   4   5
ENDBRANCH   1   4
BRANCH   2  10
ATOM     10  C   UNL     1     187.527 202.706 210.424  1.00  0.00     0.035 C 
BRANCH  10  11
ATOM     11  C   UNL     1     188.955 202.209 210.179  1.00  0.00     0.079 C 
BRANCH  11  12
ATOM     12  C   UNL     1     189.957 203.119 210.842  1.00  0.00     0.130 C 
ATOM     13  O   UNL     1     191.142 202.824 210.821  1.00  0.00    -0.300 OA
ATOM     14  C   UNL     1     189.530 204.377 211.538  1.00  0.00     0.087 C 
ENDBRANCH  11  12
ENDBRANCH  10  11
ENDBRANCH   2  10
TORSDOF 6
ENDMDL
MODEL 3
REMARK VINA RESULT:    -3.377      2.329      3.824
REMARK INTER + INTRA:          -5.944
REMARK INTER:                  -4.236
REMARK INTRA:                  -1.708
REMARK UNBOUND:                -1.383
REMARK SMILES CC(=O)CCC=C(C)CCC=C(C)C
REMARK SMILES IDX 7 1 6 2 8 3 9 4 10 5 11 6 13 7 12 8 14 9 5 10 4 11 2 12 3 13
REMARK SMILES IDX 1 14
REMARK H PARENT
REMARK Flexibility Score: inf
ROOT
ATOM      1  C   UNL     1     185.648 202.001 212.024  1.00  0.00    -0.077 C 
ATOM      2  C   UNL     1     185.729 201.670 213.332  1.00  0.00    -0.028 C 
ATOM      3  C   UNL     1     184.290 202.000 211.368  1.00  0.00     0.039 C 
ENDROOT
BRANCH   1   4
ATOM      4  C   UNL     1     186.863 202.388 211.198  1.00  0.00     0.034 C 
BRANCH   4   5
ATOM      5  C   UNL     1     187.088 201.435 210.016  1.00  0.00     0.032 C 
BRANCH   5   6
ATOM      6  C   UNL     1     187.758 200.155 210.460  1.00  0.00    -0.028 C 
ATOM      7  C   UNL     1     185.724 198.744 210.062  1.00  0.00     0.039 C 
ATOM      8  C   UNL     1     187.152 198.947 210.512  1.00  0.00    -0.080 C 
ATOM      9  C   UNL     1     187.936 197.775 211.042  1.00  0.00     0.039 C 
ENDBRANCH   5   6
ENDBRANCH   4   5
ENDBRANCH   1   4
BRANCH   2  10
ATOM     10  C   UNL     1     187.025 201.605 214.105  1.00  0.00     0.035 C 
BRANCH  10  11
ATOM     11  C   UNL     1     187.587 200.181 214.124  1.00  0.00     0.079 C 
BRANCH  11  12
ATOM     12  C   UNL     1     189.075 200.191 213.885  1.00  0.00     0.130 C 
ATOM     13  O   UNL     1     189.724 199.180 214.099  1.00  0.00    -0.300 OA
ATOM     14  C   UNL     1     189.780 201.423 213.401  1.00  0.00     0.087 C 
ENDBRANCH  11  12
ENDBRANCH  10  11
ENDBRANCH   2  10
TORSDOF 6
ENDMDL
MODEL 4
REMARK VINA RESULT:    -3.374      1.545      2.434
REMARK INTER + INTRA:          -5.940
REMARK INTER:                  -4.587
REMARK INTRA:                  -1.352
REMARK UNBOUND:                -1.383
REMARK SMILES CC(=O)CCC=C(C)CCC=C(C)C
REMARK SMILES IDX 7 1 6 2 8 3 9 4 10 5 11 6 13 7 12 8 14 9 5 10 4 11 2 12 3 13
REMARK SMILES IDX 1 14
REMARK H PARENT
REMARK Flexibility Score: inf
ROOT
ATOM      1  C   UNL     1     189.185 201.386 212.482  1.00  0.00    -0.077 C 
ATOM      2  C   UNL     1     189.263 202.132 211.357  1.00  0.00    -0.028 C 
ATOM      3  C   UNL     1     189.714 199.975 212.444  1.00  0.00     0.039 C 
ENDROOT
BRANCH   1   4
ATOM      4  C   UNL     1     188.603 201.918 213.781  1.00  0.00     0.034 C 
BRANCH   4   5
ATOM      5  C   UNL     1     187.257 201.263 214.125  1.00  0.00     0.032 C 
BRANCH   5   6
ATOM      6  C   UNL     1     186.128 201.870 213.325  1.00  0.00    -0.028 C 
ATOM      7  C   UNL     1     185.928 199.908 211.779  1.00  0.00     0.039 C 
ATOM      8  C   UNL     1     185.541 201.288 212.256  1.00  0.00    -0.080 C 
ATOM      9  C   UNL     1     184.470 202.052 211.522  1.00  0.00     0.039 C 
ENDBRANCH   5   6
ENDBRANCH   4   5
ENDBRANCH   1   4
BRANCH   2  10
ATOM     10  C   UNL     1     188.749 203.548 211.250  1.00  0.00     0.035 C 
BRANCH  10  11
ATOM     11  C   UNL     1     189.868 204.514 210.851  1.00  0.00     0.079 C 
BRANCH  11  12
ATOM     12  C   UNL     1     190.877 204.650 211.962  1.00  0.00     0.130 C 
ATOM     13  O   UNL     1     192.044 204.360 211.752  1.00  0.00    -0.300 OA
ATOM     14  C   UNL     1     190.476 205.123 213.328  1.00  0.00     0.087 C 
ENDBRANCH  11  12
ENDBRANCH  10  11
ENDBRANCH   2  10
TORSDOF 6
ENDMDL
MODEL 5
REMARK VINA RESULT:    -3.316      2.132      4.217
REMARK INTER + INTRA:          -5.861
REMARK INTER:                  -4.302
REMARK INTRA:                  -1.559
REMARK UNBOUND:                -1.383
REMARK SMILES CC(=O)CCC=C(C)CCC=C(C)C
REMARK SMILES IDX 7 1 6 2 8 3 9 4 10 5 11 6 13 7 12 8 14 9 5 10 4 11 2 12 3 13
REMARK SMILES IDX 1 14
REMARK H PARENT
REMARK Flexibility Score: inf
ROOT
ATOM      1  C   UNL     1     190.793 203.090 213.426  1.00  0.00    -0.077 C 
ATOM      2  C   UNL     1     190.102 202.040 213.925  1.00  0.00    -0.028 C 
ATOM      3  C   UNL     1     192.295 202.984 213.343  1.00  0.00     0.039 C 
ENDROOT
BRANCH   1   4
ATOM      4  C   UNL     1     190.118 204.359 212.934  1.00  0.00     0.034 C 
BRANCH   4   5
ATOM      5  C   UNL     1     190.021 204.408 211.402  1.00  0.00     0.032 C 
BRANCH   5   6
ATOM      6  C   UNL     1     188.704 203.850 210.915  1.00  0.00    -0.028 C 
ATOM      7  C   UNL     1     189.692 201.656 210.209  1.00  0.00     0.039 C 
ATOM      8  C   UNL     1     188.545 202.630 210.354  1.00  0.00    -0.080 C 
ATOM      9  C   UNL     1     187.177 202.243 209.856  1.00  0.00     0.039 C 
ENDBRANCH   5   6
ENDBRANCH   4   5
ENDBRANCH   1   4
BRANCH   2  10
ATOM     10  C   UNL     1     188.601 202.024 214.088  1.00  0.00     0.035 C 
BRANCH  10  11
ATOM     11  C   UNL     1     188.003 200.710 213.576  1.00  0.00     0.079 C 
BRANCH  11  12
ATOM     12  C   UNL     1     186.526 200.860 213.319  1.00  0.00     0.130 C 
ATOM     13  O   UNL     1     185.947 200.027 212.640  1.00  0.00    -0.300 OA
ATOM     14  C   UNL     1     185.751 202.020 213.870  1.00  0.00     0.087 C 
ENDBRANCH  11  12
ENDBRANCH  10  11
ENDBRANCH   2  10
TORSDOF 6
ENDMDL
MODEL 6
REMARK VINA RESULT:    -3.280      2.148      3.342
REMARK INTER + INTRA:          -5.813
REMARK INTER:                  -4.235
REMARK INTRA:                  -1.578
REMARK UNBOUND:                -1.383
REMARK SMILES CC(=O)CCC=C(C)CCC=C(C)C
REMARK SMILES IDX 7 1 6 2 8 3 9 4 10 5 11 6 13 7 12 8 14 9 5 10 4 11 2 12 3 13
REMARK SMILES IDX 1 14
REMARK H PARENT
REMARK Flexibility Score: inf
ROOT
ATOM      1  C   UNL     1     185.348 201.299 212.072  1.00  0.00    -0.077 C 
ATOM      2  C   UNL     1     185.749 201.815 213.256  1.00  0.00    -0.028 C 
ATOM      3  C   UNL     1     184.250 202.006 211.319  1.00  0.00     0.039 C 
ENDROOT
BRANCH   1   4
ATOM      4  C   UNL     1     185.969 200.051 211.468  1.00  0.00     0.034 C 
BRANCH   4   5
ATOM      5  C   UNL     1     186.511 200.300 210.053  1.00  0.00     0.032 C 
BRANCH   5   6
ATOM      6  C   UNL     1     188.021 200.362 210.044  1.00  0.00    -0.028 C 
ATOM      7  C   UNL     1     188.098 202.844 210.386  1.00  0.00     0.039 C 
ATOM      8  C   UNL     1     188.745 201.497 210.165  1.00  0.00    -0.080 C 
ATOM      9  C   UNL     1     190.246 201.403 210.071  1.00  0.00     0.039 C 
ENDBRANCH   5   6
ENDBRANCH   4   5
ENDBRANCH   1   4
BRANCH   2  10
ATOM     10  C   UNL     1     186.817 201.194 214.125  1.00  0.00     0.035 C 
BRANCH  10  11
ATOM     11  C   UNL     1     188.106 202.021 214.093  1.00  0.00     0.079 C 
BRANCH  11  12
ATOM     12  C   UNL     1     189.284 201.158 213.723  1.00  0.00     0.130 C 
ATOM     13  O   UNL     1     189.102 199.986 213.434  1.00  0.00    -0.300 OA
ATOM     14  C   UNL     1     190.681 201.705 213.712  1.00  0.00     0.087 C 
ENDBRANCH  11  12
ENDBRANCH  10  11
ENDBRANCH   2  10
TORSDOF 6
ENDMDL
MODEL 7
REMARK VINA RESULT:    -3.279      1.226      1.957
REMARK INTER + INTRA:          -5.812
REMARK INTER:                  -4.680
REMARK INTRA:                  -1.132
REMARK UNBOUND:                -1.383
REMARK SMILES CC(=O)CCC=C(C)CCC=C(C)C
REMARK SMILES IDX 7 1 6 2 8 3 9 4 10 5 11 6 13 7 12 8 14 9 5 10 4 11 2 12 3 13
REMARK SMILES IDX 1 14
REMARK H PARENT
REMARK Flexibility Score: inf
ROOT
ATOM      1  C   UNL     1     187.467 200.709 213.954  1.00  0.00    -0.077 C 
ATOM      2  C   UNL     1     188.729 201.177 214.081  1.00  0.00    -0.028 C 
ATOM      3  C   UNL     1     187.251 199.217 213.977  1.00  0.00     0.039 C 
ENDROOT
BRANCH   1   4
ATOM      4  C   UNL     1     186.263 201.624 213.806  1.00  0.00     0.034 C 
BRANCH   4   5
ATOM      5  C   UNL     1     185.999 202.003 212.341  1.00  0.00     0.032 C 
BRANCH   5   6
ATOM      6  C   UNL     1     184.975 201.087 211.712  1.00  0.00    -0.028 C 
ATOM      7  C   UNL     1     186.662 199.865 210.318  1.00  0.00     0.039 C 
ATOM      8  C   UNL     1     185.251 200.143 210.785  1.00  0.00    -0.080 C 
ATOM      9  C   UNL     1     184.109 199.353 210.202  1.00  0.00     0.039 C 
ENDBRANCH   5   6
ENDBRANCH   4   5
ENDBRANCH   1   4
BRANCH   2  10
ATOM     10  C   UNL     1     189.090 202.643 214.048  1.00  0.00     0.035 C 
BRANCH  10  11
ATOM     11  C   UNL     1     190.194 202.918 213.022  1.00  0.00     0.079 C 
BRANCH  11  12
ATOM     12  C   UNL     1     189.680 203.791 211.907  1.00  0.00     0.130 C 
ATOM     13  O   UNL     1     189.862 204.997 211.956  1.00  0.00    -0.300 OA
ATOM     14  C   UNL     1     188.937 203.211 210.739  1.00  0.00     0.087 C 
ENDBRANCH  11  12
ENDBRANCH  10  11
ENDBRANCH   2  10
TORSDOF 6
ENDMDL
MODEL 8
REMARK VINA RESULT:    -3.191      2.355      4.180
REMARK INTER + INTRA:          -5.693
REMARK INTER:                  -4.082
REMARK INTRA:                  -1.610
REMARK UNBOUND:                -1.383
REMARK SMILES CC(=O)CCC=C(C)CCC=C(C)C
REMARK SMILES IDX 7 1 6 2 8 3 9 4 10 5 11 6 13 7 12 8 14 9 5 10 4 11 2 12 3 13
REMARK SMILES IDX 1 14
REMARK H PARENT
REMARK Flexibility Score: inf
ROOT
ATOM      1  C   UNL     1     188.093 200.776 213.727  1.00  0.00    -0.077 C 
ATOM      2  C   UNL     1     186.836 200.541 213.286  1.00  0.00    -0.028 C 
ATOM      3  C   UNL     1     189.051 199.615 213.808  1.00  0.00     0.039 C 
ENDROOT
BRANCH   1   4
ATOM      4  C   UNL     1     188.578 202.159 214.125  1.00  0.00     0.034 C 
BRANCH   4   5
ATOM      5  C   UNL     1     189.724 202.652 213.230  1.00  0.00     0.032 C 
BRANCH   5   6
ATOM      6  C   UNL     1     189.200 203.251 211.945  1.00  0.00    -0.028 C 
ATOM      7  C   UNL     1     189.888 201.291 210.542  1.00  0.00     0.039 C 
ATOM      8  C   UNL     1     189.290 202.666 210.729  1.00  0.00    -0.080 C 
ATOM      9  C   UNL     1     188.779 203.422 209.531  1.00  0.00     0.039 C 
ENDBRANCH   5   6
ENDBRANCH   4   5
ENDBRANCH   1   4
BRANCH   2  10
ATOM     10  C   UNL     1     185.769 201.604 213.181  1.00  0.00     0.035 C 
BRANCH  10  11
ATOM     11  C   UNL     1     185.606 202.083 211.735  1.00  0.00     0.079 C 
BRANCH  11  12
ATOM     12  C   UNL     1     185.324 200.922 210.818  1.00  0.00     0.130 C 
ATOM     13  O   UNL     1     184.260 200.331 210.907  1.00  0.00    -0.300 OA
ATOM     14  C   UNL     1     186.330 200.467 209.802  1.00  0.00     0.087 C 
ENDBRANCH  11  12
ENDBRANCH  10  11
ENDBRANCH   2  10
TORSDOF 6
ENDMDL
MODEL 9
REMARK VINA RESULT:    -2.374      2.189      4.234
REMARK INTER + INTRA:          -4.589
REMARK INTER:                  -3.265
REMARK INTRA:                  -1.324
REMARK UNBOUND:                -1.383
REMARK SMILES CC(=O)CCC=C(C)CCC=C(C)C
REMARK SMILES IDX 7 1 6 2 8 3 9 4 10 5 11 6 13 7 12 8 14 9 5 10 4 11 2 12 3 13
REMARK SMILES IDX 1 14
REMARK H PARENT
REMARK Flexibility Score: inf
ROOT
ATOM      1  C   UNL     1     189.539 203.278 212.291  1.00  0.00    -0.077 C 
ATOM      2  C   UNL     1     189.288 203.067 213.602  1.00  0.00    -0.028 C 
ATOM      3  C   UNL     1     190.378 204.469 211.904  1.00  0.00     0.039 C 
ENDROOT
BRANCH   1   4
ATOM      4  C   UNL     1     189.024 202.356 211.198  1.00  0.00     0.034 C 
BRANCH   4   5
ATOM      5  C   UNL     1     187.625 202.760 210.710  1.00  0.00     0.032 C 
BRANCH   5   6
ATOM      6  C   UNL     1     186.711 201.561 210.606  1.00  0.00    -0.028 C 
ATOM      7  C   UNL     1     185.270 202.270 212.532  1.00  0.00     0.039 C 
ATOM      8  C   UNL     1     185.668 201.314 211.431  1.00  0.00    -0.080 C 
ATOM      9  C   UNL     1     184.890 200.038 211.240  1.00  0.00     0.039 C 
ENDBRANCH   5   6
ENDBRANCH   4   5
ENDBRANCH   1   4
BRANCH   2  10
ATOM     10  C   UNL     1     188.443 201.930 214.125  1.00  0.00     0.035 C 
BRANCH  10  11
ATOM     11  C   UNL     1     189.183 200.593 214.013  1.00  0.00     0.079 C 
BRANCH  11  12
ATOM     12  C   UNL     1     188.268 199.521 213.479  1.00  0.00     0.130 C 
ATOM     13  O   UNL     1     187.237 199.259 214.078  1.00  0.00    -0.300 OA
ATOM     14  C   UNL     1     188.602 198.759 212.232  1.00  0.00     0.087 C 
ENDBRANCH  11  12
ENDBRANCH  10  11
ENDBRANCH   2  10
TORSDOF 6
ENDMDL
