MODEL 1
REMARK VINA RESULT:    -3.740      0.000      0.000
REMARK INTER + INTRA:          -3.740
REMARK INTER:                  -3.740
REMARK INTRA:                   0.000
REMARK UNBOUND:                 0.000
REMARK SMILES CC1(C)O[C@]2(C)CC[C@H]1CC2
REMARK SMILES IDX 1 1 2 2 9 3 8 4 7 5 5 6 4 7 11 8 10 9 6 10 3 11
REMARK H PARENT
REMARK Flexibility Score: inf
ROOT
ATOM      1  C   UNL     1     166.157 171.521 171.379  1.00  0.00     0.042 C 
ATOM      2  C   UNL     1     165.102 172.463 170.759  1.00  0.00     0.066 C 
ATOM      3  C   UNL     1     163.687 171.765 170.718  1.00  0.00     0.021 C 
ATOM      4  C   UNL     1     163.778 170.527 169.794  1.00  0.00     0.009 C 
ATOM      5  C   UNL     1     164.389 170.950 168.436  1.00  0.00     0.035 C 
ATOM      6  C   UNL     1     164.623 172.489 168.419  1.00  0.00     0.066 C 
ATOM      7  O   UNL     1     165.552 172.833 169.447  1.00  0.00    -0.369 OA
ATOM      8  C   UNL     1     163.270 173.208 168.691  1.00  0.00     0.035 C 
ATOM      9  C   UNL     1     162.685 172.732 170.042  1.00  0.00     0.009 C 
ATOM     10  C   UNL     1     165.197 172.925 167.068  1.00  0.00     0.042 C 
ATOM     11  C   UNL     1     165.057 173.737 171.629  1.00  0.00     0.042 C 
ENDROOT
TORSDOF 0
ENDMDL
MODEL 2
REMARK VINA RESULT:    -3.666      8.189      9.662
REMARK INTER + INTRA:          -3.666
REMARK INTER:                  -3.666
REMARK INTRA:                   0.000
REMARK UNBOUND:                 0.000
REMARK SMILES CC1(C)O[C@]2(C)CC[C@H]1CC2
REMARK SMILES IDX 1 1 2 2 9 3 8 4 7 5 5 6 4 7 11 8 10 9 6 10 3 11
REMARK H PARENT
REMARK Flexibility Score: inf
ROOT
ATOM      1  C   UNL     1     159.885 166.181 171.367  1.00  0.00     0.042 C 
ATOM      2  C   UNL     1     158.888 165.171 170.759  1.00  0.00     0.066 C 
ATOM      3  C   UNL     1     159.510 163.720 170.736  1.00  0.00     0.021 C 
ATOM      4  C   UNL     1     160.752 163.733 169.813  1.00  0.00     0.009 C 
ATOM      5  C   UNL     1     160.362 164.349 168.447  1.00  0.00     0.035 C 
ATOM      6  C   UNL     1     158.838 164.664 168.425  1.00  0.00     0.066 C 
ATOM      7  O   UNL     1     158.543 165.623 169.442  1.00  0.00    -0.369 OA
ATOM      8  C   UNL     1     158.049 163.355 168.713  1.00  0.00     0.035 C 
ATOM      9  C   UNL     1     158.492 162.763 170.072  1.00  0.00     0.009 C 
ATOM     10  C   UNL     1     158.434 165.244 167.066  1.00  0.00     0.042 C 
ATOM     11  C   UNL     1     157.613 165.204 171.628  1.00  0.00     0.042 C 
ENDROOT
TORSDOF 0
ENDMDL
MODEL 3
REMARK VINA RESULT:    -3.648     12.324     13.745
REMARK INTER + INTRA:          -3.648
REMARK INTER:                  -3.648
REMARK INTRA:                   0.000
REMARK UNBOUND:                 0.000
REMARK SMILES CC1(C)O[C@]2(C)CC[C@H]1CC2
REMARK SMILES IDX 1 1 2 2 9 3 8 4 7 5 5 6 4 7 11 8 10 9 6 10 3 11
REMARK H PARENT
REMARK Flexibility Score: inf
ROOT
ATOM      1  C   UNL     1     165.010 159.827 171.483  1.00  0.00     0.042 C 
ATOM      2  C   UNL     1     166.025 158.834 170.877  1.00  0.00     0.066 C 
ATOM      3  C   UNL     1     167.482 159.440 170.902  1.00  0.00     0.021 C 
ATOM      4  C   UNL     1     167.503 160.703 170.007  1.00  0.00     0.009 C 
ATOM      5  C   UNL     1     166.915 160.351 168.619  1.00  0.00     0.035 C 
ATOM      6  C   UNL     1     166.586 158.832 168.554  1.00  0.00     0.066 C 
ATOM      7  O   UNL     1     165.600 158.524 169.541  1.00  0.00    -0.369 OA
ATOM      8  C   UNL     1     167.879 158.022 168.854  1.00  0.00     0.035 C 
ATOM      9  C   UNL     1     168.444 158.427 170.237  1.00  0.00     0.009 C 
ATOM     10  C   UNL     1     166.035 158.464 167.173  1.00  0.00     0.042 C 
ATOM     11  C   UNL     1     165.957 157.540 171.715  1.00  0.00     0.042 C 
ENDROOT
TORSDOF 0
ENDMDL
MODEL 4
REMARK VINA RESULT:    -3.646      8.231      9.699
REMARK INTER + INTRA:          -3.646
REMARK INTER:                  -3.646
REMARK INTRA:                   0.000
REMARK UNBOUND:                 0.000
REMARK SMILES CC1(C)O[C@]2(C)CC[C@H]1CC2
REMARK SMILES IDX 1 1 2 2 9 3 8 4 7 5 5 6 4 7 11 8 10 9 6 10 3 11
REMARK H PARENT
REMARK Flexibility Score: inf
ROOT
ATOM      1  C   UNL     1     171.384 165.059 171.483  1.00  0.00     0.042 C 
ATOM      2  C   UNL     1     172.356 166.078 170.850  1.00  0.00     0.066 C 
ATOM      3  C   UNL     1     171.723 167.524 170.844  1.00  0.00     0.021 C 
ATOM      4  C   UNL     1     170.457 167.501 169.955  1.00  0.00     0.009 C 
ATOM      5  C   UNL     1     170.814 166.889 168.578  1.00  0.00     0.035 C 
ATOM      6  C   UNL     1     172.339 166.586 168.515  1.00  0.00     0.066 C 
ATOM      7  O   UNL     1     172.669 165.629 169.523  1.00  0.00    -0.369 OA
ATOM      8  C   UNL     1     173.126 167.901 168.783  1.00  0.00     0.035 C 
ATOM      9  C   UNL     1     172.715 168.489 170.154  1.00  0.00     0.009 C 
ATOM     10  C   UNL     1     172.712 166.011 167.145  1.00  0.00     0.042 C 
ATOM     11  C   UNL     1     173.654 166.053 171.684  1.00  0.00     0.042 C 
ENDROOT
TORSDOF 0
ENDMDL
MODEL 5
REMARK VINA RESULT:    -3.545      1.566      3.018
REMARK INTER + INTRA:          -3.545
REMARK INTER:                  -3.545
REMARK INTRA:                   0.000
REMARK UNBOUND:                 0.000
REMARK SMILES CC1(C)O[C@]2(C)CC[C@H]1CC2
REMARK SMILES IDX 1 1 2 2 9 3 8 4 7 5 5 6 4 7 11 8 10 9 6 10 3 11
REMARK H PARENT
REMARK Flexibility Score: inf
ROOT
ATOM      1  C   UNL     1     162.097 173.461 169.700  1.00  0.00     0.042 C 
ATOM      2  C   UNL     1     162.614 172.009 169.798  1.00  0.00     0.066 C 
ATOM      3  C   UNL     1     163.965 171.953 170.612  1.00  0.00     0.021 C 
ATOM      4  C   UNL     1     165.037 172.758 169.840  1.00  0.00     0.009 C 
ATOM      5  C   UNL     1     165.084 172.265 168.373  1.00  0.00     0.035 C 
ATOM      6  C   UNL     1     164.107 171.068 168.187  1.00  0.00     0.066 C 
ATOM      7  O   UNL     1     162.775 171.503 168.464  1.00  0.00    -0.369 OA
ATOM      8  C   UNL     1     164.494 169.941 169.186  1.00  0.00     0.035 C 
ATOM      9  C   UNL     1     164.461 170.487 170.634  1.00  0.00     0.009 C 
ATOM     10  C   UNL     1     164.168 170.549 166.747  1.00  0.00     0.042 C 
ATOM     11  C   UNL     1     161.519 171.178 170.499  1.00  0.00     0.042 C 
ENDROOT
TORSDOF 0
ENDMDL
MODEL 6
REMARK VINA RESULT:    -3.536      8.962     10.227
REMARK INTER + INTRA:          -3.536
REMARK INTER:                  -3.536
REMARK INTRA:                   0.000
REMARK UNBOUND:                 0.000
REMARK SMILES CC1(C)O[C@]2(C)CC[C@H]1CC2
REMARK SMILES IDX 1 1 2 2 9 3 8 4 7 5 5 6 4 7 11 8 10 9 6 10 3 11
REMARK H PARENT
REMARK Flexibility Score: inf
ROOT
ATOM      1  C   UNL     1     157.671 162.208 169.662  1.00  0.00     0.042 C 
ATOM      2  C   UNL     1     159.150 162.642 169.753  1.00  0.00     0.066 C 
ATOM      3  C   UNL     1     159.291 163.967 170.599  1.00  0.00     0.021 C 
ATOM      4  C   UNL     1     158.537 165.101 169.864  1.00  0.00     0.009 C 
ATOM      5  C   UNL     1     159.013 165.157 168.392  1.00  0.00     0.035 C 
ATOM      6  C   UNL     1     160.152 164.121 168.166  1.00  0.00     0.066 C 
ATOM      7  O   UNL     1     159.648 162.808 168.417  1.00  0.00    -0.369 OA
ATOM      8  C   UNL     1     161.312 164.421 169.158  1.00  0.00     0.035 C 
ATOM      9  C   UNL     1     160.782 164.382 170.612  1.00  0.00     0.009 C 
ATOM     10  C   UNL     1     160.656 164.189 166.721  1.00  0.00     0.042 C 
ATOM     11  C   UNL     1     159.928 161.486 170.415  1.00  0.00     0.042 C 
ENDROOT
TORSDOF 0
ENDMDL
MODEL 7
REMARK VINA RESULT:    -3.497     11.763     12.993
REMARK INTER + INTRA:          -3.497
REMARK INTER:                  -3.497
REMARK INTRA:                   0.000
REMARK UNBOUND:                 0.000
REMARK SMILES CC1(C)O[C@]2(C)CC[C@H]1CC2
REMARK SMILES IDX 1 1 2 2 9 3 8 4 7 5 5 6 4 7 11 8 10 9 6 10 3 11
REMARK H PARENT
REMARK Flexibility Score: inf
ROOT
ATOM      1  C   UNL     1     169.097 157.838 170.106  1.00  0.00     0.042 C 
ATOM      2  C   UNL     1     168.613 159.304 170.069  1.00  0.00     0.066 C 
ATOM      3  C   UNL     1     167.259 159.464 170.864  1.00  0.00     0.021 C 
ATOM      4  C   UNL     1     166.173 158.617 170.159  1.00  0.00     0.009 C 
ATOM      5  C   UNL     1     166.147 158.977 168.653  1.00  0.00     0.035 C 
ATOM      6  C   UNL     1     167.152 160.130 168.368  1.00  0.00     0.066 C 
ATOM      7  O   UNL     1     168.472 159.691 168.694  1.00  0.00    -0.369 OA
ATOM      8  C   UNL     1     166.785 161.351 169.258  1.00  0.00     0.035 C 
ATOM      9  C   UNL     1     166.797 160.937 170.750  1.00  0.00     0.009 C 
ATOM     10  C   UNL     1     167.112 160.518 166.887  1.00  0.00     0.042 C 
ATOM     11  C   UNL     1     169.723 160.169 170.701  1.00  0.00     0.042 C 
ENDROOT
TORSDOF 0
ENDMDL
MODEL 8
REMARK VINA RESULT:    -3.400      1.388      3.075
REMARK INTER + INTRA:          -3.400
REMARK INTER:                  -3.400
REMARK INTRA:                   0.000
REMARK UNBOUND:                 0.000
REMARK SMILES CC1(C)O[C@]2(C)CC[C@H]1CC2
REMARK SMILES IDX 1 1 2 2 9 3 8 4 7 5 5 6 4 7 11 8 10 9 6 10 3 11
REMARK H PARENT
REMARK Flexibility Score: inf
ROOT
ATOM      1  C   UNL     1     164.396 170.358 167.418  1.00  0.00     0.042 C 
ATOM      2  C   UNL     1     164.395 171.690 168.198  1.00  0.00     0.066 C 
ATOM      3  C   UNL     1     165.133 171.526 169.584  1.00  0.00     0.021 C 
ATOM      4  C   UNL     1     164.346 170.505 170.440  1.00  0.00     0.009 C 
ATOM      5  C   UNL     1     162.856 170.924 170.487  1.00  0.00     0.035 C 
ATOM      6  C   UNL     1     162.663 172.274 169.737  1.00  0.00     0.066 C 
ATOM      7  O   UNL     1     163.032 172.106 168.367  1.00  0.00    -0.369 OA
ATOM      8  C   UNL     1     163.584 173.347 170.386  1.00  0.00     0.035 C 
ATOM      9  C   UNL     1     165.056 172.872 170.341  1.00  0.00     0.009 C 
ATOM     10  C   UNL     1     161.198 172.717 169.804  1.00  0.00     0.042 C 
ATOM     11  C   UNL     1     165.112 172.737 167.319  1.00  0.00     0.042 C 
ENDROOT
TORSDOF 0
ENDMDL
MODEL 9
REMARK VINA RESULT:    -3.393     12.140     13.704
REMARK INTER + INTRA:          -3.393
REMARK INTER:                  -3.393
REMARK INTRA:                   0.000
REMARK UNBOUND:                 0.000
REMARK SMILES CC1(C)O[C@]2(C)CC[C@H]1CC2
REMARK SMILES IDX 1 1 2 2 9 3 8 4 7 5 5 6 4 7 11 8 10 9 6 10 3 11
REMARK H PARENT
REMARK Flexibility Score: inf
ROOT
ATOM      1  C   UNL     1     166.791 160.828 167.387  1.00  0.00     0.042 C 
ATOM      2  C   UNL     1     166.805 159.503 168.180  1.00  0.00     0.066 C 
ATOM      3  C   UNL     1     166.067 159.674 169.565  1.00  0.00     0.021 C 
ATOM      4  C   UNL     1     166.845 160.709 170.411  1.00  0.00     0.009 C 
ATOM      5  C   UNL     1     168.339 160.305 170.460  1.00  0.00     0.035 C 
ATOM      6  C   UNL     1     168.544 158.950 169.723  1.00  0.00     0.066 C 
ATOM      7  O   UNL     1     168.172 159.101 168.352  1.00  0.00    -0.369 OA
ATOM      8  C   UNL     1     167.634 157.874 170.383  1.00  0.00     0.035 C 
ATOM      9  C   UNL     1     166.157 158.335 170.335  1.00  0.00     0.009 C 
ATOM     10  C   UNL     1     170.012 158.521 169.793  1.00  0.00     0.042 C 
ATOM     11  C   UNL     1     166.098 158.441 167.312  1.00  0.00     0.042 C 
ENDROOT
TORSDOF 0
ENDMDL
