MODEL 1
REMARK VINA RESULT:     0.558      0.000      0.000
REMARK INTER + INTRA:           0.537
REMARK INTER:                   0.689
REMARK INTRA:                  -0.151
REMARK UNBOUND:                -0.151
REMARK SMILES CCCCCC(=O)[O-]
REMARK SMILES IDX 4 1 5 2 6 3 7 4 8 5 3 6 2 7 1 8
REMARK H PARENT
REMARK Flexibility Score: inf
ROOT
ATOM      1  C   UNL     1     103.998 104.192 101.800  1.00  0.00     0.006 C 
ENDROOT
BRANCH   1   2
ATOM      2  C   UNL     1     102.977 103.353 102.575  1.00  0.00     0.053 C 
BRANCH   2   3
ATOM      3  C   UNL     1     103.508 101.976 102.819  1.00  0.00     0.041 C 
ATOM      4  O   UNL     1     104.008 101.313 101.873  1.00  0.00    -0.550 OA
ATOM      5  O   UNL     1     103.407 101.406 104.082  1.00  0.00    -0.550 OA
ENDBRANCH   2   3
ENDBRANCH   1   2
BRANCH   1   6
ATOM      6  C   UNL     1     105.055 104.782 102.744  1.00  0.00     0.000 C 
BRANCH   6   7
ATOM      7  C   UNL     1     104.693 106.197 103.224  1.00  0.00    -0.003 C 
ATOM      8  C   UNL     1     104.088 107.061 102.118  1.00  0.00     0.004 C 
ENDBRANCH   6   7
ENDBRANCH   1   6
TORSDOF 4
ENDMDL
MODEL 2
REMARK VINA RESULT:     0.571      2.866      4.321
REMARK INTER + INTRA:           0.553
REMARK INTER:                   0.700
REMARK INTRA:                  -0.147
REMARK UNBOUND:                -0.151
REMARK SMILES CCCCCC(=O)[O-]
REMARK SMILES IDX 4 1 5 2 6 3 7 4 8 5 3 6 2 7 1 8
REMARK H PARENT
REMARK Flexibility Score: inf
ROOT
ATOM      1  C   UNL     1     103.994 104.119 101.758  1.00  0.00     0.006 C 
ENDROOT
BRANCH   1   2
ATOM      2  C   UNL     1     104.987 104.928 102.599  1.00  0.00     0.053 C 
BRANCH   2   3
ATOM      3  C   UNL     1     104.488 106.323 102.801  1.00  0.00     0.041 C 
ATOM      4  O   UNL     1     103.996 106.966 101.837  1.00  0.00    -0.550 OA
ATOM      5  O   UNL     1     104.610 106.932 104.044  1.00  0.00    -0.550 OA
ENDBRANCH   2   3
ENDBRANCH   1   2
BRANCH   1   6
ATOM      6  C   UNL     1     102.905 103.496 102.644  1.00  0.00     0.000 C 
BRANCH   6   7
ATOM      7  C   UNL     1     103.315 102.126 103.207  1.00  0.00    -0.003 C 
ATOM      8  C   UNL     1     103.920 101.207 102.146  1.00  0.00     0.004 C 
ENDBRANCH   6   7
ENDBRANCH   1   6
TORSDOF 4
ENDMDL
MODEL 3
REMARK VINA RESULT:     0.598      5.146      6.397
REMARK INTER + INTRA:           0.587
REMARK INTER:                   0.743
REMARK INTRA:                  -0.157
REMARK UNBOUND:                -0.151
REMARK SMILES CCCCCC(=O)[O-]
REMARK SMILES IDX 4 1 5 2 6 3 7 4 8 5 3 6 2 7 1 8
REMARK H PARENT
REMARK Flexibility Score: inf
ROOT
ATOM      1  C   UNL     1     104.028 104.079 106.556  1.00  0.00     0.006 C 
ENDROOT
BRANCH   1   2
ATOM      2  C   UNL     1     105.071 104.950 107.264  1.00  0.00     0.053 C 
BRANCH   2   3
ATOM      3  C   UNL     1     104.519 106.314 107.534  1.00  0.00     0.041 C 
ATOM      4  O   UNL     1     104.045 107.004 106.593  1.00  0.00    -0.550 OA
ATOM      5  O   UNL     1     104.571 106.843 108.817  1.00  0.00    -0.550 OA
ENDBRANCH   2   3
ENDBRANCH   1   2
BRANCH   1   6
ATOM      6  C   UNL     1     102.993 103.541 107.554  1.00  0.00     0.000 C 
BRANCH   6   7
ATOM      7  C   UNL     1     103.249 102.075 107.937  1.00  0.00    -0.003 C 
ATOM      8  C   UNL     1     103.935 101.284 106.824  1.00  0.00     0.004 C 
ENDBRANCH   6   7
ENDBRANCH   1   6
TORSDOF 4
ENDMDL
MODEL 4
REMARK VINA RESULT:     0.600      4.244      4.702
REMARK INTER + INTRA:           0.589
REMARK INTER:                   0.746
REMARK INTRA:                  -0.157
REMARK UNBOUND:                -0.151
REMARK SMILES CCCCCC(=O)[O-]
REMARK SMILES IDX 4 1 5 2 6 3 7 4 8 5 3 6 2 7 1 8
REMARK H PARENT
REMARK Flexibility Score: inf
ROOT
ATOM      1  C   UNL     1     104.093 104.172 106.476  1.00  0.00     0.006 C 
ENDROOT
BRANCH   1   2
ATOM      2  C   UNL     1     103.012 103.344 107.178  1.00  0.00     0.053 C 
BRANCH   2   3
ATOM      3  C   UNL     1     103.523 101.974 107.493  1.00  0.00     0.041 C 
ATOM      4  O   UNL     1     104.025 101.260 106.586  1.00  0.00    -0.550 OA
ATOM      5  O   UNL     1     103.402 101.466 108.781  1.00  0.00    -0.550 OA
ENDBRANCH   2   3
ENDBRANCH   1   2
BRANCH   1   6
ATOM      6  C   UNL     1     105.091 104.745 107.492  1.00  0.00     0.000 C 
BRANCH   6   7
ATOM      7  C   UNL     1     104.704 106.154 107.970  1.00  0.00    -0.003 C 
ATOM      8  C   UNL     1     104.055 106.994 106.871  1.00  0.00     0.004 C 
ENDBRANCH   6   7
ENDBRANCH   1   6
TORSDOF 4
ENDMDL
MODEL 5
REMARK VINA RESULT:     0.747      4.290      4.745
REMARK INTER + INTRA:           0.771
REMARK INTER:                   0.921
REMARK INTRA:                  -0.150
REMARK UNBOUND:                -0.151
REMARK SMILES CCCCCC(=O)[O-]
REMARK SMILES IDX 4 1 5 2 6 3 7 4 8 5 3 6 2 7 1 8
REMARK H PARENT
REMARK Flexibility Score: inf
ROOT
ATOM      1  C   UNL     1     104.086 104.199  97.099  1.00  0.00     0.006 C 
ENDROOT
BRANCH   1   2
ATOM      2  C   UNL     1     103.018 103.340  97.783  1.00  0.00     0.053 C 
BRANCH   2   3
ATOM      3  C   UNL     1     103.544 101.965  98.052  1.00  0.00     0.041 C 
ATOM      4  O   UNL     1     104.025 101.276  97.115  1.00  0.00    -0.550 OA
ATOM      5  O   UNL     1     103.459 101.427  99.330  1.00  0.00    -0.550 OA
ENDBRANCH   2   3
ENDBRANCH   1   2
BRANCH   1   6
ATOM      6  C   UNL     1     105.039 104.816  98.132  1.00  0.00     0.000 C 
BRANCH   6   7
ATOM      7  C   UNL     1     104.680 106.272  98.470  1.00  0.00    -0.003 C 
ATOM      8  C   UNL     1     104.027 107.007  97.300  1.00  0.00     0.004 C 
ENDBRANCH   6   7
ENDBRANCH   1   6
TORSDOF 4
ENDMDL
MODEL 6
REMARK VINA RESULT:     0.784      5.040      6.326
REMARK INTER + INTRA:           0.816
REMARK INTER:                   0.990
REMARK INTRA:                  -0.174
REMARK UNBOUND:                -0.151
REMARK SMILES CCCCCC(=O)[O-]
REMARK SMILES IDX 4 1 5 2 6 3 7 4 8 5 3 6 2 7 1 8
REMARK H PARENT
REMARK Flexibility Score: inf
ROOT
ATOM      1  C   UNL     1     103.964 104.011  96.986  1.00  0.00     0.006 C 
ENDROOT
BRANCH   1   2
ATOM      2  C   UNL     1     105.065 104.882  97.600  1.00  0.00     0.053 C 
BRANCH   2   3
ATOM      3  C   UNL     1     104.485 106.144  98.157  1.00  0.00     0.041 C 
ATOM      4  O   UNL     1     103.940 106.982  97.393  1.00  0.00    -0.550 OA
ATOM      5  O   UNL     1     104.590 106.416  99.516  1.00  0.00    -0.550 OA
ENDBRANCH   2   3
ENDBRANCH   1   2
BRANCH   1   6
ATOM      6  C   UNL     1     103.006 103.494  98.068  1.00  0.00     0.000 C 
BRANCH   6   7
ATOM      7  C   UNL     1     103.307 102.044  98.479  1.00  0.00    -0.003 C 
ATOM      8  C   UNL     1     103.976 101.240  97.365  1.00  0.00     0.004 C 
ENDBRANCH   6   7
ENDBRANCH   1   6
TORSDOF 4
ENDMDL
MODEL 7
REMARK VINA RESULT:     0.936      9.252     10.347
REMARK INTER + INTRA:           1.003
REMARK INTER:                   1.131
REMARK INTRA:                  -0.128
REMARK UNBOUND:                -0.151
REMARK SMILES CCCCCC(=O)[O-]
REMARK SMILES IDX 4 1 5 2 6 3 7 4 8 5 3 6 2 7 1 8
REMARK H PARENT
REMARK Flexibility Score: inf
ROOT
ATOM      1  C   UNL     1     103.912 104.125 111.210  1.00  0.00     0.006 C 
ENDROOT
BRANCH   1   2
ATOM      2  C   UNL     1     104.879 104.892 112.118  1.00  0.00     0.053 C 
BRANCH   2   3
ATOM      3  C   UNL     1     104.593 106.360 112.066  1.00  0.00     0.041 C 
ATOM      4  O   UNL     1     104.597 107.044 113.123  1.00  0.00    -0.550 OA
ATOM      5  O   UNL     1     104.277 106.964 110.856  1.00  0.00    -0.550 OA
ENDBRANCH   2   3
ENDBRANCH   1   2
BRANCH   1   6
ATOM      6  C   UNL     1     102.798 103.461 112.031  1.00  0.00     0.000 C 
BRANCH   6   7
ATOM      7  C   UNL     1     103.253 102.149 112.690  1.00  0.00    -0.003 C 
ATOM      8  C   UNL     1     103.845 101.158 111.690  1.00  0.00     0.004 C 
ENDBRANCH   6   7
ENDBRANCH   1   6
TORSDOF 4
ENDMDL
MODEL 8
REMARK VINA RESULT:     1.037      8.742      9.385
REMARK INTER + INTRA:           1.129
REMARK INTER:                   1.260
REMARK INTRA:                  -0.131
REMARK UNBOUND:                -0.151
REMARK SMILES CCCCCC(=O)[O-]
REMARK SMILES IDX 4 1 5 2 6 3 7 4 8 5 3 6 2 7 1 8
REMARK H PARENT
REMARK Flexibility Score: inf
ROOT
ATOM      1  C   UNL     1     103.860 104.245 111.226  1.00  0.00     0.006 C 
ENDROOT
BRANCH   1   2
ATOM      2  C   UNL     1     102.897 103.378 112.043  1.00  0.00     0.053 C 
BRANCH   2   3
ATOM      3  C   UNL     1     103.344 101.951 112.039  1.00  0.00     0.041 C 
ATOM      4  O   UNL     1     103.417 101.306 113.118  1.00  0.00    -0.550 OA
ATOM      5  O   UNL     1     103.728 101.346 110.849  1.00  0.00    -0.550 OA
ENDBRANCH   2   3
ENDBRANCH   1   2
BRANCH   1   6
ATOM      6  C   UNL     1     104.996 104.784 112.107  1.00  0.00     0.000 C 
BRANCH   6   7
ATOM      7  C   UNL     1     104.675 106.164 112.704  1.00  0.00    -0.003 C 
ATOM      8  C   UNL     1     104.484 107.240 111.636  1.00  0.00     0.004 C 
ENDBRANCH   6   7
ENDBRANCH   1   6
TORSDOF 4
ENDMDL
MODEL 9
REMARK VINA RESULT:     1.394      2.669      3.577
REMARK INTER + INTRA:           1.568
REMARK INTER:                   1.649
REMARK INTRA:                  -0.081
REMARK UNBOUND:                -0.151
REMARK SMILES CCCCCC(=O)[O-]
REMARK SMILES IDX 4 1 5 2 6 3 7 4 8 5 3 6 2 7 1 8
REMARK H PARENT
REMARK Flexibility Score: inf
ROOT
ATOM      1  C   UNL     1     103.586 103.292 104.407  1.00  0.00     0.006 C 
ENDROOT
BRANCH   1   2
ATOM      2  C   UNL     1     103.233 102.184 105.404  1.00  0.00     0.053 C 
BRANCH   2   3
ATOM      3  C   UNL     1     103.596 102.595 106.795  1.00  0.00     0.041 C 
ATOM      4  O   UNL     1     103.593 101.749 107.728  1.00  0.00    -0.550 OA
ATOM      5  O   UNL     1     103.892 103.924 107.072  1.00  0.00    -0.550 OA
ENDBRANCH   2   3
ENDBRANCH   1   2
BRANCH   1   6
ATOM      6  C   UNL     1     103.387 102.815 102.961  1.00  0.00     0.000 C 
BRANCH   6   7
ATOM      7  C   UNL     1     103.965 103.797 101.930  1.00  0.00    -0.003 C 
ATOM      8  C   UNL     1     104.439 105.106 102.561  1.00  0.00     0.004 C 
ENDBRANCH   6   7
ENDBRANCH   1   6
TORSDOF 4
ENDMDL
