MODEL 1
REMARK VINA RESULT:    -4.549      0.000      0.000
REMARK INTER + INTRA:          -4.965
REMARK INTER:                  -4.948
REMARK INTRA:                  -0.017
REMARK UNBOUND:                -0.017
REMARK SMILES OCc1ccccc1
REMARK SMILES IDX 2 1 3 2 6 3 5 4 7 5 4 6 8 7 1 8
REMARK H PARENT 1 9
REMARK Flexibility Score: inf
ROOT
ATOM      1  C   UNL     1     117.001 178.626 122.507  1.00  0.00     0.191 C 
ENDROOT
BRANCH   1   2
ATOM      2  C   UNL     1     118.186 179.016 123.346  1.00  0.00    -0.023 A 
ATOM      3  C   UNL     1     120.390 179.820 124.886  1.00  0.00     0.000 A 
ATOM      4  C   UNL     1     119.110 179.815 125.447  1.00  0.00     0.000 A 
ATOM      5  C   UNL     1     120.571 179.434 123.555  1.00  0.00     0.000 A 
ATOM      6  C   UNL     1     118.009 179.421 124.679  1.00  0.00     0.006 A 
ATOM      7  C   UNL     1     119.473 179.038 122.784  1.00  0.00     0.006 A 
ENDBRANCH   1   2
BRANCH   1   8
ATOM      8  O   UNL     1     117.198 179.029 121.179  1.00  0.00    -0.392 OA
ATOM      9  H   UNL     1     116.667 178.409 120.613  1.00  0.00     0.211 HD
ENDBRANCH   1   8
TORSDOF 2
ENDMDL
MODEL 2
REMARK VINA RESULT:    -4.523      0.107      1.716
REMARK INTER + INTRA:          -4.937
REMARK INTER:                  -4.921
REMARK INTRA:                  -0.016
REMARK UNBOUND:                -0.017
REMARK SMILES OCc1ccccc1
REMARK SMILES IDX 2 1 3 2 6 3 5 4 7 5 4 6 8 7 1 8
REMARK H PARENT 1 9
REMARK Flexibility Score: inf
ROOT
ATOM      1  C   UNL     1     117.008 178.612 122.424  1.00  0.00     0.191 C 
ENDROOT
BRANCH   1   2
ATOM      2  C   UNL     1     118.185 179.009 123.270  1.00  0.00    -0.023 A 
ATOM      3  C   UNL     1     120.392 179.674 124.872  1.00  0.00     0.000 A 
ATOM      4  C   UNL     1     120.578 179.350 123.526  1.00  0.00     0.000 A 
ATOM      5  C   UNL     1     119.107 179.656 125.424  1.00  0.00     0.000 A 
ATOM      6  C   UNL     1     119.480 179.013 122.727  1.00  0.00     0.006 A 
ATOM      7  C   UNL     1     118.007 179.320 124.629  1.00  0.00     0.006 A 
ENDBRANCH   1   2
BRANCH   1   8
ATOM      8  O   UNL     1     117.213 179.010 121.097  1.00  0.00    -0.392 OA
ATOM      9  H   UNL     1     118.106 178.664 120.831  1.00  0.00     0.211 HD
ENDBRANCH   1   8
TORSDOF 2
ENDMDL
MODEL 3
REMARK VINA RESULT:    -4.272      2.930      4.186
REMARK INTER + INTRA:          -4.664
REMARK INTER:                  -4.645
REMARK INTRA:                  -0.019
REMARK UNBOUND:                -0.017
REMARK SMILES OCc1ccccc1
REMARK SMILES IDX 2 1 3 2 6 3 5 4 7 5 4 6 8 7 1 8
REMARK H PARENT 1 9
REMARK Flexibility Score: inf
ROOT
ATOM      1  C   UNL     1     123.352 177.144 122.761  1.00  0.00     0.191 C 
ENDROOT
BRANCH   1   2
ATOM      2  C   UNL     1     122.268 177.993 123.362  1.00  0.00    -0.023 A 
ATOM      3  C   UNL     1     120.293 179.640 124.488  1.00  0.00     0.000 A 
ATOM      4  C   UNL     1     120.422 179.554 123.099  1.00  0.00     0.000 A 
ATOM      5  C   UNL     1     121.155 178.915 125.317  1.00  0.00     0.000 A 
ATOM      6  C   UNL     1     121.409 178.738 122.536  1.00  0.00     0.006 A 
ATOM      7  C   UNL     1     122.143 178.097 124.757  1.00  0.00     0.006 A 
ENDBRANCH   1   2
BRANCH   1   8
ATOM      8  O   UNL     1     123.237 177.134 121.364  1.00  0.00    -0.392 OA
ATOM      9  H   UNL     1     122.292 177.358 121.155  1.00  0.00     0.211 HD
ENDBRANCH   1   8
TORSDOF 2
ENDMDL
MODEL 4
REMARK VINA RESULT:    -4.231     13.547     14.605
REMARK INTER + INTRA:          -4.619
REMARK INTER:                  -4.603
REMARK INTRA:                  -0.016
REMARK UNBOUND:                -0.017
REMARK SMILES OCc1ccccc1
REMARK SMILES IDX 2 1 3 2 6 3 5 4 7 5 4 6 8 7 1 8
REMARK H PARENT 1 9
REMARK Flexibility Score: inf
ROOT
ATOM      1  C   UNL     1     115.842 166.336 122.967  1.00  0.00     0.191 C 
ENDROOT
BRANCH   1   2
ATOM      2  C   UNL     1     116.346 165.770 121.669  1.00  0.00    -0.023 A 
ATOM      3  C   UNL     1     117.239 164.651 119.255  1.00  0.00     0.000 A 
ATOM      4  C   UNL     1     116.168 165.548 119.255  1.00  0.00     0.000 A 
ATOM      5  C   UNL     1     117.860 164.303 120.458  1.00  0.00     0.000 A 
ATOM      6  C   UNL     1     115.718 166.103 120.458  1.00  0.00     0.006 A 
ATOM      7  C   UNL     1     117.413 164.855 121.663  1.00  0.00     0.006 A 
ENDBRANCH   1   2
BRANCH   1   8
ATOM      8  O   UNL     1     115.845 165.345 123.957  1.00  0.00    -0.392 OA
ATOM      9  H   UNL     1     116.039 164.486 123.498  1.00  0.00     0.211 HD
ENDBRANCH   1   8
TORSDOF 2
ENDMDL
MODEL 5
REMARK VINA RESULT:    -4.220      1.427      2.387
REMARK INTER + INTRA:          -4.607
REMARK INTER:                  -4.587
REMARK INTRA:                  -0.020
REMARK UNBOUND:                -0.017
REMARK SMILES OCc1ccccc1
REMARK SMILES IDX 2 1 3 2 6 3 5 4 7 5 4 6 8 7 1 8
REMARK H PARENT 1 9
REMARK Flexibility Score: inf
ROOT
ATOM      1  C   UNL     1     120.515 179.375 122.604  1.00  0.00     0.191 C 
ENDROOT
BRANCH   1   2
ATOM      2  C   UNL     1     119.939 179.332 123.991  1.00  0.00    -0.023 A 
ATOM      3  C   UNL     1     118.849 179.331 126.578  1.00  0.00     0.000 A 
ATOM      4  C   UNL     1     118.034 179.061 125.476  1.00  0.00     0.000 A 
ATOM      5  C   UNL     1     120.206 179.612 126.391  1.00  0.00     0.000 A 
ATOM      6  C   UNL     1     118.574 179.066 124.185  1.00  0.00     0.006 A 
ATOM      7  C   UNL     1     120.750 179.618 125.102  1.00  0.00     0.006 A 
ENDBRANCH   1   2
BRANCH   1   8
ATOM      8  O   UNL     1     119.521 179.081 121.661  1.00  0.00    -0.392 OA
ATOM      9  H   UNL     1     119.487 178.091 121.584  1.00  0.00     0.211 HD
ENDBRANCH   1   8
TORSDOF 2
ENDMDL
MODEL 6
REMARK VINA RESULT:    -4.200     12.926     13.638
REMARK INTER + INTRA:          -4.585
REMARK INTER:                  -4.573
REMARK INTRA:                  -0.013
REMARK UNBOUND:                -0.017
REMARK SMILES OCc1ccccc1
REMARK SMILES IDX 2 1 3 2 6 3 5 4 7 5 4 6 8 7 1 8
REMARK H PARENT 1 9
REMARK Flexibility Score: inf
ROOT
ATOM      1  C   UNL     1     115.258 166.727 122.271  1.00  0.00     0.191 C 
ENDROOT
BRANCH   1   2
ATOM      2  C   UNL     1     116.605 166.067 122.360  1.00  0.00    -0.023 A 
ATOM      3  C   UNL     1     119.152 164.893 122.479  1.00  0.00     0.000 A 
ATOM      4  C   UNL     1     118.761 165.815 123.454  1.00  0.00     0.000 A 
ATOM      5  C   UNL     1     118.278 164.563 121.439  1.00  0.00     0.000 A 
ATOM      6  C   UNL     1     117.495 166.406 123.393  1.00  0.00     0.006 A 
ATOM      7  C   UNL     1     117.011 165.151 121.374  1.00  0.00     0.006 A 
ENDBRANCH   1   2
BRANCH   1   8
ATOM      8  O   UNL     1     115.144 167.428 121.063  1.00  0.00    -0.392 OA
ATOM      9  H   UNL     1     116.037 167.824 120.879  1.00  0.00     0.211 HD
ENDBRANCH   1   8
TORSDOF 2
ENDMDL
MODEL 7
REMARK VINA RESULT:    -4.159     15.597     16.067
REMARK INTER + INTRA:          -4.540
REMARK INTER:                  -4.523
REMARK INTRA:                  -0.018
REMARK UNBOUND:                -0.017
REMARK SMILES OCc1ccccc1
REMARK SMILES IDX 2 1 3 2 6 3 5 4 7 5 4 6 8 7 1 8
REMARK H PARENT 1 9
REMARK Flexibility Score: inf
ROOT
ATOM      1  C   UNL     1     125.800 164.109 129.674  1.00  0.00     0.191 C 
ENDROOT
BRANCH   1   2
ATOM      2  C   UNL     1     125.538 165.512 129.201  1.00  0.00    -0.023 A 
ATOM      3  C   UNL     1     125.097 168.158 128.376  1.00  0.00     0.000 A 
ATOM      4  C   UNL     1     126.133 167.412 127.807  1.00  0.00     0.000 A 
ATOM      5  C   UNL     1     124.287 167.590 129.363  1.00  0.00     0.000 A 
ATOM      6  C   UNL     1     126.358 166.095 128.221  1.00  0.00     0.006 A 
ATOM      7  C   UNL     1     124.509 166.273 129.780  1.00  0.00     0.006 A 
ENDBRANCH   1   2
BRANCH   1   8
ATOM      8  O   UNL     1     125.418 163.975 131.016  1.00  0.00    -0.392 OA
ATOM      9  H   UNL     1     124.970 163.093 131.097  1.00  0.00     0.211 HD
ENDBRANCH   1   8
TORSDOF 2
ENDMDL
MODEL 8
REMARK VINA RESULT:    -4.142      5.759      7.224
REMARK INTER + INTRA:          -4.522
REMARK INTER:                  -4.511
REMARK INTRA:                  -0.011
REMARK UNBOUND:                -0.017
REMARK SMILES OCc1ccccc1
REMARK SMILES IDX 2 1 3 2 6 3 5 4 7 5 4 6 8 7 1 8
REMARK H PARENT 1 9
REMARK Flexibility Score: inf
ROOT
ATOM      1  C   UNL     1     123.393 178.565 130.352  1.00  0.00     0.191 C 
ENDROOT
BRANCH   1   2
ATOM      2  C   UNL     1     122.859 178.847 128.975  1.00  0.00    -0.023 A 
ATOM      3  C   UNL     1     121.854 179.450 126.425  1.00  0.00     0.000 A 
ATOM      4  C   UNL     1     123.232 179.477 126.657  1.00  0.00     0.000 A 
ATOM      5  C   UNL     1     120.976 179.133 127.465  1.00  0.00     0.000 A 
ATOM      6  C   UNL     1     123.735 179.182 127.929  1.00  0.00     0.006 A 
ATOM      7  C   UNL     1     121.474 178.838 128.738  1.00  0.00     0.006 A 
ENDBRANCH   1   2
BRANCH   1   8
ATOM      8  O   UNL     1     123.803 179.758 130.962  1.00  0.00    -0.392 OA
ATOM      9  H   UNL     1     123.405 180.499 130.433  1.00  0.00     0.211 HD
ENDBRANCH   1   8
TORSDOF 2
ENDMDL
MODEL 9
REMARK VINA RESULT:    -4.084      5.218      6.502
REMARK INTER + INTRA:          -4.459
REMARK INTER:                  -4.447
REMARK INTRA:                  -0.012
REMARK UNBOUND:                -0.017
REMARK SMILES OCc1ccccc1
REMARK SMILES IDX 2 1 3 2 6 3 5 4 7 5 4 6 8 7 1 8
REMARK H PARENT 1 9
REMARK Flexibility Score: inf
ROOT
ATOM      1  C   UNL     1     125.947 176.751 122.027  1.00  0.00     0.191 C 
ENDROOT
BRANCH   1   2
ATOM      2  C   UNL     1     124.844 177.091 122.991  1.00  0.00    -0.023 A 
ATOM      3  C   UNL     1     122.799 177.803 124.776  1.00  0.00     0.000 A 
ATOM      4  C   UNL     1     122.500 177.556 123.434  1.00  0.00     0.000 A 
ATOM      5  C   UNL     1     124.119 177.706 125.228  1.00  0.00     0.000 A 
ATOM      6  C   UNL     1     123.519 177.206 122.541  1.00  0.00     0.006 A 
ATOM      7  C   UNL     1     125.140 177.357 124.338  1.00  0.00     0.006 A 
ENDBRANCH   1   2
BRANCH   1   8
ATOM      8  O   UNL     1     126.056 177.749 121.049  1.00  0.00    -0.392 OA
ATOM      9  H   UNL     1     125.129 177.982 120.777  1.00  0.00     0.211 HD
ENDBRANCH   1   8
TORSDOF 2
ENDMDL
