MODEL 1
REMARK VINA RESULT:    -4.199      0.000      0.000
REMARK INTER + INTRA:          -6.832
REMARK INTER:                  -6.408
REMARK INTRA:                  -0.423
REMARK UNBOUND:                -0.423
REMARK SMILES O=C([O-])CCCCCCCCC(=O)[O-]
REMARK SMILES IDX 7 1 6 2 5 3 4 4 2 5 1 6 3 7 8 8 9 9 10 10 11 11 12 12 13 13
REMARK SMILES IDX 14 14
REMARK H PARENT
REMARK Flexibility Score: inf
ROOT
ATOM      1  C   UNL     1      44.876  25.710   3.174  1.00  0.00     0.000 C 
ENDROOT
BRANCH   1   2
ATOM      2  C   UNL     1      44.891  26.759   2.051  1.00  0.00     0.000 C 
BRANCH   2   3
ATOM      3  C   UNL     1      43.534  27.456   1.872  1.00  0.00     0.006 C 
BRANCH   3   4
ATOM      4  C   UNL     1      42.875  27.038   0.554  1.00  0.00     0.053 C 
BRANCH   4   5
ATOM      5  C   UNL     1      43.815  27.243  -0.590  1.00  0.00     0.041 C 
ATOM      6  O   UNL     1      44.156  26.269  -1.313  1.00  0.00    -0.550 OA
ATOM      7  O   UNL     1      44.278  28.517  -0.892  1.00  0.00    -0.550 OA
ENDBRANCH   4   5
ENDBRANCH   3   4
ENDBRANCH   2   3
ENDBRANCH   1   2
BRANCH   1   8
ATOM      8  C   UNL     1      45.970  25.949   4.225  1.00  0.00     0.000 C 
BRANCH   8   9
ATOM      9  C   UNL     1      45.991  27.419   4.670  1.00  0.00     0.000 C 
BRANCH   9  10
ATOM     10  C   UNL     1      46.201  27.576   6.185  1.00  0.00     0.006 C 
BRANCH  10  11
ATOM     11  C   UNL     1      45.970  26.268   6.953  1.00  0.00     0.053 C 
BRANCH  11  12
ATOM     12  C   UNL     1      45.557  26.556   8.361  1.00  0.00     0.041 C 
ATOM     13  O   UNL     1      45.681  25.674   9.251  1.00  0.00    -0.550 OA
ATOM     14  O   UNL     1      44.987  27.782   8.681  1.00  0.00    -0.550 OA
ENDBRANCH  11  12
ENDBRANCH  10  11
ENDBRANCH   9  10
ENDBRANCH   8   9
ENDBRANCH   1   8
TORSDOF 9
ENDMDL
MODEL 2
REMARK VINA RESULT:    -4.153      0.299      7.425
REMARK INTER + INTRA:          -6.762
REMARK INTER:                  -6.296
REMARK INTRA:                  -0.465
REMARK UNBOUND:                -0.423
REMARK SMILES O=C([O-])CCCCCCCCC(=O)[O-]
REMARK SMILES IDX 7 1 6 2 5 3 4 4 2 5 1 6 3 7 8 8 9 9 10 10 11 11 12 12 13 13
REMARK SMILES IDX 14 14
REMARK H PARENT
REMARK Flexibility Score: inf
ROOT
ATOM      1  C   UNL     1      45.631  26.011   4.318  1.00  0.00     0.000 C 
ENDROOT
BRANCH   1   2
ATOM      2  C   UNL     1      46.009  27.462   4.657  1.00  0.00     0.000 C 
BRANCH   2   3
ATOM      3  C   UNL     1      46.229  27.682   6.161  1.00  0.00     0.006 C 
BRANCH   3   4
ATOM      4  C   UNL     1      46.024  26.380   6.940  1.00  0.00     0.053 C 
BRANCH   4   5
ATOM      5  C   UNL     1      45.470  26.664   8.300  1.00  0.00     0.041 C 
ATOM      6  O   UNL     1      45.278  25.725   9.115  1.00  0.00    -0.550 OA
ATOM      7  O   UNL     1      45.212  27.974   8.686  1.00  0.00    -0.550 OA
ENDBRANCH   4   5
ENDBRANCH   3   4
ENDBRANCH   2   3
ENDBRANCH   1   2
BRANCH   1   8
ATOM      8  C   UNL     1      44.828  25.896   3.013  1.00  0.00     0.000 C 
BRANCH   8   9
ATOM      9  C   UNL     1      44.987  27.162   2.158  1.00  0.00     0.000 C 
BRANCH   9  10
ATOM     10  C   UNL     1      43.641  27.724   1.675  1.00  0.00     0.006 C 
BRANCH  10  11
ATOM     11  C   UNL     1      43.005  26.870   0.570  1.00  0.00     0.053 C 
BRANCH  11  12
ATOM     12  C   UNL     1      43.704  27.099  -0.733  1.00  0.00     0.041 C 
ATOM     13  O   UNL     1      43.998  28.268  -1.097  1.00  0.00    -0.550 OA
ATOM     14  O   UNL     1      43.987  26.025  -1.568  1.00  0.00    -0.550 OA
ENDBRANCH  11  12
ENDBRANCH  10  11
ENDBRANCH   9  10
ENDBRANCH   8   9
ENDBRANCH   1   8
TORSDOF 9
ENDMDL
MODEL 3
REMARK VINA RESULT:    -4.144      1.224      7.073
REMARK INTER + INTRA:          -6.748
REMARK INTER:                  -6.168
REMARK INTRA:                  -0.581
REMARK UNBOUND:                -0.423
REMARK SMILES O=C([O-])CCCCCCCCC(=O)[O-]
REMARK SMILES IDX 7 1 6 2 5 3 4 4 2 5 1 6 3 7 8 8 9 9 10 10 11 11 12 12 13 13
REMARK SMILES IDX 14 14
REMARK H PARENT
REMARK Flexibility Score: inf
ROOT
ATOM      1  C   UNL     1      44.474  26.287   2.504  1.00  0.00     0.000 C 
ENDROOT
BRANCH   1   2
ATOM      2  C   UNL     1      45.183  25.568   3.663  1.00  0.00     0.000 C 
BRANCH   2   3
ATOM      3  C   UNL     1      46.137  26.489   4.438  1.00  0.00     0.006 C 
BRANCH   3   4
ATOM      4  C   UNL     1      45.953  26.319   5.949  1.00  0.00     0.053 C 
BRANCH   4   5
ATOM      5  C   UNL     1      46.010  27.646   6.636  1.00  0.00     0.041 C 
ATOM      6  O   UNL     1      46.698  28.582   6.152  1.00  0.00    -0.550 OA
ATOM      7  O   UNL     1      45.264  27.866   7.788  1.00  0.00    -0.550 OA
ENDBRANCH   4   5
ENDBRANCH   3   4
ENDBRANCH   2   3
ENDBRANCH   1   2
BRANCH   1   8
ATOM      8  C   UNL     1      44.524  27.817   2.638  1.00  0.00     0.000 C 
BRANCH   8   9
ATOM      9  C   UNL     1      43.371  28.473   1.862  1.00  0.00     0.000 C 
BRANCH   9  10
ATOM     10  C   UNL     1      42.717  27.517   0.852  1.00  0.00     0.006 C 
BRANCH  10  11
ATOM     11  C   UNL     1      43.058  27.870  -0.602  1.00  0.00     0.053 C 
BRANCH  11  12
ATOM     12  C   UNL     1      44.135  26.970  -1.119  1.00  0.00     0.041 C 
ATOM     13  O   UNL     1      43.845  25.834  -1.579  1.00  0.00    -0.550 OA
ATOM     14  O   UNL     1      45.465  27.366  -1.048  1.00  0.00    -0.550 OA
ENDBRANCH  11  12
ENDBRANCH  10  11
ENDBRANCH   9  10
ENDBRANCH   8   9
ENDBRANCH   1   8
TORSDOF 9
ENDMDL
MODEL 4
REMARK VINA RESULT:    -4.075      2.551      7.150
REMARK INTER + INTRA:          -6.642
REMARK INTER:                  -5.933
REMARK INTRA:                  -0.709
REMARK UNBOUND:                -0.423
REMARK SMILES O=C([O-])CCCCCCCCC(=O)[O-]
REMARK SMILES IDX 7 1 6 2 5 3 4 4 2 5 1 6 3 7 8 8 9 9 10 10 11 11 12 12 13 13
REMARK SMILES IDX 14 14
REMARK H PARENT
REMARK Flexibility Score: inf
ROOT
ATOM      1  C   UNL     1      43.160  29.173   1.466  1.00  0.00     0.000 C 
ENDROOT
BRANCH   1   2
ATOM      2  C   UNL     1      42.703  27.760   1.864  1.00  0.00     0.000 C 
BRANCH   2   3
ATOM      3  C   UNL     1      43.858  26.749   1.895  1.00  0.00     0.006 C 
BRANCH   3   4
ATOM      4  C   UNL     1      44.918  27.161   2.920  1.00  0.00     0.053 C 
BRANCH   4   5
ATOM      5  C   UNL     1      45.402  25.969   3.682  1.00  0.00     0.041 C 
ATOM      6  O   UNL     1      45.612  24.879   3.088  1.00  0.00    -0.550 OA
ATOM      7  O   UNL     1      45.667  26.072   5.042  1.00  0.00    -0.550 OA
ENDBRANCH   4   5
ENDBRANCH   3   4
ENDBRANCH   2   3
ENDBRANCH   1   2
BRANCH   1   8
ATOM      8  C   UNL     1      42.303  29.780   0.344  1.00  0.00     0.000 C 
BRANCH   8   9
ATOM      9  C   UNL     1      43.079  29.814  -0.981  1.00  0.00     0.000 C 
BRANCH   9  10
ATOM     10  C   UNL     1      42.603  28.742  -1.974  1.00  0.00     0.006 C 
BRANCH  10  11
ATOM     11  C   UNL     1      43.767  28.036  -2.684  1.00  0.00     0.053 C 
BRANCH  11  12
ATOM     12  C   UNL     1      44.395  27.025  -1.777  1.00  0.00     0.041 C 
ATOM     13  O   UNL     1      43.823  25.924  -1.564  1.00  0.00    -0.550 OA
ATOM     14  O   UNL     1      45.587  27.320  -1.129  1.00  0.00    -0.550 OA
ENDBRANCH  11  12
ENDBRANCH  10  11
ENDBRANCH   9  10
ENDBRANCH   8   9
ENDBRANCH   1   8
TORSDOF 9
ENDMDL
MODEL 5
REMARK VINA RESULT:    -4.073      2.944      4.580
REMARK INTER + INTRA:          -6.640
REMARK INTER:                  -6.218
REMARK INTRA:                  -0.422
REMARK UNBOUND:                -0.423
REMARK SMILES O=C([O-])CCCCCCCCC(=O)[O-]
REMARK SMILES IDX 7 1 6 2 5 3 4 4 2 5 1 6 3 7 8 8 9 9 10 10 11 11 12 12 13 13
REMARK SMILES IDX 14 14
REMARK H PARENT
REMARK Flexibility Score: inf
ROOT
ATOM      1  C   UNL     1      43.252  26.992  -0.546  1.00  0.00     0.000 C 
ENDROOT
BRANCH   1   2
ATOM      2  C   UNL     1      43.811  28.090  -1.465  1.00  0.00     0.000 C 
BRANCH   2   3
ATOM      3  C   UNL     1      42.722  28.767  -2.310  1.00  0.00     0.006 C 
BRANCH   3   4
ATOM      4  C   UNL     1      43.178  28.929  -3.763  1.00  0.00     0.053 C 
BRANCH   4   5
ATOM      5  C   UNL     1      42.690  27.786  -4.595  1.00  0.00     0.041 C 
ATOM      6  O   UNL     1      41.624  27.893  -5.257  1.00  0.00    -0.550 OA
ATOM      7  O   UNL     1      43.437  26.618  -4.680  1.00  0.00    -0.550 OA
ENDBRANCH   4   5
ENDBRANCH   3   4
ENDBRANCH   2   3
ENDBRANCH   1   2
BRANCH   1   8
ATOM      8  C   UNL     1      42.293  27.543   0.521  1.00  0.00     0.000 C 
BRANCH   8   9
ATOM      9  C   UNL     1      42.987  27.632   1.889  1.00  0.00     0.000 C 
BRANCH   9  10
ATOM     10  C   UNL     1      44.195  26.689   2.002  1.00  0.00     0.006 C 
BRANCH  10  11
ATOM     11  C   UNL     1      45.136  27.070   3.154  1.00  0.00     0.053 C 
BRANCH  11  12
ATOM     12  C   UNL     1      45.570  25.847   3.899  1.00  0.00     0.041 C 
ATOM     13  O   UNL     1      45.485  24.713   3.358  1.00  0.00    -0.550 OA
ATOM     14  O   UNL     1      46.020  25.954   5.208  1.00  0.00    -0.550 OA
ENDBRANCH  11  12
ENDBRANCH  10  11
ENDBRANCH   9  10
ENDBRANCH   8   9
ENDBRANCH   1   8
TORSDOF 9
ENDMDL
MODEL 6
REMARK VINA RESULT:    -4.064      2.615      4.281
REMARK INTER + INTRA:          -6.625
REMARK INTER:                  -5.807
REMARK INTRA:                  -0.818
REMARK UNBOUND:                -0.423
REMARK SMILES O=C([O-])CCCCCCCCC(=O)[O-]
REMARK SMILES IDX 7 1 6 2 5 3 4 4 2 5 1 6 3 7 8 8 9 9 10 10 11 11 12 12 13 13
REMARK SMILES IDX 14 14
REMARK H PARENT
REMARK Flexibility Score: inf
ROOT
ATOM      1  C   UNL     1      42.576  29.377   0.564  1.00  0.00     0.000 C 
ENDROOT
BRANCH   1   2
ATOM      2  C   UNL     1      43.205  29.647  -0.812  1.00  0.00     0.000 C 
BRANCH   2   3
ATOM      3  C   UNL     1      42.700  28.682  -1.895  1.00  0.00     0.006 C 
BRANCH   3   4
ATOM      4  C   UNL     1      43.857  28.183  -2.766  1.00  0.00     0.053 C 
BRANCH   4   5
ATOM      5  C   UNL     1      44.610  27.098  -2.064  1.00  0.00     0.041 C 
ATOM      6  O   UNL     1      45.836  27.236  -1.813  1.00  0.00    -0.550 OA
ATOM      7  O   UNL     1      43.948  25.951  -1.644  1.00  0.00    -0.550 OA
ENDBRANCH   4   5
ENDBRANCH   3   4
ENDBRANCH   2   3
ENDBRANCH   1   2
BRANCH   1   8
ATOM      8  C   UNL     1      42.277  27.888   0.797  1.00  0.00     0.000 C 
BRANCH   8   9
ATOM      9  C   UNL     1      43.074  27.350   1.995  1.00  0.00     0.000 C 
BRANCH   9  10
ATOM     10  C   UNL     1      44.543  27.063   1.649  1.00  0.00     0.006 C 
BRANCH  10  11
ATOM     11  C   UNL     1      45.478  27.227   2.855  1.00  0.00     0.053 C 
BRANCH  11  12
ATOM     12  C   UNL     1      45.626  25.927   3.580  1.00  0.00     0.041 C 
ATOM     13  O   UNL     1      45.914  24.878   2.946  1.00  0.00    -0.550 OA
ATOM     14  O   UNL     1      45.398  25.864   4.949  1.00  0.00    -0.550 OA
ENDBRANCH  11  12
ENDBRANCH  10  11
ENDBRANCH   9  10
ENDBRANCH   8   9
ENDBRANCH   1   8
TORSDOF 9
ENDMDL
MODEL 7
REMARK VINA RESULT:    -4.004      3.901      6.087
REMARK INTER + INTRA:          -6.534
REMARK INTER:                  -5.959
REMARK INTRA:                  -0.575
REMARK UNBOUND:                -0.423
REMARK SMILES O=C([O-])CCCCCCCCC(=O)[O-]
REMARK SMILES IDX 7 1 6 2 5 3 4 4 2 5 1 6 3 7 8 8 9 9 10 10 11 11 12 12 13 13
REMARK SMILES IDX 14 14
REMARK H PARENT
REMARK Flexibility Score: inf
ROOT
ATOM      1  C   UNL     1      43.799  27.320  -1.951  1.00  0.00     0.000 C 
ENDROOT
BRANCH   1   2
ATOM      2  C   UNL     1      45.098  27.640  -2.708  1.00  0.00     0.000 C 
BRANCH   2   3
ATOM      3  C   UNL     1      44.977  27.400  -4.221  1.00  0.00     0.006 C 
BRANCH   3   4
ATOM      4  C   UNL     1      43.669  26.678  -4.557  1.00  0.00     0.053 C 
BRANCH   4   5
ATOM      5  C   UNL     1      42.857  27.485  -5.519  1.00  0.00     0.041 C 
ATOM      6  O   UNL     1      41.757  27.982  -5.160  1.00  0.00    -0.550 OA
ATOM      7  O   UNL     1      43.337  27.731  -6.799  1.00  0.00    -0.550 OA
ENDBRANCH   4   5
ENDBRANCH   3   4
ENDBRANCH   2   3
ENDBRANCH   1   2
BRANCH   1   8
ATOM      8  C   UNL     1      42.976  28.577  -1.626  1.00  0.00     0.000 C 
BRANCH   8   9
ATOM      9  C   UNL     1      42.720  28.690  -0.116  1.00  0.00     0.000 C 
BRANCH   9  10
ATOM     10  C   UNL     1      42.669  27.320   0.580  1.00  0.00     0.006 C 
BRANCH  10  11
ATOM     11  C   UNL     1      43.360  27.327   1.950  1.00  0.00     0.053 C 
BRANCH  11  12
ATOM     12  C   UNL     1      44.630  26.539   1.897  1.00  0.00     0.041 C 
ATOM     13  O   UNL     1      45.505  26.804   1.031  1.00  0.00    -0.550 OA
ATOM     14  O   UNL     1      44.827  25.479   2.774  1.00  0.00    -0.550 OA
ENDBRANCH  11  12
ENDBRANCH  10  11
ENDBRANCH   9  10
ENDBRANCH   8   9
ENDBRANCH   1   8
TORSDOF 9
ENDMDL
MODEL 8
REMARK VINA RESULT:    -3.982      1.040      1.674
REMARK INTER + INTRA:          -6.500
REMARK INTER:                  -6.104
REMARK INTRA:                  -0.396
REMARK UNBOUND:                -0.423
REMARK SMILES O=C([O-])CCCCCCCCC(=O)[O-]
REMARK SMILES IDX 7 1 6 2 5 3 4 4 2 5 1 6 3 7 8 8 9 9 10 10 11 11 12 12 13 13
REMARK SMILES IDX 14 14
REMARK H PARENT
REMARK Flexibility Score: inf
ROOT
ATOM      1  C   UNL     1      45.494  25.862   4.454  1.00  0.00     0.000 C 
ENDROOT
BRANCH   1   2
ATOM      2  C   UNL     1      44.925  25.879   3.027  1.00  0.00     0.000 C 
BRANCH   2   3
ATOM      3  C   UNL     1      44.590  27.296   2.538  1.00  0.00     0.006 C 
BRANCH   3   4
ATOM      4  C   UNL     1      43.181  27.349   1.942  1.00  0.00     0.053 C 
BRANCH   4   5
ATOM      5  C   UNL     1      43.241  27.285   0.449  1.00  0.00     0.041 C 
ATOM      6  O   UNL     1      43.297  26.172  -0.136  1.00  0.00    -0.550 OA
ATOM      7  O   UNL     1      43.187  28.453  -0.301  1.00  0.00    -0.550 OA
ENDBRANCH   4   5
ENDBRANCH   3   4
ENDBRANCH   2   3
ENDBRANCH   1   2
BRANCH   1   8
ATOM      8  C   UNL     1      46.054  27.227   4.886  1.00  0.00     0.000 C 
BRANCH   8   9
ATOM      9  C   UNL     1      46.710  27.137   6.272  1.00  0.00     0.000 C 
BRANCH   9  10
ATOM     10  C   UNL     1      45.736  27.480   7.411  1.00  0.00     0.006 C 
BRANCH  10  11
ATOM     11  C   UNL     1      45.364  26.257   8.259  1.00  0.00     0.053 C 
BRANCH  11  12
ATOM     12  C   UNL     1      46.129  26.261   9.545  1.00  0.00     0.041 C 
ATOM     13  O   UNL     1      46.565  27.343  10.018  1.00  0.00    -0.550 OA
ATOM     14  O   UNL     1      46.403  25.064  10.194  1.00  0.00    -0.550 OA
ENDBRANCH  11  12
ENDBRANCH  10  11
ENDBRANCH   9  10
ENDBRANCH   8   9
ENDBRANCH   1   8
TORSDOF 9
ENDMDL
MODEL 9
REMARK VINA RESULT:    -3.872      1.849      2.859
REMARK INTER + INTRA:          -6.332
REMARK INTER:                  -5.634
REMARK INTRA:                  -0.698
REMARK UNBOUND:                -0.423
REMARK SMILES O=C([O-])CCCCCCCCC(=O)[O-]
REMARK SMILES IDX 7 1 6 2 5 3 4 4 2 5 1 6 3 7 8 8 9 9 10 10 11 11 12 12 13 13
REMARK SMILES IDX 14 14
REMARK H PARENT
REMARK Flexibility Score: inf
ROOT
ATOM      1  C   UNL     1      42.916  27.976   1.741  1.00  0.00     0.000 C 
ENDROOT
BRANCH   1   2
ATOM      2  C   UNL     1      43.456  28.792   0.556  1.00  0.00     0.000 C 
BRANCH   2   3
ATOM      3  C   UNL     1      42.623  28.606  -0.721  1.00  0.00     0.006 C 
BRANCH   3   4
ATOM      4  C   UNL     1      43.521  28.284  -1.918  1.00  0.00     0.053 C 
BRANCH   4   5
ATOM      5  C   UNL     1      44.363  27.081  -1.633  1.00  0.00     0.041 C 
ATOM      6  O   UNL     1      43.823  25.956  -1.461  1.00  0.00    -0.550 OA
ATOM      7  O   UNL     1      45.747  27.190  -1.605  1.00  0.00    -0.550 OA
ENDBRANCH   4   5
ENDBRANCH   3   4
ENDBRANCH   2   3
ENDBRANCH   1   2
BRANCH   1   8
ATOM      8  C   UNL     1      43.785  26.750   2.063  1.00  0.00     0.000 C 
BRANCH   8   9
ATOM      9  C   UNL     1      45.278  27.112   2.029  1.00  0.00     0.000 C 
BRANCH   9  10
ATOM     10  C   UNL     1      46.145  26.126   2.828  1.00  0.00     0.006 C 
BRANCH  10  11
ATOM     11  C   UNL     1      45.514  25.739   4.173  1.00  0.00     0.053 C 
BRANCH  11  12
ATOM     12  C   UNL     1      46.095  26.564   5.277  1.00  0.00     0.041 C 
ATOM     13  O   UNL     1      46.606  26.005   6.283  1.00  0.00    -0.550 OA
ATOM     14  O   UNL     1      46.028  27.950   5.219  1.00  0.00    -0.550 OA
ENDBRANCH  11  12
ENDBRANCH  10  11
ENDBRANCH   9  10
ENDBRANCH   8   9
ENDBRANCH   1   8
TORSDOF 9
ENDMDL
