MODEL 1
REMARK VINA RESULT:    -3.901      0.000      0.000
REMARK INTER + INTRA:          -9.914
REMARK INTER:                  -7.321
REMARK INTRA:                  -2.594
REMARK UNBOUND:                -2.594
REMARK SMILES CCCCCCCCC=CCCCCCCCC(=O)[O-]
REMARK SMILES IDX 10 1 9 2 11 3 12 4 13 5 14 6 15 7 16 8 17 9 18 10 19 11
REMARK SMILES IDX 20 12 8 13 7 14 6 15 5 16 4 17 3 18 2 19 1 20
REMARK H PARENT
REMARK Flexibility Score: inf
ROOT
ATOM      1  C   UNL     1      -7.464  -5.336   2.066  1.00  0.00    -0.031 C 
ATOM      2  C   UNL     1      -7.434  -5.646   0.755  1.00  0.00    -0.031 C 
ENDROOT
BRANCH   1   3
ATOM      3  C   UNL     1      -8.340  -5.997   3.105  1.00  0.00     0.027 C 
BRANCH   3   4
ATOM      4  C   UNL     1      -7.626  -6.213   4.448  1.00  0.00     0.004 C 
BRANCH   4   5
ATOM      5  C   UNL     1      -6.280  -5.469   4.519  1.00  0.00     0.000 C 
BRANCH   5   6
ATOM      6  C   UNL     1      -6.381  -4.144   5.294  1.00  0.00     0.000 C 
BRANCH   6   7
ATOM      7  C   UNL     1      -5.727  -2.975   4.536  1.00  0.00     0.000 C 
BRANCH   7   8
ATOM      8  C   UNL     1      -6.727  -2.201   3.657  1.00  0.00     0.006 C 
BRANCH   8   9
ATOM      9  C   UNL     1      -6.089  -1.452   2.475  1.00  0.00     0.053 C 
BRANCH   9  10
ATOM     10  C   UNL     1      -6.514  -2.021   1.155  1.00  0.00     0.041 C 
ATOM     11  O   UNL     1      -5.657  -2.491   0.362  1.00  0.00    -0.550 OA
ATOM     12  O   UNL     1      -7.855  -2.002   0.789  1.00  0.00    -0.550 OA
ENDBRANCH   9  10
ENDBRANCH   8   9
ENDBRANCH   7   8
ENDBRANCH   6   7
ENDBRANCH   5   6
ENDBRANCH   4   5
ENDBRANCH   3   4
ENDBRANCH   1   3
BRANCH   2  13
ATOM     13  C   UNL     1      -8.252  -6.731   0.093  1.00  0.00     0.027 C 
BRANCH  13  14
ATOM     14  C   UNL     1      -7.368  -7.708  -0.702  1.00  0.00     0.004 C 
BRANCH  14  15
ATOM     15  C   UNL     1      -7.166  -9.087  -0.043  1.00  0.00     0.000 C 
BRANCH  15  16
ATOM     16  C   UNL     1      -8.049  -9.364   1.189  1.00  0.00     0.000 C 
BRANCH  16  17
ATOM     17  C   UNL     1      -7.244  -9.421   2.498  1.00  0.00    -0.000 C 
BRANCH  17  18
ATOM     18  C   UNL     1      -5.868  -8.745   2.376  1.00  0.00    -0.000 C 
BRANCH  18  19
ATOM     19  C   UNL     1      -4.868  -9.243   3.430  1.00  0.00    -0.003 C 
ATOM     20  C   UNL     1      -5.588  -9.911   4.597  1.00  0.00     0.004 C 
ENDBRANCH  18  19
ENDBRANCH  17  18
ENDBRANCH  16  17
ENDBRANCH  15  16
ENDBRANCH  14  15
ENDBRANCH  13  14
ENDBRANCH   2  13
TORSDOF 15
ENDMDL
MODEL 2
REMARK VINA RESULT:    -3.701      0.841      2.883
REMARK INTER + INTRA:          -9.541
REMARK INTER:                  -6.945
REMARK INTRA:                  -2.595
REMARK UNBOUND:                -2.594
REMARK SMILES CCCCCCCCC=CCCCCCCCC(=O)[O-]
REMARK SMILES IDX 10 1 9 2 11 3 12 4 13 5 14 6 15 7 16 8 17 9 18 10 19 11
REMARK SMILES IDX 20 12 8 13 7 14 6 15 5 16 4 17 3 18 2 19 1 20
REMARK H PARENT
REMARK Flexibility Score: inf
ROOT
ATOM      1  C   UNL     1      -5.226  -8.283   3.743  1.00  0.00    -0.031 C 
ATOM      2  C   UNL     1      -5.834  -9.111   2.871  1.00  0.00    -0.031 C 
ENDROOT
BRANCH   1   3
ATOM      3  C   UNL     1      -5.928  -7.378   4.730  1.00  0.00     0.027 C 
BRANCH   3   4
ATOM      4  C   UNL     1      -5.208  -6.037   4.937  1.00  0.00     0.004 C 
BRANCH   4   5
ATOM      5  C   UNL     1      -6.143  -4.954   5.503  1.00  0.00     0.000 C 
BRANCH   5   6
ATOM      6  C   UNL     1      -6.007  -3.613   4.762  1.00  0.00     0.000 C 
BRANCH   6   7
ATOM      7  C   UNL     1      -7.305  -2.787   4.806  1.00  0.00     0.000 C 
BRANCH   7   8
ATOM      8  C   UNL     1      -7.474  -1.876   3.577  1.00  0.00     0.006 C 
BRANCH   8   9
ATOM      9  C   UNL     1      -6.213  -1.741   2.707  1.00  0.00     0.053 C 
BRANCH   9  10
ATOM     10  C   UNL     1      -6.498  -2.010   1.260  1.00  0.00     0.041 C 
ATOM     11  O   UNL     1      -5.556  -2.268   0.466  1.00  0.00    -0.550 OA
ATOM     12  O   UNL     1      -7.803  -1.946   0.784  1.00  0.00    -0.550 OA
ENDBRANCH   9  10
ENDBRANCH   8   9
ENDBRANCH   7   8
ENDBRANCH   6   7
ENDBRANCH   5   6
ENDBRANCH   4   5
ENDBRANCH   3   4
ENDBRANCH   1   3
BRANCH   2  13
ATOM     13  C   UNL     1      -7.327  -9.303   2.741  1.00  0.00     0.027 C 
BRANCH  13  14
ATOM     14  C   UNL     1      -7.749  -9.530   1.279  1.00  0.00     0.004 C 
BRANCH  14  15
ATOM     15  C   UNL     1      -6.849  -8.849   0.228  1.00  0.00     0.000 C 
BRANCH  15  16
ATOM     16  C   UNL     1      -7.585  -7.957  -0.790  1.00  0.00     0.000 C 
BRANCH  16  17
ATOM     17  C   UNL     1      -7.894  -6.554  -0.240  1.00  0.00    -0.000 C 
BRANCH  17  18
ATOM     18  C   UNL     1      -6.970  -6.160   0.924  1.00  0.00    -0.000 C 
BRANCH  18  19
ATOM     19  C   UNL     1      -7.662  -5.241   1.942  1.00  0.00    -0.003 C 
ATOM     20  C   UNL     1      -8.702  -6.006   2.755  1.00  0.00     0.004 C 
ENDBRANCH  18  19
ENDBRANCH  17  18
ENDBRANCH  16  17
ENDBRANCH  15  16
ENDBRANCH  14  15
ENDBRANCH  13  14
ENDBRANCH   2  13
TORSDOF 15
ENDMDL
MODEL 3
REMARK VINA RESULT:    -3.612      1.730      5.834
REMARK INTER + INTRA:          -9.374
REMARK INTER:                  -6.747
REMARK INTRA:                  -2.627
REMARK UNBOUND:                -2.594
REMARK SMILES CCCCCCCCC=CCCCCCCCC(=O)[O-]
REMARK SMILES IDX 10 1 9 2 11 3 12 4 13 5 14 6 15 7 16 8 17 9 18 10 19 11
REMARK SMILES IDX 20 12 8 13 7 14 6 15 5 16 4 17 3 18 2 19 1 20
REMARK H PARENT
REMARK Flexibility Score: inf
ROOT
ATOM      1  C   UNL     1      -5.544  -6.645   4.628  1.00  0.00    -0.031 C 
ATOM      2  C   UNL     1      -6.568  -5.780   4.495  1.00  0.00    -0.031 C 
ENDROOT
BRANCH   1   3
ATOM      3  C   UNL     1      -5.662  -8.152   4.623  1.00  0.00     0.027 C 
BRANCH   3   4
ATOM      4  C   UNL     1      -5.024  -8.803   3.386  1.00  0.00     0.004 C 
BRANCH   4   5
ATOM      5  C   UNL     1      -5.961  -8.778   2.165  1.00  0.00     0.000 C 
BRANCH   5   6
ATOM      6  C   UNL     1      -7.364  -9.318   2.489  1.00  0.00     0.000 C 
BRANCH   6   7
ATOM      7  C   UNL     1      -8.315  -9.234   1.281  1.00  0.00     0.000 C 
BRANCH   7   8
ATOM      8  C   UNL     1      -7.587  -9.408  -0.064  1.00  0.00     0.006 C 
BRANCH   8   9
ATOM      9  C   UNL     1      -8.222  -8.639  -1.235  1.00  0.00     0.053 C 
BRANCH   9  10
ATOM     10  C   UNL     1      -7.959  -7.166  -1.148  1.00  0.00     0.041 C 
ATOM     11  O   UNL     1      -8.919  -6.353  -1.110  1.00  0.00    -0.550 OA
ATOM     12  O   UNL     1      -6.653  -6.691  -1.139  1.00  0.00    -0.550 OA
ENDBRANCH   9  10
ENDBRANCH   8   9
ENDBRANCH   7   8
ENDBRANCH   6   7
ENDBRANCH   5   6
ENDBRANCH   4   5
ENDBRANCH   3   4
ENDBRANCH   1   3
BRANCH   2  13
ATOM     13  C   UNL     1      -8.016  -6.160   4.289  1.00  0.00     0.027 C 
BRANCH  13  14
ATOM     14  C   UNL     1      -8.511  -5.783   2.882  1.00  0.00     0.004 C 
BRANCH  14  15
ATOM     15  C   UNL     1      -7.432  -5.202   1.946  1.00  0.00     0.000 C 
BRANCH  15  16
ATOM     16  C   UNL     1      -7.729  -3.795   1.393  1.00  0.00     0.000 C 
BRANCH  16  17
ATOM     17  C   UNL     1      -6.454  -2.976   1.131  1.00  0.00    -0.000 C 
BRANCH  17  18
ATOM     18  C   UNL     1      -6.285  -1.815   2.125  1.00  0.00    -0.000 C 
BRANCH  18  19
ATOM     19  C   UNL     1      -5.878  -2.291   3.528  1.00  0.00    -0.003 C 
ATOM     20  C   UNL     1      -7.005  -2.066   4.532  1.00  0.00     0.004 C 
ENDBRANCH  18  19
ENDBRANCH  17  18
ENDBRANCH  16  17
ENDBRANCH  15  16
ENDBRANCH  14  15
ENDBRANCH  13  14
ENDBRANCH   2  13
TORSDOF 15
ENDMDL
MODEL 4
REMARK VINA RESULT:    -3.578     10.247     12.536
REMARK INTER + INTRA:          -9.308
REMARK INTER:                  -7.875
REMARK INTRA:                  -1.434
REMARK UNBOUND:                -2.594
REMARK SMILES CCCCCCCCC=CCCCCCCCC(=O)[O-]
REMARK SMILES IDX 10 1 9 2 11 3 12 4 13 5 14 6 15 7 16 8 17 9 18 10 19 11
REMARK SMILES IDX 20 12 8 13 7 14 6 15 5 16 4 17 3 18 2 19 1 20
REMARK H PARENT
REMARK Flexibility Score: inf
ROOT
ATOM      1  C   UNL     1      -0.764  -6.687  -8.847  1.00  0.00    -0.031 C 
ATOM      2  C   UNL     1      -1.844  -7.482  -8.979  1.00  0.00    -0.031 C 
ENDROOT
BRANCH   1   3
ATOM      3  C   UNL     1      -0.409  -5.532  -9.755  1.00  0.00     0.027 C 
BRANCH   3   4
ATOM      4  C   UNL     1       0.434  -4.453  -9.057  1.00  0.00     0.004 C 
BRANCH   4   5
ATOM      5  C   UNL     1       1.903  -4.879  -8.886  1.00  0.00     0.000 C 
BRANCH   5   6
ATOM      6  C   UNL     1       2.355  -4.856  -7.417  1.00  0.00     0.000 C 
BRANCH   6   7
ATOM      7  C   UNL     1       1.176  -4.656  -6.447  1.00  0.00     0.000 C 
BRANCH   7   8
ATOM      8  C   UNL     1       1.183  -3.269  -5.779  1.00  0.00     0.006 C 
BRANCH   8   9
ATOM      9  C   UNL     1       2.302  -2.333  -6.266  1.00  0.00     0.053 C 
BRANCH   9  10
ATOM     10  C   UNL     1       1.783  -1.267  -7.182  1.00  0.00     0.041 C 
ATOM     11  O   UNL     1       2.263  -1.137  -8.339  1.00  0.00    -0.550 OA
ATOM     12  O   UNL     1       0.791  -0.397  -6.745  1.00  0.00    -0.550 OA
ENDBRANCH   9  10
ENDBRANCH   8   9
ENDBRANCH   7   8
ENDBRANCH   6   7
ENDBRANCH   5   6
ENDBRANCH   4   5
ENDBRANCH   3   4
ENDBRANCH   1   3
BRANCH   2  13
ATOM     13  C   UNL     1      -2.908  -7.345 -10.042  1.00  0.00     0.027 C 
BRANCH  13  14
ATOM     14  C   UNL     1      -4.264  -6.932  -9.442  1.00  0.00     0.004 C 
BRANCH  14  15
ATOM     15  C   UNL     1      -4.577  -7.538  -8.060  1.00  0.00     0.000 C 
BRANCH  15  16
ATOM     16  C   UNL     1      -6.008  -7.294  -7.543  1.00  0.00     0.000 C 
BRANCH  16  17
ATOM     17  C   UNL     1      -6.653  -6.035  -8.148  1.00  0.00    -0.000 C 
BRANCH  17  18
ATOM     18  C   UNL     1      -6.788  -4.892  -7.128  1.00  0.00    -0.000 C 
BRANCH  18  19
ATOM     19  C   UNL     1      -6.371  -3.531  -7.706  1.00  0.00    -0.003 C 
ATOM     20  C   UNL     1      -6.404  -3.550  -9.232  1.00  0.00     0.004 C 
ENDBRANCH  18  19
ENDBRANCH  17  18
ENDBRANCH  16  17
ENDBRANCH  15  16
ENDBRANCH  14  15
ENDBRANCH  13  14
ENDBRANCH   2  13
TORSDOF 15
ENDMDL
MODEL 5
REMARK VINA RESULT:    -3.563      1.158      4.385
REMARK INTER + INTRA:          -9.282
REMARK INTER:                  -7.130
REMARK INTRA:                  -2.152
REMARK UNBOUND:                -2.594
REMARK SMILES CCCCCCCCC=CCCCCCCCC(=O)[O-]
REMARK SMILES IDX 10 1 9 2 11 3 12 4 13 5 14 6 15 7 16 8 17 9 18 10 19 11
REMARK SMILES IDX 20 12 8 13 7 14 6 15 5 16 4 17 3 18 2 19 1 20
REMARK H PARENT
REMARK Flexibility Score: inf
ROOT
ATOM      1  C   UNL     1      -7.786  -9.395   1.261  1.00  0.00    -0.031 C 
ATOM      2  C   UNL     1      -7.062  -9.161   2.372  1.00  0.00    -0.031 C 
ENDROOT
BRANCH   1   3
ATOM      3  C   UNL     1      -7.312  -9.179  -0.158  1.00  0.00     0.027 C 
BRANCH   3   4
ATOM      4  C   UNL     1      -8.229  -8.246  -0.965  1.00  0.00     0.004 C 
BRANCH   4   5
ATOM      5  C   UNL     1      -7.530  -6.929  -1.346  1.00  0.00     0.000 C 
BRANCH   5   6
ATOM      6  C   UNL     1      -6.976  -6.181  -0.121  1.00  0.00     0.000 C 
BRANCH   6   7
ATOM      7  C   UNL     1      -8.094  -5.639   0.787  1.00  0.00     0.000 C 
BRANCH   7   8
ATOM      8  C   UNL     1      -7.554  -4.822   1.975  1.00  0.00     0.006 C 
BRANCH   8   9
ATOM      9  C   UNL     1      -7.736  -3.301   1.836  1.00  0.00     0.053 C 
BRANCH   9  10
ATOM     10  C   UNL     1      -6.448  -2.609   1.509  1.00  0.00     0.041 C 
ATOM     11  O   UNL     1      -5.849  -1.937   2.389  1.00  0.00    -0.550 OA
ATOM     12  O   UNL     1      -5.927  -2.680   0.223  1.00  0.00    -0.550 OA
ENDBRANCH   9  10
ENDBRANCH   8   9
ENDBRANCH   7   8
ENDBRANCH   6   7
ENDBRANCH   5   6
ENDBRANCH   4   5
ENDBRANCH   3   4
ENDBRANCH   1   3
BRANCH   2  13
ATOM     13  C   UNL     1      -5.634  -8.666   2.399  1.00  0.00     0.027 C 
BRANCH  13  14
ATOM     14  C   UNL     1      -4.867  -9.201   3.621  1.00  0.00     0.004 C 
BRANCH  14  15
ATOM     15  C   UNL     1      -5.713 -10.029   4.610  1.00  0.00     0.000 C 
BRANCH  15  16
ATOM     16  C   UNL     1      -5.953  -9.370   5.982  1.00  0.00     0.000 C 
BRANCH  16  17
ATOM     17  C   UNL     1      -6.726  -8.044   5.879  1.00  0.00    -0.000 C 
BRANCH  17  18
ATOM     18  C   UNL     1      -5.817  -6.816   6.051  1.00  0.00    -0.000 C 
BRANCH  18  19
ATOM     19  C   UNL     1      -5.899  -5.848   4.861  1.00  0.00    -0.003 C 
ATOM     20  C   UNL     1      -5.846  -4.397   5.330  1.00  0.00     0.004 C 
ENDBRANCH  18  19
ENDBRANCH  17  18
ENDBRANCH  16  17
ENDBRANCH  15  16
ENDBRANCH  14  15
ENDBRANCH  13  14
ENDBRANCH   2  13
TORSDOF 15
ENDMDL
MODEL 6
REMARK VINA RESULT:    -3.554     10.979     13.624
REMARK INTER + INTRA:          -9.264
REMARK INTER:                  -7.361
REMARK INTRA:                  -1.903
REMARK UNBOUND:                -2.594
REMARK SMILES CCCCCCCCC=CCCCCCCCC(=O)[O-]
REMARK SMILES IDX 10 1 9 2 11 3 12 4 13 5 14 6 15 7 16 8 17 9 18 10 19 11
REMARK SMILES IDX 20 12 8 13 7 14 6 15 5 16 4 17 3 18 2 19 1 20
REMARK H PARENT
REMARK Flexibility Score: inf
ROOT
ATOM      1  C   UNL     1      -0.093  -4.981  -9.508  1.00  0.00    -0.031 C 
ATOM      2  C   UNL     1       1.112  -4.518  -9.894  1.00  0.00    -0.031 C 
ENDROOT
BRANCH   1   3
ATOM      3  C   UNL     1      -0.328  -6.164  -8.597  1.00  0.00     0.027 C 
BRANCH   3   4
ATOM      4  C   UNL     1      -0.434  -7.497  -9.355  1.00  0.00     0.004 C 
BRANCH   4   5
ATOM      5  C   UNL     1      -1.877  -7.804  -9.795  1.00  0.00     0.000 C 
BRANCH   5   6
ATOM      6  C   UNL     1      -2.924  -7.171  -8.863  1.00  0.00     0.000 C 
BRANCH   6   7
ATOM      7  C   UNL     1      -3.796  -8.228  -8.162  1.00  0.00     0.000 C 
BRANCH   7   8
ATOM      8  C   UNL     1      -5.179  -7.687  -7.757  1.00  0.00     0.006 C 
BRANCH   8   9
ATOM      9  C   UNL     1      -5.585  -6.384  -8.466  1.00  0.00     0.053 C 
BRANCH   9  10
ATOM     10  C   UNL     1      -6.681  -5.667  -7.738  1.00  0.00     0.041 C 
ATOM     11  O   UNL     1      -7.499  -4.950  -8.372  1.00  0.00    -0.550 OA
ATOM     12  O   UNL     1      -6.779  -5.767  -6.355  1.00  0.00    -0.550 OA
ENDBRANCH   9  10
ENDBRANCH   8   9
ENDBRANCH   7   8
ENDBRANCH   6   7
ENDBRANCH   5   6
ENDBRANCH   4   5
ENDBRANCH   3   4
ENDBRANCH   1   3
BRANCH   2  13
ATOM     13  C   UNL     1       2.446  -5.082  -9.464  1.00  0.00     0.027 C 
BRANCH  13  14
ATOM     14  C   UNL     1       3.576  -4.048  -9.607  1.00  0.00     0.004 C 
BRANCH  14  15
ATOM     15  C   UNL     1       3.124  -2.575  -9.542  1.00  0.00     0.000 C 
BRANCH  15  16
ATOM     16  C   UNL     1       3.178  -1.931  -8.144  1.00  0.00     0.000 C 
BRANCH  16  17
ATOM     17  C   UNL     1       1.782  -1.669  -7.554  1.00  0.00    -0.000 C 
BRANCH  17  18
ATOM     18  C   UNL     1       1.630  -2.227  -6.129  1.00  0.00    -0.000 C 
BRANCH  18  19
ATOM     19  C   UNL     1       1.063  -3.655  -6.111  1.00  0.00    -0.003 C 
ATOM     20  C   UNL     1       2.164  -4.679  -5.850  1.00  0.00     0.004 C 
ENDBRANCH  18  19
ENDBRANCH  17  18
ENDBRANCH  16  17
ENDBRANCH  15  16
ENDBRANCH  14  15
ENDBRANCH  13  14
ENDBRANCH   2  13
TORSDOF 15
ENDMDL
MODEL 7
REMARK VINA RESULT:    -3.545     10.245     12.742
REMARK INTER + INTRA:          -9.247
REMARK INTER:                  -8.043
REMARK INTRA:                  -1.204
REMARK UNBOUND:                -2.594
REMARK SMILES CCCCCCCCC=CCCCCCCCC(=O)[O-]
REMARK SMILES IDX 10 1 9 2 11 3 12 4 13 5 14 6 15 7 16 8 17 9 18 10 19 11
REMARK SMILES IDX 20 12 8 13 7 14 6 15 5 16 4 17 3 18 2 19 1 20
REMARK H PARENT
REMARK Flexibility Score: inf
ROOT
ATOM      1  C   UNL     1      -1.838  -1.097  -9.573  1.00  0.00    -0.031 C 
ATOM      2  C   UNL     1      -0.710  -1.503  -8.957  1.00  0.00    -0.031 C 
ENDROOT
BRANCH   1   3
ATOM      3  C   UNL     1      -2.667   0.104  -9.182  1.00  0.00     0.027 C 
BRANCH   3   4
ATOM      4  C   UNL     1      -4.180  -0.146  -9.289  1.00  0.00     0.004 C 
BRANCH   4   5
ATOM      5  C   UNL     1      -4.532  -1.641  -9.197  1.00  0.00     0.000 C 
BRANCH   5   6
ATOM      6  C   UNL     1      -5.743  -1.906  -8.287  1.00  0.00     0.000 C 
BRANCH   6   7
ATOM      7  C   UNL     1      -6.075  -3.405  -8.180  1.00  0.00     0.000 C 
BRANCH   7   8
ATOM      8  C   UNL     1      -7.124  -3.707  -7.094  1.00  0.00     0.006 C 
BRANCH   8   9
ATOM      9  C   UNL     1      -7.064  -5.137  -6.531  1.00  0.00     0.053 C 
BRANCH   9  10
ATOM     10  C   UNL     1      -8.287  -5.479  -5.734  1.00  0.00     0.041 C 
ATOM     11  O   UNL     1      -8.677  -6.673  -5.653  1.00  0.00    -0.550 OA
ATOM     12  O   UNL     1      -9.012  -4.472  -5.107  1.00  0.00    -0.550 OA
ENDBRANCH   9  10
ENDBRANCH   8   9
ENDBRANCH   7   8
ENDBRANCH   6   7
ENDBRANCH   5   6
ENDBRANCH   4   5
ENDBRANCH   3   4
ENDBRANCH   1   3
BRANCH   2  13
ATOM     13  C   UNL     1      -0.057  -0.814  -7.782  1.00  0.00     0.027 C 
BRANCH  13  14
ATOM     14  C   UNL     1       1.427  -1.197  -7.648  1.00  0.00     0.004 C 
BRANCH  14  15
ATOM     15  C   UNL     1       1.814  -1.845  -6.304  1.00  0.00     0.000 C 
BRANCH  15  16
ATOM     16  C   UNL     1       2.713  -3.091  -6.408  1.00  0.00     0.000 C 
BRANCH  16  17
ATOM     17  C   UNL     1       1.963  -4.396  -6.089  1.00  0.00    -0.000 C 
BRANCH  17  18
ATOM     18  C   UNL     1       0.718  -4.591  -6.970  1.00  0.00    -0.000 C 
BRANCH  18  19
ATOM     19  C   UNL     1       1.013  -5.401  -8.241  1.00  0.00    -0.003 C 
ATOM     20  C   UNL     1       1.440  -4.488  -9.387  1.00  0.00     0.004 C 
ENDBRANCH  18  19
ENDBRANCH  17  18
ENDBRANCH  16  17
ENDBRANCH  15  16
ENDBRANCH  14  15
ENDBRANCH  13  14
ENDBRANCH   2  13
TORSDOF 15
ENDMDL
MODEL 8
REMARK VINA RESULT:    -3.422      1.695      3.818
REMARK INTER + INTRA:          -9.016
REMARK INTER:                  -6.640
REMARK INTRA:                  -2.375
REMARK UNBOUND:                -2.594
REMARK SMILES CCCCCCCCC=CCCCCCCCC(=O)[O-]
REMARK SMILES IDX 10 1 9 2 11 3 12 4 13 5 14 6 15 7 16 8 17 9 18 10 19 11
REMARK SMILES IDX 20 12 8 13 7 14 6 15 5 16 4 17 3 18 2 19 1 20
REMARK H PARENT
REMARK Flexibility Score: inf
ROOT
ATOM      1  C   UNL     1      -6.323  -5.579   4.540  1.00  0.00    -0.031 C 
ATOM      2  C   UNL     1      -5.556  -6.546   5.080  1.00  0.00    -0.031 C 
ENDROOT
BRANCH   1   3
ATOM      3  C   UNL     1      -7.525  -5.804   3.652  1.00  0.00     0.027 C 
BRANCH   3   4
ATOM      4  C   UNL     1      -7.273  -5.418   2.186  1.00  0.00     0.004 C 
BRANCH   4   5
ATOM      5  C   UNL     1      -8.438  -4.611   1.587  1.00  0.00     0.000 C 
BRANCH   5   6
ATOM      6  C   UNL     1      -8.152  -3.100   1.552  1.00  0.00     0.000 C 
BRANCH   6   7
ATOM      7  C   UNL     1      -6.689  -2.792   1.185  1.00  0.00     0.000 C 
BRANCH   7   8
ATOM      8  C   UNL     1      -6.052  -1.737   2.108  1.00  0.00     0.006 C 
BRANCH   8   9
ATOM      9  C   UNL     1      -6.349  -1.937   3.604  1.00  0.00     0.053 C 
BRANCH   9  10
ATOM     10  C   UNL     1      -7.107  -0.783   4.185  1.00  0.00     0.041 C 
ATOM     11  O   UNL     1      -6.583   0.360   4.231  1.00  0.00    -0.550 OA
ATOM     12  O   UNL     1      -8.381  -0.979   4.705  1.00  0.00    -0.550 OA
ENDBRANCH   9  10
ENDBRANCH   8   9
ENDBRANCH   7   8
ENDBRANCH   6   7
ENDBRANCH   5   6
ENDBRANCH   4   5
ENDBRANCH   3   4
ENDBRANCH   1   3
BRANCH   2  13
ATOM     13  C   UNL     1      -5.777  -8.032   4.916  1.00  0.00     0.027 C 
BRANCH  13  14
ATOM     14  C   UNL     1      -4.911  -8.617   3.787  1.00  0.00     0.004 C 
BRANCH  14  15
ATOM     15  C   UNL     1      -5.669  -8.936   2.483  1.00  0.00     0.000 C 
BRANCH  15  16
ATOM     16  C   UNL     1      -7.148  -9.326   2.661  1.00  0.00     0.000 C 
BRANCH  16  17
ATOM     17  C   UNL     1      -7.953  -9.226   1.353  1.00  0.00    -0.000 C 
BRANCH  17  18
ATOM     18  C   UNL     1      -7.073  -8.862   0.146  1.00  0.00    -0.000 C 
BRANCH  18  19
ATOM     19  C   UNL     1      -7.838  -8.071  -0.926  1.00  0.00    -0.003 C 
ATOM     20  C   UNL     1      -7.170  -6.726  -1.196  1.00  0.00     0.004 C 
ENDBRANCH  18  19
ENDBRANCH  17  18
ENDBRANCH  16  17
ENDBRANCH  15  16
ENDBRANCH  14  15
ENDBRANCH  13  14
ENDBRANCH   2  13
TORSDOF 15
ENDMDL
MODEL 9
REMARK VINA RESULT:    -3.405      1.338      3.306
REMARK INTER + INTRA:          -8.984
REMARK INTER:                  -6.224
REMARK INTRA:                  -2.760
REMARK UNBOUND:                -2.594
REMARK SMILES CCCCCCCCC=CCCCCCCCC(=O)[O-]
REMARK SMILES IDX 10 1 9 2 11 3 12 4 13 5 14 6 15 7 16 8 17 9 18 10 19 11
REMARK SMILES IDX 20 12 8 13 7 14 6 15 5 16 4 17 3 18 2 19 1 20
REMARK H PARENT
REMARK Flexibility Score: inf
ROOT
ATOM      1  C   UNL     1      -7.674  -7.264  -0.772  1.00  0.00    -0.031 C 
ATOM      2  C   UNL     1      -7.080  -8.330  -0.200  1.00  0.00    -0.031 C 
ENDROOT
BRANCH   1   3
ATOM      3  C   UNL     1      -9.141  -6.919  -0.672  1.00  0.00     0.027 C 
BRANCH   3   4
ATOM      4  C   UNL     1      -9.435  -5.831   0.373  1.00  0.00     0.004 C 
BRANCH   4   5
ATOM      5  C   UNL     1      -9.814  -6.424   1.742  1.00  0.00     0.000 C 
BRANCH   5   6
ATOM      6  C   UNL     1      -8.749  -6.150   2.817  1.00  0.00     0.000 C 
BRANCH   6   7
ATOM      7  C   UNL     1      -7.671  -5.163   2.333  1.00  0.00     0.000 C 
BRANCH   7   8
ATOM      8  C   UNL     1      -7.569  -3.909   3.219  1.00  0.00     0.006 C 
BRANCH   8   9
ATOM      9  C   UNL     1      -6.646  -2.811   2.665  1.00  0.00     0.053 C 
BRANCH   9  10
ATOM     10  C   UNL     1      -6.947  -2.496   1.231  1.00  0.00     0.041 C 
ATOM     11  O   UNL     1      -8.108  -2.147   0.889  1.00  0.00    -0.550 OA
ATOM     12  O   UNL     1      -5.953  -2.619   0.267  1.00  0.00    -0.550 OA
ENDBRANCH   9  10
ENDBRANCH   8   9
ENDBRANCH   7   8
ENDBRANCH   6   7
ENDBRANCH   5   6
ENDBRANCH   4   5
ENDBRANCH   3   4
ENDBRANCH   1   3
BRANCH   2  13
ATOM     13  C   UNL     1      -7.769  -9.356   0.668  1.00  0.00     0.027 C 
BRANCH  13  14
ATOM     14  C   UNL     1      -7.245  -9.326   2.114  1.00  0.00     0.004 C 
BRANCH  14  15
ATOM     15  C   UNL     1      -5.926  -8.552   2.314  1.00  0.00     0.000 C 
BRANCH  15  16
ATOM     16  C   UNL     1      -5.402  -8.506   3.761  1.00  0.00     0.000 C 
BRANCH  16  17
ATOM     17  C   UNL     1      -5.390  -7.084   4.346  1.00  0.00    -0.000 C 
BRANCH  17  18
ATOM     18  C   UNL     1      -6.304  -6.943   5.575  1.00  0.00    -0.000 C 
BRANCH  18  19
ATOM     19  C   UNL     1      -7.329  -8.082   5.682  1.00  0.00    -0.003 C 
ATOM     20  C   UNL     1      -8.439  -7.730   6.668  1.00  0.00     0.004 C 
ENDBRANCH  18  19
ENDBRANCH  17  18
ENDBRANCH  16  17
ENDBRANCH  15  16
ENDBRANCH  14  15
ENDBRANCH  13  14
ENDBRANCH   2  13
TORSDOF 15
ENDMDL
