MODEL 1
REMARK VINA RESULT:    -3.715      0.000      0.000
REMARK INTER + INTRA:          -4.188
REMARK INTER:                  -4.149
REMARK INTRA:                  -0.039
REMARK UNBOUND:                -0.039
REMARK SMILES O=C([O-])c1ccc(O)c(O)c1
REMARK SMILES IDX 4 1 11 2 5 3 9 4 6 5 7 6 2 7 1 8 3 9 10 10 8 12
REMARK H PARENT 10 11 8 13
REMARK Flexibility Score: inf
ROOT
ATOM      1  C   UNL     1       4.063   2.305 -17.495  1.00  0.00     0.001 A 
ATOM      2  C   UNL     1       5.260   3.043 -17.504  1.00  0.00     0.060 A 
ATOM      3  C   UNL     1       3.520   1.902 -16.262  1.00  0.00     0.014 A 
ATOM      4  C   UNL     1       5.905   3.373 -16.307  1.00  0.00     0.158 A 
ATOM      5  C   UNL     1       4.161   2.231 -15.065  1.00  0.00     0.051 A 
ATOM      6  C   UNL     1       5.354   2.966 -15.080  1.00  0.00     0.157 A 
ENDROOT
BRANCH   1   7
ATOM      7  C   UNL     1       3.388   1.960 -18.765  1.00  0.00     0.072 C 
ATOM      8  O   UNL     1       3.045   0.772 -19.007  1.00  0.00    -0.545 OA
ATOM      9  O   UNL     1       3.123   2.943 -19.712  1.00  0.00    -0.545 OA
ENDBRANCH   1   7
BRANCH   4  10
ATOM     10  O   UNL     1       7.089   4.107 -16.355  1.00  0.00    -0.504 OA
ATOM     11  H   UNL     1       7.981   3.676 -16.568  1.00  0.00     0.293 HD
ENDBRANCH   4  10
BRANCH   6  12
ATOM     12  O   UNL     1       5.991   3.292 -13.884  1.00  0.00    -0.504 OA
ATOM     13  H   UNL     1       6.934   2.983 -13.683  1.00  0.00     0.293 HD
ENDBRANCH   6  12
TORSDOF 3
ENDMDL
MODEL 2
REMARK VINA RESULT:    -3.668      1.497      4.240
REMARK INTER + INTRA:          -4.136
REMARK INTER:                  -4.097
REMARK INTRA:                  -0.039
REMARK UNBOUND:                -0.039
REMARK SMILES O=C([O-])c1ccc(O)c(O)c1
REMARK SMILES IDX 4 1 11 2 5 3 9 4 6 5 7 6 2 7 1 8 3 9 10 10 8 12
REMARK H PARENT 10 11 8 13
REMARK Flexibility Score: inf
ROOT
ATOM      1  C   UNL     1       4.022   2.239 -16.364  1.00  0.00     0.001 A 
ATOM      2  C   UNL     1       4.193   3.034 -17.511  1.00  0.00     0.060 A 
ATOM      3  C   UNL     1       3.463   0.956 -16.501  1.00  0.00     0.014 A 
ATOM      4  C   UNL     1       3.813   2.560 -18.772  1.00  0.00     0.158 A 
ATOM      5  C   UNL     1       3.084   0.480 -17.758  1.00  0.00     0.051 A 
ATOM      6  C   UNL     1       3.255   1.277 -18.898  1.00  0.00     0.157 A 
ENDROOT
BRANCH   1   7
ATOM      7  C   UNL     1       4.427   2.747 -15.035  1.00  0.00     0.072 C 
ATOM      8  O   UNL     1       5.189   2.070 -14.295  1.00  0.00    -0.545 OA
ATOM      9  O   UNL     1       3.970   3.980 -14.583  1.00  0.00    -0.545 OA
ENDBRANCH   1   7
BRANCH   4  10
ATOM     10  O   UNL     1       3.998   3.377 -19.886  1.00  0.00    -0.504 OA
ATOM     11  H   UNL     1       3.593   4.303 -19.948  1.00  0.00     0.293 HD
ENDBRANCH   4  10
BRANCH   6  12
ATOM     12  O   UNL     1       2.875   0.799 -20.151  1.00  0.00    -0.504 OA
ATOM     13  H   UNL     1       2.708   1.424 -20.930  1.00  0.00     0.293 HD
ENDBRANCH   6  12
TORSDOF 3
ENDMDL
MODEL 3
REMARK VINA RESULT:    -3.544      0.980      2.006
REMARK INTER + INTRA:          -3.998
REMARK INTER:                  -3.959
REMARK INTRA:                  -0.038
REMARK UNBOUND:                -0.039
REMARK SMILES O=C([O-])c1ccc(O)c(O)c1
REMARK SMILES IDX 4 1 11 2 5 3 9 4 6 5 7 6 2 7 1 8 3 9 10 10 8 12
REMARK H PARENT 10 11 8 13
REMARK Flexibility Score: inf
ROOT
ATOM      1  C   UNL     1       4.408   2.743 -17.524  1.00  0.00     0.001 A 
ATOM      2  C   UNL     1       3.775   2.747 -16.269  1.00  0.00     0.060 A 
ATOM      3  C   UNL     1       5.789   3.002 -17.593  1.00  0.00     0.014 A 
ATOM      4  C   UNL     1       4.504   3.004 -15.102  1.00  0.00     0.158 A 
ATOM      5  C   UNL     1       6.519   3.258 -16.429  1.00  0.00     0.051 A 
ATOM      6  C   UNL     1       5.883   3.261 -15.180  1.00  0.00     0.157 A 
ENDROOT
BRANCH   1   7
ATOM      7  C   UNL     1       3.631   2.471 -18.753  1.00  0.00     0.072 C 
ATOM      8  O   UNL     1       2.965   1.407 -18.867  1.00  0.00    -0.545 OA
ATOM      9  O   UNL     1       3.624   3.384 -19.800  1.00  0.00    -0.545 OA
ENDBRANCH   1   7
BRANCH   4  10
ATOM     10  O   UNL     1       3.842   2.999 -13.875  1.00  0.00    -0.504 OA
ATOM     11  H   UNL     1       3.613   3.855 -13.383  1.00  0.00     0.293 HD
ENDBRANCH   4  10
BRANCH   6  12
ATOM     12  O   UNL     1       6.615   3.518 -14.023  1.00  0.00    -0.504 OA
ATOM     13  H   UNL     1       7.104   4.394 -13.886  1.00  0.00     0.293 HD
ENDBRANCH   6  12
TORSDOF 3
ENDMDL
MODEL 4
REMARK VINA RESULT:    -3.515      1.112      4.561
REMARK INTER + INTRA:          -3.965
REMARK INTER:                  -3.923
REMARK INTRA:                  -0.043
REMARK UNBOUND:                -0.039
REMARK SMILES O=C([O-])c1ccc(O)c(O)c1
REMARK SMILES IDX 4 1 11 2 5 3 9 4 6 5 7 6 2 7 1 8 3 9 10 10 8 12
REMARK H PARENT 10 11 8 13
REMARK Flexibility Score: inf
ROOT
ATOM      1  C   UNL     1       4.882   2.456 -16.238  1.00  0.00     0.001 A 
ATOM      2  C   UNL     1       4.183   1.285 -16.584  1.00  0.00     0.060 A 
ATOM      3  C   UNL     1       4.945   3.511 -17.166  1.00  0.00     0.014 A 
ATOM      4  C   UNL     1       3.559   1.168 -17.831  1.00  0.00     0.158 A 
ATOM      5  C   UNL     1       4.322   3.397 -18.411  1.00  0.00     0.051 A 
ATOM      6  C   UNL     1       3.628   2.228 -18.751  1.00  0.00     0.157 A 
ENDROOT
BRANCH   1   7
ATOM      7  C   UNL     1       5.539   2.572 -14.918  1.00  0.00     0.072 C 
ATOM      8  O   UNL     1       5.123   1.903 -13.935  1.00  0.00    -0.545 OA
ATOM      9  O   UNL     1       6.625   3.422 -14.744  1.00  0.00    -0.545 OA
ENDBRANCH   1   7
BRANCH   4  10
ATOM     10  O   UNL     1       2.875  -0.007 -18.138  1.00  0.00    -0.504 OA
ATOM     11  H   UNL     1       2.898  -0.418 -19.064  1.00  0.00     0.293 HD
ENDBRANCH   4  10
BRANCH   6  12
ATOM     12  O   UNL     1       3.008   2.118 -19.994  1.00  0.00    -0.504 OA
ATOM     13  H   UNL     1       3.364   2.601 -20.810  1.00  0.00     0.293 HD
ENDBRANCH   6  12
TORSDOF 3
ENDMDL
MODEL 5
REMARK VINA RESULT:    -2.628      1.678      4.405
REMARK INTER + INTRA:          -2.974
REMARK INTER:                  -2.935
REMARK INTRA:                  -0.039
REMARK UNBOUND:                -0.039
REMARK SMILES O=C([O-])c1ccc(O)c(O)c1
REMARK SMILES IDX 4 1 11 2 5 3 9 4 6 5 7 6 2 7 1 8 3 9 10 10 8 12
REMARK H PARENT 10 11 8 13
REMARK Flexibility Score: inf
ROOT
ATOM      1  C   UNL     1       4.318   2.540 -15.716  1.00  0.00     0.001 A 
ATOM      2  C   UNL     1       4.882   1.253 -15.777  1.00  0.00     0.060 A 
ATOM      3  C   UNL     1       3.371   2.916 -16.685  1.00  0.00     0.014 A 
ATOM      4  C   UNL     1       4.511   0.358 -16.787  1.00  0.00     0.158 A 
ATOM      5  C   UNL     1       2.998   2.024 -17.693  1.00  0.00     0.051 A 
ATOM      6  C   UNL     1       3.564   0.743 -17.751  1.00  0.00     0.157 A 
ENDROOT
BRANCH   1   7
ATOM      7  C   UNL     1       4.715   3.480 -14.645  1.00  0.00     0.072 C 
ATOM      8  O   UNL     1       5.932   3.713 -14.417  1.00  0.00    -0.545 OA
ATOM      9  O   UNL     1       3.751   4.120 -13.875  1.00  0.00    -0.545 OA
ENDBRANCH   1   7
BRANCH   4  10
ATOM     10  O   UNL     1       5.092  -0.909 -16.815  1.00  0.00    -0.504 OA
ATOM     11  H   UNL     1       5.942  -1.101 -17.332  1.00  0.00     0.293 HD
ENDBRANCH   4  10
BRANCH   6  12
ATOM     12  O   UNL     1       3.190  -0.144 -18.758  1.00  0.00    -0.504 OA
ATOM     13  H   UNL     1       3.591  -0.093 -19.687  1.00  0.00     0.293 HD
ENDBRANCH   6  12
TORSDOF 3
ENDMDL
MODEL 6
REMARK VINA RESULT:    -2.175      1.941      2.890
REMARK INTER + INTRA:          -2.469
REMARK INTER:                  -2.424
REMARK INTRA:                  -0.044
REMARK UNBOUND:                -0.039
REMARK SMILES O=C([O-])c1ccc(O)c(O)c1
REMARK SMILES IDX 4 1 11 2 5 3 9 4 6 5 7 6 2 7 1 8 3 9 10 10 8 12
REMARK H PARENT 10 11 8 13
REMARK Flexibility Score: inf
ROOT
ATOM      1  C   UNL     1       3.556   0.911 -18.434  1.00  0.00     0.001 A 
ATOM      2  C   UNL     1       3.727   0.035 -17.348  1.00  0.00     0.060 A 
ATOM      3  C   UNL     1       3.775   2.287 -18.241  1.00  0.00     0.014 A 
ATOM      4  C   UNL     1       4.108   0.520 -16.091  1.00  0.00     0.158 A 
ATOM      5  C   UNL     1       4.157   2.774 -16.988  1.00  0.00     0.051 A 
ATOM      6  C   UNL     1       4.325   1.896 -15.909  1.00  0.00     0.157 A 
ENDROOT
BRANCH   1   7
ATOM      7  C   UNL     1       3.152   0.391 -19.758  1.00  0.00     0.072 C 
ATOM      8  O   UNL     1       2.875   1.181 -20.700  1.00  0.00    -0.545 OA
ATOM      9  O   UNL     1       3.073  -0.979 -19.982  1.00  0.00    -0.545 OA
ENDBRANCH   1   7
BRANCH   4  10
ATOM     10  O   UNL     1       4.268  -0.379 -15.038  1.00  0.00    -0.504 OA
ATOM     11  H   UNL     1       3.587  -1.102 -14.838  1.00  0.00     0.293 HD
ENDBRANCH   4  10
BRANCH   6  12
ATOM     12  O   UNL     1       4.706   2.385 -14.661  1.00  0.00    -0.504 OA
ATOM     13  H   UNL     1       5.363   1.887 -14.072  1.00  0.00     0.293 HD
ENDBRANCH   6  12
TORSDOF 3
ENDMDL
MODEL 7
REMARK VINA RESULT:    -1.139      3.345      4.660
REMARK INTER + INTRA:          -1.311
REMARK INTER:                  -1.267
REMARK INTRA:                  -0.044
REMARK UNBOUND:                -0.039
REMARK SMILES O=C([O-])c1ccc(O)c(O)c1
REMARK SMILES IDX 4 1 11 2 5 3 9 4 6 5 7 6 2 7 1 8 3 9 10 10 8 12
REMARK H PARENT 10 11 8 13
REMARK Flexibility Score: inf
ROOT
ATOM      1  C   UNL     1       3.264   0.212 -21.132  1.00  0.00     0.001 A 
ATOM      2  C   UNL     1       3.177   1.602 -20.939  1.00  0.00     0.060 A 
ATOM      3  C   UNL     1       3.219  -0.636 -20.011  1.00  0.00     0.014 A 
ATOM      4  C   UNL     1       3.048   2.138 -19.652  1.00  0.00     0.158 A 
ATOM      5  C   UNL     1       3.090  -0.104 -18.726  1.00  0.00     0.051 A 
ATOM      6  C   UNL     1       3.004   1.282 -18.538  1.00  0.00     0.157 A 
ENDROOT
BRANCH   1   7
ATOM      7  C   UNL     1       3.401  -0.346 -22.495  1.00  0.00     0.072 C 
ATOM      8  O   UNL     1       3.173   0.371 -23.506  1.00  0.00    -0.545 OA
ATOM      9  O   UNL     1       3.782  -1.670 -22.680  1.00  0.00    -0.545 OA
ENDBRANCH   1   7
BRANCH   4  10
ATOM     10  O   UNL     1       2.964   3.521 -19.499  1.00  0.00    -0.504 OA
ATOM     11  H   UNL     1       3.763   4.128 -19.639  1.00  0.00     0.293 HD
ENDBRANCH   4  10
BRANCH   6  12
ATOM     12  O   UNL     1       2.875   1.808 -17.255  1.00  0.00    -0.504 OA
ATOM     13  H   UNL     1       3.668   2.196 -16.757  1.00  0.00     0.293 HD
ENDBRANCH   6  12
TORSDOF 3
ENDMDL
