MODEL 1
REMARK VINA RESULT:    -3.912      0.000      0.000
REMARK INTER + INTRA:          -4.544
REMARK INTER:                  -4.484
REMARK INTRA:                  -0.060
REMARK UNBOUND:                -0.060
REMARK SMILES CC(C)[C@@H]([NH3+])C(=O)[O-]
REMARK SMILES IDX 4 1 5 2 6 6 7 7 8 8 2 9 1 10 3 11
REMARK H PARENT 5 3 5 4 5 5
REMARK Flexibility Score: inf
ROOT
ATOM      1  C   UNL     1     160.114 162.142 165.934  1.00  0.00     0.230 C 
ENDROOT
BRANCH   1   2
ATOM      2  N   UNL     1     160.292 160.707 165.662  1.00  0.00    -0.350 N 
ATOM      3  H   UNL     1     159.465 160.322 165.149  1.00  0.00     0.345 HD
ATOM      4  H   UNL     1     161.152 160.554 165.085  1.00  0.00     0.345 HD
ATOM      5  H   UNL     1     160.426 160.184 166.556  1.00  0.00     0.345 HD
ENDBRANCH   1   2
BRANCH   1   6
ATOM      6  C   UNL     1     161.324 162.668 166.667  1.00  0.00     0.099 C 
ATOM      7  O   UNL     1     161.949 163.670 166.228  1.00  0.00    -0.544 OA
ATOM      8  O   UNL     1     161.749 162.051 167.837  1.00  0.00    -0.544 OA
ENDBRANCH   1   6
BRANCH   1   9
ATOM      9  C   UNL     1     159.857 162.954 164.629  1.00  0.00     0.047 C 
ATOM     10  C   UNL     1     158.669 163.919 164.798  1.00  0.00     0.014 C 
ATOM     11  C   UNL     1     159.592 162.036 163.424  1.00  0.00     0.014 C 
ENDBRANCH   1   9
TORSDOF 3
ENDMDL
MODEL 2
REMARK VINA RESULT:    -3.911     11.321     11.973
REMARK INTER + INTRA:          -4.543
REMARK INTER:                  -4.482
REMARK INTRA:                  -0.061
REMARK UNBOUND:                -0.060
REMARK SMILES CC(C)[C@@H]([NH3+])C(=O)[O-]
REMARK SMILES IDX 4 1 5 2 6 6 7 7 8 8 2 9 1 10 3 11
REMARK H PARENT 5 3 5 4 5 5
REMARK Flexibility Score: inf
ROOT
ATOM      1  C   UNL     1     154.890 152.877 165.919  1.00  0.00     0.230 C 
ENDROOT
BRANCH   1   2
ATOM      2  N   UNL     1     154.691 154.303 165.613  1.00  0.00    -0.350 N 
ATOM      3  H   UNL     1     154.391 154.827 166.468  1.00  0.00     0.345 HD
ATOM      4  H   UNL     1     155.580 154.721 165.250  1.00  0.00     0.345 HD
ATOM      5  H   UNL     1     153.971 154.413 164.863  1.00  0.00     0.345 HD
ENDBRANCH   1   2
BRANCH   1   6
ATOM      6  C   UNL     1     153.687 152.351 166.665  1.00  0.00     0.099 C 
ATOM      7  O   UNL     1     153.053 151.354 166.229  1.00  0.00    -0.544 OA
ATOM      8  O   UNL     1     153.279 152.964 167.843  1.00  0.00    -0.544 OA
ENDBRANCH   1   6
BRANCH   1   9
ATOM      9  C   UNL     1     155.159 152.038 164.634  1.00  0.00     0.047 C 
ATOM     10  C   UNL     1     156.358 151.092 164.827  1.00  0.00     0.014 C 
ATOM     11  C   UNL     1     155.414 152.931 163.408  1.00  0.00     0.014 C 
ENDBRANCH   1   9
TORSDOF 3
ENDMDL
MODEL 3
REMARK VINA RESULT:    -3.781      9.686     10.611
REMARK INTER + INTRA:          -4.393
REMARK INTER:                  -4.361
REMARK INTRA:                  -0.032
REMARK UNBOUND:                -0.060
REMARK SMILES CC(C)[C@@H]([NH3+])C(=O)[O-]
REMARK SMILES IDX 4 1 5 2 6 6 7 7 8 8 2 9 1 10 3 11
REMARK H PARENT 5 3 5 4 5 5
REMARK Flexibility Score: inf
ROOT
ATOM      1  C   UNL     1     166.070 158.615 158.325  1.00  0.00     0.230 C 
ENDROOT
BRANCH   1   2
ATOM      2  N   UNL     1     165.225 158.371 159.505  1.00  0.00    -0.350 N 
ATOM      3  H   UNL     1     165.794 158.415 160.382  1.00  0.00     0.345 HD
ATOM      4  H   UNL     1     164.462 159.086 159.557  1.00  0.00     0.345 HD
ATOM      5  H   UNL     1     164.765 157.435 159.432  1.00  0.00     0.345 HD
ENDBRANCH   1   2
BRANCH   1   6
ATOM      6  C   UNL     1     166.273 160.101 158.153  1.00  0.00     0.099 C 
ATOM      7  O   UNL     1     167.085 160.539 157.295  1.00  0.00    -0.544 OA
ATOM      8  O   UNL     1     165.556 160.996 158.939  1.00  0.00    -0.544 OA
ENDBRANCH   1   6
BRANCH   1   9
ATOM      9  C   UNL     1     167.437 157.875 158.425  1.00  0.00     0.047 C 
ATOM     10  C   UNL     1     167.763 157.130 157.117  1.00  0.00     0.014 C 
ATOM     11  C   UNL     1     167.465 156.875 159.593  1.00  0.00     0.014 C 
ENDBRANCH   1   9
TORSDOF 3
ENDMDL
MODEL 4
REMARK VINA RESULT:    -3.756     12.332     12.939
REMARK INTER + INTRA:          -4.365
REMARK INTER:                  -4.331
REMARK INTRA:                  -0.034
REMARK UNBOUND:                -0.060
REMARK SMILES CC(C)[C@@H]([NH3+])C(=O)[O-]
REMARK SMILES IDX 4 1 5 2 6 6 7 7 8 8 2 9 1 10 3 11
REMARK H PARENT 5 3 5 4 5 5
REMARK Flexibility Score: inf
ROOT
ATOM      1  C   UNL     1     166.347 156.429 156.861  1.00  0.00     0.230 C 
ENDROOT
BRANCH   1   2
ATOM      2  N   UNL     1     165.507 156.596 155.664  1.00  0.00    -0.350 N 
ATOM      3  H   UNL     1     165.077 155.685 155.384  1.00  0.00     0.345 HD
ATOM      4  H   UNL     1     164.745 157.289 155.853  1.00  0.00     0.345 HD
ATOM      5  H   UNL     1     166.076 156.974 154.874  1.00  0.00     0.345 HD
ENDBRANCH   1   2
BRANCH   1   6
ATOM      6  C   UNL     1     166.548 154.958 157.131  1.00  0.00     0.099 C 
ATOM      7  O   UNL     1     167.378 154.577 157.999  1.00  0.00    -0.544 OA
ATOM      8  O   UNL     1     165.810 154.015 156.426  1.00  0.00    -0.544 OA
ENDBRANCH   1   6
BRANCH   1   9
ATOM      9  C   UNL     1     167.716 157.161 156.717  1.00  0.00     0.047 C 
ATOM     10  C   UNL     1     168.034 157.997 157.970  1.00  0.00     0.014 C 
ATOM     11  C   UNL     1     167.752 158.074 155.480  1.00  0.00     0.014 C 
ENDBRANCH   1   9
TORSDOF 3
ENDMDL
MODEL 5
REMARK VINA RESULT:    -3.745     10.585     11.437
REMARK INTER + INTRA:          -4.353
REMARK INTER:                  -4.306
REMARK INTRA:                  -0.047
REMARK UNBOUND:                -0.060
REMARK SMILES CC(C)[C@@H]([NH3+])C(=O)[O-]
REMARK SMILES IDX 4 1 5 2 6 6 7 7 8 8 2 9 1 10 3 11
REMARK H PARENT 5 3 5 4 5 5
REMARK Flexibility Score: inf
ROOT
ATOM      1  C   UNL     1     166.241 159.517 156.575  1.00  0.00     0.230 C 
ENDROOT
BRANCH   1   2
ATOM      2  N   UNL     1     165.540 158.230 156.449  1.00  0.00    -0.350 N 
ATOM      3  H   UNL     1     164.522 158.340 156.666  1.00  0.00     0.345 HD
ATOM      4  H   UNL     1     165.642 157.857 155.476  1.00  0.00     0.345 HD
ATOM      5  H   UNL     1     165.962 157.525 157.095  1.00  0.00     0.345 HD
ENDBRANCH   1   2
BRANCH   1   6
ATOM      6  C   UNL     1     166.259 159.940 158.023  1.00  0.00     0.099 C 
ATOM      7  O   UNL     1     166.196 161.160 158.332  1.00  0.00    -0.544 OA
ATOM      8  O   UNL     1     166.336 158.981 159.026  1.00  0.00    -0.544 OA
ENDBRANCH   1   6
BRANCH   1   9
ATOM      9  C   UNL     1     167.687 159.450 155.997  1.00  0.00     0.047 C 
ATOM     10  C   UNL     1     167.847 160.389 154.787  1.00  0.00     0.014 C 
ATOM     11  C   UNL     1     168.073 158.021 155.580  1.00  0.00     0.014 C 
ENDBRANCH   1   9
TORSDOF 3
ENDMDL
MODEL 6
REMARK VINA RESULT:    -3.693     14.672     15.233
REMARK INTER + INTRA:          -4.293
REMARK INTER:                  -4.241
REMARK INTRA:                  -0.053
REMARK UNBOUND:                -0.060
REMARK SMILES CC(C)[C@@H]([NH3+])C(=O)[O-]
REMARK SMILES IDX 4 1 5 2 6 6 7 7 8 8 2 9 1 10 3 11
REMARK H PARENT 5 3 5 4 5 5
REMARK Flexibility Score: inf
ROOT
ATOM      1  C   UNL     1     149.693 158.842 156.635  1.00  0.00     0.230 C 
ENDROOT
BRANCH   1   2
ATOM      2  N   UNL     1     150.189 158.774 155.252  1.00  0.00    -0.350 N 
ATOM      3  H   UNL     1     151.134 158.325 155.219  1.00  0.00     0.345 HD
ATOM      4  H   UNL     1     149.529 158.219 154.658  1.00  0.00     0.345 HD
ATOM      5  H   UNL     1     150.242 159.732 154.839  1.00  0.00     0.345 HD
ENDBRANCH   1   2
BRANCH   1   6
ATOM      6  C   UNL     1     149.018 160.173 156.861  1.00  0.00     0.099 C 
ATOM      7  O   UNL     1     149.481 161.220 156.335  1.00  0.00    -0.544 OA
ATOM      8  O   UNL     1     147.875 160.247 157.647  1.00  0.00    -0.544 OA
ENDBRANCH   1   6
BRANCH   1   9
ATOM      9  C   UNL     1     148.726 157.665 156.964  1.00  0.00     0.047 C 
ATOM     10  C   UNL     1     149.499 156.433 157.468  1.00  0.00     0.014 C 
ATOM     11  C   UNL     1     147.876 157.262 155.747  1.00  0.00     0.014 C 
ENDBRANCH   1   9
TORSDOF 3
ENDMDL
MODEL 7
REMARK VINA RESULT:    -3.619     10.744     11.672
REMARK INTER + INTRA:          -4.208
REMARK INTER:                  -4.144
REMARK INTRA:                  -0.063
REMARK UNBOUND:                -0.060
REMARK SMILES CC(C)[C@@H]([NH3+])C(=O)[O-]
REMARK SMILES IDX 4 1 5 2 6 6 7 7 8 8 2 9 1 10 3 11
REMARK H PARENT 5 3 5 4 5 5
REMARK Flexibility Score: inf
ROOT
ATOM      1  C   UNL     1     166.820 158.132 156.965  1.00  0.00     0.230 C 
ENDROOT
BRANCH   1   2
ATOM      2  N   UNL     1     165.464 157.898 156.446  1.00  0.00    -0.350 N 
ATOM      3  H   UNL     1     164.836 157.536 157.201  1.00  0.00     0.345 HD
ATOM      4  H   UNL     1     165.064 158.788 156.068  1.00  0.00     0.345 HD
ATOM      5  H   UNL     1     165.492 157.214 155.657  1.00  0.00     0.345 HD
ENDBRANCH   1   2
BRANCH   1   6
ATOM      6  C   UNL     1     167.435 159.311 156.250  1.00  0.00     0.099 C 
ATOM      7  O   UNL     1     167.664 160.383 156.870  1.00  0.00    -0.544 OA
ATOM      8  O   UNL     1     167.758 159.214 154.903  1.00  0.00    -0.544 OA
ENDBRANCH   1   6
BRANCH   1   9
ATOM      9  C   UNL     1     166.822 158.354 158.508  1.00  0.00     0.047 C 
ATOM     10  C   UNL     1     167.659 157.278 159.225  1.00  0.00     0.014 C 
ATOM     11  C   UNL     1     165.399 158.354 159.090  1.00  0.00     0.014 C 
ENDBRANCH   1   9
TORSDOF 3
ENDMDL
MODEL 8
REMARK VINA RESULT:    -3.603     14.910     15.464
REMARK INTER + INTRA:          -4.190
REMARK INTER:                  -4.135
REMARK INTRA:                  -0.055
REMARK UNBOUND:                -0.060
REMARK SMILES CC(C)[C@@H]([NH3+])C(=O)[O-]
REMARK SMILES IDX 4 1 5 2 6 6 7 7 8 8 2 9 1 10 3 11
REMARK H PARENT 5 3 5 4 5 5
REMARK Flexibility Score: inf
ROOT
ATOM      1  C   UNL     1     149.430 156.286 158.095  1.00  0.00     0.230 C 
ENDROOT
BRANCH   1   2
ATOM      2  N   UNL     1     149.771 156.597 159.492  1.00  0.00    -0.350 N 
ATOM      3  H   UNL     1     148.920 156.895 160.023  1.00  0.00     0.345 HD
ATOM      4  H   UNL     1     150.185 155.755 159.957  1.00  0.00     0.345 HD
ATOM      5  H   UNL     1     150.491 157.353 159.528  1.00  0.00     0.345 HD
ENDBRANCH   1   2
BRANCH   1   6
ATOM      6  C   UNL     1     148.843 154.897 158.018  1.00  0.00     0.099 C 
ATOM      7  O   UNL     1     147.875 154.656 157.250  1.00  0.00    -0.544 OA
ATOM      8  O   UNL     1     149.377 153.875 158.792  1.00  0.00    -0.544 OA
ENDBRANCH   1   6
BRANCH   1   9
ATOM      9  C   UNL     1     148.452 157.337 157.488  1.00  0.00     0.047 C 
ATOM     10  C   UNL     1     148.963 157.855 156.131  1.00  0.00     0.014 C 
ATOM     11  C   UNL     1     148.234 158.531 158.432  1.00  0.00     0.014 C 
ENDBRANCH   1   9
TORSDOF 3
ENDMDL
MODEL 9
REMARK VINA RESULT:    -3.570     11.308     12.020
REMARK INTER + INTRA:          -4.152
REMARK INTER:                  -4.092
REMARK INTRA:                  -0.061
REMARK UNBOUND:                -0.060
REMARK SMILES CC(C)[C@@H]([NH3+])C(=O)[O-]
REMARK SMILES IDX 4 1 5 2 6 6 7 7 8 8 2 9 1 10 3 11
REMARK H PARENT 5 3 5 4 5 5
REMARK Flexibility Score: inf
ROOT
ATOM      1  C   UNL     1     167.645 157.055 158.178  1.00  0.00     0.230 C 
ENDROOT
BRANCH   1   2
ATOM      2  N   UNL     1     167.015 157.978 159.136  1.00  0.00    -0.350 N 
ATOM      3  H   UNL     1     166.104 158.333 158.763  1.00  0.00     0.345 HD
ATOM      4  H   UNL     1     166.843 157.490 160.046  1.00  0.00     0.345 HD
ATOM      5  H   UNL     1     167.651 158.783 159.334  1.00  0.00     0.345 HD
ENDBRANCH   1   2
BRANCH   1   6
ATOM      6  C   UNL     1     167.623 155.655 158.742  1.00  0.00     0.099 C 
ATOM      7  O   UNL     1     167.498 154.662 157.977  1.00  0.00    -0.544 OA
ATOM      8  O   UNL     1     167.749 155.456 160.111  1.00  0.00    -0.544 OA
ENDBRANCH   1   6
BRANCH   1   9
ATOM      9  C   UNL     1     166.954 157.104 156.783  1.00  0.00     0.047 C 
ATOM     10  C   UNL     1     167.848 157.804 155.742  1.00  0.00     0.014 C 
ATOM     11  C   UNL     1     165.594 157.821 156.840  1.00  0.00     0.014 C 
ENDBRANCH   1   9
TORSDOF 3
ENDMDL
