MODEL 1
REMARK VINA RESULT:    -4.458      0.000      0.000
REMARK INTER + INTRA:          -7.039
REMARK INTER:                  -5.501
REMARK INTRA:                  -1.538
REMARK UNBOUND:                -1.538
REMARK SMILES CC(C)=CCC[C@H](C)c1ccc(C)cc1
REMARK SMILES IDX 6 1 7 2 8 3 9 4 13 5 12 6 11 7 14 8 10 9 15 10 5 11 4 12
REMARK SMILES IDX 2 13 1 14 3 15
REMARK H PARENT
REMARK Flexibility Score: inf
ROOT
ATOM      1  C   UNL     1      -2.493 -11.959  52.085  1.00  0.00     0.012 C 
ENDROOT
BRANCH   1   2
ATOM      2  C   UNL     1      -3.130 -10.769  52.837  1.00  0.00     0.016 C 
ATOM      3  C   UNL     1      -2.104  -9.675  53.172  1.00  0.00     0.013 C 
BRANCH   2   4
ATOM      4  C   UNL     1      -3.822 -11.251  54.099  1.00  0.00    -0.045 A 
ATOM      5  C   UNL     1      -5.754 -12.670  57.692  1.00  0.00     0.044 C 
ATOM      6  C   UNL     1      -5.110 -12.166  56.435  1.00  0.00    -0.051 A 
ATOM      7  C   UNL     1      -4.572 -10.873  56.385  1.00  0.00     0.004 A 
ATOM      8  C   UNL     1      -4.979 -13.009  55.322  1.00  0.00     0.004 A 
ATOM      9  C   UNL     1      -3.938 -10.416  55.226  1.00  0.00     0.004 A 
ATOM     10  C   UNL     1      -4.345 -12.555  54.162  1.00  0.00     0.004 A 
ENDBRANCH   2   4
ENDBRANCH   1   2
BRANCH   1  11
ATOM     11  C   UNL     1      -1.035 -12.210  52.501  1.00  0.00     0.028 C 
BRANCH  11  12
ATOM     12  C   UNL     1      -0.916 -13.498  53.276  1.00  0.00    -0.028 C 
ATOM     13  C   UNL     1      -0.740 -13.571  54.614  1.00  0.00    -0.080 C 
ATOM     14  C   UNL     1      -0.597 -14.931  55.248  1.00  0.00     0.039 C 
ATOM     15  C   UNL     1      -0.702 -12.336  55.485  1.00  0.00     0.039 C 
ENDBRANCH  11  12
ENDBRANCH   1  11
TORSDOF 4
ENDMDL
MODEL 2
REMARK VINA RESULT:    -4.208      1.613      4.721
REMARK INTER + INTRA:          -6.730
REMARK INTER:                  -5.181
REMARK INTRA:                  -1.549
REMARK UNBOUND:                -1.538
REMARK SMILES CC(C)=CCC[C@H](C)c1ccc(C)cc1
REMARK SMILES IDX 6 1 7 2 8 3 9 4 13 5 12 6 11 7 14 8 10 9 15 10 5 11 4 12
REMARK SMILES IDX 2 13 1 14 3 15
REMARK H PARENT
REMARK Flexibility Score: inf
ROOT
ATOM      1  C   UNL     1      -4.567 -12.748  57.957  1.00  0.00     0.012 C 
ENDROOT
BRANCH   1   2
ATOM      2  C   UNL     1      -4.335 -11.374  57.286  1.00  0.00     0.016 C 
ATOM      3  C   UNL     1      -5.629 -10.552  57.180  1.00  0.00     0.013 C 
BRANCH   2   4
ATOM      4  C   UNL     1      -3.709 -11.555  55.915  1.00  0.00    -0.045 A 
ATOM      5  C   UNL     1      -1.936 -12.130  52.019  1.00  0.00     0.044 C 
ATOM      6  C   UNL     1      -2.532 -11.908  53.377  1.00  0.00    -0.051 A 
ATOM      7  C   UNL     1      -3.615 -11.032  53.539  1.00  0.00     0.004 A 
ATOM      8  C   UNL     1      -2.057 -12.626  54.484  1.00  0.00     0.004 A 
ATOM      9  C   UNL     1      -4.196 -10.853  54.798  1.00  0.00     0.004 A 
ATOM     10  C   UNL     1      -2.636 -12.448  55.743  1.00  0.00     0.004 A 
ENDBRANCH   2   4
ENDBRANCH   1   2
BRANCH   1  11
ATOM     11  C   UNL     1      -5.735 -13.523  57.328  1.00  0.00     0.028 C 
BRANCH  11  12
ATOM     12  C   UNL     1      -5.237 -14.772  56.644  1.00  0.00    -0.028 C 
ATOM     13  C   UNL     1      -5.327 -15.001  55.314  1.00  0.00    -0.080 C 
ATOM     14  C   UNL     1      -4.823 -16.315  54.776  1.00  0.00     0.039 C 
ATOM     15  C   UNL     1      -5.898 -13.977  54.362  1.00  0.00     0.039 C 
ENDBRANCH  11  12
ENDBRANCH   1  11
TORSDOF 4
ENDMDL
MODEL 3
REMARK VINA RESULT:    -4.128      1.701      4.657
REMARK INTER + INTRA:          -6.631
REMARK INTER:                  -5.145
REMARK INTRA:                  -1.486
REMARK UNBOUND:                -1.538
REMARK SMILES CC(C)=CCC[C@H](C)c1ccc(C)cc1
REMARK SMILES IDX 6 1 7 2 8 3 9 4 13 5 12 6 11 7 14 8 10 9 15 10 5 11 4 12
REMARK SMILES IDX 2 13 1 14 3 15
REMARK H PARENT
REMARK Flexibility Score: inf
ROOT
ATOM      1  C   UNL     1      -4.594 -11.078  57.097  1.00  0.00     0.012 C 
ENDROOT
BRANCH   1   2
ATOM      2  C   UNL     1      -5.412 -12.361  56.828  1.00  0.00     0.016 C 
ATOM      3  C   UNL     1      -5.727 -13.133  58.119  1.00  0.00     0.013 C 
BRANCH   2   4
ATOM      4  C   UNL     1      -4.682 -13.255  55.842  1.00  0.00    -0.045 A 
ATOM      5  C   UNL     1      -2.589 -15.834  53.080  1.00  0.00     0.044 C 
ATOM      6  C   UNL     1      -3.310 -14.915  54.021  1.00  0.00    -0.051 A 
ATOM      7  C   UNL     1      -4.677 -14.656  53.849  1.00  0.00     0.004 A 
ATOM      8  C   UNL     1      -2.638 -14.362  55.121  1.00  0.00     0.004 A 
ATOM      9  C   UNL     1      -5.357 -13.830  54.748  1.00  0.00     0.004 A 
ATOM     10  C   UNL     1      -3.316 -13.535  56.021  1.00  0.00     0.004 A 
ENDBRANCH   2   4
ENDBRANCH   1   2
BRANCH   1  11
ATOM     11  C   UNL     1      -4.589 -10.117  55.898  1.00  0.00     0.028 C 
BRANCH  11  12
ATOM     12  C   UNL     1      -3.176  -9.818  55.461  1.00  0.00    -0.028 C 
ATOM     13  C   UNL     1      -2.638 -10.223  54.290  1.00  0.00    -0.080 C 
ATOM     14  C   UNL     1      -1.197  -9.884  54.006  1.00  0.00     0.039 C 
ATOM     15  C   UNL     1      -3.439 -10.985  53.261  1.00  0.00     0.039 C 
ENDBRANCH  11  12
ENDBRANCH   1  11
TORSDOF 4
ENDMDL
MODEL 4
REMARK VINA RESULT:    -4.074      1.669      2.798
REMARK INTER + INTRA:          -6.564
REMARK INTER:                  -5.098
REMARK INTRA:                  -1.466
REMARK UNBOUND:                -1.538
REMARK SMILES CC(C)=CCC[C@H](C)c1ccc(C)cc1
REMARK SMILES IDX 6 1 7 2 8 3 9 4 13 5 12 6 11 7 14 8 10 9 15 10 5 11 4 12
REMARK SMILES IDX 2 13 1 14 3 15
REMARK H PARENT
REMARK Flexibility Score: inf
ROOT
ATOM      1  C   UNL     1      -1.546  -9.695  54.231  1.00  0.00     0.012 C 
ENDROOT
BRANCH   1   2
ATOM      2  C   UNL     1      -2.340  -9.064  55.397  1.00  0.00     0.016 C 
ATOM      3  C   UNL     1      -1.427  -8.343  56.401  1.00  0.00     0.013 C 
BRANCH   2   4
ATOM      4  C   UNL     1      -3.173 -10.120  56.101  1.00  0.00    -0.045 A 
ATOM      5  C   UNL     1      -5.580 -13.125  58.058  1.00  0.00     0.044 C 
ATOM      6  C   UNL     1      -4.739 -12.069  57.405  1.00  0.00    -0.051 A 
ATOM      7  C   UNL     1      -3.365 -12.276  57.216  1.00  0.00     0.004 A 
ATOM      8  C   UNL     1      -5.331 -10.895  56.917  1.00  0.00     0.004 A 
ATOM      9  C   UNL     1      -2.588 -11.308  56.574  1.00  0.00     0.004 A 
ATOM     10  C   UNL     1      -4.555  -9.926  56.275  1.00  0.00     0.004 A 
ENDBRANCH   2   4
ENDBRANCH   1   2
BRANCH   1  11
ATOM     11  C   UNL     1      -2.456 -10.201  53.101  1.00  0.00     0.028 C 
BRANCH  11  12
ATOM     12  C   UNL     1      -2.225 -11.671  52.848  1.00  0.00    -0.028 C 
ATOM     13  C   UNL     1      -3.134 -12.640  53.096  1.00  0.00    -0.080 C 
ATOM     14  C   UNL     1      -2.747 -14.072  52.832  1.00  0.00     0.039 C 
ATOM     15  C   UNL     1      -4.519 -12.326  53.611  1.00  0.00     0.039 C 
ENDBRANCH  11  12
ENDBRANCH   1  11
TORSDOF 4
ENDMDL
MODEL 5
REMARK VINA RESULT:    -4.043      1.645      3.494
REMARK INTER + INTRA:          -6.526
REMARK INTER:                  -5.016
REMARK INTRA:                  -1.511
REMARK UNBOUND:                -1.538
REMARK SMILES CC(C)=CCC[C@H](C)c1ccc(C)cc1
REMARK SMILES IDX 6 1 7 2 8 3 9 4 13 5 12 6 11 7 14 8 10 9 15 10 5 11 4 12
REMARK SMILES IDX 2 13 1 14 3 15
REMARK H PARENT
REMARK Flexibility Score: inf
ROOT
ATOM      1  C   UNL     1      -3.206 -10.162  55.451  1.00  0.00     0.012 C 
ENDROOT
BRANCH   1   2
ATOM      2  C   UNL     1      -4.488 -10.994  55.677  1.00  0.00     0.016 C 
ATOM      3  C   UNL     1      -5.003 -10.891  57.121  1.00  0.00     0.013 C 
BRANCH   2   4
ATOM      4  C   UNL     1      -4.248 -12.446  55.303  1.00  0.00    -0.045 A 
ATOM      5  C   UNL     1      -3.564 -16.561  54.182  1.00  0.00     0.044 C 
ATOM      6  C   UNL     1      -3.818 -15.142  54.594  1.00  0.00    -0.051 A 
ATOM      7  C   UNL     1      -2.953 -14.500  55.492  1.00  0.00     0.004 A 
ATOM      8  C   UNL     1      -4.884 -14.422  54.033  1.00  0.00     0.004 A 
ATOM      9  C   UNL     1      -3.169 -13.166  55.848  1.00  0.00     0.004 A 
ATOM     10  C   UNL     1      -5.100 -13.088  54.387  1.00  0.00     0.004 A 
ENDBRANCH   2   4
ENDBRANCH   1   2
BRANCH   1  11
ATOM     11  C   UNL     1      -2.818 -10.064  53.967  1.00  0.00     0.028 C 
BRANCH  11  12
ATOM     12  C   UNL     1      -1.500 -10.753  53.715  1.00  0.00    -0.028 C 
ATOM     13  C   UNL     1      -1.321 -11.757  52.828  1.00  0.00    -0.080 C 
ATOM     14  C   UNL     1       0.047 -12.379  52.712  1.00  0.00     0.039 C 
ATOM     15  C   UNL     1      -2.443 -12.256  51.947  1.00  0.00     0.039 C 
ENDBRANCH  11  12
ENDBRANCH   1  11
TORSDOF 4
ENDMDL
MODEL 6
REMARK VINA RESULT:    -4.028      1.659      3.741
REMARK INTER + INTRA:          -6.508
REMARK INTER:                  -5.029
REMARK INTRA:                  -1.478
REMARK UNBOUND:                -1.538
REMARK SMILES CC(C)=CCC[C@H](C)c1ccc(C)cc1
REMARK SMILES IDX 6 1 7 2 8 3 9 4 13 5 12 6 11 7 14 8 10 9 15 10 5 11 4 12
REMARK SMILES IDX 2 13 1 14 3 15
REMARK H PARENT
REMARK Flexibility Score: inf
ROOT
ATOM      1  C   UNL     1      -4.572 -10.162  55.750  1.00  0.00     0.012 C 
ENDROOT
BRANCH   1   2
ATOM      2  C   UNL     1      -4.801 -11.115  56.945  1.00  0.00     0.016 C 
ATOM      3  C   UNL     1      -3.802 -10.870  58.086  1.00  0.00     0.013 C 
BRANCH   2   4
ATOM      4  C   UNL     1      -4.738 -12.561  56.487  1.00  0.00    -0.045 A 
ATOM      5  C   UNL     1      -4.533 -16.656  55.130  1.00  0.00     0.044 C 
ATOM      6  C   UNL     1      -4.629 -15.241  55.616  1.00  0.00    -0.051 A 
ATOM      7  C   UNL     1      -4.011 -14.862  56.816  1.00  0.00     0.004 A 
ATOM      8  C   UNL     1      -5.280 -14.270  54.841  1.00  0.00     0.004 A 
ATOM      9  C   UNL     1      -4.068 -13.535  57.251  1.00  0.00     0.004 A 
ATOM     10  C   UNL     1      -5.338 -12.942  55.274  1.00  0.00     0.004 A 
ENDBRANCH   2   4
ENDBRANCH   1   2
BRANCH   1  11
ATOM     11  C   UNL     1      -3.117 -10.171  55.256  1.00  0.00     0.028 C 
BRANCH  11  12
ATOM     12  C   UNL     1      -3.049 -10.583  53.807  1.00  0.00    -0.028 C 
ATOM     13  C   UNL     1      -2.431 -11.698  53.358  1.00  0.00    -0.080 C 
ATOM     14  C   UNL     1      -2.409 -11.959  51.874  1.00  0.00     0.039 C 
ATOM     15  C   UNL     1      -1.782 -12.687  54.297  1.00  0.00     0.039 C 
ENDBRANCH  11  12
ENDBRANCH   1  11
TORSDOF 4
ENDMDL
MODEL 7
REMARK VINA RESULT:    -4.027      2.815      5.062
REMARK INTER + INTRA:          -6.506
REMARK INTER:                  -5.769
REMARK INTRA:                  -0.737
REMARK UNBOUND:                -1.538
REMARK SMILES CC(C)=CCC[C@H](C)c1ccc(C)cc1
REMARK SMILES IDX 6 1 7 2 8 3 9 4 13 5 12 6 11 7 14 8 10 9 15 10 5 11 4 12
REMARK SMILES IDX 2 13 1 14 3 15
REMARK H PARENT
REMARK Flexibility Score: inf
ROOT
ATOM      1  C   UNL     1      -6.116 -14.355  54.184  1.00  0.00     0.012 C 
ENDROOT
BRANCH   1   2
ATOM      2  C   UNL     1      -4.961 -13.924  55.117  1.00  0.00     0.016 C 
ATOM      3  C   UNL     1      -5.453 -13.572  56.529  1.00  0.00     0.013 C 
BRANCH   2   4
ATOM      4  C   UNL     1      -4.204 -12.755  54.513  1.00  0.00    -0.045 A 
ATOM      5  C   UNL     1      -2.020  -9.421  52.847  1.00  0.00     0.044 C 
ATOM      6  C   UNL     1      -2.802 -10.571  53.409  1.00  0.00    -0.051 A 
ATOM      7  C   UNL     1      -2.763 -11.825  52.783  1.00  0.00     0.004 A 
ATOM      8  C   UNL     1      -3.523 -10.420  54.602  1.00  0.00     0.004 A 
ATOM      9  C   UNL     1      -3.462 -12.907  53.327  1.00  0.00     0.004 A 
ATOM     10  C   UNL     1      -4.223 -11.500  55.147  1.00  0.00     0.004 A 
ENDBRANCH   2   4
ENDBRANCH   1   2
BRANCH   1  11
ATOM     11  C   UNL     1      -6.071 -15.852  53.840  1.00  0.00     0.028 C 
BRANCH  11  12
ATOM     12  C   UNL     1      -4.831 -16.179  53.047  1.00  0.00    -0.028 C 
ATOM     13  C   UNL     1      -4.836 -16.771  51.831  1.00  0.00    -0.080 C 
ATOM     14  C   UNL     1      -3.515 -17.074  51.174  1.00  0.00     0.039 C 
ATOM     15  C   UNL     1      -6.121 -17.116  51.115  1.00  0.00     0.039 C 
ENDBRANCH  11  12
ENDBRANCH   1  11
TORSDOF 4
ENDMDL
MODEL 8
REMARK VINA RESULT:    -3.987      2.813      4.968
REMARK INTER + INTRA:          -6.458
REMARK INTER:                  -5.454
REMARK INTRA:                  -1.004
REMARK UNBOUND:                -1.538
REMARK SMILES CC(C)=CCC[C@H](C)c1ccc(C)cc1
REMARK SMILES IDX 6 1 7 2 8 3 9 4 13 5 12 6 11 7 14 8 10 9 15 10 5 11 4 12
REMARK SMILES IDX 2 13 1 14 3 15
REMARK H PARENT
REMARK Flexibility Score: inf
ROOT
ATOM      1  C   UNL     1      -4.637 -12.644  55.303  1.00  0.00     0.012 C 
ENDROOT
BRANCH   1   2
ATOM      2  C   UNL     1      -3.884 -13.990  55.401  1.00  0.00     0.016 C 
ATOM      3  C   UNL     1      -2.358 -13.809  55.359  1.00  0.00     0.013 C 
BRANCH   2   4
ATOM      4  C   UNL     1      -4.336 -14.929  54.296  1.00  0.00    -0.045 A 
ATOM      5  C   UNL     1      -5.666 -17.563  51.142  1.00  0.00     0.044 C 
ATOM      6  C   UNL     1      -5.195 -16.673  52.253  1.00  0.00    -0.051 A 
ATOM      7  C   UNL     1      -3.880 -16.186  52.261  1.00  0.00     0.004 A 
ATOM      8  C   UNL     1      -6.086 -16.263  53.257  1.00  0.00     0.004 A 
ATOM      9  C   UNL     1      -3.452 -15.326  53.276  1.00  0.00     0.004 A 
ATOM     10  C   UNL     1      -5.659 -15.403  54.273  1.00  0.00     0.004 A 
ENDBRANCH   2   4
ENDBRANCH   1   2
BRANCH   1  11
ATOM     11  C   UNL     1      -4.670 -12.087  53.872  1.00  0.00     0.028 C 
BRANCH  11  12
ATOM     12  C   UNL     1      -3.792 -10.865  53.756  1.00  0.00    -0.028 C 
ATOM     13  C   UNL     1      -2.729 -10.765  52.927  1.00  0.00    -0.080 C 
ATOM     14  C   UNL     1      -1.919  -9.495  52.949  1.00  0.00     0.039 C 
ATOM     15  C   UNL     1      -2.347 -11.876  51.977  1.00  0.00     0.039 C 
ENDBRANCH  11  12
ENDBRANCH   1  11
TORSDOF 4
ENDMDL
MODEL 9
REMARK VINA RESULT:    -3.966      1.371      4.673
REMARK INTER + INTRA:          -6.432
REMARK INTER:                  -5.043
REMARK INTRA:                  -1.388
REMARK UNBOUND:                -1.538
REMARK SMILES CC(C)=CCC[C@H](C)c1ccc(C)cc1
REMARK SMILES IDX 6 1 7 2 8 3 9 4 13 5 12 6 11 7 14 8 10 9 15 10 5 11 4 12
REMARK SMILES IDX 2 13 1 14 3 15
REMARK H PARENT
REMARK Flexibility Score: inf
ROOT
ATOM      1  C   UNL     1      -4.156 -14.205  54.648  1.00  0.00     0.012 C 
ENDROOT
BRANCH   1   2
ATOM      2  C   UNL     1      -3.272 -13.990  53.398  1.00  0.00     0.016 C 
ATOM      3  C   UNL     1      -2.186 -15.068  53.260  1.00  0.00     0.013 C 
BRANCH   2   4
ATOM      4  C   UNL     1      -2.646 -12.608  53.426  1.00  0.00    -0.045 A 
ATOM      5  C   UNL     1      -0.809  -8.699  53.499  1.00  0.00     0.044 C 
ATOM      6  C   UNL     1      -1.468 -10.046  53.492  1.00  0.00    -0.051 A 
ATOM      7  C   UNL     1      -2.460 -10.344  52.547  1.00  0.00     0.004 A 
ATOM      8  C   UNL     1      -1.049 -11.042  54.387  1.00  0.00     0.004 A 
ATOM      9  C   UNL     1      -3.048 -11.611  52.517  1.00  0.00     0.004 A 
ATOM     10  C   UNL     1      -1.635 -12.310  54.358  1.00  0.00     0.004 A 
ENDBRANCH   2   4
ENDBRANCH   1   2
BRANCH   1  11
ATOM     11  C   UNL     1      -5.031 -12.984  54.971  1.00  0.00     0.028 C 
BRANCH  11  12
ATOM     12  C   UNL     1      -4.759 -12.490  56.370  1.00  0.00    -0.028 C 
ATOM     13  C   UNL     1      -4.480 -11.206  56.686  1.00  0.00    -0.080 C 
ATOM     14  C   UNL     1      -4.190 -10.866  58.125  1.00  0.00     0.039 C 
ATOM     15  C   UNL     1      -4.469 -10.110  55.645  1.00  0.00     0.039 C 
ENDBRANCH  11  12
ENDBRANCH   1  11
TORSDOF 4
ENDMDL
