MODEL 1
REMARK VINA RESULT:    -4.136      0.000      0.000
REMARK INTER + INTRA:          -4.977
REMARK INTER:                  -4.740
REMARK INTRA:                  -0.236
REMARK UNBOUND:                -0.236
REMARK SMILES CC=Cc1ccc(O)c(OC)c1
REMARK SMILES IDX 4 1 12 2 9 3 7 4 6 5 5 6 3 7 1 8 2 9 10 10 11 11 8 12
REMARK H PARENT 8 13
REMARK Flexibility Score: inf
ROOT
ATOM      1  C   UNL     1      26.569  41.285  20.862  1.00  0.00    -0.022 A 
ATOM      2  C   UNL     1      26.106  39.962  20.914  1.00  0.00     0.058 A 
ATOM      3  C   UNL     1      26.411  39.053  19.880  1.00  0.00     0.161 A 
ATOM      4  C   UNL     1      27.172  39.493  18.782  1.00  0.00     0.157 A 
ATOM      5  C   UNL     1      27.608  40.819  18.718  1.00  0.00     0.051 A 
ATOM      6  C   UNL     1      27.303  41.714  19.746  1.00  0.00     0.012 A 
ENDROOT
BRANCH   1   7
ATOM      7  C   UNL     1      26.208  42.218  21.948  1.00  0.00     0.003 C 
ATOM      8  C   UNL     1      28.308  41.834  23.266  1.00  0.00     0.035 C 
ATOM      9  C   UNL     1      26.982  42.485  23.009  1.00  0.00    -0.030 C 
ENDBRANCH   1   7
BRANCH   3  10
ATOM     10  O   UNL     1      25.977  37.718  19.913  1.00  0.00    -0.493 OA
ATOM     11  C   UNL     1      25.167  37.156  20.941  1.00  0.00     0.278 C 
ENDBRANCH   3  10
BRANCH   4  12
ATOM     12  O   UNL     1      27.499  38.627  17.739  1.00  0.00    -0.504 OA
ATOM     13  H   UNL     1      27.405  38.893  16.766  1.00  0.00     0.293 HD
ENDBRANCH   4  12
TORSDOF 3
ENDMDL
MODEL 2
REMARK VINA RESULT:    -4.091      1.412      3.029
REMARK INTER + INTRA:          -4.925
REMARK INTER:                  -4.671
REMARK INTRA:                  -0.255
REMARK UNBOUND:                -0.236
REMARK SMILES CC=Cc1ccc(O)c(OC)c1
REMARK SMILES IDX 4 1 12 2 9 3 7 4 6 5 5 6 3 7 1 8 2 9 10 10 11 11 8 12
REMARK H PARENT 8 13
REMARK Flexibility Score: inf
ROOT
ATOM      1  C   UNL     1      27.506  41.504  20.183  1.00  0.00    -0.022 A 
ATOM      2  C   UNL     1      27.931  40.632  19.171  1.00  0.00     0.058 A 
ATOM      3  C   UNL     1      27.303  39.383  18.987  1.00  0.00     0.161 A 
ATOM      4  C   UNL     1      26.253  39.011  19.845  1.00  0.00     0.157 A 
ATOM      5  C   UNL     1      25.850  39.869  20.873  1.00  0.00     0.051 A 
ATOM      6  C   UNL     1      26.476  41.105  21.048  1.00  0.00     0.012 A 
ENDROOT
BRANCH   1   7
ATOM      7  C   UNL     1      28.205  42.792  20.365  1.00  0.00     0.003 C 
ATOM      8  C   UNL     1      26.647  44.090  18.888  1.00  0.00     0.035 C 
ATOM      9  C   UNL     1      27.819  43.951  19.812  1.00  0.00    -0.030 C 
ENDBRANCH   1   7
BRANCH   3  10
ATOM     10  O   UNL     1      27.694  38.497  17.971  1.00  0.00    -0.493 OA
ATOM     11  C   UNL     1      28.967  37.860  17.898  1.00  0.00     0.278 C 
ENDBRANCH   3  10
BRANCH   4  12
ATOM     12  O   UNL     1      25.601  37.786  19.699  1.00  0.00    -0.504 OA
ATOM     13  H   UNL     1      26.097  36.903  19.735  1.00  0.00     0.293 HD
ENDBRANCH   4  12
TORSDOF 3
ENDMDL
MODEL 3
REMARK VINA RESULT:    -4.012      3.372      5.000
REMARK INTER + INTRA:          -4.834
REMARK INTER:                  -4.627
REMARK INTRA:                  -0.207
REMARK UNBOUND:                -0.236
REMARK SMILES CC=Cc1ccc(O)c(OC)c1
REMARK SMILES IDX 4 1 12 2 9 3 7 4 6 5 5 6 3 7 1 8 2 9 10 10 11 11 8 12
REMARK H PARENT 8 13
REMARK Flexibility Score: inf
ROOT
ATOM      1  C   UNL     1      28.188  36.255  21.642  1.00  0.00    -0.022 A 
ATOM      2  C   UNL     1      26.838  36.605  21.789  1.00  0.00     0.058 A 
ATOM      3  C   UNL     1      26.208  37.450  20.852  1.00  0.00     0.161 A 
ATOM      4  C   UNL     1      26.957  37.957  19.774  1.00  0.00     0.157 A 
ATOM      5  C   UNL     1      28.310  37.631  19.646  1.00  0.00     0.051 A 
ATOM      6  C   UNL     1      28.926  36.792  20.577  1.00  0.00     0.012 A 
ENDROOT
BRANCH   1   7
ATOM      7  C   UNL     1      28.823  35.390  22.657  1.00  0.00     0.003 C 
ATOM      8  C   UNL     1      28.760  33.319  21.242  1.00  0.00     0.035 C 
ATOM      9  C   UNL     1      29.101  34.091  22.482  1.00  0.00    -0.030 C 
ENDBRANCH   1   7
BRANCH   3  10
ATOM     10  O   UNL     1      24.854  37.803  20.963  1.00  0.00    -0.493 OA
ATOM     11  C   UNL     1      23.810  36.902  21.317  1.00  0.00     0.278 C 
ENDBRANCH   3  10
BRANCH   4  12
ATOM     12  O   UNL     1      26.374  38.794  18.823  1.00  0.00    -0.504 OA
ATOM     13  H   UNL     1      26.135  38.471  17.893  1.00  0.00     0.293 HD
ENDBRANCH   4  12
TORSDOF 3
ENDMDL
MODEL 4
REMARK VINA RESULT:    -3.963     13.261     15.013
REMARK INTER + INTRA:          -4.778
REMARK INTER:                  -4.520
REMARK INTRA:                  -0.259
REMARK UNBOUND:                -0.236
REMARK SMILES CC=Cc1ccc(O)c(OC)c1
REMARK SMILES IDX 4 1 12 2 9 3 7 4 6 5 5 6 3 7 1 8 2 9 10 10 11 11 8 12
REMARK H PARENT 8 13
REMARK Flexibility Score: inf
ROOT
ATOM      1  C   UNL     1      26.766  27.651  28.268  1.00  0.00    -0.022 A 
ATOM      2  C   UNL     1      25.413  27.683  27.901  1.00  0.00     0.058 A 
ATOM      3  C   UNL     1      24.461  28.324  28.720  1.00  0.00     0.161 A 
ATOM      4  C   UNL     1      24.880  28.918  29.924  1.00  0.00     0.157 A 
ATOM      5  C   UNL     1      26.225  28.859  30.303  1.00  0.00     0.051 A 
ATOM      6  C   UNL     1      27.162  28.223  29.486  1.00  0.00     0.012 A 
ENDROOT
BRANCH   1   7
ATOM      7  C   UNL     1      27.732  26.946  27.401  1.00  0.00     0.003 C 
ATOM      8  C   UNL     1      28.341  28.980  26.065  1.00  0.00     0.035 C 
ATOM      9  C   UNL     1      28.452  27.531  26.434  1.00  0.00    -0.030 C 
ENDBRANCH   1   7
BRANCH   3  10
ATOM     10  O   UNL     1      23.103  28.389  28.369  1.00  0.00    -0.493 OA
ATOM     11  C   UNL     1      22.193  27.296  28.455  1.00  0.00     0.278 C 
ENDBRANCH   3  10
BRANCH   4  12
ATOM     12  O   UNL     1      23.973  29.565  30.763  1.00  0.00    -0.504 OA
ATOM     13  H   UNL     1      23.518  29.091  31.534  1.00  0.00     0.293 HD
ENDBRANCH   4  12
TORSDOF 3
ENDMDL
MODEL 5
REMARK VINA RESULT:    -3.946      4.882      6.443
REMARK INTER + INTRA:          -4.759
REMARK INTER:                  -4.551
REMARK INTRA:                  -0.207
REMARK UNBOUND:                -0.236
REMARK SMILES CC=Cc1ccc(O)c(OC)c1
REMARK SMILES IDX 4 1 12 2 9 3 7 4 6 5 5 6 3 7 1 8 2 9 10 10 11 11 8 12
REMARK H PARENT 8 13
REMARK Flexibility Score: inf
ROOT
ATOM      1  C   UNL     1      28.456  35.929  21.687  1.00  0.00    -0.022 A 
ATOM      2  C   UNL     1      28.172  35.164  22.828  1.00  0.00     0.058 A 
ATOM      3  C   UNL     1      28.383  33.770  22.830  1.00  0.00     0.161 A 
ATOM      4  C   UNL     1      28.865  33.147  21.664  1.00  0.00     0.157 A 
ATOM      5  C   UNL     1      29.119  33.907  20.519  1.00  0.00     0.051 A 
ATOM      6  C   UNL     1      28.909  35.287  20.524  1.00  0.00     0.012 A 
ENDROOT
BRANCH   1   7
ATOM      7  C   UNL     1      28.197  37.382  21.711  1.00  0.00     0.003 C 
ATOM      8  C   UNL     1      25.902  37.206  20.714  1.00  0.00     0.035 C 
ATOM      9  C   UNL     1      27.058  37.958  21.301  1.00  0.00    -0.030 C 
ENDBRANCH   1   7
BRANCH   3  10
ATOM     10  O   UNL     1      28.126  32.982  23.963  1.00  0.00    -0.493 OA
ATOM     11  C   UNL     1      29.096  32.640  24.949  1.00  0.00     0.278 C 
ENDBRANCH   3  10
BRANCH   4  12
ATOM     12  O   UNL     1      29.090  31.771  21.623  1.00  0.00    -0.504 OA
ATOM     13  H   UNL     1      29.509  31.317  20.820  1.00  0.00     0.293 HD
ENDBRANCH   4  12
TORSDOF 3
ENDMDL
MODEL 6
REMARK VINA RESULT:    -3.901     14.965     16.134
REMARK INTER + INTRA:          -4.707
REMARK INTER:                  -4.472
REMARK INTRA:                  -0.235
REMARK UNBOUND:                -0.236
REMARK SMILES CC=Cc1ccc(O)c(OC)c1
REMARK SMILES IDX 4 1 12 2 9 3 7 4 6 5 5 6 3 7 1 8 2 9 10 10 11 11 8 12
REMARK H PARENT 8 13
REMARK Flexibility Score: inf
ROOT
ATOM      1  C   UNL     1      26.590  26.891  28.783  1.00  0.00    -0.022 A 
ATOM      2  C   UNL     1      25.315  27.039  28.219  1.00  0.00     0.058 A 
ATOM      3  C   UNL     1      24.417  28.006  28.716  1.00  0.00     0.161 A 
ATOM      4  C   UNL     1      24.808  28.813  29.800  1.00  0.00     0.157 A 
ATOM      5  C   UNL     1      26.069  28.644  30.379  1.00  0.00     0.051 A 
ATOM      6  C   UNL     1      26.953  27.684  29.881  1.00  0.00     0.012 A 
ENDROOT
BRANCH   1   7
ATOM      7  C   UNL     1      27.495  25.849  28.256  1.00  0.00     0.003 C 
ATOM      8  C   UNL     1      26.729  24.074  29.856  1.00  0.00     0.035 C 
ATOM      9  C   UNL     1      27.549  24.589  28.711  1.00  0.00    -0.030 C 
ENDBRANCH   1   7
BRANCH   3  10
ATOM     10  O   UNL     1      23.141  28.190  28.160  1.00  0.00    -0.493 OA
ATOM     11  C   UNL     1      22.037  27.313  28.363  1.00  0.00     0.278 C 
ENDBRANCH   3  10
BRANCH   4  12
ATOM     12  O   UNL     1      23.953  29.784  30.321  1.00  0.00    -0.504 OA
ATOM     13  H   UNL     1      24.078  30.771  30.132  1.00  0.00     0.293 HD
ENDBRANCH   4  12
TORSDOF 3
ENDMDL
MODEL 7
REMARK VINA RESULT:    -3.882      1.825      2.583
REMARK INTER + INTRA:          -4.686
REMARK INTER:                  -4.453
REMARK INTRA:                  -0.233
REMARK UNBOUND:                -0.236
REMARK SMILES CC=Cc1ccc(O)c(OC)c1
REMARK SMILES IDX 4 1 12 2 9 3 7 4 6 5 5 6 3 7 1 8 2 9 10 10 11 11 8 12
REMARK H PARENT 8 13
REMARK Flexibility Score: inf
ROOT
ATOM      1  C   UNL     1      26.780  40.513  21.262  1.00  0.00    -0.022 A 
ATOM      2  C   UNL     1      25.802  39.597  20.848  1.00  0.00     0.058 A 
ATOM      3  C   UNL     1      26.075  38.214  20.825  1.00  0.00     0.161 A 
ATOM      4  C   UNL     1      27.351  37.761  21.205  1.00  0.00     0.157 A 
ATOM      5  C   UNL     1      28.335  38.677  21.589  1.00  0.00     0.051 A 
ATOM      6  C   UNL     1      28.057  40.045  21.610  1.00  0.00     0.012 A 
ENDROOT
BRANCH   1   7
ATOM      7  C   UNL     1      26.469  41.956  21.247  1.00  0.00     0.003 C 
ATOM      8  C   UNL     1      27.375  42.346  18.940  1.00  0.00     0.035 C 
ATOM      9  C   UNL     1      26.709  42.775  20.213  1.00  0.00    -0.030 C 
ENDBRANCH   1   7
BRANCH   3  10
ATOM     10  O   UNL     1      25.110  37.273  20.433  1.00  0.00    -0.493 OA
ATOM     11  C   UNL     1      23.946  36.946  21.187  1.00  0.00     0.278 C 
ENDBRANCH   3  10
BRANCH   4  12
ATOM     12  O   UNL     1      27.665  36.401  21.200  1.00  0.00    -0.504 OA
ATOM     13  H   UNL     1      26.983  35.689  21.434  1.00  0.00     0.293 HD
ENDBRANCH   4  12
TORSDOF 3
ENDMDL
MODEL 8
REMARK VINA RESULT:    -3.871     12.276     14.536
REMARK INTER + INTRA:          -4.673
REMARK INTER:                  -4.429
REMARK INTRA:                  -0.244
REMARK UNBOUND:                -0.236
REMARK SMILES CC=Cc1ccc(O)c(OC)c1
REMARK SMILES IDX 4 1 12 2 9 3 7 4 6 5 5 6 3 7 1 8 2 9 10 10 11 11 8 12
REMARK H PARENT 8 13
REMARK Flexibility Score: inf
ROOT
ATOM      1  C   UNL     1      27.790  28.039  27.176  1.00  0.00    -0.022 A 
ATOM      2  C   UNL     1      26.482  27.545  27.288  1.00  0.00     0.058 A 
ATOM      3  C   UNL     1      25.756  27.700  28.487  1.00  0.00     0.161 A 
ATOM      4  C   UNL     1      26.366  28.341  29.581  1.00  0.00     0.157 A 
ATOM      5  C   UNL     1      27.680  28.806  29.476  1.00  0.00     0.051 A 
ATOM      6  C   UNL     1      28.393  28.650  28.286  1.00  0.00     0.012 A 
ENDROOT
BRANCH   1   7
ATOM      7  C   UNL     1      28.532  27.835  25.915  1.00  0.00     0.003 C 
ATOM      8  C   UNL     1      27.697  29.939  24.834  1.00  0.00     0.035 C 
ATOM      9  C   UNL     1      28.514  28.683  24.878  1.00  0.00    -0.030 C 
ENDBRANCH   1   7
BRANCH   3  10
ATOM     10  O   UNL     1      24.439  27.233  28.623  1.00  0.00    -0.493 OA
ATOM     11  C   UNL     1      23.276  27.976  28.270  1.00  0.00     0.278 C 
ENDBRANCH   3  10
BRANCH   4  12
ATOM     12  O   UNL     1      25.684  28.518  30.784  1.00  0.00    -0.504 OA
ATOM     13  H   UNL     1      25.254  27.746  31.280  1.00  0.00     0.293 HD
ENDBRANCH   4  12
TORSDOF 3
ENDMDL
MODEL 9
REMARK VINA RESULT:    -3.865      2.107      3.959
REMARK INTER + INTRA:          -4.666
REMARK INTER:                  -4.438
REMARK INTRA:                  -0.229
REMARK UNBOUND:                -0.236
REMARK SMILES CC=Cc1ccc(O)c(OC)c1
REMARK SMILES IDX 4 1 12 2 9 3 7 4 6 5 5 6 3 7 1 8 2 9 10 10 11 11 8 12
REMARK H PARENT 8 13
REMARK Flexibility Score: inf
ROOT
ATOM      1  C   UNL     1      26.327  38.807  20.150  1.00  0.00    -0.022 A 
ATOM      2  C   UNL     1      26.050  39.920  20.957  1.00  0.00     0.058 A 
ATOM      3  C   UNL     1      26.538  41.197  20.613  1.00  0.00     0.161 A 
ATOM      4  C   UNL     1      27.326  41.342  19.457  1.00  0.00     0.157 A 
ATOM      5  C   UNL     1      27.625  40.226  18.669  1.00  0.00     0.051 A 
ATOM      6  C   UNL     1      27.137  38.965  19.016  1.00  0.00     0.012 A 
ENDROOT
BRANCH   1   7
ATOM      7  C   UNL     1      25.823  37.480  20.555  1.00  0.00     0.003 C 
ATOM      8  C   UNL     1      27.773  36.957  22.045  1.00  0.00     0.035 C 
ATOM      9  C   UNL     1      26.446  36.659  21.412  1.00  0.00    -0.030 C 
ENDBRANCH   1   7
BRANCH   3  10
ATOM     10  O   UNL     1      26.263  42.332  21.392  1.00  0.00    -0.493 OA
ATOM     11  C   UNL     1      26.885  42.629  22.638  1.00  0.00     0.278 C 
ENDBRANCH   3  10
BRANCH   4  12
ATOM     12  O   UNL     1      27.828  42.587  19.077  1.00  0.00    -0.504 OA
ATOM     13  H   UNL     1      28.037  42.813  18.112  1.00  0.00     0.293 HD
ENDBRANCH   4  12
TORSDOF 3
ENDMDL
