MODEL 1
REMARK VINA RESULT:    -4.387      0.000      0.000
REMARK INTER + INTRA:         -15.324
REMARK INTER:                 -11.054
REMARK INTRA:                  -4.270
REMARK UNBOUND:                -4.270
REMARK SMILES CCCCCCCCCCCCCCCCCCCCCCCCCCCC(=O)[O-]
REMARK SMILES IDX 15 1 16 2 17 3 18 4 19 5 20 6 21 7 22 8 23 9 24 10 25 11
REMARK SMILES IDX 26 12 27 13 28 14 29 15 30 16 14 17 13 18 12 19 11 20 10 21
REMARK SMILES IDX 9 22 8 23 7 24 6 25 5 26 4 27 3 28 2 29 1 30
REMARK H PARENT
REMARK Flexibility Score: inf
ROOT
ATOM      1  C   UNL     1     -29.259  18.137  23.508  1.00  0.00     0.000 C 
ENDROOT
BRANCH   1   2
ATOM      2  C   UNL     1     -27.857  18.365  22.925  1.00  0.00     0.000 C 
BRANCH   2   3
ATOM      3  C   UNL     1     -27.128  19.488  23.679  1.00  0.00     0.000 C 
BRANCH   3   4
ATOM      4  C   UNL     1     -27.263  20.861  22.997  1.00  0.00     0.000 C 
BRANCH   4   5
ATOM      5  C   UNL     1     -27.941  21.950  23.849  1.00  0.00     0.000 C 
BRANCH   5   6
ATOM      6  C   UNL     1     -28.249  21.484  25.281  1.00  0.00     0.000 C 
BRANCH   6   7
ATOM      7  C   UNL     1     -28.238  22.665  26.263  1.00  0.00     0.000 C 
BRANCH   7   8
ATOM      8  C   UNL     1     -29.616  22.882  26.925  1.00  0.00     0.000 C 
BRANCH   8   9
ATOM      9  C   UNL     1     -29.690  22.368  28.374  1.00  0.00     0.000 C 
BRANCH   9  10
ATOM     10  C   UNL     1     -31.099  21.897  28.772  1.00  0.00     0.000 C 
BRANCH  10  11
ATOM     11  C   UNL     1     -31.704  22.751  29.907  1.00  0.00     0.000 C 
BRANCH  11  12
ATOM     12  C   UNL     1     -31.710  24.261  29.613  1.00  0.00     0.006 C 
BRANCH  12  13
ATOM     13  C   UNL     1     -31.985  25.113  30.857  1.00  0.00     0.053 C 
BRANCH  13  14
ATOM     14  C   UNL     1     -33.457  25.271  31.071  1.00  0.00     0.041 C 
ATOM     15  O   UNL     1     -33.933  25.243  32.237  1.00  0.00    -0.550 OA
ATOM     16  O   UNL     1     -34.308  25.399  29.981  1.00  0.00    -0.550 OA
ENDBRANCH  13  14
ENDBRANCH  12  13
ENDBRANCH  11  12
ENDBRANCH  10  11
ENDBRANCH   9  10
ENDBRANCH   8   9
ENDBRANCH   7   8
ENDBRANCH   6   7
ENDBRANCH   5   6
ENDBRANCH   4   5
ENDBRANCH   3   4
ENDBRANCH   2   3
ENDBRANCH   1   2
BRANCH   1  17
ATOM     17  C   UNL     1     -30.383  18.632  22.579  1.00  0.00     0.000 C 
BRANCH  17  18
ATOM     18  C   UNL     1     -30.944  20.025  22.919  1.00  0.00     0.000 C 
BRANCH  18  19
ATOM     19  C   UNL     1     -31.536  20.099  24.338  1.00  0.00     0.000 C 
BRANCH  19  20
ATOM     20  C   UNL     1     -33.033  19.747  24.373  1.00  0.00     0.000 C 
BRANCH  20  21
ATOM     21  C   UNL     1     -33.361  18.653  25.403  1.00  0.00     0.000 C 
BRANCH  21  22
ATOM     22  C   UNL     1     -33.998  17.434  24.725  1.00  0.00    -0.000 C 
BRANCH  22  23
ATOM     23  C   UNL     1     -32.955  16.650  23.914  1.00  0.00    -0.000 C 
BRANCH  23  24
ATOM     24  C   UNL     1     -32.739  15.220  24.443  1.00  0.00    -0.000 C 
BRANCH  24  25
ATOM     25  C   UNL     1     -32.782  15.089  25.977  1.00  0.00    -0.000 C 
BRANCH  25  26
ATOM     26  C   UNL     1     -31.431  14.659  26.577  1.00  0.00    -0.000 C 
BRANCH  26  27
ATOM     27  C   UNL     1     -30.379  15.787  26.510  1.00  0.00    -0.000 C 
BRANCH  27  28
ATOM     28  C   UNL     1     -30.563  16.870  27.588  1.00  0.00    -0.000 C 
BRANCH  28  29
ATOM     29  C   UNL     1     -30.191  18.275  27.096  1.00  0.00    -0.003 C 
ATOM     30  C   UNL     1     -28.864  18.736  27.694  1.00  0.00     0.004 C 
ENDBRANCH  28  29
ENDBRANCH  27  28
ENDBRANCH  26  27
ENDBRANCH  25  26
ENDBRANCH  24  25
ENDBRANCH  23  24
ENDBRANCH  22  23
ENDBRANCH  21  22
ENDBRANCH  20  21
ENDBRANCH  19  20
ENDBRANCH  18  19
ENDBRANCH  17  18
ENDBRANCH   1  17
TORSDOF 26
ENDMDL
MODEL 2
REMARK VINA RESULT:    -4.347      3.393      8.044
REMARK INTER + INTRA:         -15.225
REMARK INTER:                 -11.758
REMARK INTRA:                  -3.467
REMARK UNBOUND:                -4.270
REMARK SMILES CCCCCCCCCCCCCCCCCCCCCCCCCCCC(=O)[O-]
REMARK SMILES IDX 15 1 16 2 17 3 18 4 19 5 20 6 21 7 22 8 23 9 24 10 25 11
REMARK SMILES IDX 26 12 27 13 28 14 29 15 30 16 14 17 13 18 12 19 11 20 10 21
REMARK SMILES IDX 9 22 8 23 7 24 6 25 5 26 4 27 3 28 2 29 1 30
REMARK H PARENT
REMARK Flexibility Score: inf
ROOT
ATOM      1  C   UNL     1     -30.948  21.657  29.148  1.00  0.00     0.000 C 
ENDROOT
BRANCH   1   2
ATOM      2  C   UNL     1     -30.759  21.618  27.624  1.00  0.00     0.000 C 
BRANCH   2   3
ATOM      3  C   UNL     1     -29.270  21.517  27.261  1.00  0.00     0.000 C 
BRANCH   3   4
ATOM      4  C   UNL     1     -28.941  22.120  25.883  1.00  0.00     0.000 C 
BRANCH   4   5
ATOM      5  C   UNL     1     -28.708  21.094  24.760  1.00  0.00     0.000 C 
BRANCH   5   6
ATOM      6  C   UNL     1     -29.726  21.218  23.616  1.00  0.00     0.000 C 
BRANCH   6   7
ATOM      7  C   UNL     1     -30.146  19.835  23.095  1.00  0.00     0.000 C 
BRANCH   7   8
ATOM      8  C   UNL     1     -31.118  19.122  24.060  1.00  0.00     0.000 C 
BRANCH   8   9
ATOM      9  C   UNL     1     -32.353  19.964  24.422  1.00  0.00     0.000 C 
BRANCH   9  10
ATOM     10  C   UNL     1     -33.456  19.143  25.115  1.00  0.00     0.000 C 
BRANCH  10  11
ATOM     11  C   UNL     1     -33.673  17.769  24.445  1.00  0.00     0.000 C 
BRANCH  11  12
ATOM     12  C   UNL     1     -33.793  16.603  25.442  1.00  0.00     0.006 C 
BRANCH  12  13
ATOM     13  C   UNL     1     -32.831  16.729  26.629  1.00  0.00     0.053 C 
BRANCH  13  14
ATOM     14  C   UNL     1     -33.219  15.783  27.721  1.00  0.00     0.041 C 
ATOM     15  O   UNL     1     -34.132  14.937  27.529  1.00  0.00    -0.550 OA
ATOM     16  O   UNL     1     -32.606  15.867  28.964  1.00  0.00    -0.550 OA
ENDBRANCH  13  14
ENDBRANCH  12  13
ENDBRANCH  11  12
ENDBRANCH  10  11
ENDBRANCH   9  10
ENDBRANCH   8   9
ENDBRANCH   7   8
ENDBRANCH   6   7
ENDBRANCH   5   6
ENDBRANCH   4   5
ENDBRANCH   3   4
ENDBRANCH   2   3
ENDBRANCH   1   2
BRANCH   1  17
ATOM     17  C   UNL     1     -31.896  22.781  29.606  1.00  0.00     0.000 C 
BRANCH  17  18
ATOM     18  C   UNL     1     -31.309  24.202  29.525  1.00  0.00     0.000 C 
BRANCH  18  19
ATOM     19  C   UNL     1     -31.850  25.134  30.623  1.00  0.00     0.000 C 
BRANCH  19  20
ATOM     20  C   UNL     1     -33.380  25.282  30.574  1.00  0.00     0.000 C 
BRANCH  20  21
ATOM     21  C   UNL     1     -34.040  25.074  31.947  1.00  0.00     0.000 C 
BRANCH  21  22
ATOM     22  C   UNL     1     -35.362  24.310  31.810  1.00  0.00    -0.000 C 
BRANCH  22  23
ATOM     23  C   UNL     1     -35.326  23.001  32.614  1.00  0.00    -0.000 C 
BRANCH  23  24
ATOM     24  C   UNL     1     -34.048  22.857  33.462  1.00  0.00    -0.000 C 
BRANCH  24  25
ATOM     25  C   UNL     1     -33.325  21.506  33.310  1.00  0.00    -0.000 C 
BRANCH  25  26
ATOM     26  C   UNL     1     -31.819  21.663  33.036  1.00  0.00    -0.000 C 
BRANCH  26  27
ATOM     27  C   UNL     1     -31.281  23.033  33.501  1.00  0.00    -0.000 C 
BRANCH  27  28
ATOM     28  C   UNL     1     -29.745  23.127  33.500  1.00  0.00    -0.000 C 
BRANCH  28  29
ATOM     29  C   UNL     1     -29.125  22.807  32.133  1.00  0.00    -0.003 C 
ATOM     30  C   UNL     1     -27.625  22.552  32.253  1.00  0.00     0.004 C 
ENDBRANCH  28  29
ENDBRANCH  27  28
ENDBRANCH  26  27
ENDBRANCH  25  26
ENDBRANCH  24  25
ENDBRANCH  23  24
ENDBRANCH  22  23
ENDBRANCH  21  22
ENDBRANCH  20  21
ENDBRANCH  19  20
ENDBRANCH  18  19
ENDBRANCH  17  18
ENDBRANCH   1  17
TORSDOF 26
ENDMDL
MODEL 3
REMARK VINA RESULT:    -4.299      3.000      4.828
REMARK INTER + INTRA:         -15.103
REMARK INTER:                  -9.683
REMARK INTRA:                  -5.420
REMARK UNBOUND:                -4.270
REMARK SMILES CCCCCCCCCCCCCCCCCCCCCCCCCCCC(=O)[O-]
REMARK SMILES IDX 15 1 16 2 17 3 18 4 19 5 20 6 21 7 22 8 23 9 24 10 25 11
REMARK SMILES IDX 26 12 27 13 28 14 29 15 30 16 14 17 13 18 12 19 11 20 10 21
REMARK SMILES IDX 9 22 8 23 7 24 6 25 5 26 4 27 3 28 2 29 1 30
REMARK H PARENT
REMARK Flexibility Score: inf
ROOT
ATOM      1  C   UNL     1     -33.493  18.941  25.055  1.00  0.00     0.000 C 
ENDROOT
BRANCH   1   2
ATOM      2  C   UNL     1     -32.534  19.928  24.374  1.00  0.00     0.000 C 
BRANCH   2   3
ATOM      3  C   UNL     1     -31.432  19.180  23.609  1.00  0.00     0.000 C 
BRANCH   3   4
ATOM      4  C   UNL     1     -30.532  20.113  22.777  1.00  0.00     0.000 C 
BRANCH   4   5
ATOM      5  C   UNL     1     -29.069  20.197  23.246  1.00  0.00     0.000 C 
BRANCH   5   6
ATOM      6  C   UNL     1     -28.568  21.642  23.389  1.00  0.00     0.000 C 
BRANCH   6   7
ATOM      7  C   UNL     1     -28.390  22.025  24.865  1.00  0.00     0.000 C 
BRANCH   7   8
ATOM      8  C   UNL     1     -28.837  20.893  25.816  1.00  0.00     0.000 C 
BRANCH   8   9
ATOM      9  C   UNL     1     -30.011  21.285  26.730  1.00  0.00     0.000 C 
BRANCH   9  10
ATOM     10  C   UNL     1     -29.691  22.487  27.637  1.00  0.00     0.000 C 
BRANCH  10  11
ATOM     11  C   UNL     1     -29.997  22.198  29.123  1.00  0.00     0.000 C 
BRANCH  11  12
ATOM     12  C   UNL     1     -28.850  21.493  29.868  1.00  0.00     0.006 C 
BRANCH  12  13
ATOM     13  C   UNL     1     -27.469  21.822  29.289  1.00  0.00     0.053 C 
BRANCH  13  14
ATOM     14  C   UNL     1     -26.771  20.572  28.855  1.00  0.00     0.041 C 
ATOM     15  O   UNL     1     -25.562  20.612  28.507  1.00  0.00    -0.550 OA
ATOM     16  O   UNL     1     -27.469  19.373  28.787  1.00  0.00    -0.550 OA
ENDBRANCH  13  14
ENDBRANCH  12  13
ENDBRANCH  11  12
ENDBRANCH  10  11
ENDBRANCH   9  10
ENDBRANCH   8   9
ENDBRANCH   7   8
ENDBRANCH   6   7
ENDBRANCH   5   6
ENDBRANCH   4   5
ENDBRANCH   3   4
ENDBRANCH   2   3
ENDBRANCH   1   2
BRANCH   1  17
ATOM     17  C   UNL     1     -33.573  17.586  24.329  1.00  0.00     0.000 C 
BRANCH  17  18
ATOM     18  C   UNL     1     -33.819  16.371  25.242  1.00  0.00     0.000 C 
BRANCH  18  19
ATOM     19  C   UNL     1     -34.609  16.730  26.513  1.00  0.00     0.000 C 
BRANCH  19  20
ATOM     20  C   UNL     1     -34.114  15.965  27.753  1.00  0.00     0.000 C 
BRANCH  20  21
ATOM     21  C   UNL     1     -33.486  14.607  27.400  1.00  0.00     0.000 C 
BRANCH  21  22
ATOM     22  C   UNL     1     -32.221  14.355  28.228  1.00  0.00    -0.000 C 
BRANCH  22  23
ATOM     23  C   UNL     1     -31.996  15.485  29.245  1.00  0.00    -0.000 C 
BRANCH  23  24
ATOM     24  C   UNL     1     -30.584  16.091  29.161  1.00  0.00    -0.000 C 
BRANCH  24  25
ATOM     25  C   UNL     1     -30.541  17.568  28.727  1.00  0.00    -0.000 C 
BRANCH  25  26
ATOM     26  C   UNL     1     -30.901  17.764  27.243  1.00  0.00    -0.000 C 
BRANCH  26  27
ATOM     27  C   UNL     1     -29.785  17.262  26.302  1.00  0.00    -0.000 C 
BRANCH  27  28
ATOM     28  C   UNL     1     -30.172  16.005  25.500  1.00  0.00    -0.000 C 
BRANCH  28  29
ATOM     29  C   UNL     1     -29.525  15.959  24.109  1.00  0.00    -0.003 C 
ATOM     30  C   UNL     1     -30.572  15.735  23.021  1.00  0.00     0.004 C 
ENDBRANCH  28  29
ENDBRANCH  27  28
ENDBRANCH  26  27
ENDBRANCH  25  26
ENDBRANCH  24  25
ENDBRANCH  23  24
ENDBRANCH  22  23
ENDBRANCH  21  22
ENDBRANCH  20  21
ENDBRANCH  19  20
ENDBRANCH  18  19
ENDBRANCH  17  18
ENDBRANCH   1  17
TORSDOF 26
ENDMDL
MODEL 4
REMARK VINA RESULT:    -4.225      3.286      8.071
REMARK INTER + INTRA:         -14.916
REMARK INTER:                 -11.324
REMARK INTRA:                  -3.592
REMARK UNBOUND:                -4.270
REMARK SMILES CCCCCCCCCCCCCCCCCCCCCCCCCCCC(=O)[O-]
REMARK SMILES IDX 15 1 16 2 17 3 18 4 19 5 20 6 21 7 22 8 23 9 24 10 25 11
REMARK SMILES IDX 26 12 27 13 28 14 29 15 30 16 14 17 13 18 12 19 11 20 10 21
REMARK SMILES IDX 9 22 8 23 7 24 6 25 5 26 4 27 3 28 2 29 1 30
REMARK H PARENT
REMARK Flexibility Score: inf
ROOT
ATOM      1  C   UNL     1     -31.101  23.487  29.392  1.00  0.00     0.000 C 
ENDROOT
BRANCH   1   2
ATOM      2  C   UNL     1     -31.272  22.013  28.997  1.00  0.00     0.000 C 
BRANCH   2   3
ATOM      3  C   UNL     1     -30.439  21.681  27.749  1.00  0.00     0.000 C 
BRANCH   3   4
ATOM      4  C   UNL     1     -29.121  22.473  27.674  1.00  0.00     0.000 C 
BRANCH   4   5
ATOM      5  C   UNL     1     -28.613  22.761  26.250  1.00  0.00     0.000 C 
BRANCH   5   6
ATOM      6  C   UNL     1     -28.427  21.488  25.411  1.00  0.00     0.000 C 
BRANCH   6   7
ATOM      7  C   UNL     1     -29.216  21.569  24.096  1.00  0.00     0.000 C 
BRANCH   7   8
ATOM      8  C   UNL     1     -29.446  20.176  23.470  1.00  0.00     0.000 C 
BRANCH   8   9
ATOM      9  C   UNL     1     -30.840  20.005  22.843  1.00  0.00     0.000 C 
BRANCH   9  10
ATOM     10  C   UNL     1     -31.919  19.625  23.873  1.00  0.00     0.000 C 
BRANCH  10  11
ATOM     11  C   UNL     1     -32.064  18.096  24.034  1.00  0.00     0.000 C 
BRANCH  11  12
ATOM     12  C   UNL     1     -33.496  17.638  24.361  1.00  0.00     0.006 C 
BRANCH  12  13
ATOM     13  C   UNL     1     -33.907  17.941  25.806  1.00  0.00     0.053 C 
BRANCH  13  14
ATOM     14  C   UNL     1     -33.797  16.712  26.651  1.00  0.00     0.041 C 
ATOM     15  O   UNL     1     -32.764  16.509  27.342  1.00  0.00    -0.550 OA
ATOM     16  O   UNL     1     -34.815  15.766  26.639  1.00  0.00    -0.550 OA
ENDBRANCH  13  14
ENDBRANCH  12  13
ENDBRANCH  11  12
ENDBRANCH  10  11
ENDBRANCH   9  10
ENDBRANCH   8   9
ENDBRANCH   7   8
ENDBRANCH   6   7
ENDBRANCH   5   6
ENDBRANCH   4   5
ENDBRANCH   3   4
ENDBRANCH   2   3
ENDBRANCH   1   2
BRANCH   1  17
ATOM     17  C   UNL     1     -32.442  24.205  29.626  1.00  0.00     0.000 C 
BRANCH  17  18
ATOM     18  C   UNL     1     -32.429  25.263  30.745  1.00  0.00     0.000 C 
BRANCH  18  19
ATOM     19  C   UNL     1     -33.836  25.781  31.094  1.00  0.00     0.000 C 
BRANCH  19  20
ATOM     20  C   UNL     1     -34.655  24.764  31.906  1.00  0.00     0.000 C 
BRANCH  20  21
ATOM     21  C   UNL     1     -34.308  24.784  33.404  1.00  0.00     0.000 C 
BRANCH  21  22
ATOM     22  C   UNL     1     -33.898  23.389  33.891  1.00  0.00    -0.000 C 
BRANCH  22  23
ATOM     23  C   UNL     1     -33.761  22.414  32.712  1.00  0.00    -0.000 C 
BRANCH  23  24
ATOM     24  C   UNL     1     -32.359  21.785  32.617  1.00  0.00    -0.000 C 
BRANCH  24  25
ATOM     25  C   UNL     1     -31.239  22.604  33.286  1.00  0.00    -0.000 C 
BRANCH  25  26
ATOM     26  C   UNL     1     -29.892  22.484  32.553  1.00  0.00    -0.000 C 
BRANCH  26  27
ATOM     27  C   UNL     1     -29.613  21.041  32.079  1.00  0.00    -0.000 C 
BRANCH  27  28
ATOM     28  C   UNL     1     -28.294  20.891  31.300  1.00  0.00    -0.000 C 
BRANCH  28  29
ATOM     29  C   UNL     1     -27.550  22.221  31.118  1.00  0.00    -0.003 C 
ATOM     30  C   UNL     1     -26.379  22.071  30.149  1.00  0.00     0.004 C 
ENDBRANCH  28  29
ENDBRANCH  27  28
ENDBRANCH  26  27
ENDBRANCH  25  26
ENDBRANCH  24  25
ENDBRANCH  23  24
ENDBRANCH  22  23
ENDBRANCH  21  22
ENDBRANCH  20  21
ENDBRANCH  19  20
ENDBRANCH  18  19
ENDBRANCH  17  18
ENDBRANCH   1  17
TORSDOF 26
ENDMDL
MODEL 5
REMARK VINA RESULT:    -4.196      1.657      5.413
REMARK INTER + INTRA:         -14.843
REMARK INTER:                  -9.548
REMARK INTRA:                  -5.295
REMARK UNBOUND:                -4.270
REMARK SMILES CCCCCCCCCCCCCCCCCCCCCCCCCCCC(=O)[O-]
REMARK SMILES IDX 15 1 16 2 17 3 18 4 19 5 20 6 21 7 22 8 23 9 24 10 25 11
REMARK SMILES IDX 26 12 27 13 28 14 29 15 30 16 14 17 13 18 12 19 11 20 10 21
REMARK SMILES IDX 9 22 8 23 7 24 6 25 5 26 4 27 3 28 2 29 1 30
REMARK H PARENT
REMARK Flexibility Score: inf
ROOT
ATOM      1  C   UNL     1     -33.885  15.595  26.805  1.00  0.00     0.000 C 
ENDROOT
BRANCH   1   2
ATOM      2  C   UNL     1     -34.578  16.835  26.222  1.00  0.00     0.000 C 
BRANCH   2   3
ATOM      3  C   UNL     1     -33.863  17.313  24.949  1.00  0.00     0.000 C 
BRANCH   3   4
ATOM      4  C   UNL     1     -33.782  18.846  24.840  1.00  0.00     0.000 C 
BRANCH   4   5
ATOM      5  C   UNL     1     -32.443  19.463  25.283  1.00  0.00     0.000 C 
BRANCH   5   6
ATOM      6  C   UNL     1     -31.616  20.004  24.107  1.00  0.00     0.000 C 
BRANCH   6   7
ATOM      7  C   UNL     1     -30.126  20.093  24.471  1.00  0.00     0.000 C 
BRANCH   7   8
ATOM      8  C   UNL     1     -29.520  21.465  24.106  1.00  0.00     0.000 C 
BRANCH   8   9
ATOM      9  C   UNL     1     -28.518  21.993  25.148  1.00  0.00     0.000 C 
BRANCH   9  10
ATOM     10  C   UNL     1     -29.202  22.569  26.400  1.00  0.00     0.000 C 
BRANCH  10  11
ATOM     11  C   UNL     1     -28.531  22.092  27.706  1.00  0.00     0.000 C 
BRANCH  11  12
ATOM     12  C   UNL     1     -29.517  21.515  28.737  1.00  0.00     0.006 C 
BRANCH  12  13
ATOM     13  C   UNL     1     -30.983  21.807  28.393  1.00  0.00     0.053 C 
BRANCH  13  14
ATOM     14  C   UNL     1     -31.581  22.741  29.396  1.00  0.00     0.041 C 
ATOM     15  O   UNL     1     -32.334  22.297  30.303  1.00  0.00    -0.550 OA
ATOM     16  O   UNL     1     -31.348  24.107  29.301  1.00  0.00    -0.550 OA
ENDBRANCH  13  14
ENDBRANCH  12  13
ENDBRANCH  11  12
ENDBRANCH  10  11
ENDBRANCH   9  10
ENDBRANCH   8   9
ENDBRANCH   7   8
ENDBRANCH   6   7
ENDBRANCH   5   6
ENDBRANCH   4   5
ENDBRANCH   3   4
ENDBRANCH   2   3
ENDBRANCH   1   2
BRANCH   1  17
ATOM     17  C   UNL     1     -33.163  15.881  28.134  1.00  0.00     0.000 C 
BRANCH  17  18
ATOM     18  C   UNL     1     -31.625  15.851  28.061  1.00  0.00     0.000 C 
BRANCH  18  19
ATOM     19  C   UNL     1     -31.101  15.605  26.635  1.00  0.00     0.000 C 
BRANCH  19  20
ATOM     20  C   UNL     1     -30.106  16.684  26.176  1.00  0.00     0.000 C 
BRANCH  20  21
ATOM     21  C   UNL     1     -29.893  17.782  27.231  1.00  0.00     0.000 C 
BRANCH  21  22
ATOM     22  C   UNL     1     -28.472  18.351  27.153  1.00  0.00    -0.000 C 
BRANCH  22  23
ATOM     23  C   UNL     1     -27.677  17.688  26.018  1.00  0.00    -0.000 C 
BRANCH  23  24
ATOM     24  C   UNL     1     -26.779  18.682  25.259  1.00  0.00    -0.000 C 
BRANCH  24  25
ATOM     25  C   UNL     1     -26.379  18.235  23.841  1.00  0.00    -0.000 C 
BRANCH  25  26
ATOM     26  C   UNL     1     -27.194  18.940  22.741  1.00  0.00    -0.000 C 
BRANCH  26  27
ATOM     27  C   UNL     1     -28.030  17.945  21.907  1.00  0.00    -0.000 C 
BRANCH  27  28
ATOM     28  C   UNL     1     -29.217  17.340  22.677  1.00  0.00    -0.000 C 
BRANCH  28  29
ATOM     29  C   UNL     1     -30.280  16.726  21.755  1.00  0.00    -0.003 C 
ATOM     30  C   UNL     1     -31.477  16.218  22.553  1.00  0.00     0.004 C 
ENDBRANCH  28  29
ENDBRANCH  27  28
ENDBRANCH  26  27
ENDBRANCH  25  26
ENDBRANCH  24  25
ENDBRANCH  23  24
ENDBRANCH  22  23
ENDBRANCH  21  22
ENDBRANCH  20  21
ENDBRANCH  19  20
ENDBRANCH  18  19
ENDBRANCH  17  18
ENDBRANCH   1  17
TORSDOF 26
ENDMDL
MODEL 6
REMARK VINA RESULT:    -4.185      4.174      7.835
REMARK INTER + INTRA:         -14.815
REMARK INTER:                 -10.495
REMARK INTRA:                  -4.320
REMARK UNBOUND:                -4.270
REMARK SMILES CCCCCCCCCCCCCCCCCCCCCCCCCCCC(=O)[O-]
REMARK SMILES IDX 15 1 16 2 17 3 18 4 19 5 20 6 21 7 22 8 23 9 24 10 25 11
REMARK SMILES IDX 26 12 27 13 28 14 29 15 30 16 14 17 13 18 12 19 11 20 10 21
REMARK SMILES IDX 9 22 8 23 7 24 6 25 5 26 4 27 3 28 2 29 1 30
REMARK H PARENT
REMARK Flexibility Score: inf
ROOT
ATOM      1  C   UNL     1     -33.668  17.477  24.626  1.00  0.00     0.000 C 
ENDROOT
BRANCH   1   2
ATOM      2  C   UNL     1     -33.455  18.802  25.372  1.00  0.00     0.000 C 
BRANCH   2   3
ATOM      3  C   UNL     1     -32.440  19.687  24.634  1.00  0.00     0.000 C 
BRANCH   3   4
ATOM      4  C   UNL     1     -31.548  18.900  23.657  1.00  0.00     0.000 C 
BRANCH   4   5
ATOM      5  C   UNL     1     -30.583  19.757  22.818  1.00  0.00     0.000 C 
BRANCH   5   6
ATOM      6  C   UNL     1     -30.157  21.050  23.530  1.00  0.00     0.000 C 
BRANCH   6   7
ATOM      7  C   UNL     1     -28.950  21.695  22.834  1.00  0.00     0.000 C 
BRANCH   7   8
ATOM      8  C   UNL     1     -27.609  21.205  23.424  1.00  0.00     0.000 C 
BRANCH   8   9
ATOM      9  C   UNL     1     -27.129  19.868  22.834  1.00  0.00     0.000 C 
BRANCH   9  10
ATOM     10  C   UNL     1     -26.744  18.840  23.912  1.00  0.00     0.000 C 
BRANCH  10  11
ATOM     11  C   UNL     1     -26.933  17.385  23.429  1.00  0.00     0.000 C 
BRANCH  11  12
ATOM     12  C   UNL     1     -28.207  17.168  22.594  1.00  0.00     0.006 C 
BRANCH  12  13
ATOM     13  C   UNL     1     -28.034  16.105  21.503  1.00  0.00     0.053 C 
BRANCH  13  14
ATOM     14  C   UNL     1     -27.919  16.749  20.157  1.00  0.00     0.041 C 
ATOM     15  O   UNL     1     -26.945  17.504  19.899  1.00  0.00    -0.550 OA
ATOM     16  O   UNL     1     -28.912  16.553  19.205  1.00  0.00    -0.550 OA
ENDBRANCH  13  14
ENDBRANCH  12  13
ENDBRANCH  11  12
ENDBRANCH  10  11
ENDBRANCH   9  10
ENDBRANCH   8   9
ENDBRANCH   7   8
ENDBRANCH   6   7
ENDBRANCH   5   6
ENDBRANCH   4   5
ENDBRANCH   3   4
ENDBRANCH   2   3
ENDBRANCH   1   2
BRANCH   1  17
ATOM     17  C   UNL     1     -34.289  16.382  25.513  1.00  0.00     0.000 C 
BRANCH  17  18
ATOM     18  C   UNL     1     -34.330  16.707  27.017  1.00  0.00     0.000 C 
BRANCH  18  19
ATOM     19  C   UNL     1     -33.604  15.656  27.875  1.00  0.00     0.000 C 
BRANCH  19  20
ATOM     20  C   UNL     1     -32.087  15.632  27.622  1.00  0.00     0.000 C 
BRANCH  20  21
ATOM     21  C   UNL     1     -31.416  16.984  27.914  1.00  0.00     0.000 C 
BRANCH  21  22
ATOM     22  C   UNL     1     -30.381  17.328  26.837  1.00  0.00    -0.000 C 
BRANCH  22  23
ATOM     23  C   UNL     1     -29.348  18.334  27.369  1.00  0.00    -0.000 C 
BRANCH  23  24
ATOM     24  C   UNL     1     -29.126  19.522  26.416  1.00  0.00    -0.000 C 
BRANCH  24  25
ATOM     25  C   UNL     1     -28.505  20.768  27.074  1.00  0.00    -0.000 C 
BRANCH  25  26
ATOM     26  C   UNL     1     -29.454  21.980  27.073  1.00  0.00    -0.000 C 
BRANCH  26  27
ATOM     27  C   UNL     1     -30.764  21.694  27.838  1.00  0.00    -0.000 C 
BRANCH  27  28
ATOM     28  C   UNL     1     -30.820  22.346  29.232  1.00  0.00    -0.000 C 
BRANCH  28  29
ATOM     29  C   UNL     1     -31.981  23.338  29.384  1.00  0.00    -0.003 C 
ATOM     30  C   UNL     1     -31.538  24.597  30.124  1.00  0.00     0.004 C 
ENDBRANCH  28  29
ENDBRANCH  27  28
ENDBRANCH  26  27
ENDBRANCH  25  26
ENDBRANCH  24  25
ENDBRANCH  23  24
ENDBRANCH  22  23
ENDBRANCH  21  22
ENDBRANCH  20  21
ENDBRANCH  19  20
ENDBRANCH  18  19
ENDBRANCH  17  18
ENDBRANCH   1  17
TORSDOF 26
ENDMDL
MODEL 7
REMARK VINA RESULT:    -4.172      1.332      4.587
REMARK INTER + INTRA:         -14.783
REMARK INTER:                  -9.898
REMARK INTRA:                  -4.885
REMARK UNBOUND:                -4.270
REMARK SMILES CCCCCCCCCCCCCCCCCCCCCCCCCCCC(=O)[O-]
REMARK SMILES IDX 15 1 16 2 17 3 18 4 19 5 20 6 21 7 22 8 23 9 24 10 25 11
REMARK SMILES IDX 26 12 27 13 28 14 29 15 30 16 14 17 13 18 12 19 11 20 10 21
REMARK SMILES IDX 9 22 8 23 7 24 6 25 5 26 4 27 3 28 2 29 1 30
REMARK H PARENT
REMARK Flexibility Score: inf
ROOT
ATOM      1  C   UNL     1     -33.156  15.859  26.962  1.00  0.00     0.000 C 
ENDROOT
BRANCH   1   2
ATOM      2  C   UNL     1     -32.023  16.537  27.746  1.00  0.00     0.000 C 
BRANCH   2   3
ATOM      3  C   UNL     1     -30.858  16.905  26.815  1.00  0.00     0.000 C 
BRANCH   3   4
ATOM      4  C   UNL     1     -29.970  18.031  27.374  1.00  0.00     0.000 C 
BRANCH   4   5
ATOM      5  C   UNL     1     -28.494  17.974  26.941  1.00  0.00     0.000 C 
BRANCH   5   6
ATOM      6  C   UNL     1     -27.881  19.364  26.717  1.00  0.00     0.000 C 
BRANCH   6   7
ATOM      7  C   UNL     1     -27.203  19.885  27.992  1.00  0.00     0.000 C 
BRANCH   7   8
ATOM      8  C   UNL     1     -27.790  21.239  28.450  1.00  0.00     0.000 C 
BRANCH   8   9
ATOM      9  C   UNL     1     -28.283  22.120  27.289  1.00  0.00     0.000 C 
BRANCH   9  10
ATOM     10  C   UNL     1     -29.734  22.600  27.474  1.00  0.00     0.000 C 
BRANCH  10  11
ATOM     11  C   UNL     1     -30.531  21.699  28.442  1.00  0.00     0.000 C 
BRANCH  11  12
ATOM     12  C   UNL     1     -30.946  22.401  29.746  1.00  0.00     0.006 C 
BRANCH  12  13
ATOM     13  C   UNL     1     -31.361  23.862  29.534  1.00  0.00     0.053 C 
BRANCH  13  14
ATOM     14  C   UNL     1     -32.477  24.229  30.459  1.00  0.00     0.041 C 
ATOM     15  O   UNL     1     -32.861  25.426  30.543  1.00  0.00    -0.550 OA
ATOM     16  O   UNL     1     -33.061  23.260  31.265  1.00  0.00    -0.550 OA
ENDBRANCH  13  14
ENDBRANCH  12  13
ENDBRANCH  11  12
ENDBRANCH  10  11
ENDBRANCH   9  10
ENDBRANCH   8   9
ENDBRANCH   7   8
ENDBRANCH   6   7
ENDBRANCH   5   6
ENDBRANCH   4   5
ENDBRANCH   3   4
ENDBRANCH   2   3
ENDBRANCH   1   2
BRANCH   1  17
ATOM     17  C   UNL     1     -34.057  16.863  26.220  1.00  0.00     0.000 C 
BRANCH  17  18
ATOM     18  C   UNL     1     -33.936  16.838  24.685  1.00  0.00     0.000 C 
BRANCH  18  19
ATOM     19  C   UNL     1     -33.050  17.971  24.138  1.00  0.00     0.000 C 
BRANCH  19  20
ATOM     20  C   UNL     1     -33.333  19.323  24.815  1.00  0.00     0.000 C 
BRANCH  20  21
ATOM     21  C   UNL     1     -32.048  20.066  25.214  1.00  0.00     0.000 C 
BRANCH  21  22
ATOM     22  C   UNL     1     -30.921  19.793  24.211  1.00  0.00    -0.000 C 
BRANCH  22  23
ATOM     23  C   UNL     1     -29.951  20.983  24.138  1.00  0.00    -0.000 C 
BRANCH  23  24
ATOM     24  C   UNL     1     -28.915  20.840  23.008  1.00  0.00    -0.000 C 
BRANCH  24  25
ATOM     25  C   UNL     1     -27.494  20.481  23.479  1.00  0.00    -0.000 C 
BRANCH  25  26
ATOM     26  C   UNL     1     -26.761  19.541  22.506  1.00  0.00    -0.000 C 
BRANCH  26  27
ATOM     27  C   UNL     1     -27.149  18.062  22.721  1.00  0.00    -0.000 C 
BRANCH  27  28
ATOM     28  C   UNL     1     -28.015  17.479  21.589  1.00  0.00    -0.000 C 
BRANCH  28  29
ATOM     29  C   UNL     1     -29.459  17.193  22.025  1.00  0.00    -0.003 C 
ATOM     30  C   UNL     1     -29.502  16.583  23.424  1.00  0.00     0.004 C 
ENDBRANCH  28  29
ENDBRANCH  27  28
ENDBRANCH  26  27
ENDBRANCH  25  26
ENDBRANCH  24  25
ENDBRANCH  23  24
ENDBRANCH  22  23
ENDBRANCH  21  22
ENDBRANCH  20  21
ENDBRANCH  19  20
ENDBRANCH  18  19
ENDBRANCH  17  18
ENDBRANCH   1  17
TORSDOF 26
ENDMDL
MODEL 8
REMARK VINA RESULT:    -4.166      1.654      3.482
REMARK INTER + INTRA:         -14.768
REMARK INTER:                 -10.066
REMARK INTRA:                  -4.702
REMARK UNBOUND:                -4.270
REMARK SMILES CCCCCCCCCCCCCCCCCCCCCCCCCCCC(=O)[O-]
REMARK SMILES IDX 15 1 16 2 17 3 18 4 19 5 20 6 21 7 22 8 23 9 24 10 25 11
REMARK SMILES IDX 26 12 27 13 28 14 29 15 30 16 14 17 13 18 12 19 11 20 10 21
REMARK SMILES IDX 9 22 8 23 7 24 6 25 5 26 4 27 3 28 2 29 1 30
REMARK H PARENT
REMARK Flexibility Score: inf
ROOT
ATOM      1  C   UNL     1     -33.132  19.097  24.940  1.00  0.00     0.000 C 
ENDROOT
BRANCH   1   2
ATOM      2  C   UNL     1     -32.058  20.025  24.353  1.00  0.00     0.000 C 
BRANCH   2   3
ATOM      3  C   UNL     1     -31.151  19.262  23.376  1.00  0.00     0.000 C 
BRANCH   3   4
ATOM      4  C   UNL     1     -29.710  19.802  23.343  1.00  0.00     0.000 C 
BRANCH   4   5
ATOM      5  C   UNL     1     -29.561  21.233  22.797  1.00  0.00     0.000 C 
BRANCH   5   6
ATOM      6  C   UNL     1     -28.786  22.159  23.747  1.00  0.00     0.000 C 
BRANCH   6   7
ATOM      7  C   UNL     1     -28.587  21.503  25.121  1.00  0.00     0.000 C 
BRANCH   7   8
ATOM      8  C   UNL     1     -28.949  22.460  26.278  1.00  0.00     0.000 C 
BRANCH   8   9
ATOM      9  C   UNL     1     -28.242  22.121  27.602  1.00  0.00     0.000 C 
BRANCH   9  10
ATOM     10  C   UNL     1     -29.191  22.148  28.814  1.00  0.00     0.000 C 
BRANCH  10  11
ATOM     11  C   UNL     1     -30.677  22.173  28.394  1.00  0.00     0.000 C 
BRANCH  11  12
ATOM     12  C   UNL     1     -31.518  23.217  29.149  1.00  0.00     0.006 C 
BRANCH  12  13
ATOM     13  C   UNL     1     -31.207  23.266  30.649  1.00  0.00     0.053 C 
BRANCH  13  14
ATOM     14  C   UNL     1     -32.076  22.306  31.397  1.00  0.00     0.041 C 
ATOM     15  O   UNL     1     -33.254  22.629  31.707  1.00  0.00    -0.550 OA
ATOM     16  O   UNL     1     -31.572  21.075  31.795  1.00  0.00    -0.550 OA
ENDBRANCH  13  14
ENDBRANCH  12  13
ENDBRANCH  11  12
ENDBRANCH  10  11
ENDBRANCH   9  10
ENDBRANCH   8   9
ENDBRANCH   7   8
ENDBRANCH   6   7
ENDBRANCH   5   6
ENDBRANCH   4   5
ENDBRANCH   3   4
ENDBRANCH   2   3
ENDBRANCH   1   2
BRANCH   1  17
ATOM     17  C   UNL     1     -32.950  17.627  24.518  1.00  0.00     0.000 C 
BRANCH  17  18
ATOM     18  C   UNL     1     -34.019  16.658  25.053  1.00  0.00     0.000 C 
BRANCH  18  19
ATOM     19  C   UNL     1     -34.434  16.968  26.503  1.00  0.00     0.000 C 
BRANCH  19  20
ATOM     20  C   UNL     1     -34.335  15.739  27.422  1.00  0.00     0.000 C 
BRANCH  20  21
ATOM     21  C   UNL     1     -33.741  14.512  26.710  1.00  0.00     0.000 C 
BRANCH  21  22
ATOM     22  C   UNL     1     -32.670  13.840  27.576  1.00  0.00    -0.000 C 
BRANCH  22  23
ATOM     23  C   UNL     1     -32.258  14.749  28.745  1.00  0.00    -0.000 C 
BRANCH  23  24
ATOM     24  C   UNL     1     -30.818  15.276  28.612  1.00  0.00    -0.000 C 
BRANCH  24  25
ATOM     25  C   UNL     1     -30.566  16.155  27.373  1.00  0.00    -0.000 C 
BRANCH  25  26
ATOM     26  C   UNL     1     -30.866  17.643  27.624  1.00  0.00    -0.000 C 
BRANCH  26  27
ATOM     27  C   UNL     1     -29.835  18.568  26.943  1.00  0.00    -0.000 C 
BRANCH  27  28
ATOM     28  C   UNL     1     -28.402  18.397  27.477  1.00  0.00    -0.000 C 
BRANCH  28  29
ATOM     29  C   UNL     1     -28.313  18.515  29.005  1.00  0.00    -0.003 C 
ATOM     30  C   UNL     1     -27.336  17.495  29.582  1.00  0.00     0.004 C 
ENDBRANCH  28  29
ENDBRANCH  27  28
ENDBRANCH  26  27
ENDBRANCH  25  26
ENDBRANCH  24  25
ENDBRANCH  23  24
ENDBRANCH  22  23
ENDBRANCH  21  22
ENDBRANCH  20  21
ENDBRANCH  19  20
ENDBRANCH  18  19
ENDBRANCH  17  18
ENDBRANCH   1  17
TORSDOF 26
ENDMDL
MODEL 9
REMARK VINA RESULT:    -4.161      1.593      4.661
REMARK INTER + INTRA:         -14.754
REMARK INTER:                  -9.667
REMARK INTRA:                  -5.087
REMARK UNBOUND:                -4.270
REMARK SMILES CCCCCCCCCCCCCCCCCCCCCCCCCCCC(=O)[O-]
REMARK SMILES IDX 15 1 16 2 17 3 18 4 19 5 20 6 21 7 22 8 23 9 24 10 25 11
REMARK SMILES IDX 26 12 27 13 28 14 29 15 30 16 14 17 13 18 12 19 11 20 10 21
REMARK SMILES IDX 9 22 8 23 7 24 6 25 5 26 4 27 3 28 2 29 1 30
REMARK H PARENT
REMARK Flexibility Score: inf
ROOT
ATOM      1  C   UNL     1     -31.203  15.536  27.481  1.00  0.00     0.000 C 
ENDROOT
BRANCH   1   2
ATOM      2  C   UNL     1     -29.991  16.392  27.089  1.00  0.00     0.000 C 
BRANCH   2   3
ATOM      3  C   UNL     1     -30.040  17.761  27.786  1.00  0.00     0.000 C 
BRANCH   3   4
ATOM      4  C   UNL     1     -29.109  17.851  29.008  1.00  0.00     0.000 C 
BRANCH   4   5
ATOM      5  C   UNL     1     -28.276  19.142  29.101  1.00  0.00     0.000 C 
BRANCH   5   6
ATOM      6  C   UNL     1     -27.076  19.150  28.141  1.00  0.00     0.000 C 
BRANCH   6   7
ATOM      7  C   UNL     1     -26.396  20.527  28.116  1.00  0.00     0.000 C 
BRANCH   7   8
ATOM      8  C   UNL     1     -27.407  21.678  28.308  1.00  0.00     0.000 C 
BRANCH   8   9
ATOM      9  C   UNL     1     -27.673  22.485  27.025  1.00  0.00     0.000 C 
BRANCH   9  10
ATOM     10  C   UNL     1     -29.172  22.718  26.762  1.00  0.00     0.000 C 
BRANCH  10  11
ATOM     11  C   UNL     1     -30.016  21.450  27.019  1.00  0.00     0.000 C 
BRANCH  11  12
ATOM     12  C   UNL     1     -31.174  21.665  28.009  1.00  0.00     0.006 C 
BRANCH  12  13
ATOM     13  C   UNL     1     -30.747  22.412  29.278  1.00  0.00     0.053 C 
BRANCH  13  14
ATOM     14  C   UNL     1     -31.942  22.960  29.991  1.00  0.00     0.041 C 
ATOM     15  O   UNL     1     -32.516  22.276  30.879  1.00  0.00    -0.550 OA
ATOM     16  O   UNL     1     -32.451  24.204  29.642  1.00  0.00    -0.550 OA
ENDBRANCH  13  14
ENDBRANCH  12  13
ENDBRANCH  11  12
ENDBRANCH  10  11
ENDBRANCH   9  10
ENDBRANCH   8   9
ENDBRANCH   7   8
ENDBRANCH   6   7
ENDBRANCH   5   6
ENDBRANCH   4   5
ENDBRANCH   3   4
ENDBRANCH   2   3
ENDBRANCH   1   2
BRANCH   1  17
ATOM     17  C   UNL     1     -32.430  16.378  27.878  1.00  0.00     0.000 C 
BRANCH  17  18
ATOM     18  C   UNL     1     -33.791  15.701  27.637  1.00  0.00     0.000 C 
BRANCH  18  19
ATOM     19  C   UNL     1     -34.648  16.437  26.591  1.00  0.00     0.000 C 
BRANCH  19  20
ATOM     20  C   UNL     1     -33.826  17.418  25.739  1.00  0.00     0.000 C 
BRANCH  20  21
ATOM     21  C   UNL     1     -33.336  16.793  24.422  1.00  0.00     0.000 C 
BRANCH  21  22
ATOM     22  C   UNL     1     -32.105  17.534  23.886  1.00  0.00    -0.000 C 
BRANCH  22  23
ATOM     23  C   UNL     1     -31.763  18.742  24.772  1.00  0.00    -0.000 C 
BRANCH  23  24
ATOM     24  C   UNL     1     -31.570  20.038  23.965  1.00  0.00    -0.000 C 
BRANCH  24  25
ATOM     25  C   UNL     1     -30.359  20.030  23.014  1.00  0.00    -0.000 C 
BRANCH  25  26
ATOM     26  C   UNL     1     -29.495  21.298  23.135  1.00  0.00    -0.000 C 
BRANCH  26  27
ATOM     27  C   UNL     1     -28.061  20.983  23.611  1.00  0.00    -0.000 C 
BRANCH  27  28
ATOM     28  C   UNL     1     -27.969  19.741  24.516  1.00  0.00    -0.000 C 
BRANCH  28  29
ATOM     29  C   UNL     1     -26.857  18.772  24.094  1.00  0.00    -0.003 C 
ATOM     30  C   UNL     1     -26.662  18.781  22.580  1.00  0.00     0.004 C 
ENDBRANCH  28  29
ENDBRANCH  27  28
ENDBRANCH  26  27
ENDBRANCH  25  26
ENDBRANCH  24  25
ENDBRANCH  23  24
ENDBRANCH  22  23
ENDBRANCH  21  22
ENDBRANCH  20  21
ENDBRANCH  19  20
ENDBRANCH  18  19
ENDBRANCH  17  18
ENDBRANCH   1  17
TORSDOF 26
ENDMDL
