MODEL 1
REMARK VINA RESULT:     0.463      0.000      0.000
REMARK INTER + INTRA:           0.748
REMARK INTER:                   0.571
REMARK INTRA:                   0.177
REMARK UNBOUND:                 0.177
REMARK SMILES CCCCCC=O
REMARK SMILES IDX 4 1 3 2 2 3 1 4 5 5 6 6 7 7
REMARK H PARENT
REMARK Flexibility Score: inf
ROOT
ATOM      1  C   UNL     1      -3.898  -2.464  39.395  1.00  0.00     0.008 C 
ENDROOT
BRANCH   1   2
ATOM      2  C   UNL     1      -4.125  -3.087  40.781  1.00  0.00     0.000 C 
BRANCH   2   3
ATOM      3  C   UNL     1      -3.831  -2.074  41.892  1.00  0.00    -0.003 C 
ATOM      4  C   UNL     1      -2.350  -1.707  41.928  1.00  0.00     0.004 C 
ENDBRANCH   2   3
ENDBRANCH   1   2
BRANCH   1   5
ATOM      5  C   UNL     1      -4.081  -0.940  39.408  1.00  0.00     0.072 C 
BRANCH   5   6
ATOM      6  C   UNL     1      -3.073  -0.243  38.542  1.00  0.00     0.224 C 
ATOM      7  O   UNL     1      -1.921  -0.642  38.490  1.00  0.00    -0.303 OA
ENDBRANCH   5   6
ENDBRANCH   1   5
TORSDOF 4
ENDMDL
MODEL 2
REMARK VINA RESULT:     0.965      1.553      3.225
REMARK INTER + INTRA:           1.368
REMARK INTER:                   1.418
REMARK INTRA:                  -0.049
REMARK UNBOUND:                 0.177
REMARK SMILES CCCCCC=O
REMARK SMILES IDX 4 1 3 2 2 3 1 4 5 5 6 6 7 7
REMARK H PARENT
REMARK Flexibility Score: inf
ROOT
ATOM      1  C   UNL     1      -4.124  -2.538  39.479  1.00  0.00     0.008 C 
ENDROOT
BRANCH   1   2
ATOM      2  C   UNL     1      -4.120  -1.002  39.484  1.00  0.00     0.000 C 
BRANCH   2   3
ATOM      3  C   UNL     1      -3.385  -0.451  38.258  1.00  0.00    -0.003 C 
ATOM      4  C   UNL     1      -1.873  -0.479  38.464  1.00  0.00     0.004 C 
ENDBRANCH   2   3
ENDBRANCH   1   2
BRANCH   1   5
ATOM      5  C   UNL     1      -4.118  -3.122  40.898  1.00  0.00     0.072 C 
BRANCH   5   6
ATOM      6  C   UNL     1      -3.606  -2.139  41.910  1.00  0.00     0.224 C 
ATOM      7  O   UNL     1      -2.407  -1.973  42.059  1.00  0.00    -0.303 OA
ENDBRANCH   5   6
ENDBRANCH   1   5
TORSDOF 4
ENDMDL
MODEL 3
REMARK VINA RESULT:     1.641     19.214     20.469
REMARK INTER + INTRA:           2.201
REMARK INTER:                   2.332
REMARK INTRA:                  -0.131
REMARK UNBOUND:                 0.177
REMARK SMILES CCCCCC=O
REMARK SMILES IDX 4 1 3 2 2 3 1 4 5 5 6 6 7 7
REMARK H PARENT
REMARK Flexibility Score: inf
ROOT
ATOM      1  C   UNL     1      12.655   2.557  30.670  1.00  0.00     0.008 C 
ENDROOT
BRANCH   1   2
ATOM      2  C   UNL     1      14.142   2.829  30.947  1.00  0.00     0.000 C 
BRANCH   2   3
ATOM      3  C   UNL     1      14.717   3.817  29.926  1.00  0.00    -0.003 C 
ATOM      4  C   UNL     1      16.125   3.411  29.499  1.00  0.00     0.004 C 
ENDBRANCH   2   3
ENDBRANCH   1   2
BRANCH   1   5
ATOM      5  C   UNL     1      12.450   1.664  29.439  1.00  0.00     0.072 C 
BRANCH   5   6
ATOM      6  C   UNL     1      13.301   0.430  29.489  1.00  0.00     0.224 C 
ATOM      7  O   UNL     1      13.043  -0.529  28.780  1.00  0.00    -0.303 OA
ENDBRANCH   5   6
ENDBRANCH   1   5
TORSDOF 4
ENDMDL
MODEL 4
REMARK VINA RESULT:     1.733     19.786     20.484
REMARK INTER + INTRA:           2.316
REMARK INTER:                   2.400
REMARK INTRA:                  -0.085
REMARK UNBOUND:                 0.177
REMARK SMILES CCCCCC=O
REMARK SMILES IDX 4 1 3 2 2 3 1 4 5 5 6 6 7 7
REMARK H PARENT
REMARK Flexibility Score: inf
ROOT
ATOM      1  C   UNL     1      12.730   2.873  30.467  1.00  0.00     0.008 C 
ENDROOT
BRANCH   1   2
ATOM      2  C   UNL     1      12.424   1.730  29.486  1.00  0.00     0.000 C 
BRANCH   2   3
ATOM      3  C   UNL     1      13.461   0.609  29.611  1.00  0.00    -0.003 C 
ATOM      4  C   UNL     1      13.003  -0.650  28.879  1.00  0.00     0.004 C 
ENDBRANCH   2   3
ENDBRANCH   1   2
BRANCH   1   5
ATOM      5  C   UNL     1      14.219   2.941  30.831  1.00  0.00     0.072 C 
BRANCH   5   6
ATOM      6  C   UNL     1      14.982   3.853  29.916  1.00  0.00     0.224 C 
ATOM      7  O   UNL     1      16.125   3.581  29.584  1.00  0.00    -0.303 OA
ENDBRANCH   5   6
ENDBRANCH   1   5
TORSDOF 4
ENDMDL
MODEL 5
REMARK VINA RESULT:     1.934     21.506     23.368
REMARK INTER + INTRA:           2.564
REMARK INTER:                   2.669
REMARK INTRA:                  -0.105
REMARK UNBOUND:                 0.177
REMARK SMILES CCCCCC=O
REMARK SMILES IDX 4 1 3 2 2 3 1 4 5 5 6 6 7 7
REMARK H PARENT
REMARK Flexibility Score: inf
ROOT
ATOM      1  C   UNL     1      11.401  12.619  29.256  1.00  0.00     0.008 C 
ENDROOT
BRANCH   1   2
ATOM      2  C   UNL     1      12.553  13.261  30.044  1.00  0.00     0.000 C 
BRANCH   2   3
ATOM      3  C   UNL     1      13.797  13.422  29.164  1.00  0.00    -0.003 C 
ATOM      4  C   UNL     1      13.573  14.473  28.080  1.00  0.00     0.004 C 
ENDBRANCH   2   3
ENDBRANCH   1   2
BRANCH   1   5
ATOM      5  C   UNL     1      11.238  11.128  29.580  1.00  0.00     0.072 C 
BRANCH   5   6
ATOM      6  C   UNL     1      11.072  10.885  31.051  1.00  0.00     0.224 C 
ATOM      7  O   UNL     1       9.958  10.809  31.543  1.00  0.00    -0.303 OA
ENDBRANCH   5   6
ENDBRANCH   1   5
TORSDOF 4
ENDMDL
MODEL 6
REMARK VINA RESULT:     1.976     21.962     23.639
REMARK INTER + INTRA:           2.615
REMARK INTER:                   2.732
REMARK INTRA:                  -0.116
REMARK UNBOUND:                 0.177
REMARK SMILES CCCCCC=O
REMARK SMILES IDX 4 1 3 2 2 3 1 4 5 5 6 6 7 7
REMARK H PARENT
REMARK Flexibility Score: inf
ROOT
ATOM      1  C   UNL     1      12.408  12.306  29.581  1.00  0.00     0.008 C 
ENDROOT
BRANCH   1   2
ATOM      2  C   UNL     1      10.883  12.440  29.454  1.00  0.00     0.000 C 
BRANCH   2   3
ATOM      3  C   UNL     1      10.170  11.663  30.566  1.00  0.00    -0.003 C 
ATOM      4  C   UNL     1      11.158  10.830  31.378  1.00  0.00     0.004 C 
ENDBRANCH   2   3
ENDBRANCH   1   2
BRANCH   1   5
ATOM      5  C   UNL     1      13.090  13.658  29.826  1.00  0.00     0.072 C 
BRANCH   5   6
ATOM      6  C   UNL     1      13.916  14.094  28.652  1.00  0.00     0.224 C 
ATOM      7  O   UNL     1      13.378  14.479  27.626  1.00  0.00    -0.303 OA
ENDBRANCH   5   6
ENDBRANCH   1   5
TORSDOF 4
ENDMDL
MODEL 7
REMARK VINA RESULT:     2.845     19.690     20.658
REMARK INTER + INTRA:           3.687
REMARK INTER:                   3.430
REMARK INTRA:                   0.257
REMARK UNBOUND:                 0.177
REMARK SMILES CCCCCC=O
REMARK SMILES IDX 4 1 3 2 2 3 1 4 5 5 6 6 7 7
REMARK H PARENT
REMARK Flexibility Score: inf
ROOT
ATOM      1  C   UNL     1      13.228   1.357  30.034  1.00  0.00     0.008 C 
ENDROOT
BRANCH   1   2
ATOM      2  C   UNL     1      12.332   2.584  29.806  1.00  0.00     0.000 C 
BRANCH   2   3
ATOM      3  C   UNL     1      12.177   2.879  28.310  1.00  0.00    -0.003 C 
ATOM      4  C   UNL     1      13.103   4.011  27.873  1.00  0.00     0.004 C 
ENDBRANCH   2   3
ENDBRANCH   1   2
BRANCH   1   5
ATOM      5  C   UNL     1      14.589   1.737  30.633  1.00  0.00     0.072 C 
BRANCH   5   6
ATOM      6  C   UNL     1      14.851   3.212  30.546  1.00  0.00     0.224 C 
ATOM      7  O   UNL     1      15.656   3.650  29.740  1.00  0.00    -0.303 OA
ENDBRANCH   5   6
ENDBRANCH   1   5
TORSDOF 4
ENDMDL
