MODEL 1
REMARK VINA RESULT:    -6.531      0.000      0.000
REMARK INTER + INTRA:         -11.161
REMARK INTER:                  -9.204
REMARK INTRA:                  -1.957
REMARK UNBOUND:                -1.957
REMARK SMILES C=C(CC[C@@H](C(=O)[O-])[C@@H]1[C@@H](O)C[C@@]2(C)C3=C(CC[C@@]12C)[C@@]1(C)CC[C@H](O)C(C)(C)[C@@H]1CC3)C(C)C
REMARK SMILES IDX 4 1 5 2 6 3 7 4 8 5 9 6 10 7 19 8 12 9 13 10 18 11 20 12
REMARK SMILES IDX 14 13 15 14 17 15 16 16 32 17 21 18 31 19 30 20 23 21 22 22
REMARK SMILES IDX 27 23 24 24 25 25 28 26 29 27 11 28 26 30 3 32 2 33 1 34
REMARK SMILES IDX 33 35 34 36 35 37
REMARK H PARENT 11 29 26 31
REMARK Flexibility Score: inf
ROOT
ATOM      1  C   UNL     1      -6.317 -10.313 -47.044  1.00  0.00     0.014 C 
ENDROOT
BRANCH   1   2
ATOM      2  C   UNL     1      -7.355  -9.841 -45.975  1.00  0.00     0.042 C 
BRANCH   2   3
ATOM      3  C   UNL     1      -8.679 -10.554 -46.109  1.00  0.00     0.045 C 
ATOM      4  O   UNL     1      -8.736 -11.799 -46.302  1.00  0.00    -0.550 OA
ATOM      5  O   UNL     1      -9.858  -9.832 -45.977  1.00  0.00    -0.550 OA
ENDBRANCH   2   3
BRANCH   2   6
ATOM      6  C   UNL     1      -6.880  -9.793 -44.481  1.00  0.00     0.033 C 
ATOM      7  C   UNL     1      -7.685 -10.747 -43.564  1.00  0.00     0.119 C 
ATOM      8  C   UNL     1      -6.737  -8.445 -43.685  1.00  0.00    -0.017 C 
ATOM      9  C   UNL     1      -7.761 -10.056 -42.196  1.00  0.00     0.043 C 
ATOM     10  C   UNL     1      -6.675  -8.948 -42.201  1.00  0.00    -0.003 C 
ATOM     11  C   UNL     1      -5.471  -7.627 -44.018  1.00  0.00     0.012 C 
ATOM     12  C   UNL     1      -7.948  -7.498 -43.939  1.00  0.00     0.013 C 
ATOM     13  C   UNL     1      -7.016  -7.856 -41.152  1.00  0.00     0.017 C 
ATOM     14  C   UNL     1      -5.285  -9.540 -41.826  1.00  0.00    -0.064 C 
ATOM     15  C   UNL     1      -4.162  -8.360 -43.757  1.00  0.00     0.032 C 
ATOM     16  C   UNL     1      -4.126  -9.164 -42.468  1.00  0.00    -0.064 C 
ATOM     17  C   UNL     1      -5.229 -10.551 -40.665  1.00  0.00     0.032 C 
ATOM     18  C   UNL     1      -2.776  -9.754 -41.994  1.00  0.00    -0.008 C 
ATOM     19  C   UNL     1      -3.878 -10.719 -39.931  1.00  0.00     0.009 C 
ATOM     20  C   UNL     1      -2.811  -9.728 -40.425  1.00  0.00     0.007 C 
ATOM     21  C   UNL     1      -1.560  -8.911 -42.450  1.00  0.00     0.014 C 
ATOM     22  C   UNL     1      -2.679 -11.168 -42.644  1.00  0.00     0.016 C 
ATOM     23  C   UNL     1      -1.407  -9.737 -39.656  1.00  0.00    -0.006 C 
ATOM     24  C   UNL     1      -0.201  -9.446 -41.959  1.00  0.00     0.033 C 
ATOM     25  C   UNL     1      -0.209 -10.142 -40.573  1.00  0.00     0.120 C 
ATOM     26  C   UNL     1      -1.119  -8.307 -39.106  1.00  0.00     0.014 C 
ATOM     27  C   UNL     1      -1.402 -10.669 -38.410  1.00  0.00     0.014 C 
BRANCH   7  28
ATOM     28  O   UNL     1      -7.023 -11.984 -43.457  1.00  0.00    -0.393 OA
ATOM     29  H   UNL     1      -7.329 -12.400 -42.611  1.00  0.00     0.210 HD
ENDBRANCH   7  28
BRANCH  25  30
ATOM     30  O   UNL     1      -0.149 -11.541 -40.723  1.00  0.00    -0.393 OA
ATOM     31  H   UNL     1      -0.757 -11.787 -41.465  1.00  0.00     0.210 HD
ENDBRANCH  25  30
ENDBRANCH   2   6
ENDBRANCH   1   2
BRANCH   1  32
ATOM     32  C   UNL     1      -6.044  -9.282 -48.158  1.00  0.00     0.031 C 
BRANCH  32  33
ATOM     33  C   UNL     1      -5.214  -8.084 -47.725  1.00  0.00    -0.075 C 
ATOM     34  C   UNL     1      -5.800  -6.875 -47.645  1.00  0.00     0.008 C 
BRANCH  33  35
ATOM     35  C   UNL     1      -3.723  -8.248 -47.469  1.00  0.00     0.008 C 
ATOM     36  C   UNL     1      -3.003  -8.734 -48.729  1.00  0.00     0.012 C 
ATOM     37  C   UNL     1      -3.083  -6.960 -46.939  1.00  0.00     0.012 C 
ENDBRANCH  33  35
ENDBRANCH  32  33
ENDBRANCH   1  32
TORSDOF 8
ENDMDL
MODEL 2
REMARK VINA RESULT:    -5.444      4.381      8.364
REMARK INTER + INTRA:          -9.629
REMARK INTER:                  -8.152
REMARK INTRA:                  -1.476
REMARK UNBOUND:                -1.957
REMARK SMILES C=C(CC[C@@H](C(=O)[O-])[C@@H]1[C@@H](O)C[C@@]2(C)C3=C(CC[C@@]12C)[C@@]1(C)CC[C@H](O)C(C)(C)[C@@H]1CC3)C(C)C
REMARK SMILES IDX 4 1 5 2 6 3 7 4 8 5 9 6 10 7 19 8 12 9 13 10 18 11 20 12
REMARK SMILES IDX 14 13 15 14 17 15 16 16 32 17 21 18 31 19 30 20 23 21 22 22
REMARK SMILES IDX 27 23 24 24 25 25 28 26 29 27 11 28 26 30 3 32 2 33 1 34
REMARK SMILES IDX 33 35 34 36 35 37
REMARK H PARENT 11 29 26 31
REMARK Flexibility Score: inf
ROOT
ATOM      1  C   UNL     1      -0.099  -9.619 -40.297  1.00  0.00     0.014 C 
ENDROOT
BRANCH   1   2
ATOM      2  C   UNL     1      -0.387 -11.074 -40.790  1.00  0.00     0.042 C 
BRANCH   2   3
ATOM      3  C   UNL     1       0.683 -11.583 -41.727  1.00  0.00     0.045 C 
ATOM      4  O   UNL     1       0.445 -11.772 -42.952  1.00  0.00    -0.550 OA
ATOM      5  O   UNL     1       1.964 -11.810 -41.241  1.00  0.00    -0.550 OA
ENDBRANCH   2   3
BRANCH   2   6
ATOM      6  C   UNL     1      -0.751 -12.145 -39.704  1.00  0.00     0.033 C 
ATOM      7  C   UNL     1      -0.169 -13.544 -40.021  1.00  0.00     0.119 C 
ATOM      8  C   UNL     1      -2.228 -12.388 -39.224  1.00  0.00    -0.017 C 
ATOM      9  C   UNL     1      -1.188 -14.558 -39.484  1.00  0.00     0.043 C 
ATOM     10  C   UNL     1      -2.113 -13.782 -38.512  1.00  0.00    -0.003 C 
ATOM     11  C   UNL     1      -2.770 -11.335 -38.234  1.00  0.00     0.012 C 
ATOM     12  C   UNL     1      -3.224 -12.416 -40.421  1.00  0.00     0.013 C 
ATOM     13  C   UNL     1      -3.470 -14.520 -38.354  1.00  0.00     0.017 C 
ATOM     14  C   UNL     1      -1.466 -13.682 -37.100  1.00  0.00    -0.064 C 
ATOM     15  C   UNL     1      -1.969 -11.211 -36.946  1.00  0.00     0.032 C 
ATOM     16  C   UNL     1      -1.519 -12.532 -36.344  1.00  0.00    -0.064 C 
ATOM     17  C   UNL     1      -0.783 -14.943 -36.537  1.00  0.00     0.032 C 
ATOM     18  C   UNL     1      -0.904 -12.534 -34.923  1.00  0.00    -0.008 C 
ATOM     19  C   UNL     1      -0.639 -15.049 -35.001  1.00  0.00     0.009 C 
ATOM     20  C   UNL     1      -1.331 -13.892 -34.261  1.00  0.00     0.007 C 
ATOM     21  C   UNL     1      -1.446 -11.389 -34.033  1.00  0.00     0.014 C 
ATOM     22  C   UNL     1       0.629 -12.333 -35.124  1.00  0.00     0.016 C 
ATOM     23  C   UNL     1      -1.341 -13.962 -32.662  1.00  0.00    -0.006 C 
ATOM     24  C   UNL     1      -0.887 -11.385 -32.598  1.00  0.00     0.033 C 
ATOM     25  C   UNL     1      -0.571 -12.778 -31.993  1.00  0.00     0.120 C 
ATOM     26  C   UNL     1      -2.817 -13.909 -32.160  1.00  0.00     0.014 C 
ATOM     27  C   UNL     1      -0.762 -15.294 -32.107  1.00  0.00     0.014 C 
BRANCH   7  28
ATOM     28  O   UNL     1       1.074 -13.705 -39.381  1.00  0.00    -0.393 OA
ATOM     29  H   UNL     1       1.205 -12.909 -38.805  1.00  0.00     0.210 HD
ENDBRANCH   7  28
BRANCH  25  30
ATOM     30  O   UNL     1       0.817 -13.019 -32.005  1.00  0.00    -0.393 OA
ATOM     31  H   UNL     1       1.213 -12.513 -31.251  1.00  0.00     0.210 HD
ENDBRANCH  25  30
ENDBRANCH   2   6
ENDBRANCH   1   2
BRANCH   1  32
ATOM     32  C   UNL     1      -1.359  -8.747 -40.129  1.00  0.00     0.031 C 
BRANCH  32  33
ATOM     33  C   UNL     1      -2.327  -8.797 -41.300  1.00  0.00    -0.075 C 
ATOM     34  C   UNL     1      -1.843  -8.750 -42.555  1.00  0.00     0.008 C 
BRANCH  33  35
ATOM     35  C   UNL     1      -3.827  -8.817 -41.042  1.00  0.00     0.008 C 
ATOM     36  C   UNL     1      -4.365  -7.398 -40.846  1.00  0.00     0.012 C 
ATOM     37  C   UNL     1      -4.594  -9.541 -42.154  1.00  0.00     0.012 C 
ENDBRANCH  33  35
ENDBRANCH  32  33
ENDBRANCH   1  32
TORSDOF 8
ENDMDL
MODEL 3
REMARK VINA RESULT:    -5.247     12.738     15.702
REMARK INTER + INTRA:          -9.352
REMARK INTER:                  -7.462
REMARK INTRA:                  -1.890
REMARK UNBOUND:                -1.957
REMARK SMILES C=C(CC[C@@H](C(=O)[O-])[C@@H]1[C@@H](O)C[C@@]2(C)C3=C(CC[C@@]12C)[C@@]1(C)CC[C@H](O)C(C)(C)[C@@H]1CC3)C(C)C
REMARK SMILES IDX 4 1 5 2 6 3 7 4 8 5 9 6 10 7 19 8 12 9 13 10 18 11 20 12
REMARK SMILES IDX 14 13 15 14 17 15 16 16 32 17 21 18 31 19 30 20 23 21 22 22
REMARK SMILES IDX 27 23 24 24 25 25 28 26 29 27 11 28 26 30 3 32 2 33 1 34
REMARK SMILES IDX 33 35 34 36 35 37
REMARK H PARENT 11 29 26 31
REMARK Flexibility Score: inf
ROOT
ATOM      1  C   UNL     1       2.563 -24.411 -45.652  1.00  0.00     0.014 C 
ENDROOT
BRANCH   1   2
ATOM      2  C   UNL     1       2.877 -25.140 -44.305  1.00  0.00     0.042 C 
BRANCH   2   3
ATOM      3  C   UNL     1       4.238 -25.794 -44.311  1.00  0.00     0.045 C 
ATOM      4  O   UNL     1       5.268 -25.161 -44.673  1.00  0.00    -0.550 OA
ATOM      5  O   UNL     1       4.366 -27.106 -43.874  1.00  0.00    -0.550 OA
ENDBRANCH   2   3
BRANCH   2   6
ATOM      6  C   UNL     1       2.633 -24.340 -42.978  1.00  0.00     0.033 C 
ATOM      7  C   UNL     1       3.924 -24.157 -42.142  1.00  0.00     0.119 C 
ATOM      8  C   UNL     1       1.505 -24.730 -41.955  1.00  0.00    -0.017 C 
ATOM      9  C   UNL     1       3.483 -24.178 -40.673  1.00  0.00     0.043 C 
ATOM     10  C   UNL     1       1.950 -23.949 -40.669  1.00  0.00    -0.003 C 
ATOM     11  C   UNL     1       0.081 -24.301 -42.366  1.00  0.00     0.012 C 
ATOM     12  C   UNL     1       1.448 -26.269 -41.722  1.00  0.00     0.013 C 
ATOM     13  C   UNL     1       1.326 -24.495 -39.356  1.00  0.00     0.017 C 
ATOM     14  C   UNL     1       1.621 -22.429 -40.747  1.00  0.00    -0.064 C 
ATOM     15  C   UNL     1      -0.092 -22.802 -42.567  1.00  0.00     0.032 C 
ATOM     16  C   UNL     1       0.599 -21.935 -41.527  1.00  0.00    -0.064 C 
ATOM     17  C   UNL     1       2.460 -21.472 -39.879  1.00  0.00     0.032 C 
ATOM     18  C   UNL     1       0.298 -20.417 -41.502  1.00  0.00    -0.008 C 
ATOM     19  C   UNL     1       1.832 -20.107 -39.514  1.00  0.00     0.009 C 
ATOM     20  C   UNL     1       0.378 -19.977 -39.997  1.00  0.00     0.007 C 
ATOM     21  C   UNL     1      -1.124 -20.079 -42.014  1.00  0.00     0.014 C 
ATOM     22  C   UNL     1       1.344 -19.760 -42.454  1.00  0.00     0.016 C 
ATOM     23  C   UNL     1      -0.407 -18.648 -39.574  1.00  0.00    -0.006 C 
ATOM     24  C   UNL     1      -1.474 -18.579 -41.963  1.00  0.00     0.033 C 
ATOM     25  C   UNL     1      -0.838 -17.777 -40.798  1.00  0.00     0.120 C 
ATOM     26  C   UNL     1      -1.700 -19.045 -38.798  1.00  0.00     0.014 C 
ATOM     27  C   UNL     1       0.403 -17.748 -38.598  1.00  0.00     0.014 C 
BRANCH   7  28
ATOM     28  O   UNL     1       4.532 -22.929 -42.459  1.00  0.00    -0.393 OA
ATOM     29  H   UNL     1       5.474 -22.989 -42.154  1.00  0.00     0.210 HD
ENDBRANCH   7  28
BRANCH  25  30
ATOM     30  O   UNL     1       0.243 -17.003 -41.263  1.00  0.00    -0.393 OA
ATOM     31  H   UNL     1       0.629 -16.531 -40.482  1.00  0.00     0.210 HD
ENDBRANCH  25  30
ENDBRANCH   2   6
ENDBRANCH   1   2
BRANCH   1  32
ATOM     32  C   UNL     1       1.193 -23.705 -45.685  1.00  0.00     0.031 C 
BRANCH  32  33
ATOM     33  C   UNL     1       0.018 -24.614 -46.010  1.00  0.00    -0.075 C 
ATOM     34  C   UNL     1      -1.229 -24.110 -45.980  1.00  0.00     0.008 C 
BRANCH  33  35
ATOM     35  C   UNL     1       0.257 -26.092 -46.282  1.00  0.00     0.008 C 
ATOM     36  C   UNL     1      -0.237 -26.949 -45.114  1.00  0.00     0.012 C 
ATOM     37  C   UNL     1      -0.381 -26.547 -47.599  1.00  0.00     0.012 C 
ENDBRANCH  33  35
ENDBRANCH  32  33
ENDBRANCH   1  32
TORSDOF 8
ENDMDL
MODEL 4
REMARK VINA RESULT:    -5.115      2.446      8.939
REMARK INTER + INTRA:          -9.165
REMARK INTER:                  -7.696
REMARK INTRA:                  -1.469
REMARK UNBOUND:                -1.957
REMARK SMILES C=C(CC[C@@H](C(=O)[O-])[C@@H]1[C@@H](O)C[C@@]2(C)C3=C(CC[C@@]12C)[C@@]1(C)CC[C@H](O)C(C)(C)[C@@H]1CC3)C(C)C
REMARK SMILES IDX 4 1 5 2 6 3 7 4 8 5 9 6 10 7 19 8 12 9 13 10 18 11 20 12
REMARK SMILES IDX 14 13 15 14 17 15 16 16 32 17 21 18 31 19 30 20 23 21 22 22
REMARK SMILES IDX 27 23 24 24 25 25 28 26 29 27 11 28 26 30 3 32 2 33 1 34
REMARK SMILES IDX 33 35 34 36 35 37
REMARK H PARENT 11 29 26 31
REMARK Flexibility Score: inf
ROOT
ATOM      1  C   UNL     1      -1.677 -13.839 -37.617  1.00  0.00     0.014 C 
ENDROOT
BRANCH   1   2
ATOM      2  C   UNL     1      -0.686 -13.303 -38.701  1.00  0.00     0.042 C 
BRANCH   2   3
ATOM      3  C   UNL     1      -0.120 -14.411 -39.557  1.00  0.00     0.045 C 
ATOM      4  O   UNL     1       1.106 -14.450 -39.851  1.00  0.00    -0.550 OA
ATOM      5  O   UNL     1      -0.957 -15.429 -39.997  1.00  0.00    -0.550 OA
ENDBRANCH   2   3
BRANCH   2   6
ATOM      6  C   UNL     1      -1.162 -12.092 -39.576  1.00  0.00     0.033 C 
ATOM      7  C   UNL     1      -0.042 -11.535 -40.490  1.00  0.00     0.119 C 
ATOM      8  C   UNL     1      -1.881 -10.838 -38.959  1.00  0.00    -0.017 C 
ATOM      9  C   UNL     1      -0.293 -10.025 -40.595  1.00  0.00     0.043 C 
ATOM     10  C   UNL     1      -1.747  -9.784 -40.114  1.00  0.00    -0.003 C 
ATOM     11  C   UNL     1      -3.369 -11.051 -38.610  1.00  0.00     0.012 C 
ATOM     12  C   UNL     1      -1.188 -10.367 -37.646  1.00  0.00     0.013 C 
ATOM     13  C   UNL     1      -1.924  -8.314 -39.647  1.00  0.00     0.017 C 
ATOM     14  C   UNL     1      -2.756 -10.034 -41.272  1.00  0.00    -0.064 C 
ATOM     15  C   UNL     1      -4.243 -11.443 -39.793  1.00  0.00     0.032 C 
ATOM     16  C   UNL     1      -3.954 -10.686 -41.080  1.00  0.00    -0.064 C 
ATOM     17  C   UNL     1      -2.395  -9.484 -42.665  1.00  0.00     0.032 C 
ATOM     18  C   UNL     1      -4.930 -10.840 -42.271  1.00  0.00    -0.008 C 
ATOM     19  C   UNL     1      -3.556  -9.225 -43.653  1.00  0.00     0.009 C 
ATOM     20  C   UNL     1      -4.936  -9.458 -43.015  1.00  0.00     0.007 C 
ATOM     21  C   UNL     1      -6.382 -11.137 -41.823  1.00  0.00     0.014 C 
ATOM     22  C   UNL     1      -4.402 -12.050 -43.099  1.00  0.00     0.016 C 
ATOM     23  C   UNL     1      -6.214  -9.110 -43.914  1.00  0.00    -0.006 C 
ATOM     24  C   UNL     1      -7.389 -11.254 -42.982  1.00  0.00     0.033 C 
ATOM     25  C   UNL     1      -7.108 -10.355 -44.215  1.00  0.00     0.120 C 
ATOM     26  C   UNL     1      -7.096  -8.065 -43.163  1.00  0.00     0.014 C 
ATOM     27  C   UNL     1      -5.841  -8.441 -45.268  1.00  0.00     0.014 C 
BRANCH   7  28
ATOM     28  O   UNL     1      -0.112 -12.137 -41.760  1.00  0.00    -0.393 OA
ATOM     29  H   UNL     1      -0.024 -13.114 -41.618  1.00  0.00     0.210 HD
ENDBRANCH   7  28
BRANCH  25  30
ATOM     30  O   UNL     1      -6.562 -11.117 -45.266  1.00  0.00    -0.393 OA
ATOM     31  H   UNL     1      -6.066 -10.495 -45.857  1.00  0.00     0.210 HD
ENDBRANCH  25  30
ENDBRANCH   2   6
ENDBRANCH   1   2
BRANCH   1  32
ATOM     32  C   UNL     1      -1.098 -13.865 -36.189  1.00  0.00     0.031 C 
BRANCH  32  33
ATOM     33  C   UNL     1      -1.847 -13.005 -35.183  1.00  0.00    -0.075 C 
ATOM     34  C   UNL     1      -3.180 -12.866 -35.303  1.00  0.00     0.008 C 
BRANCH  33  35
ATOM     35  C   UNL     1      -1.077 -12.250 -34.110  1.00  0.00     0.008 C 
ATOM     36  C   UNL     1       0.432 -12.355 -34.346  1.00  0.00     0.012 C 
ATOM     37  C   UNL     1      -1.511 -10.783 -34.013  1.00  0.00     0.012 C 
ENDBRANCH  33  35
ENDBRANCH  32  33
ENDBRANCH   1  32
TORSDOF 8
ENDMDL
MODEL 5
REMARK VINA RESULT:    -5.012      5.702      8.614
REMARK INTER + INTRA:          -9.021
REMARK INTER:                  -8.557
REMARK INTRA:                  -0.463
REMARK UNBOUND:                -1.957
REMARK SMILES C=C(CC[C@@H](C(=O)[O-])[C@@H]1[C@@H](O)C[C@@]2(C)C3=C(CC[C@@]12C)[C@@]1(C)CC[C@H](O)C(C)(C)[C@@H]1CC3)C(C)C
REMARK SMILES IDX 4 1 5 2 6 3 7 4 8 5 9 6 10 7 19 8 12 9 13 10 18 11 20 12
REMARK SMILES IDX 14 13 15 14 17 15 16 16 32 17 21 18 31 19 30 20 23 21 22 22
REMARK SMILES IDX 27 23 24 24 25 25 28 26 29 27 11 28 26 30 3 32 2 33 1 34
REMARK SMILES IDX 33 35 34 36 35 37
REMARK H PARENT 11 29 26 31
REMARK Flexibility Score: inf
ROOT
ATOM      1  C   UNL     1      -0.061 -10.647 -41.755  1.00  0.00     0.014 C 
ENDROOT
BRANCH   1   2
ATOM      2  C   UNL     1      -0.066 -10.573 -40.193  1.00  0.00     0.042 C 
BRANCH   2   3
ATOM      3  C   UNL     1      -0.619  -9.263 -39.684  1.00  0.00     0.045 C 
ATOM      4  O   UNL     1      -0.245  -8.778 -38.581  1.00  0.00    -0.550 OA
ATOM      5  O   UNL     1      -1.528  -8.558 -40.462  1.00  0.00    -0.550 OA
ENDBRANCH   2   3
BRANCH   2   6
ATOM      6  C   UNL     1      -0.674 -11.791 -39.415  1.00  0.00     0.033 C 
ATOM      7  C   UNL     1      -0.415 -13.144 -40.121  1.00  0.00     0.119 C 
ATOM      8  C   UNL     1      -2.174 -11.827 -38.946  1.00  0.00    -0.017 C 
ATOM      9  C   UNL     1      -1.641 -14.018 -39.825  1.00  0.00     0.043 C 
ATOM     10  C   UNL     1      -2.382 -13.351 -38.638  1.00  0.00    -0.003 C 
ATOM     11  C   UNL     1      -2.479 -10.988 -37.687  1.00  0.00     0.012 C 
ATOM     12  C   UNL     1      -3.135 -11.311 -40.058  1.00  0.00     0.013 C 
ATOM     13  C   UNL     1      -3.871 -13.790 -38.617  1.00  0.00     0.017 C 
ATOM     14  C   UNL     1      -1.747 -13.780 -37.283  1.00  0.00    -0.064 C 
ATOM     15  C   UNL     1      -1.688 -11.395 -36.452  1.00  0.00     0.032 C 
ATOM     16  C   UNL     1      -1.552 -12.895 -36.247  1.00  0.00    -0.064 C 
ATOM     17  C   UNL     1      -1.371 -15.265 -37.110  1.00  0.00     0.032 C 
ATOM     18  C   UNL     1      -0.971 -13.416 -34.910  1.00  0.00    -0.008 C 
ATOM     19  C   UNL     1      -1.273 -15.811 -35.667  1.00  0.00     0.009 C 
ATOM     20  C   UNL     1      -1.698 -14.775 -34.613  1.00  0.00     0.007 C 
ATOM     21  C   UNL     1      -1.255 -12.464 -33.722  1.00  0.00     0.014 C 
ATOM     22  C   UNL     1       0.571 -13.507 -35.123  1.00  0.00     0.016 C 
ATOM     23  C   UNL     1      -1.744 -15.270 -33.092  1.00  0.00    -0.006 C 
ATOM     24  C   UNL     1      -0.727 -12.971 -32.366  1.00  0.00     0.033 C 
ATOM     25  C   UNL     1      -0.738 -14.510 -32.170  1.00  0.00     0.120 C 
ATOM     26  C   UNL     1      -3.177 -15.034 -32.523  1.00  0.00     0.014 C 
ATOM     27  C   UNL     1      -1.484 -16.796 -32.941  1.00  0.00     0.014 C 
BRANCH   7  28
ATOM     28  O   UNL     1       0.752 -13.740 -39.608  1.00  0.00    -0.393 OA
ATOM     29  H   UNL     1       1.437 -13.026 -39.553  1.00  0.00     0.210 HD
ENDBRANCH   7  28
BRANCH  25  30
ATOM     30  O   UNL     1       0.561 -15.035 -32.313  1.00  0.00    -0.393 OA
ATOM     31  H   UNL     1       0.473 -16.013 -32.447  1.00  0.00     0.210 HD
ENDBRANCH  25  30
ENDBRANCH   2   6
ENDBRANCH   1   2
BRANCH   1  32
ATOM     32  C   UNL     1       1.093  -9.872 -42.422  1.00  0.00     0.031 C 
BRANCH  32  33
ATOM     33  C   UNL     1       2.339 -10.700 -42.695  1.00  0.00    -0.075 C 
ATOM     34  C   UNL     1       3.146 -11.029 -41.671  1.00  0.00     0.008 C 
BRANCH  33  35
ATOM     35  C   UNL     1       2.699 -11.073 -44.126  1.00  0.00     0.008 C 
ATOM     36  C   UNL     1       2.163 -12.462 -44.479  1.00  0.00     0.012 C 
ATOM     37  C   UNL     1       2.211 -10.029 -45.136  1.00  0.00     0.012 C 
ENDBRANCH  33  35
ENDBRANCH  32  33
ENDBRANCH   1  32
TORSDOF 8
ENDMDL
MODEL 6
REMARK VINA RESULT:    -4.989      5.178     10.641
REMARK INTER + INTRA:          -8.988
REMARK INTER:                  -6.436
REMARK INTRA:                  -2.551
REMARK UNBOUND:                -1.957
REMARK SMILES C=C(CC[C@@H](C(=O)[O-])[C@@H]1[C@@H](O)C[C@@]2(C)C3=C(CC[C@@]12C)[C@@]1(C)CC[C@H](O)C(C)(C)[C@@H]1CC3)C(C)C
REMARK SMILES IDX 4 1 5 2 6 3 7 4 8 5 9 6 10 7 19 8 12 9 13 10 18 11 20 12
REMARK SMILES IDX 14 13 15 14 17 15 16 16 32 17 21 18 31 19 30 20 23 21 22 22
REMARK SMILES IDX 27 23 24 24 25 25 28 26 29 27 11 28 26 30 3 32 2 33 1 34
REMARK SMILES IDX 33 35 34 36 35 37
REMARK H PARENT 11 29 26 31
REMARK Flexibility Score: inf
ROOT
ATOM      1  C   UNL     1       0.439 -17.340 -35.874  1.00  0.00     0.014 C 
ENDROOT
BRANCH   1   2
ATOM      2  C   UNL     1      -0.187 -16.484 -34.726  1.00  0.00     0.042 C 
BRANCH   2   3
ATOM      3  C   UNL     1       0.716 -16.399 -33.518  1.00  0.00     0.045 C 
ATOM      4  O   UNL     1       0.280 -16.629 -32.356  1.00  0.00    -0.550 OA
ATOM      5  O   UNL     1       2.061 -16.102 -33.692  1.00  0.00    -0.550 OA
ENDBRANCH   2   3
BRANCH   2   6
ATOM      6  C   UNL     1      -0.765 -15.077 -35.107  1.00  0.00     0.033 C 
ATOM      7  C   UNL     1      -0.010 -13.912 -34.421  1.00  0.00     0.119 C 
ATOM      8  C   UNL     1      -2.294 -14.734 -34.986  1.00  0.00    -0.017 C 
ATOM      9  C   UNL     1      -1.058 -12.822 -34.162  1.00  0.00     0.043 C 
ATOM     10  C   UNL     1      -2.281 -13.166 -35.051  1.00  0.00    -0.003 C 
ATOM     11  C   UNL     1      -3.177 -15.301 -36.118  1.00  0.00     0.012 C 
ATOM     12  C   UNL     1      -2.898 -15.266 -33.653  1.00  0.00     0.013 C 
ATOM     13  C   UNL     1      -3.565 -12.503 -34.482  1.00  0.00     0.017 C 
ATOM     14  C   UNL     1      -2.077 -12.628 -36.497  1.00  0.00    -0.064 C 
ATOM     15  C   UNL     1      -2.793 -14.828 -37.513  1.00  0.00     0.032 C 
ATOM     16  C   UNL     1      -2.434 -13.354 -37.612  1.00  0.00    -0.064 C 
ATOM     17  C   UNL     1      -1.490 -11.212 -36.656  1.00  0.00     0.032 C 
ATOM     18  C   UNL     1      -2.256 -12.722 -39.013  1.00  0.00    -0.008 C 
ATOM     19  C   UNL     1      -1.786 -10.462 -37.976  1.00  0.00     0.009 C 
ATOM     20  C   UNL     1      -2.748 -11.236 -38.892  1.00  0.00     0.007 C 
ATOM     21  C   UNL     1      -3.117 -13.414 -40.098  1.00  0.00     0.014 C 
ATOM     22  C   UNL     1      -0.750 -12.907 -39.374  1.00  0.00     0.016 C 
ATOM     23  C   UNL     1      -3.213 -10.501 -40.236  1.00  0.00    -0.006 C 
ATOM     24  C   UNL     1      -2.997 -12.783 -41.498  1.00  0.00     0.033 C 
ATOM     25  C   UNL     1      -2.761 -11.250 -41.530  1.00  0.00     0.120 C 
ATOM     26  C   UNL     1      -4.770 -10.417 -40.258  1.00  0.00     0.014 C 
ATOM     27  C   UNL     1      -2.716  -9.030 -40.327  1.00  0.00     0.014 C 
BRANCH   7  28
ATOM     28  O   UNL     1       1.005 -13.431 -35.269  1.00  0.00    -0.393 OA
ATOM     29  H   UNL     1       1.592 -14.201 -35.478  1.00  0.00     0.210 HD
ENDBRANCH   7  28
BRANCH  25  30
ATOM     30  O   UNL     1      -1.414 -10.963 -41.826  1.00  0.00    -0.393 OA
ATOM     31  H   UNL     1      -1.092 -10.317 -41.148  1.00  0.00     0.210 HD
ENDBRANCH  25  30
ENDBRANCH   2   6
ENDBRANCH   1   2
BRANCH   1  32
ATOM     32  C   UNL     1       0.556 -16.601 -37.222  1.00  0.00     0.031 C 
BRANCH  32  33
ATOM     33  C   UNL     1      -0.323 -17.158 -38.331  1.00  0.00    -0.075 C 
ATOM     34  C   UNL     1      -1.133 -18.199 -38.066  1.00  0.00     0.008 C 
BRANCH  33  35
ATOM     35  C   UNL     1      -0.216 -16.590 -39.739  1.00  0.00     0.008 C 
ATOM     36  C   UNL     1       0.931 -17.250 -40.508  1.00  0.00     0.012 C 
ATOM     37  C   UNL     1      -1.533 -16.715 -40.513  1.00  0.00     0.012 C 
ENDBRANCH  33  35
ENDBRANCH  32  33
ENDBRANCH   1  32
TORSDOF 8
ENDMDL
MODEL 7
REMARK VINA RESULT:    -4.922      8.464     12.112
REMARK INTER + INTRA:          -8.893
REMARK INTER:                  -6.745
REMARK INTRA:                  -2.148
REMARK UNBOUND:                -1.957
REMARK SMILES C=C(CC[C@@H](C(=O)[O-])[C@@H]1[C@@H](O)C[C@@]2(C)C3=C(CC[C@@]12C)[C@@]1(C)CC[C@H](O)C(C)(C)[C@@H]1CC3)C(C)C
REMARK SMILES IDX 4 1 5 2 6 3 7 4 8 5 9 6 10 7 19 8 12 9 13 10 18 11 20 12
REMARK SMILES IDX 14 13 15 14 17 15 16 16 32 17 21 18 31 19 30 20 23 21 22 22
REMARK SMILES IDX 27 23 24 24 25 25 28 26 29 27 11 28 26 30 3 32 2 33 1 34
REMARK SMILES IDX 33 35 34 36 35 37
REMARK H PARENT 11 29 26 31
REMARK Flexibility Score: inf
ROOT
ATOM      1  C   UNL     1       1.247 -13.713 -33.830  1.00  0.00     0.014 C 
ENDROOT
BRANCH   1   2
ATOM      2  C   UNL     1      -0.240 -13.243 -33.935  1.00  0.00     0.042 C 
BRANCH   2   3
ATOM      3  C   UNL     1      -0.384 -11.751 -33.752  1.00  0.00     0.045 C 
ATOM      4  O   UNL     1       0.243 -10.937 -34.484  1.00  0.00    -0.550 OA
ATOM      5  O   UNL     1      -1.253 -11.263 -32.785  1.00  0.00    -0.550 OA
ENDBRANCH   2   3
BRANCH   2   6
ATOM      6  C   UNL     1      -1.071 -13.750 -35.165  1.00  0.00     0.033 C 
ATOM      7  C   UNL     1      -1.668 -12.594 -36.005  1.00  0.00     0.119 C 
ATOM      8  C   UNL     1      -2.215 -14.819 -35.025  1.00  0.00    -0.017 C 
ATOM      9  C   UNL     1      -3.007 -13.110 -36.546  1.00  0.00     0.043 C 
ATOM     10  C   UNL     1      -2.984 -14.652 -36.383  1.00  0.00    -0.003 C 
ATOM     11  C   UNL     1      -1.726 -16.275 -34.872  1.00  0.00     0.012 C 
ATOM     12  C   UNL     1      -3.122 -14.531 -33.792  1.00  0.00     0.013 C 
ATOM     13  C   UNL     1      -4.431 -15.214 -36.358  1.00  0.00     0.017 C 
ATOM     14  C   UNL     1      -2.242 -15.320 -37.577  1.00  0.00    -0.064 C 
ATOM     15  C   UNL     1      -0.877 -16.779 -36.031  1.00  0.00     0.032 C 
ATOM     16  C   UNL     1      -1.375 -16.376 -37.410  1.00  0.00    -0.064 C 
ATOM     17  C   UNL     1      -2.539 -14.784 -38.991  1.00  0.00     0.032 C 
ATOM     18  C   UNL     1      -0.725 -17.024 -38.656  1.00  0.00    -0.008 C 
ATOM     19  C   UNL     1      -2.277 -15.734 -40.182  1.00  0.00     0.009 C 
ATOM     20  C   UNL     1      -1.861 -17.144 -39.733  1.00  0.00     0.007 C 
ATOM     21  C   UNL     1      -0.188 -18.450 -38.381  1.00  0.00     0.014 C 
ATOM     22  C   UNL     1       0.472 -16.101 -39.039  1.00  0.00     0.016 C 
ATOM     23  C   UNL     1      -1.675 -18.243 -40.882  1.00  0.00    -0.006 C 
ATOM     24  C   UNL     1       0.429 -19.141 -39.611  1.00  0.00     0.033 C 
ATOM     25  C   UNL     1      -0.213 -18.786 -40.978  1.00  0.00     0.120 C 
ATOM     26  C   UNL     1      -2.611 -19.454 -40.585  1.00  0.00     0.014 C 
ATOM     27  C   UNL     1      -2.095 -17.728 -42.289  1.00  0.00     0.014 C 
BRANCH   7  28
ATOM     28  O   UNL     1      -0.799 -12.269 -37.063  1.00  0.00    -0.393 OA
ATOM     29  H   UNL     1      -0.862 -13.007 -37.722  1.00  0.00     0.210 HD
ENDBRANCH   7  28
BRANCH  25  30
ATOM     30  O   UNL     1       0.605 -17.887 -41.689  1.00  0.00    -0.393 OA
ATOM     31  H   UNL     1       0.457 -18.050 -42.655  1.00  0.00     0.210 HD
ENDBRANCH  25  30
ENDBRANCH   2   6
ENDBRANCH   1   2
BRANCH   1  32
ATOM     32  C   UNL     1       1.730 -14.558 -35.025  1.00  0.00     0.031 C 
BRANCH  32  33
ATOM     33  C   UNL     1       2.256 -15.937 -34.656  1.00  0.00    -0.075 C 
ATOM     34  C   UNL     1       2.571 -16.803 -35.636  1.00  0.00     0.008 C 
BRANCH  33  35
ATOM     35  C   UNL     1       2.341 -16.347 -33.193  1.00  0.00     0.008 C 
ATOM     36  C   UNL     1       1.218 -17.322 -32.834  1.00  0.00     0.012 C 
ATOM     37  C   UNL     1       3.710 -16.940 -32.839  1.00  0.00     0.012 C 
ENDBRANCH  33  35
ENDBRANCH  32  33
ENDBRANCH   1  32
TORSDOF 8
ENDMDL
MODEL 8
REMARK VINA RESULT:    -4.808     13.245     16.746
REMARK INTER + INTRA:          -8.734
REMARK INTER:                  -6.369
REMARK INTRA:                  -2.364
REMARK UNBOUND:                -1.957
REMARK SMILES C=C(CC[C@@H](C(=O)[O-])[C@@H]1[C@@H](O)C[C@@]2(C)C3=C(CC[C@@]12C)[C@@]1(C)CC[C@H](O)C(C)(C)[C@@H]1CC3)C(C)C
REMARK SMILES IDX 4 1 5 2 6 3 7 4 8 5 9 6 10 7 19 8 12 9 13 10 18 11 20 12
REMARK SMILES IDX 14 13 15 14 17 15 16 16 32 17 21 18 31 19 30 20 23 21 22 22
REMARK SMILES IDX 27 23 24 24 25 25 28 26 29 27 11 28 26 30 3 32 2 33 1 34
REMARK SMILES IDX 33 35 34 36 35 37
REMARK H PARENT 11 29 26 31
REMARK Flexibility Score: inf
ROOT
ATOM      1  C   UNL     1       4.520 -21.211 -40.173  1.00  0.00     0.014 C 
ENDROOT
BRANCH   1   2
ATOM      2  C   UNL     1       3.034 -20.904 -39.799  1.00  0.00     0.042 C 
BRANCH   2   3
ATOM      3  C   UNL     1       2.830 -19.460 -39.403  1.00  0.00     0.045 C 
ATOM      4  O   UNL     1       2.056 -19.143 -38.459  1.00  0.00    -0.550 OA
ATOM      5  O   UNL     1       3.538 -18.466 -40.064  1.00  0.00    -0.550 OA
ENDBRANCH   2   3
BRANCH   2   6
ATOM      6  C   UNL     1       1.924 -21.383 -40.799  1.00  0.00     0.033 C 
ATOM      7  C   UNL     1       1.245 -20.212 -41.550  1.00  0.00     0.119 C 
ATOM      8  C   UNL     1       0.764 -22.353 -40.367  1.00  0.00    -0.017 C 
ATOM      9  C   UNL     1      -0.213 -20.638 -41.769  1.00  0.00     0.043 C 
ATOM     10  C   UNL     1      -0.264 -22.170 -41.538  1.00  0.00    -0.003 C 
ATOM     11  C   UNL     1       1.171 -23.837 -40.249  1.00  0.00     0.012 C 
ATOM     12  C   UNL     1       0.166 -21.953 -38.986  1.00  0.00     0.013 C 
ATOM     13  C   UNL     1      -1.708 -22.613 -41.181  1.00  0.00     0.017 C 
ATOM     14  C   UNL     1       0.155 -22.934 -42.828  1.00  0.00    -0.064 C 
ATOM     15  C   UNL     1       1.713 -24.446 -41.535  1.00  0.00     0.032 C 
ATOM     16  C   UNL     1       0.961 -24.051 -42.796  1.00  0.00    -0.064 C 
ATOM     17  C   UNL     1      -0.400 -22.424 -44.172  1.00  0.00     0.032 C 
ATOM     18  C   UNL     1       1.281 -24.789 -44.118  1.00  0.00    -0.008 C 
ATOM     19  C   UNL     1      -0.468 -23.431 -45.343  1.00  0.00     0.009 C 
ATOM     20  C   UNL     1      -0.066 -24.854 -44.922  1.00  0.00     0.007 C 
ATOM     21  C   UNL     1       1.762 -26.243 -43.891  1.00  0.00     0.014 C 
ATOM     22  C   UNL     1       2.430 -23.978 -44.790  1.00  0.00     0.016 C 
ATOM     23  C   UNL     1      -0.209 -26.002 -46.029  1.00  0.00    -0.006 C 
ATOM     24  C   UNL     1       2.049 -27.022 -45.189  1.00  0.00     0.033 C 
ATOM     25  C   UNL     1       1.156 -26.663 -46.405  1.00  0.00     0.120 C 
ATOM     26  C   UNL     1      -1.142 -27.124 -45.481  1.00  0.00     0.014 C 
ATOM     27  C   UNL     1      -0.884 -25.503 -47.339  1.00  0.00     0.014 C 
BRANCH   7  28
ATOM     28  O   UNL     1       1.887 -19.993 -42.782  1.00  0.00    -0.393 OA
ATOM     29  H   UNL     1       2.861 -20.077 -42.617  1.00  0.00     0.210 HD
ENDBRANCH   7  28
BRANCH  25  30
ATOM     30  O   UNL     1       1.864 -25.856 -47.317  1.00  0.00    -0.393 OA
ATOM     31  H   UNL     1       1.621 -24.913 -47.131  1.00  0.00     0.210 HD
ENDBRANCH  25  30
ENDBRANCH   2   6
ENDBRANCH   1   2
BRANCH   1  32
ATOM     32  C   UNL     1       4.697 -21.920 -41.531  1.00  0.00     0.031 C 
BRANCH  32  33
ATOM     33  C   UNL     1       5.257 -23.331 -41.443  1.00  0.00    -0.075 C 
ATOM     34  C   UNL     1       5.228 -24.118 -42.533  1.00  0.00     0.008 C 
BRANCH  33  35
ATOM     35  C   UNL     1       5.764 -23.862 -40.110  1.00  0.00     0.008 C 
ATOM     36  C   UNL     1       4.872 -24.994 -39.598  1.00  0.00     0.012 C 
ATOM     37  C   UNL     1       7.227 -24.314 -40.188  1.00  0.00     0.012 C 
ENDBRANCH  33  35
ENDBRANCH  32  33
ENDBRANCH   1  32
TORSDOF 8
ENDMDL
MODEL 9
REMARK VINA RESULT:    -4.695     11.490     15.170
REMARK INTER + INTRA:          -8.574
REMARK INTER:                  -6.073
REMARK INTRA:                  -2.501
REMARK UNBOUND:                -1.957
REMARK SMILES C=C(CC[C@@H](C(=O)[O-])[C@@H]1[C@@H](O)C[C@@]2(C)C3=C(CC[C@@]12C)[C@@]1(C)CC[C@H](O)C(C)(C)[C@@H]1CC3)C(C)C
REMARK SMILES IDX 4 1 5 2 6 3 7 4 8 5 9 6 10 7 19 8 12 9 13 10 18 11 20 12
REMARK SMILES IDX 14 13 15 14 17 15 16 16 32 17 21 18 31 19 30 20 23 21 22 22
REMARK SMILES IDX 27 23 24 24 25 25 28 26 29 27 11 28 26 30 3 32 2 33 1 34
REMARK SMILES IDX 33 35 34 36 35 37
REMARK H PARENT 11 29 26 31
REMARK Flexibility Score: inf
ROOT
ATOM      1  C   UNL     1       3.754 -19.114 -38.991  1.00  0.00     0.014 C 
ENDROOT
BRANCH   1   2
ATOM      2  C   UNL     1       2.448 -18.370 -39.420  1.00  0.00     0.042 C 
BRANCH   2   3
ATOM      3  C   UNL     1       2.702 -16.924 -39.773  1.00  0.00     0.045 C 
ATOM      4  O   UNL     1       3.660 -16.591 -40.523  1.00  0.00    -0.550 OA
ATOM      5  O   UNL     1       1.841 -15.944 -39.295  1.00  0.00    -0.550 OA
ENDBRANCH   2   3
BRANCH   2   6
ATOM      6  C   UNL     1       1.539 -19.068 -40.491  1.00  0.00     0.033 C 
ATOM      7  C   UNL     1       1.365 -18.221 -41.775  1.00  0.00     0.119 C 
ATOM      8  C   UNL     1       0.112 -19.631 -40.146  1.00  0.00    -0.017 C 
ATOM      9  C   UNL     1      -0.052 -18.515 -42.288  1.00  0.00     0.043 C 
ATOM     10  C   UNL     1      -0.521 -19.807 -41.571  1.00  0.00    -0.003 C 
ATOM     11  C   UNL     1       0.112 -20.982 -39.399  1.00  0.00     0.012 C 
ATOM     12  C   UNL     1      -0.696 -18.640 -39.257  1.00  0.00     0.013 C 
ATOM     13  C   UNL     1      -2.072 -19.886 -41.564  1.00  0.00     0.017 C 
ATOM     14  C   UNL     1       0.009 -21.069 -42.311  1.00  0.00    -0.064 C 
ATOM     15  C   UNL     1       0.794 -22.117 -40.150  1.00  0.00     0.032 C 
ATOM     16  C   UNL     1       0.493 -22.170 -41.639  1.00  0.00    -0.064 C 
ATOM     17  C   UNL     1      -0.058 -21.075 -43.850  1.00  0.00     0.032 C 
ATOM     18  C   UNL     1       0.945 -23.409 -42.448  1.00  0.00    -0.008 C 
ATOM     19  C   UNL     1      -0.072 -22.451 -44.557  1.00  0.00     0.009 C 
ATOM     20  C   UNL     1      -0.137 -23.624 -43.565  1.00  0.00     0.007 C 
ATOM     21  C   UNL     1       0.995 -24.699 -41.592  1.00  0.00     0.014 C 
ATOM     22  C   UNL     1       2.383 -23.085 -42.953  1.00  0.00     0.016 C 
ATOM     23  C   UNL     1      -0.270 -25.091 -44.191  1.00  0.00    -0.006 C 
ATOM     24  C   UNL     1       1.401 -25.962 -42.375  1.00  0.00     0.033 C 
ATOM     25  C   UNL     1       0.948 -26.011 -43.858  1.00  0.00     0.120 C 
ATOM     26  C   UNL     1      -1.550 -25.775 -43.618  1.00  0.00     0.014 C 
ATOM     27  C   UNL     1      -0.462 -25.079 -45.734  1.00  0.00     0.014 C 
BRANCH   7  28
ATOM     28  O   UNL     1       2.325 -18.596 -42.733  1.00  0.00    -0.393 OA
ATOM     29  H   UNL     1       1.994 -18.275 -43.611  1.00  0.00     0.210 HD
ENDBRANCH   7  28
BRANCH  25  30
ATOM     30  O   UNL     1       2.030 -25.732 -44.714  1.00  0.00    -0.393 OA
ATOM     31  H   UNL     1       1.757 -24.986 -45.306  1.00  0.00     0.210 HD
ENDBRANCH  25  30
ENDBRANCH   2   6
ENDBRANCH   1   2
BRANCH   1  32
ATOM     32  C   UNL     1       4.142 -20.291 -39.908  1.00  0.00     0.031 C 
BRANCH  32  33
ATOM     33  C   UNL     1       4.269 -21.632 -39.201  1.00  0.00    -0.075 C 
ATOM     34  C   UNL     1       3.735 -21.780 -37.975  1.00  0.00     0.008 C 
BRANCH  33  35
ATOM     35  C   UNL     1       5.064 -22.756 -39.848  1.00  0.00     0.008 C 
ATOM     36  C   UNL     1       4.247 -24.050 -39.886  1.00  0.00     0.012 C 
ATOM     37  C   UNL     1       5.555 -22.382 -41.251  1.00  0.00     0.012 C 
ENDBRANCH  33  35
ENDBRANCH  32  33
ENDBRANCH   1  32
TORSDOF 8
ENDMDL
