MODEL 1
REMARK VINA RESULT:    -6.299      0.000      0.000
REMARK INTER + INTRA:          -7.693
REMARK INTER:                  -7.404
REMARK INTRA:                  -0.289
REMARK UNBOUND:                -0.289
REMARK SMILES O=c1c(O)c(-c2ccc(O)cc2)oc2cc(O)cc(O)c12
REMARK SMILES IDX 5 1 3 2 2 3 1 4 21 5 19 6 18 7 16 8 15 9 14 10 13 11 6 12
REMARK SMILES IDX 7 13 8 14 9 15 12 16 11 17 10 18 4 20 20 22 17 24
REMARK H PARENT 10 19 4 21 20 23 17 25
REMARK Flexibility Score: inf
ROOT
ATOM      1  C   UNL     1      -9.870  25.909  22.683  1.00  0.00     0.180 A 
ATOM      2  C   UNL     1      -9.401  26.712  21.629  1.00  0.00     0.208 A 
ATOM      3  C   UNL     1      -9.407  26.195  20.324  1.00  0.00     0.238 A 
ATOM      4  O   UNL     1      -8.935  26.899  19.393  1.00  0.00    -0.285 OA
ATOM      5  C   UNL     1      -9.897  24.888  20.086  1.00  0.00     0.111 A 
ATOM      6  C   UNL     1      -9.987  24.278  18.799  1.00  0.00     0.134 A 
ATOM      7  C   UNL     1     -10.365  22.933  18.697  1.00  0.00     0.093 A 
ATOM      8  C   UNL     1     -10.719  22.196  19.830  1.00  0.00     0.123 A 
ATOM      9  C   UNL     1     -10.691  22.802  21.085  1.00  0.00     0.094 A 
ATOM     10  C   UNL     1     -10.283  24.130  21.223  1.00  0.00     0.146 A 
ATOM     11  O   UNL     1     -10.262  24.665  22.437  1.00  0.00    -0.452 OA
ENDROOT
BRANCH   1  12
ATOM     12  C   UNL     1      -9.918  26.394  24.081  1.00  0.00     0.021 A 
ATOM     13  C   UNL     1     -11.067  27.056  24.545  1.00  0.00     0.016 A 
ATOM     14  C   UNL     1     -11.125  27.542  25.855  1.00  0.00     0.047 A 
ATOM     15  C   UNL     1     -10.029  27.385  26.713  1.00  0.00     0.115 A 
ATOM     16  C   UNL     1      -8.814  26.257  24.943  1.00  0.00     0.016 A 
ATOM     17  C   UNL     1      -8.875  26.745  26.252  1.00  0.00     0.047 A 
BRANCH  15  18
ATOM     18  O   UNL     1     -10.075  27.864  28.020  1.00  0.00    -0.508 OA
ATOM     19  H   UNL     1     -10.811  28.487  28.330  1.00  0.00     0.293 HD
ENDBRANCH  15  18
ENDBRANCH   1  12
BRANCH   2  20
ATOM     20  O   UNL     1      -8.901  27.991  21.889  1.00  0.00    -0.502 OA
ATOM     21  H   UNL     1      -7.965  28.148  22.242  1.00  0.00     0.293 HD
ENDBRANCH   2  20
BRANCH   6  22
ATOM     22  O   UNL     1      -9.746  24.951  17.598  1.00  0.00    -0.507 OA
ATOM     23  H   UNL     1     -10.463  25.298  16.980  1.00  0.00     0.293 HD
ENDBRANCH   6  22
BRANCH   8  24
ATOM     24  O   UNL     1     -11.109  20.864  19.717  1.00  0.00    -0.508 OA
ATOM     25  H   UNL     1     -10.437  20.129  19.534  1.00  0.00     0.293 HD
ENDBRANCH   8  24
TORSDOF 5
ENDMDL
MODEL 2
REMARK VINA RESULT:    -5.845      1.332      6.446
REMARK INTER + INTRA:          -7.159
REMARK INTER:                  -7.214
REMARK INTRA:                   0.055
REMARK UNBOUND:                -0.289
REMARK SMILES O=c1c(O)c(-c2ccc(O)cc2)oc2cc(O)cc(O)c12
REMARK SMILES IDX 5 1 3 2 2 3 1 4 21 5 19 6 18 7 16 8 15 9 14 10 13 11 6 12
REMARK SMILES IDX 7 13 8 14 9 15 12 16 11 17 10 18 4 20 20 22 17 24
REMARK H PARENT 10 19 4 21 20 23 17 25
REMARK Flexibility Score: inf
ROOT
ATOM      1  C   UNL     1     -10.009  25.089  22.327  1.00  0.00     0.180 A 
ATOM      2  C   UNL     1      -9.433  26.264  21.812  1.00  0.00     0.208 A 
ATOM      3  C   UNL     1      -9.245  27.362  22.668  1.00  0.00     0.238 A 
ATOM      4  O   UNL     1      -8.779  28.428  22.188  1.00  0.00    -0.285 OA
ATOM      5  C   UNL     1      -9.621  27.267  24.029  1.00  0.00     0.111 A 
ATOM      6  C   UNL     1      -9.439  28.302  24.994  1.00  0.00     0.134 A 
ATOM      7  C   UNL     1      -9.967  28.146  26.282  1.00  0.00     0.093 A 
ATOM      8  C   UNL     1     -10.612  26.966  26.658  1.00  0.00     0.123 A 
ATOM      9  C   UNL     1     -10.742  25.926  25.740  1.00  0.00     0.094 A 
ATOM     10  C   UNL     1     -10.258  26.065  24.437  1.00  0.00     0.146 A 
ATOM     11  O   UNL     1     -10.411  25.054  23.592  1.00  0.00    -0.452 OA
ENDROOT
BRANCH   1  12
ATOM     12  C   UNL     1     -10.216  23.883  21.494  1.00  0.00     0.021 A 
ATOM     13  C   UNL     1     -10.898  23.996  20.270  1.00  0.00     0.016 A 
ATOM     14  C   UNL     1     -11.124  22.866  19.478  1.00  0.00     0.047 A 
ATOM     15  C   UNL     1     -10.686  21.606  19.907  1.00  0.00     0.115 A 
ATOM     16  C   UNL     1      -9.796  22.612  21.927  1.00  0.00     0.016 A 
ATOM     17  C   UNL     1     -10.025  21.483  21.133  1.00  0.00     0.047 A 
BRANCH  15  18
ATOM     18  O   UNL     1     -10.905  20.474  19.127  1.00  0.00    -0.508 OA
ATOM     19  H   UNL     1     -10.489  19.581  19.361  1.00  0.00     0.293 HD
ENDBRANCH  15  18
ENDBRANCH   1  12
BRANCH   2  20
ATOM     20  O   UNL     1      -9.090  26.345  20.460  1.00  0.00    -0.502 OA
ATOM     21  H   UNL     1      -8.624  27.152  20.064  1.00  0.00     0.293 HD
ENDBRANCH   2  20
BRANCH   6  22
ATOM     22  O   UNL     1      -8.730  29.481  24.749  1.00  0.00    -0.507 OA
ATOM     23  H   UNL     1      -8.166  29.965  25.432  1.00  0.00     0.293 HD
ENDBRANCH   6  22
BRANCH   8  24
ATOM     24  O   UNL     1     -11.120  26.813  27.946  1.00  0.00    -0.508 OA
ATOM     25  H   UNL     1     -11.384  27.612  28.510  1.00  0.00     0.293 HD
ENDBRANCH   8  24
TORSDOF 5
ENDMDL
MODEL 3
REMARK VINA RESULT:    -5.838      1.440      6.374
REMARK INTER + INTRA:          -7.151
REMARK INTER:                  -7.514
REMARK INTRA:                   0.363
REMARK UNBOUND:                -0.289
REMARK SMILES O=c1c(O)c(-c2ccc(O)cc2)oc2cc(O)cc(O)c12
REMARK SMILES IDX 5 1 3 2 2 3 1 4 21 5 19 6 18 7 16 8 15 9 14 10 13 11 6 12
REMARK SMILES IDX 7 13 8 14 9 15 12 16 11 17 10 18 4 20 20 22 17 24
REMARK H PARENT 10 19 4 21 20 23 17 25
REMARK Flexibility Score: inf
ROOT
ATOM      1  C   UNL     1     -10.247  25.240  21.397  1.00  0.00     0.180 A 
ATOM      2  C   UNL     1     -10.355  26.427  20.652  1.00  0.00     0.208 A 
ATOM      3  C   UNL     1     -10.082  27.653  21.281  1.00  0.00     0.238 A 
ATOM      4  O   UNL     1     -10.234  28.716  20.623  1.00  0.00    -0.285 OA
ATOM      5  C   UNL     1      -9.688  27.676  22.640  1.00  0.00     0.111 A 
ATOM      6  C   UNL     1      -9.348  28.857  23.365  1.00  0.00     0.134 A 
ATOM      7  C   UNL     1      -9.098  28.775  24.742  1.00  0.00     0.093 A 
ATOM      8  C   UNL     1      -9.114  27.545  25.404  1.00  0.00     0.123 A 
ATOM      9  C   UNL     1      -9.387  26.379  24.691  1.00  0.00     0.094 A 
ATOM     10  C   UNL     1      -9.675  26.433  23.326  1.00  0.00     0.146 A 
ATOM     11  O   UNL     1      -9.939  25.300  22.688  1.00  0.00    -0.452 OA
ENDROOT
BRANCH   1  12
ATOM     12  C   UNL     1     -10.495  23.909  20.799  1.00  0.00     0.021 A 
ATOM     13  C   UNL     1     -10.783  22.818  21.635  1.00  0.00     0.016 A 
ATOM     14  C   UNL     1     -10.998  21.546  21.092  1.00  0.00     0.047 A 
ATOM     15  C   UNL     1     -10.912  21.348  19.708  1.00  0.00     0.115 A 
ATOM     16  C   UNL     1     -10.390  23.698  19.411  1.00  0.00     0.016 A 
ATOM     17  C   UNL     1     -10.605  22.425  18.872  1.00  0.00     0.047 A 
BRANCH  15  18
ATOM     18  O   UNL     1     -11.125  20.087  19.157  1.00  0.00    -0.508 OA
ATOM     19  H   UNL     1     -11.753  19.951  18.374  1.00  0.00     0.293 HD
ENDBRANCH  15  18
ENDBRANCH   1  12
BRANCH   2  20
ATOM     20  O   UNL     1     -10.768  26.384  19.318  1.00  0.00    -0.502 OA
ATOM     21  H   UNL     1     -10.970  25.515  18.838  1.00  0.00     0.293 HD
ENDBRANCH   2  20
BRANCH   6  22
ATOM     22  O   UNL     1      -9.214  30.119  22.782  1.00  0.00    -0.507 OA
ATOM     23  H   UNL     1      -8.657  30.319  21.965  1.00  0.00     0.293 HD
ENDBRANCH   6  22
BRANCH   8  24
ATOM     24  O   UNL     1      -8.849  27.470  26.769  1.00  0.00    -0.508 OA
ATOM     25  H   UNL     1      -9.169  26.689  27.329  1.00  0.00     0.293 HD
ENDBRANCH   8  24
TORSDOF 5
ENDMDL
MODEL 4
REMARK VINA RESULT:    -5.723      1.952      3.066
REMARK INTER + INTRA:          -7.015
REMARK INTER:                  -6.892
REMARK INTRA:                  -0.123
REMARK UNBOUND:                -0.289
REMARK SMILES O=c1c(O)c(-c2ccc(O)cc2)oc2cc(O)cc(O)c12
REMARK SMILES IDX 5 1 3 2 2 3 1 4 21 5 19 6 18 7 16 8 15 9 14 10 13 11 6 12
REMARK SMILES IDX 7 13 8 14 9 15 12 16 11 17 10 18 4 20 20 22 17 24
REMARK H PARENT 10 19 4 21 20 23 17 25
REMARK Flexibility Score: inf
ROOT
ATOM      1  C   UNL     1     -10.189  26.365  22.268  1.00  0.00     0.180 A 
ATOM      2  C   UNL     1     -10.063  25.097  22.861  1.00  0.00     0.208 A 
ATOM      3  C   UNL     1     -10.118  23.955  22.044  1.00  0.00     0.238 A 
ATOM      4  O   UNL     1     -10.059  22.821  22.588  1.00  0.00    -0.285 OA
ATOM      5  C   UNL     1     -10.283  24.096  20.646  1.00  0.00     0.111 A 
ATOM      6  C   UNL     1     -10.312  23.011  19.720  1.00  0.00     0.134 A 
ATOM      7  C   UNL     1     -10.611  23.259  18.373  1.00  0.00     0.093 A 
ATOM      8  C   UNL     1     -10.818  24.560  17.910  1.00  0.00     0.123 A 
ATOM      9  C   UNL     1     -10.732  25.632  18.796  1.00  0.00     0.094 A 
ATOM     10  C   UNL     1     -10.471  25.414  20.151  1.00  0.00     0.146 A 
ATOM     11  O   UNL     1     -10.408  26.461  20.962  1.00  0.00    -0.452 OA
ENDROOT
BRANCH   1  12
ATOM     12  C   UNL     1     -10.116  27.614  23.059  1.00  0.00     0.021 A 
ATOM     13  C   UNL     1     -11.124  27.901  23.994  1.00  0.00     0.016 A 
ATOM     14  C   UNL     1     -11.087  29.086  24.736  1.00  0.00     0.047 A 
ATOM     15  C   UNL     1     -10.050  30.007  24.540  1.00  0.00     0.115 A 
ATOM     16  C   UNL     1      -9.088  28.554  22.853  1.00  0.00     0.016 A 
ATOM     17  C   UNL     1      -9.054  29.738  23.595  1.00  0.00     0.047 A 
BRANCH  15  18
ATOM     18  O   UNL     1     -10.002  31.190  25.272  1.00  0.00    -0.508 OA
ATOM     19  H   UNL     1     -10.541  31.309  26.121  1.00  0.00     0.293 HD
ENDBRANCH  15  18
ENDBRANCH   1  12
BRANCH   2  20
ATOM     20  O   UNL     1      -9.923  24.979  24.246  1.00  0.00    -0.502 OA
ATOM     21  H   UNL     1      -9.831  25.783  24.854  1.00  0.00     0.293 HD
ENDBRANCH   2  20
BRANCH   6  22
ATOM     22  O   UNL     1     -10.030  21.686  20.061  1.00  0.00    -0.507 OA
ATOM     23  H   UNL     1      -9.792  21.370  20.989  1.00  0.00     0.293 HD
ENDBRANCH   6  22
BRANCH   8  24
ATOM     24  O   UNL     1     -11.099  24.800  16.567  1.00  0.00    -0.508 OA
ATOM     25  H   UNL     1     -11.062  25.733  16.176  1.00  0.00     0.293 HD
ENDBRANCH   8  24
TORSDOF 5
ENDMDL
MODEL 5
REMARK VINA RESULT:    -5.659      1.977      6.838
REMARK INTER + INTRA:          -6.940
REMARK INTER:                  -6.776
REMARK INTRA:                  -0.164
REMARK UNBOUND:                -0.289
REMARK SMILES O=c1c(O)c(-c2ccc(O)cc2)oc2cc(O)cc(O)c12
REMARK SMILES IDX 5 1 3 2 2 3 1 4 21 5 19 6 18 7 16 8 15 9 14 10 13 11 6 12
REMARK SMILES IDX 7 13 8 14 9 15 12 16 11 17 10 18 4 20 20 22 17 24
REMARK H PARENT 10 19 4 21 20 23 17 25
REMARK Flexibility Score: inf
ROOT
ATOM      1  C   UNL     1     -10.382  27.009  22.577  1.00  0.00     0.180 A 
ATOM      2  C   UNL     1     -10.606  28.393  22.462  1.00  0.00     0.208 A 
ATOM      3  C   UNL     1     -10.841  29.143  23.626  1.00  0.00     0.238 A 
ATOM      4  O   UNL     1     -11.095  30.371  23.511  1.00  0.00    -0.285 OA
ATOM      5  C   UNL     1     -10.834  28.505  24.889  1.00  0.00     0.111 A 
ATOM      6  C   UNL     1     -11.021  29.174  26.135  1.00  0.00     0.134 A 
ATOM      7  C   UNL     1     -11.125  28.423  27.314  1.00  0.00     0.093 A 
ATOM      8  C   UNL     1     -10.983  27.033  27.297  1.00  0.00     0.123 A 
ATOM      9  C   UNL     1     -10.741  26.377  26.092  1.00  0.00     0.094 A 
ATOM     10  C   UNL     1     -10.669  27.095  24.896  1.00  0.00     0.146 A 
ATOM     11  O   UNL     1     -10.447  26.430  23.769  1.00  0.00    -0.452 OA
ENDROOT
BRANCH   1  12
ATOM     12  C   UNL     1     -10.102  26.157  21.399  1.00  0.00     0.021 A 
ATOM     13  C   UNL     1      -8.811  25.634  21.215  1.00  0.00     0.016 A 
ATOM     14  C   UNL     1      -8.519  24.845  20.097  1.00  0.00     0.047 A 
ATOM     15  C   UNL     1      -9.510  24.582  19.143  1.00  0.00     0.115 A 
ATOM     16  C   UNL     1     -11.087  25.904  20.426  1.00  0.00     0.016 A 
ATOM     17  C   UNL     1     -10.791  25.116  19.309  1.00  0.00     0.047 A 
BRANCH  15  18
ATOM     18  O   UNL     1      -9.231  23.797  18.027  1.00  0.00    -0.508 OA
ATOM     19  H   UNL     1      -8.466  23.134  18.024  1.00  0.00     0.293 HD
ENDBRANCH  15  18
ENDBRANCH   1  12
BRANCH   2  20
ATOM     20  O   UNL     1     -10.631  28.999  21.203  1.00  0.00    -0.502 OA
ATOM     21  H   UNL     1     -10.096  28.646  20.418  1.00  0.00     0.293 HD
ENDBRANCH   2  20
BRANCH   6  22
ATOM     22  O   UNL     1     -11.082  30.563  26.274  1.00  0.00    -0.507 OA
ATOM     23  H   UNL     1     -11.929  31.088  26.431  1.00  0.00     0.293 HD
ENDBRANCH   6  22
BRANCH   8  24
ATOM     24  O   UNL     1     -11.072  26.296  28.475  1.00  0.00    -0.508 OA
ATOM     25  H   UNL     1     -10.649  25.380  28.561  1.00  0.00     0.293 HD
ENDBRANCH   8  24
TORSDOF 5
ENDMDL
MODEL 6
REMARK VINA RESULT:    -5.428      1.523      3.013
REMARK INTER + INTRA:          -6.669
REMARK INTER:                  -6.389
REMARK INTRA:                  -0.280
REMARK UNBOUND:                -0.289
REMARK SMILES O=c1c(O)c(-c2ccc(O)cc2)oc2cc(O)cc(O)c12
REMARK SMILES IDX 5 1 3 2 2 3 1 4 21 5 19 6 18 7 16 8 15 9 14 10 13 11 6 12
REMARK SMILES IDX 7 13 8 14 9 15 12 16 11 17 10 18 4 20 20 22 17 24
REMARK H PARENT 10 19 4 21 20 23 17 25
REMARK Flexibility Score: inf
ROOT
ATOM      1  C   UNL     1      -9.773  24.694  22.400  1.00  0.00     0.180 A 
ATOM      2  C   UNL     1      -9.794  23.289  22.362  1.00  0.00     0.208 A 
ATOM      3  C   UNL     1     -10.034  22.644  21.138  1.00  0.00     0.238 A 
ATOM      4  O   UNL     1     -10.105  21.387  21.121  1.00  0.00    -0.285 OA
ATOM      5  C   UNL     1     -10.234  23.411  19.965  1.00  0.00     0.111 A 
ATOM      6  C   UNL     1     -10.445  22.863  18.664  1.00  0.00     0.134 A 
ATOM      7  C   UNL     1     -10.762  23.715  17.598  1.00  0.00     0.093 A 
ATOM      8  C   UNL     1     -10.811  25.100  17.773  1.00  0.00     0.123 A 
ATOM      9  C   UNL     1     -10.547  25.648  19.027  1.00  0.00     0.094 A 
ATOM     10  C   UNL     1     -10.264  24.822  20.117  1.00  0.00     0.146 A 
ATOM     11  O   UNL     1     -10.029  25.385  21.296  1.00  0.00    -0.452 OA
ENDROOT
BRANCH   1  12
ATOM     12  C   UNL     1      -9.502  25.444  23.647  1.00  0.00     0.021 A 
ATOM     13  C   UNL     1     -10.562  25.738  24.521  1.00  0.00     0.016 A 
ATOM     14  C   UNL     1     -10.332  26.465  25.694  1.00  0.00     0.047 A 
ATOM     15  C   UNL     1      -9.043  26.921  25.999  1.00  0.00     0.115 A 
ATOM     16  C   UNL     1      -8.213  25.922  23.951  1.00  0.00     0.016 A 
ATOM     17  C   UNL     1      -7.988  26.649  25.123  1.00  0.00     0.047 A 
BRANCH  15  18
ATOM     18  O   UNL     1      -8.802  27.645  27.164  1.00  0.00    -0.508 OA
ATOM     19  H   UNL     1      -8.579  27.184  28.037  1.00  0.00     0.293 HD
ENDBRANCH  15  18
ENDBRANCH   1  12
BRANCH   2  20
ATOM     20  O   UNL     1      -9.616  22.551  23.536  1.00  0.00    -0.502 OA
ATOM     21  H   UNL     1      -9.082  21.690  23.562  1.00  0.00     0.293 HD
ENDBRANCH   2  20
BRANCH   6  22
ATOM     22  O   UNL     1     -10.329  21.503  18.362  1.00  0.00    -0.507 OA
ATOM     23  H   UNL     1     -10.386  21.114  17.434  1.00  0.00     0.293 HD
ENDBRANCH   6  22
BRANCH   8  24
ATOM     24  O   UNL     1     -11.111  25.941  16.705  1.00  0.00    -0.508 OA
ATOM     25  H   UNL     1     -11.358  25.573  15.794  1.00  0.00     0.293 HD
ENDBRANCH   8  24
TORSDOF 5
ENDMDL
MODEL 7
REMARK VINA RESULT:    -5.100      1.939      2.192
REMARK INTER + INTRA:          -6.283
REMARK INTER:                  -6.226
REMARK INTRA:                  -0.057
REMARK UNBOUND:                -0.289
REMARK SMILES O=c1c(O)c(-c2ccc(O)cc2)oc2cc(O)cc(O)c12
REMARK SMILES IDX 5 1 3 2 2 3 1 4 21 5 19 6 18 7 16 8 15 9 14 10 13 11 6 12
REMARK SMILES IDX 7 13 8 14 9 15 12 16 11 17 10 18 4 20 20 22 17 24
REMARK H PARENT 10 19 4 21 20 23 17 25
REMARK Flexibility Score: inf
ROOT
ATOM      1  C   UNL     1     -10.319  26.616  21.669  1.00  0.00     0.180 A 
ATOM      2  C   UNL     1     -10.606  26.872  20.316  1.00  0.00     0.208 A 
ATOM      3  C   UNL     1     -10.695  25.792  19.423  1.00  0.00     0.238 A 
ATOM      4  O   UNL     1     -10.898  26.032  18.204  1.00  0.00    -0.285 OA
ATOM      5  C   UNL     1     -10.511  24.470  19.894  1.00  0.00     0.111 A 
ATOM      6  C   UNL     1     -10.618  23.299  19.086  1.00  0.00     0.134 A 
ATOM      7  C   UNL     1     -10.289  22.051  19.630  1.00  0.00     0.093 A 
ATOM      8  C   UNL     1      -9.918  21.925  20.971  1.00  0.00     0.123 A 
ATOM      9  C   UNL     1      -9.869  23.056  21.784  1.00  0.00     0.094 A 
ATOM     10  C   UNL     1     -10.157  24.319  21.261  1.00  0.00     0.146 A 
ATOM     11  O   UNL     1     -10.088  25.370  22.067  1.00  0.00    -0.452 OA
ENDROOT
BRANCH   1  12
ATOM     12  C   UNL     1     -10.235  27.699  22.674  1.00  0.00     0.021 A 
ATOM     13  C   UNL     1     -11.122  27.702  23.764  1.00  0.00     0.016 A 
ATOM     14  C   UNL     1     -11.074  28.727  24.714  1.00  0.00     0.047 A 
ATOM     15  C   UNL     1     -10.150  29.771  24.577  1.00  0.00     0.115 A 
ATOM     16  C   UNL     1      -9.322  28.761  22.534  1.00  0.00     0.016 A 
ATOM     17  C   UNL     1      -9.279  29.786  23.484  1.00  0.00     0.047 A 
BRANCH  15  18
ATOM     18  O   UNL     1     -10.094  30.797  25.516  1.00  0.00    -0.508 OA
ATOM     19  H   UNL     1     -10.589  31.670  25.378  1.00  0.00     0.293 HD
ENDBRANCH  15  18
ENDBRANCH   1  12
BRANCH   2  20
ATOM     20  O   UNL     1     -10.761  28.186  19.867  1.00  0.00    -0.502 OA
ATOM     21  H   UNL     1      -9.973  28.797  19.690  1.00  0.00     0.293 HD
ENDBRANCH   2  20
BRANCH   6  22
ATOM     22  O   UNL     1     -11.067  23.303  17.762  1.00  0.00    -0.507 OA
ATOM     23  H   UNL     1     -11.223  24.133  17.211  1.00  0.00     0.293 HD
ENDBRANCH   6  22
BRANCH   8  24
ATOM     24  O   UNL     1      -9.607  20.679  21.508  1.00  0.00    -0.508 OA
ATOM     25  H   UNL     1      -8.790  20.161  21.207  1.00  0.00     0.293 HD
ENDBRANCH   8  24
TORSDOF 5
ENDMDL
MODEL 8
REMARK VINA RESULT:    -4.784      1.919      7.061
REMARK INTER + INTRA:          -5.911
REMARK INTER:                  -5.830
REMARK INTRA:                  -0.082
REMARK UNBOUND:                -0.289
REMARK SMILES O=c1c(O)c(-c2ccc(O)cc2)oc2cc(O)cc(O)c12
REMARK SMILES IDX 5 1 3 2 2 3 1 4 21 5 19 6 18 7 16 8 15 9 14 10 13 11 6 12
REMARK SMILES IDX 7 13 8 14 9 15 12 16 11 17 10 18 4 20 20 22 17 24
REMARK H PARENT 10 19 4 21 20 23 17 25
REMARK Flexibility Score: inf
ROOT
ATOM      1  C   UNL     1      -9.935  26.081  21.878  1.00  0.00     0.180 A 
ATOM      2  C   UNL     1      -9.167  25.391  22.833  1.00  0.00     0.208 A 
ATOM      3  C   UNL     1      -8.967  25.973  24.095  1.00  0.00     0.238 A 
ATOM      4  O   UNL     1      -8.234  25.375  24.926  1.00  0.00    -0.285 OA
ATOM      5  C   UNL     1      -9.548  27.228  24.392  1.00  0.00     0.111 A 
ATOM      6  C   UNL     1      -9.443  27.892  25.651  1.00  0.00     0.134 A 
ATOM      7  C   UNL     1      -9.949  29.191  25.792  1.00  0.00     0.093 A 
ATOM      8  C   UNL     1     -10.612  29.824  24.738  1.00  0.00     0.123 A 
ATOM      9  C   UNL     1     -10.771  29.160  23.523  1.00  0.00     0.094 A 
ATOM     10  C   UNL     1     -10.246  27.879  23.341  1.00  0.00     0.146 A 
ATOM     11  O   UNL     1     -10.411  27.286  22.165  1.00  0.00    -0.452 OA
ENDROOT
BRANCH   1  12
ATOM     12  C   UNL     1     -10.211  25.521  20.536  1.00  0.00     0.021 A 
ATOM     13  C   UNL     1      -9.889  26.273  19.393  1.00  0.00     0.016 A 
ATOM     14  C   UNL     1     -10.162  25.773  18.116  1.00  0.00     0.047 A 
ATOM     15  C   UNL     1     -10.775  24.523  17.965  1.00  0.00     0.115 A 
ATOM     16  C   UNL     1     -10.844  24.274  20.376  1.00  0.00     0.016 A 
ATOM     17  C   UNL     1     -11.117  23.778  19.098  1.00  0.00     0.047 A 
BRANCH  15  18
ATOM     18  O   UNL     1     -11.051  24.015  16.698  1.00  0.00    -0.508 OA
ATOM     19  H   UNL     1     -10.964  23.027  16.494  1.00  0.00     0.293 HD
ENDBRANCH  15  18
ENDBRANCH   1  12
BRANCH   2  20
ATOM     20  O   UNL     1      -8.584  24.162  22.511  1.00  0.00    -0.502 OA
ATOM     21  H   UNL     1      -7.617  23.947  22.724  1.00  0.00     0.293 HD
ENDBRANCH   2  20
BRANCH   6  22
ATOM     22  O   UNL     1      -8.883  27.314  26.794  1.00  0.00    -0.507 OA
ATOM     23  H   UNL     1      -7.898  27.307  27.010  1.00  0.00     0.293 HD
ENDBRANCH   6  22
BRANCH   8  24
ATOM     24  O   UNL     1     -11.125  31.109  24.892  1.00  0.00    -0.508 OA
ATOM     25  H   UNL     1     -12.109  31.269  25.068  1.00  0.00     0.293 HD
ENDBRANCH   8  24
TORSDOF 5
ENDMDL
MODEL 9
REMARK VINA RESULT:    -4.637      1.915      7.256
REMARK INTER + INTRA:          -5.739
REMARK INTER:                  -5.578
REMARK INTRA:                  -0.161
REMARK UNBOUND:                -0.289
REMARK SMILES O=c1c(O)c(-c2ccc(O)cc2)oc2cc(O)cc(O)c12
REMARK SMILES IDX 5 1 3 2 2 3 1 4 21 5 19 6 18 7 16 8 15 9 14 10 13 11 6 12
REMARK SMILES IDX 7 13 8 14 9 15 12 16 11 17 10 18 4 20 20 22 17 24
REMARK H PARENT 10 19 4 21 20 23 17 25
REMARK Flexibility Score: inf
ROOT
ATOM      1  C   UNL     1     -10.102  26.400  23.014  1.00  0.00     0.180 A 
ATOM      2  C   UNL     1     -10.044  25.559  24.139  1.00  0.00     0.208 A 
ATOM      3  C   UNL     1     -10.271  26.107  25.412  1.00  0.00     0.238 A 
ATOM      4  O   UNL     1     -10.163  25.359  26.419  1.00  0.00    -0.285 OA
ATOM      5  C   UNL     1     -10.570  27.484  25.543  1.00  0.00     0.111 A 
ATOM      6  C   UNL     1     -10.856  28.136  26.779  1.00  0.00     0.134 A 
ATOM      7  C   UNL     1     -11.010  29.529  26.806  1.00  0.00     0.093 A 
ATOM      8  C   UNL     1     -10.951  30.283  25.632  1.00  0.00     0.123 A 
ATOM      9  C   UNL     1     -10.730  29.646  24.412  1.00  0.00     0.094 A 
ATOM     10  C   UNL     1     -10.537  28.264  24.358  1.00  0.00     0.146 A 
ATOM     11  O   UNL     1     -10.320  27.700  23.177  1.00  0.00    -0.452 OA
ENDROOT
BRANCH   1  12
ATOM     12  C   UNL     1      -9.899  25.891  21.639  1.00  0.00     0.021 A 
ATOM     13  C   UNL     1     -10.992  25.823  20.759  1.00  0.00     0.016 A 
ATOM     14  C   UNL     1     -10.826  25.324  19.462  1.00  0.00     0.047 A 
ATOM     15  C   UNL     1      -9.570  24.874  19.036  1.00  0.00     0.115 A 
ATOM     16  C   UNL     1      -8.645  25.419  21.210  1.00  0.00     0.016 A 
ATOM     17  C   UNL     1      -8.483  24.920  19.913  1.00  0.00     0.047 A 
BRANCH  15  18
ATOM     18  O   UNL     1      -9.394  24.376  17.747  1.00  0.00    -0.508 OA
ATOM     19  H   UNL     1     -10.181  24.090  17.178  1.00  0.00     0.293 HD
ENDBRANCH  15  18
ENDBRANCH   1  12
BRANCH   2  20
ATOM     20  O   UNL     1      -9.725  24.206  23.990  1.00  0.00    -0.502 OA
ATOM     21  H   UNL     1      -9.357  23.647  24.749  1.00  0.00     0.293 HD
ENDBRANCH   2  20
BRANCH   6  22
ATOM     22  O   UNL     1     -11.028  27.467  27.994  1.00  0.00    -0.507 OA
ATOM     23  H   UNL     1     -10.857  27.871  28.902  1.00  0.00     0.293 HD
ENDBRANCH   6  22
BRANCH   8  24
ATOM     24  O   UNL     1     -11.120  31.665  25.665  1.00  0.00    -0.508 OA
ATOM     25  H   UNL     1     -10.366  32.297  25.426  1.00  0.00     0.293 HD
ENDBRANCH   8  24
TORSDOF 5
ENDMDL
