MODEL 1
REMARK VINA RESULT:    -5.858      0.000      0.000
REMARK INTER + INTRA:          -6.361
REMARK INTER:                  -6.201
REMARK INTRA:                  -0.160
REMARK UNBOUND:                -0.160
REMARK SMILES CC1=CCC(C(C)C)=CC1
REMARK SMILES IDX 1 1 2 2 3 3 4 4 5 5 9 6 10 7 6 8 7 9 8 10
REMARK H PARENT
REMARK Flexibility Score: inf
ROOT
ATOM      1  C   UNL     1     135.343 139.731 124.053  1.00  0.00     0.039 C 
ATOM      2  C   UNL     1     136.141 138.504 123.710  1.00  0.00    -0.073 C 
ATOM      3  C   UNL     1     137.433 138.624 123.350  1.00  0.00    -0.023 C 
ATOM      4  C   UNL     1     138.241 137.413 122.954  1.00  0.00     0.058 C 
ATOM      5  C   UNL     1     137.782 136.170 123.691  1.00  0.00    -0.068 C 
ATOM      6  C   UNL     1     136.484 136.055 124.049  1.00  0.00    -0.023 C 
ATOM      7  C   UNL     1     135.487 137.138 123.724  1.00  0.00     0.057 C 
ENDROOT
BRANCH   5   8
ATOM      8  C   UNL     1     138.783 135.060 123.975  1.00  0.00     0.009 C 
ATOM      9  C   UNL     1     140.111 135.313 123.253  1.00  0.00     0.012 C 
ATOM     10  C   UNL     1     138.999 134.875 125.483  1.00  0.00     0.012 C 
ENDBRANCH   5   8
TORSDOF 1
ENDMDL
MODEL 2
REMARK VINA RESULT:    -5.694      1.085      4.436
REMARK INTER + INTRA:          -6.187
REMARK INTER:                  -6.024
REMARK INTRA:                  -0.163
REMARK UNBOUND:                -0.160
REMARK SMILES CC1=CCC(C(C)C)=CC1
REMARK SMILES IDX 1 1 2 2 3 3 4 4 5 5 9 6 10 7 6 8 7 9 8 10
REMARK H PARENT
REMARK Flexibility Score: inf
ROOT
ATOM      1  C   UNL     1     140.151 135.429 123.364  1.00  0.00     0.039 C 
ATOM      2  C   UNL     1     138.763 135.991 123.491  1.00  0.00    -0.073 C 
ATOM      3  C   UNL     1     138.150 136.001 124.690  1.00  0.00    -0.023 C 
ATOM      4  C   UNL     1     136.739 136.514 124.834  1.00  0.00     0.058 C 
ATOM      5  C   UNL     1     136.440 137.612 123.831  1.00  0.00    -0.068 C 
ATOM      6  C   UNL     1     137.057 137.596 122.629  1.00  0.00    -0.023 C 
ATOM      7  C   UNL     1     138.032 136.504 122.268  1.00  0.00     0.057 C 
ENDROOT
BRANCH   5   8
ATOM      8  C   UNL     1     135.420 138.685 124.183  1.00  0.00     0.009 C 
ATOM      9  C   UNL     1     136.003 139.698 125.175  1.00  0.00     0.012 C 
ATOM     10  C   UNL     1     134.888 139.384 122.926  1.00  0.00     0.012 C 
ENDBRANCH   5   8
TORSDOF 1
ENDMDL
MODEL 3
REMARK VINA RESULT:    -5.655     13.945     16.188
REMARK INTER + INTRA:          -6.145
REMARK INTER:                  -5.984
REMARK INTRA:                  -0.162
REMARK UNBOUND:                -0.160
REMARK SMILES CC1=CCC(C(C)C)=CC1
REMARK SMILES IDX 1 1 2 2 3 3 4 4 5 5 9 6 10 7 6 8 7 9 8 10
REMARK H PARENT
REMARK Flexibility Score: inf
ROOT
ATOM      1  C   UNL     1     155.125 140.316 123.389  1.00  0.00     0.039 C 
ATOM      2  C   UNL     1     154.628 138.901 123.498  1.00  0.00    -0.073 C 
ATOM      3  C   UNL     1     154.726 138.244 124.670  1.00  0.00    -0.023 C 
ATOM      4  C   UNL     1     154.280 136.808 124.791  1.00  0.00     0.058 C 
ATOM      5  C   UNL     1     153.127 136.501 123.855  1.00  0.00    -0.068 C 
ATOM      6  C   UNL     1     153.035 137.163 122.680  1.00  0.00    -0.023 C 
ATOM      7  C   UNL     1     154.060 138.196 122.285  1.00  0.00     0.057 C 
ENDROOT
BRANCH   5   8
ATOM      8  C   UNL     1     152.122 135.425 124.238  1.00  0.00     0.009 C 
ATOM      9  C   UNL     1     151.127 135.943 125.282  1.00  0.00     0.012 C 
ATOM     10  C   UNL     1     151.395 134.875 123.005  1.00  0.00     0.012 C 
ENDBRANCH   5   8
TORSDOF 1
ENDMDL
MODEL 4
REMARK VINA RESULT:    -5.631     14.151     16.574
REMARK INTER + INTRA:          -6.120
REMARK INTER:                  -5.959
REMARK INTRA:                  -0.161
REMARK UNBOUND:                -0.160
REMARK SMILES CC1=CCC(C(C)C)=CC1
REMARK SMILES IDX 1 1 2 2 3 3 4 4 5 5 9 6 10 7 6 8 7 9 8 10
REMARK H PARENT
REMARK Flexibility Score: inf
ROOT
ATOM      1  C   UNL     1     139.787 155.124 124.163  1.00  0.00     0.039 C 
ATOM      2  C   UNL     1     138.490 154.428 123.856  1.00  0.00    -0.073 C 
ATOM      3  C   UNL     1     138.502 153.199 123.306  1.00  0.00    -0.023 C 
ATOM      4  C   UNL     1     137.215 152.500 122.944  1.00  0.00     0.058 C 
ATOM      5  C   UNL     1     136.085 152.892 123.878  1.00  0.00    -0.068 C 
ATOM      6  C   UNL     1     136.079 154.127 124.426  1.00  0.00    -0.023 C 
ATOM      7  C   UNL     1     137.170 155.121 124.120  1.00  0.00     0.057 C 
ENDROOT
BRANCH   5   8
ATOM      8  C   UNL     1     134.963 151.901 124.146  1.00  0.00     0.009 C 
ATOM      9  C   UNL     1     135.118 150.642 123.286  1.00  0.00     0.012 C 
ATOM     10  C   UNL     1     134.875 151.545 125.636  1.00  0.00     0.012 C 
ENDBRANCH   5   8
TORSDOF 1
ENDMDL
MODEL 5
REMARK VINA RESULT:    -5.297     13.667     16.243
REMARK INTER + INTRA:          -5.767
REMARK INTER:                  -5.607
REMARK INTRA:                  -0.160
REMARK UNBOUND:                -0.160
REMARK SMILES CC1=CCC(C(C)C)=CC1
REMARK SMILES IDX 1 1 2 2 3 3 4 4 5 5 9 6 10 7 6 8 7 9 8 10
REMARK H PARENT
REMARK Flexibility Score: inf
ROOT
ATOM      1  C   UNL     1     150.664 135.154 124.103  1.00  0.00     0.039 C 
ATOM      2  C   UNL     1     151.877 135.995 123.817  1.00  0.00    -0.073 C 
ATOM      3  C   UNL     1     151.729 137.240 123.325  1.00  0.00    -0.023 C 
ATOM      4  C   UNL     1     152.931 138.085 122.984  1.00  0.00     0.058 C 
ATOM      5  C   UNL     1     154.108 137.773 123.888  1.00  0.00    -0.068 C 
ATOM      6  C   UNL     1     154.252 136.521 124.377  1.00  0.00    -0.023 C 
ATOM      7  C   UNL     1     153.266 135.433 124.036  1.00  0.00     0.057 C 
ENDROOT
BRANCH   5   8
ATOM      8  C   UNL     1     155.125 138.862 124.191  1.00  0.00     0.009 C 
ATOM      9  C   UNL     1     154.895 140.096 123.311  1.00  0.00     0.012 C 
ATOM     10  C   UNL     1     155.117 139.235 125.679  1.00  0.00     0.012 C 
ENDBRANCH   5   8
TORSDOF 1
ENDMDL
MODEL 6
REMARK VINA RESULT:    -4.931      1.091      1.766
REMARK INTER + INTRA:          -5.380
REMARK INTER:                  -5.244
REMARK INTRA:                  -0.135
REMARK UNBOUND:                -0.160
REMARK SMILES CC1=CCC(C(C)C)=CC1
REMARK SMILES IDX 1 1 2 2 3 3 4 4 5 5 9 6 10 7 6 8 7 9 8 10
REMARK H PARENT
REMARK Flexibility Score: inf
ROOT
ATOM      1  C   UNL     1     134.876 139.922 124.039  1.00  0.00     0.039 C 
ATOM      2  C   UNL     1     135.944 138.864 124.019  1.00  0.00    -0.073 C 
ATOM      3  C   UNL     1     135.993 137.942 124.999  1.00  0.00    -0.023 C 
ATOM      4  C   UNL     1     137.083 136.900 125.027  1.00  0.00     0.058 C 
ATOM      5  C   UNL     1     137.539 136.530 123.629  1.00  0.00    -0.068 C 
ATOM      6  C   UNL     1     137.488 137.460 122.650  1.00  0.00    -0.023 C 
ATOM      7  C   UNL     1     136.992 138.857 122.926  1.00  0.00     0.057 C 
ENDROOT
BRANCH   5   8
ATOM      8  C   UNL     1     138.082 135.134 123.366  1.00  0.00     0.009 C 
ATOM      9  C   UNL     1     138.243 134.875 121.864  1.00  0.00     0.012 C 
ATOM     10  C   UNL     1     139.400 134.898 124.113  1.00  0.00     0.012 C 
ENDBRANCH   5   8
TORSDOF 1
ENDMDL
MODEL 7
REMARK VINA RESULT:    -4.718     22.161     23.279
REMARK INTER + INTRA:          -5.154
REMARK INTER:                  -4.993
REMARK INTRA:                  -0.161
REMARK UNBOUND:                -0.160
REMARK SMILES CC1=CCC(C(C)C)=CC1
REMARK SMILES IDX 1 1 2 2 3 3 4 4 5 5 9 6 10 7 6 8 7 9 8 10
REMARK H PARENT
REMARK Flexibility Score: inf
ROOT
ATOM      1  C   UNL     1     155.119 150.679 124.958  1.00  0.00     0.039 C 
ATOM      2  C   UNL     1     154.586 151.967 124.393  1.00  0.00    -0.073 C 
ATOM      3  C   UNL     1     154.218 152.031 123.100  1.00  0.00    -0.023 C 
ATOM      4  C   UNL     1     153.727 153.324 122.498  1.00  0.00     0.058 C 
ATOM      5  C   UNL     1     153.007 154.179 123.524  1.00  0.00    -0.068 C 
ATOM      6  C   UNL     1     153.382 154.111 124.820  1.00  0.00    -0.023 C 
ATOM      7  C   UNL     1     154.503 153.205 125.261  1.00  0.00     0.057 C 
ENDROOT
BRANCH   5   8
ATOM      8  C   UNL     1     151.908 155.125 123.066  1.00  0.00     0.009 C 
ATOM      9  C   UNL     1     151.759 155.105 121.540  1.00  0.00     0.012 C 
ATOM     10  C   UNL     1     150.575 154.809 123.756  1.00  0.00     0.012 C 
ENDBRANCH   5   8
TORSDOF 1
ENDMDL
MODEL 8
REMARK VINA RESULT:    -3.952     15.171     16.167
REMARK INTER + INTRA:          -4.343
REMARK INTER:                  -4.198
REMARK INTRA:                  -0.145
REMARK UNBOUND:                -0.160
REMARK SMILES CC1=CCC(C(C)C)=CC1
REMARK SMILES IDX 1 1 2 2 3 3 4 4 5 5 9 6 10 7 6 8 7 9 8 10
REMARK H PARENT
REMARK Flexibility Score: inf
ROOT
ATOM      1  C   UNL     1     137.834 153.032 120.093  1.00  0.00     0.039 C 
ATOM      2  C   UNL     1     137.241 152.675 121.428  1.00  0.00    -0.073 C 
ATOM      3  C   UNL     1     137.818 153.122 122.559  1.00  0.00    -0.023 C 
ATOM      4  C   UNL     1     137.271 152.738 123.911  1.00  0.00     0.058 C 
ATOM      5  C   UNL     1     135.768 152.534 123.868  1.00  0.00    -0.068 C 
ATOM      6  C   UNL     1     135.195 152.084 122.730  1.00  0.00    -0.023 C 
ATOM      7  C   UNL     1     136.023 151.778 121.507  1.00  0.00     0.057 C 
ENDROOT
BRANCH   5   8
ATOM      8  C   UNL     1     134.944 152.799 125.118  1.00  0.00     0.009 C 
ATOM      9  C   UNL     1     134.875 151.556 126.011  1.00  0.00     0.012 C 
ATOM     10  C   UNL     1     135.479 154.009 125.894  1.00  0.00     0.012 C 
ENDBRANCH   5   8
TORSDOF 1
ENDMDL
