MODEL 1
REMARK VINA RESULT:    -5.500      0.000      0.000
REMARK INTER + INTRA:          -7.490
REMARK INTER:                  -6.786
REMARK INTRA:                  -0.704
REMARK UNBOUND:                -0.704
REMARK SMILES CC(C)=CCC[C@H](C)c1ccc(C)cc1
REMARK SMILES IDX 6 1 7 2 8 3 9 4 13 5 12 6 11 7 14 8 10 9 15 10 5 11 4 12
REMARK SMILES IDX 2 13 1 14 3 15
REMARK H PARENT
REMARK Flexibility Score: inf
ROOT
ATOM      1  C   UNL     1       9.802  47.522  70.112  1.00  0.00     0.012 C 
ENDROOT
BRANCH   1   2
ATOM      2  C   UNL     1       8.559  48.268  69.568  1.00  0.00     0.016 C 
ATOM      3  C   UNL     1       8.923  49.505  68.733  1.00  0.00     0.013 C 
BRANCH   2   4
ATOM      4  C   UNL     1       7.638  48.658  70.712  1.00  0.00    -0.045 A 
ATOM      5  C   UNL     1       5.034  49.741  73.984  1.00  0.00     0.044 C 
ATOM      6  C   UNL     1       5.953  49.392  72.850  1.00  0.00    -0.051 A 
ATOM      7  C   UNL     1       5.579  49.672  71.528  1.00  0.00     0.004 A 
ATOM      8  C   UNL     1       7.160  48.723  73.098  1.00  0.00     0.004 A 
ATOM      9  C   UNL     1       6.418  49.314  70.468  1.00  0.00     0.004 A 
ATOM     10  C   UNL     1       7.998  48.365  72.039  1.00  0.00     0.004 A 
ENDBRANCH   2   4
ENDBRANCH   1   2
BRANCH   1  11
ATOM     11  C   UNL     1       9.995  46.117  69.509  1.00  0.00     0.028 C 
BRANCH  11  12
ATOM     12  C   UNL     1       8.728  45.293  69.538  1.00  0.00    -0.028 C 
ATOM     13  C   UNL     1       8.645  44.050  69.020  1.00  0.00    -0.080 C 
ATOM     14  C   UNL     1       9.833  43.385  68.366  1.00  0.00     0.039 C 
ATOM     15  C   UNL     1       7.330  43.317  69.101  1.00  0.00     0.039 C 
ENDBRANCH  11  12
ENDBRANCH   1  11
TORSDOF 4
ENDMDL
MODEL 2
REMARK VINA RESULT:    -5.447      4.505      6.728
REMARK INTER + INTRA:          -7.425
REMARK INTER:                  -6.310
REMARK INTRA:                  -1.114
REMARK UNBOUND:                -0.704
REMARK SMILES CC(C)=CCC[C@H](C)c1ccc(C)cc1
REMARK SMILES IDX 6 1 7 2 8 3 9 4 13 5 12 6 11 7 14 8 10 9 15 10 5 11 4 12
REMARK SMILES IDX 2 13 1 14 3 15
REMARK H PARENT
REMARK Flexibility Score: inf
ROOT
ATOM      1  C   UNL     1       8.986  45.541  75.251  1.00  0.00     0.012 C 
ENDROOT
BRANCH   1   2
ATOM      2  C   UNL     1       9.964  46.667  75.667  1.00  0.00     0.016 C 
ATOM      3  C   UNL     1      11.369  46.145  76.001  1.00  0.00     0.013 C 
BRANCH   2   4
ATOM      4  C   UNL     1       9.399  47.445  76.843  1.00  0.00    -0.045 A 
ATOM      5  C   UNL     1       7.800  49.688  80.171  1.00  0.00     0.044 C 
ATOM      6  C   UNL     1       8.327  48.898  79.009  1.00  0.00    -0.051 A 
ATOM      7  C   UNL     1       8.836  47.607  79.208  1.00  0.00     0.004 A 
ATOM      8  C   UNL     1       8.376  49.469  77.730  1.00  0.00     0.004 A 
ATOM      9  C   UNL     1       9.362  46.884  78.133  1.00  0.00     0.004 A 
ATOM     10  C   UNL     1       8.902  48.747  76.655  1.00  0.00     0.004 A 
ENDBRANCH   2   4
ENDBRANCH   1   2
BRANCH   1  11
ATOM     11  C   UNL     1       8.116  45.895  74.029  1.00  0.00     0.028 C 
BRANCH  11  12
ATOM     12  C   UNL     1       6.922  46.747  74.393  1.00  0.00    -0.028 C 
ATOM     13  C   UNL     1       6.754  48.010  73.949  1.00  0.00    -0.080 C 
ATOM     14  C   UNL     1       7.765  48.669  73.040  1.00  0.00     0.039 C 
ATOM     15  C   UNL     1       5.526  48.772  74.376  1.00  0.00     0.039 C 
ENDBRANCH  11  12
ENDBRANCH   1  11
TORSDOF 4
ENDMDL
MODEL 3
REMARK VINA RESULT:    -5.439      1.192      5.685
REMARK INTER + INTRA:          -7.415
REMARK INTER:                  -6.453
REMARK INTRA:                  -0.962
REMARK UNBOUND:                -0.704
REMARK SMILES CC(C)=CCC[C@H](C)c1ccc(C)cc1
REMARK SMILES IDX 6 1 7 2 8 3 9 4 13 5 12 6 11 7 14 8 10 9 15 10 5 11 4 12
REMARK SMILES IDX 2 13 1 14 3 15
REMARK H PARENT
REMARK Flexibility Score: inf
ROOT
ATOM      1  C   UNL     1       9.963  47.584  71.053  1.00  0.00     0.012 C 
ENDROOT
BRANCH   1   2
ATOM      2  C   UNL     1      10.508  46.913  69.768  1.00  0.00     0.016 C 
ATOM      3  C   UNL     1      10.510  47.858  68.556  1.00  0.00     0.013 C 
BRANCH   2   4
ATOM      4  C   UNL     1       9.713  45.657  69.453  1.00  0.00    -0.045 A 
ATOM      5  C   UNL     1       7.432  42.092  68.587  1.00  0.00     0.044 C 
ATOM      6  C   UNL     1       8.214  43.344  68.862  1.00  0.00    -0.051 A 
ATOM      7  C   UNL     1       9.541  43.457  68.423  1.00  0.00     0.004 A 
ATOM      8  C   UNL     1       7.647  44.380  69.616  1.00  0.00     0.004 A 
ATOM      9  C   UNL     1      10.282  44.606  68.710  1.00  0.00     0.004 A 
ATOM     10  C   UNL     1       8.387  45.529  69.904  1.00  0.00     0.004 A 
ENDBRANCH   2   4
ENDBRANCH   1   2
BRANCH   1  11
ATOM     11  C   UNL     1       9.391  48.996  70.820  1.00  0.00     0.028 C 
BRANCH  11  12
ATOM     12  C   UNL     1       8.209  49.299  71.713  1.00  0.00    -0.028 C 
ATOM     13  C   UNL     1       6.929  49.203  71.300  1.00  0.00    -0.080 C 
ATOM     14  C   UNL     1       6.582  48.775  69.892  1.00  0.00     0.039 C 
ATOM     15  C   UNL     1       5.826  49.531  72.273  1.00  0.00     0.039 C 
ENDBRANCH  11  12
ENDBRANCH   1  11
TORSDOF 4
ENDMDL
MODEL 4
REMARK VINA RESULT:    -5.418      4.776      7.549
REMARK INTER + INTRA:          -7.389
REMARK INTER:                  -6.349
REMARK INTRA:                  -1.040
REMARK UNBOUND:                -0.704
REMARK SMILES CC(C)=CCC[C@H](C)c1ccc(C)cc1
REMARK SMILES IDX 6 1 7 2 8 3 9 4 13 5 12 6 11 7 14 8 10 9 15 10 5 11 4 12
REMARK SMILES IDX 2 13 1 14 3 15
REMARK H PARENT
REMARK Flexibility Score: inf
ROOT
ATOM      1  C   UNL     1       9.078  48.827  75.039  1.00  0.00     0.012 C 
ENDROOT
BRANCH   1   2
ATOM      2  C   UNL     1      10.003  47.774  74.382  1.00  0.00     0.016 C 
ATOM      3  C   UNL     1      10.119  47.948  72.860  1.00  0.00     0.013 C 
BRANCH   2   4
ATOM      4  C   UNL     1       9.523  46.372  74.716  1.00  0.00    -0.045 A 
ATOM      5  C   UNL     1       8.125  42.395  75.661  1.00  0.00     0.044 C 
ATOM      6  C   UNL     1       8.623  43.766  75.306  1.00  0.00    -0.051 A 
ATOM      7  C   UNL     1       9.884  44.194  75.745  1.00  0.00     0.004 A 
ATOM      8  C   UNL     1       7.805  44.652  74.592  1.00  0.00     0.004 A 
ATOM      9  C   UNL     1      10.333  45.483  75.447  1.00  0.00     0.004 A 
ATOM     10  C   UNL     1       8.253  45.941  74.293  1.00  0.00     0.004 A 
ENDBRANCH   2   4
ENDBRANCH   1   2
BRANCH   1  11
ATOM     11  C   UNL     1       9.533  49.258  76.448  1.00  0.00     0.028 C 
BRANCH  11  12
ATOM     12  C   UNL     1       8.403  49.244  77.453  1.00  0.00    -0.028 C 
ATOM     13  C   UNL     1       8.298  48.322  78.431  1.00  0.00    -0.080 C 
ATOM     14  C   UNL     1       9.321  47.222  78.594  1.00  0.00     0.039 C 
ATOM     15  C   UNL     1       7.129  48.400  79.379  1.00  0.00     0.039 C 
ENDBRANCH  11  12
ENDBRANCH   1  11
TORSDOF 4
ENDMDL
MODEL 5
REMARK VINA RESULT:    -5.374      2.530      3.488
REMARK INTER + INTRA:          -7.335
REMARK INTER:                  -6.563
REMARK INTRA:                  -0.772
REMARK UNBOUND:                -0.704
REMARK SMILES CC(C)=CCC[C@H](C)c1ccc(C)cc1
REMARK SMILES IDX 6 1 7 2 8 3 9 4 13 5 12 6 11 7 14 8 10 9 15 10 5 11 4 12
REMARK SMILES IDX 2 13 1 14 3 15
REMARK H PARENT
REMARK Flexibility Score: inf
ROOT
ATOM      1  C   UNL     1       9.806  47.209  70.141  1.00  0.00     0.012 C 
ENDROOT
BRANCH   1   2
ATOM      2  C   UNL     1       8.658  47.359  71.169  1.00  0.00     0.016 C 
ATOM      3  C   UNL     1       7.995  48.744  71.125  1.00  0.00     0.013 C 
BRANCH   2   4
ATOM      4  C   UNL     1       9.164  47.062  72.570  1.00  0.00    -0.045 A 
ATOM      5  C   UNL     1      10.638  46.228  76.544  1.00  0.00     0.044 C 
ATOM      6  C   UNL     1      10.110  46.542  75.175  1.00  0.00    -0.051 A 
ATOM      7  C   UNL     1       8.937  45.928  74.714  1.00  0.00     0.004 A 
ATOM      8  C   UNL     1      10.821  47.397  74.322  1.00  0.00     0.004 A 
ATOM      9  C   UNL     1       8.464  46.191  73.424  1.00  0.00     0.004 A 
ATOM     10  C   UNL     1      10.350  47.661  73.033  1.00  0.00     0.004 A 
ENDBRANCH   2   4
ENDBRANCH   1   2
BRANCH   1  11
ATOM     11  C   UNL     1       9.867  45.819  69.478  1.00  0.00     0.028 C 
BRANCH  11  12
ATOM     12  C   UNL     1       8.531  45.112  69.485  1.00  0.00    -0.028 C 
ATOM     13  C   UNL     1       8.348  43.874  68.982  1.00  0.00    -0.080 C 
ATOM     14  C   UNL     1       9.488  43.094  68.369  1.00  0.00     0.039 C 
ATOM     15  C   UNL     1       6.972  43.264  69.038  1.00  0.00     0.039 C 
ENDBRANCH  11  12
ENDBRANCH   1  11
TORSDOF 4
ENDMDL
MODEL 6
REMARK VINA RESULT:    -5.367      3.839      6.529
REMARK INTER + INTRA:          -7.326
REMARK INTER:                  -6.077
REMARK INTRA:                  -1.250
REMARK UNBOUND:                -0.704
REMARK SMILES CC(C)=CCC[C@H](C)c1ccc(C)cc1
REMARK SMILES IDX 6 1 7 2 8 3 9 4 13 5 12 6 11 7 14 8 10 9 15 10 5 11 4 12
REMARK SMILES IDX 2 13 1 14 3 15
REMARK H PARENT
REMARK Flexibility Score: inf
ROOT
ATOM      1  C   UNL     1      10.079  45.639  75.314  1.00  0.00     0.012 C 
ENDROOT
BRANCH   1   2
ATOM      2  C   UNL     1       8.535  45.569  75.225  1.00  0.00     0.016 C 
ATOM      3  C   UNL     1       8.024  44.197  74.759  1.00  0.00     0.013 C 
BRANCH   2   4
ATOM      4  C   UNL     1       8.011  46.663  74.310  1.00  0.00    -0.045 A 
ATOM      5  C   UNL     1       6.490  49.769  71.722  1.00  0.00     0.044 C 
ATOM      6  C   UNL     1       7.035  48.712  72.637  1.00  0.00    -0.051 A 
ATOM      7  C   UNL     1       8.201  48.015  72.292  1.00  0.00     0.004 A 
ATOM      8  C   UNL     1       6.346  48.366  73.807  1.00  0.00     0.004 A 
ATOM      9  C   UNL     1       8.689  47.003  73.125  1.00  0.00     0.004 A 
ATOM     10  C   UNL     1       6.833  47.355  74.640  1.00  0.00     0.004 A 
ENDBRANCH   2   4
ENDBRANCH   1   2
BRANCH   1  11
ATOM     11  C   UNL     1      10.596  46.742  76.258  1.00  0.00     0.028 C 
BRANCH  11  12
ATOM     12  C   UNL     1       9.797  46.834  77.538  1.00  0.00    -0.028 C 
ATOM     13  C   UNL     1       9.086  47.926  77.886  1.00  0.00    -0.080 C 
ATOM     14  C   UNL     1       9.036  49.152  77.004  1.00  0.00     0.039 C 
ATOM     15  C   UNL     1       8.326  47.912  79.187  1.00  0.00     0.039 C 
ENDBRANCH  11  12
ENDBRANCH   1  11
TORSDOF 4
ENDMDL
MODEL 7
REMARK VINA RESULT:    -5.255      2.880      5.332
REMARK INTER + INTRA:          -7.187
REMARK INTER:                  -5.653
REMARK INTRA:                  -1.534
REMARK UNBOUND:                -0.704
REMARK SMILES CC(C)=CCC[C@H](C)c1ccc(C)cc1
REMARK SMILES IDX 6 1 7 2 8 3 9 4 13 5 12 6 11 7 14 8 10 9 15 10 5 11 4 12
REMARK SMILES IDX 2 13 1 14 3 15
REMARK H PARENT
REMARK Flexibility Score: inf
ROOT
ATOM      1  C   UNL     1       6.188  48.989  73.149  1.00  0.00     0.012 C 
ENDROOT
BRANCH   1   2
ATOM      2  C   UNL     1       6.286  48.728  74.671  1.00  0.00     0.016 C 
ATOM      3  C   UNL     1       6.689  49.979  75.467  1.00  0.00     0.013 C 
BRANCH   2   4
ATOM      4  C   UNL     1       7.257  47.593  74.948  1.00  0.00    -0.045 A 
ATOM      5  C   UNL     1       9.994  44.343  75.727  1.00  0.00     0.044 C 
ATOM      6  C   UNL     1       9.060  45.480  75.432  1.00  0.00    -0.051 A 
ATOM      7  C   UNL     1       9.256  46.729  76.039  1.00  0.00     0.004 A 
ATOM      8  C   UNL     1       7.948  45.285  74.602  1.00  0.00     0.004 A 
ATOM      9  C   UNL     1       8.366  47.779  75.794  1.00  0.00     0.004 A 
ATOM     10  C   UNL     1       7.058  46.333  74.357  1.00  0.00     0.004 A 
ENDBRANCH   2   4
ENDBRANCH   1   2
BRANCH   1  11
ATOM     11  C   UNL     1       7.543  49.308  72.486  1.00  0.00     0.028 C 
BRANCH  11  12
ATOM     12  C   UNL     1       7.912  48.312  71.410  1.00  0.00    -0.028 C 
ATOM     13  C   UNL     1       9.069  47.618  71.413  1.00  0.00    -0.080 C 
ATOM     14  C   UNL     1      10.091  47.790  72.513  1.00  0.00     0.039 C 
ATOM     15  C   UNL     1       9.338  46.651  70.289  1.00  0.00     0.039 C 
ENDBRANCH  11  12
ENDBRANCH   1  11
TORSDOF 4
ENDMDL
MODEL 8
REMARK VINA RESULT:    -5.251      3.661      4.980
REMARK INTER + INTRA:          -7.183
REMARK INTER:                  -6.375
REMARK INTRA:                  -0.808
REMARK UNBOUND:                -0.704
REMARK SMILES CC(C)=CCC[C@H](C)c1ccc(C)cc1
REMARK SMILES IDX 6 1 7 2 8 3 9 4 13 5 12 6 11 7 14 8 10 9 15 10 5 11 4 12
REMARK SMILES IDX 2 13 1 14 3 15
REMARK H PARENT
REMARK Flexibility Score: inf
ROOT
ATOM      1  C   UNL     1       8.131  48.013  72.713  1.00  0.00     0.012 C 
ENDROOT
BRANCH   1   2
ATOM      2  C   UNL     1       9.199  47.864  73.824  1.00  0.00     0.016 C 
ATOM      3  C   UNL     1      10.617  48.198  73.337  1.00  0.00     0.013 C 
BRANCH   2   4
ATOM      4  C   UNL     1       9.160  46.461  74.405  1.00  0.00    -0.045 A 
ATOM      5  C   UNL     1       9.084  42.471  76.060  1.00  0.00     0.044 C 
ATOM      6  C   UNL     1       9.098  43.868  75.511  1.00  0.00    -0.051 A 
ATOM      7  C   UNL     1       8.013  44.341  74.759  1.00  0.00     0.004 A 
ATOM      8  C   UNL     1      10.222  44.686  75.689  1.00  0.00     0.004 A 
ATOM      9  C   UNL     1       8.041  45.629  74.216  1.00  0.00     0.004 A 
ATOM     10  C   UNL     1      10.251  45.973  75.146  1.00  0.00     0.004 A 
ENDBRANCH   2   4
ENDBRANCH   1   2
BRANCH   1  11
ATOM     11  C   UNL     1       8.722  48.086  71.291  1.00  0.00     0.028 C 
BRANCH  11  12
ATOM     12  C   UNL     1       8.908  46.721  70.668  1.00  0.00    -0.028 C 
ATOM     13  C   UNL     1       9.793  46.475  69.680  1.00  0.00    -0.080 C 
ATOM     14  C   UNL     1      10.677  47.566  69.121  1.00  0.00     0.039 C 
ATOM     15  C   UNL     1       9.895  45.077  69.129  1.00  0.00     0.039 C 
ENDBRANCH  11  12
ENDBRANCH   1  11
TORSDOF 4
ENDMDL
MODEL 9
REMARK VINA RESULT:    -5.205      4.009      6.309
REMARK INTER + INTRA:          -7.126
REMARK INTER:                  -5.663
REMARK INTRA:                  -1.464
REMARK UNBOUND:                -0.704
REMARK SMILES CC(C)=CCC[C@H](C)c1ccc(C)cc1
REMARK SMILES IDX 6 1 7 2 8 3 9 4 13 5 12 6 11 7 14 8 10 9 15 10 5 11 4 12
REMARK SMILES IDX 2 13 1 14 3 15
REMARK H PARENT
REMARK Flexibility Score: inf
ROOT
ATOM      1  C   UNL     1       9.737  45.809  75.540  1.00  0.00     0.012 C 
ENDROOT
BRANCH   1   2
ATOM      2  C   UNL     1       9.752  46.554  74.183  1.00  0.00     0.016 C 
ATOM      3  C   UNL     1      11.017  47.401  73.980  1.00  0.00     0.013 C 
BRANCH   2   4
ATOM      4  C   UNL     1       8.512  47.421  74.047  1.00  0.00    -0.045 A 
ATOM      5  C   UNL     1       4.964  49.857  73.663  1.00  0.00     0.044 C 
ATOM      6  C   UNL     1       6.203  49.025  73.823  1.00  0.00    -0.051 A 
ATOM      7  C   UNL     1       7.408  49.435  73.234  1.00  0.00     0.004 A 
ATOM      8  C   UNL     1       6.151  47.801  74.503  1.00  0.00     0.004 A 
ATOM      9  C   UNL     1       8.554  48.643  73.350  1.00  0.00     0.004 A 
ATOM     10  C   UNL     1       7.296  47.009  74.620  1.00  0.00     0.004 A 
ENDBRANCH   2   4
ENDBRANCH   1   2
BRANCH   1  11
ATOM     11  C   UNL     1      10.420  46.589  76.682  1.00  0.00     0.028 C 
BRANCH  11  12
ATOM     12  C   UNL     1       9.472  46.905  77.817  1.00  0.00    -0.028 C 
ATOM     13  C   UNL     1       8.877  48.106  77.968  1.00  0.00    -0.080 C 
ATOM     14  C   UNL     1       9.119  49.236  76.994  1.00  0.00     0.039 C 
ATOM     15  C   UNL     1       7.951  48.315  79.138  1.00  0.00     0.039 C 
ENDBRANCH  11  12
ENDBRANCH   1  11
TORSDOF 4
ENDMDL
