MODEL 1
REMARK VINA RESULT:    -3.115      0.000      0.000
REMARK INTER + INTRA:          -3.563
REMARK INTER:                  -3.388
REMARK INTRA:                  -0.175
REMARK UNBOUND:                -0.175
REMARK SMILES C=C(C)[C@@H]1CC[C@@H](C)C[C@H]1O
REMARK SMILES IDX 8 1 7 2 6 3 5 4 4 5 10 6 9 7 11 8 2 10 1 11 3 12
REMARK H PARENT 11 9
REMARK Flexibility Score: inf
ROOT
ATOM      1  C   UNL     1      32.378 -37.102 -11.801  1.00  0.00     0.008 C 
ATOM      2  C   UNL     1      33.769 -36.485 -11.976  1.00  0.00    -0.012 C 
ATOM      3  C   UNL     1      34.770 -37.124 -10.995  1.00  0.00     0.004 C 
ATOM      4  C   UNL     1      36.163 -36.503 -11.151  1.00  0.00     0.011 C 
ATOM      5  C   UNL     1      36.113 -34.974 -10.954  1.00  0.00     0.043 C 
ATOM      6  C   UNL     1      35.104 -34.322 -11.932  1.00  0.00     0.121 C 
ATOM      7  C   UNL     1      33.714 -34.959 -11.771  1.00  0.00     0.035 C 
ENDROOT
BRANCH   6   8
ATOM      8  O   UNL     1      34.999 -32.946 -11.669  1.00  0.00    -0.392 OA
ATOM      9  H   UNL     1      35.835 -32.523 -11.996  1.00  0.00     0.210 HD
ENDBRANCH   6   8
BRANCH   5  10
ATOM     10  C   UNL     1      37.505 -34.370 -11.093  1.00  0.00    -0.075 C 
ATOM     11  C   UNL     1      38.291 -34.717 -12.125  1.00  0.00     0.008 C 
ATOM     12  C   UNL     1      38.032 -33.374 -10.089  1.00  0.00     0.039 C 
ENDBRANCH   5  10
TORSDOF 2
ENDMDL
MODEL 2
REMARK VINA RESULT:    -2.858      1.752      1.969
REMARK INTER + INTRA:          -3.284
REMARK INTER:                  -3.099
REMARK INTRA:                  -0.185
REMARK UNBOUND:                -0.175
REMARK SMILES C=C(C)[C@@H]1CC[C@@H](C)C[C@H]1O
REMARK SMILES IDX 8 1 7 2 6 3 5 4 4 5 10 6 9 7 11 8 2 10 1 11 3 12
REMARK H PARENT 11 9
REMARK Flexibility Score: inf
ROOT
ATOM      1  C   UNL     1      32.866 -35.289 -12.107  1.00  0.00     0.008 C 
ATOM      2  C   UNL     1      34.370 -35.512 -11.922  1.00  0.00    -0.012 C 
ATOM      3  C   UNL     1      34.638 -36.896 -11.302  1.00  0.00     0.004 C 
ATOM      4  C   UNL     1      36.140 -37.125 -11.098  1.00  0.00     0.011 C 
ATOM      5  C   UNL     1      36.756 -36.012 -10.226  1.00  0.00     0.043 C 
ATOM      6  C   UNL     1      36.487 -34.615 -10.839  1.00  0.00     0.121 C 
ATOM      7  C   UNL     1      34.978 -34.402 -11.045  1.00  0.00     0.035 C 
ENDROOT
BRANCH   6   8
ATOM      8  O   UNL     1      36.968 -33.612  -9.980  1.00  0.00    -0.392 OA
ATOM      9  H   UNL     1      36.314 -33.527  -9.238  1.00  0.00     0.210 HD
ENDBRANCH   6   8
BRANCH   5  10
ATOM     10  C   UNL     1      38.245 -36.259 -10.015  1.00  0.00    -0.075 C 
ATOM     11  C   UNL     1      39.098 -36.159 -11.047  1.00  0.00     0.008 C 
ATOM     12  C   UNL     1      38.797 -36.616  -8.657  1.00  0.00     0.039 C 
ENDBRANCH   5  10
TORSDOF 2
ENDMDL
MODEL 3
REMARK VINA RESULT:    -2.547      1.664      4.579
REMARK INTER + INTRA:          -2.945
REMARK INTER:                  -3.156
REMARK INTRA:                   0.211
REMARK UNBOUND:                -0.175
REMARK SMILES C=C(C)[C@@H]1CC[C@@H](C)C[C@H]1O
REMARK SMILES IDX 8 1 7 2 6 3 5 4 4 5 10 6 9 7 11 8 2 10 1 11 3 12
REMARK H PARENT 11 9
REMARK Flexibility Score: inf
ROOT
ATOM      1  C   UNL     1      38.811 -32.823 -10.653  1.00  0.00     0.008 C 
ATOM      2  C   UNL     1      37.729 -33.745 -11.224  1.00  0.00    -0.012 C 
ATOM      3  C   UNL     1      36.458 -32.942 -11.561  1.00  0.00     0.004 C 
ATOM      4  C   UNL     1      35.362 -33.857 -12.119  1.00  0.00     0.011 C 
ATOM      5  C   UNL     1      35.037 -34.995 -11.132  1.00  0.00     0.043 C 
ATOM      6  C   UNL     1      36.309 -35.806 -10.781  1.00  0.00     0.121 C 
ATOM      7  C   UNL     1      37.402 -34.877 -10.231  1.00  0.00     0.035 C 
ENDROOT
BRANCH   6   8
ATOM      8  O   UNL     1      36.011 -36.774  -9.806  1.00  0.00    -0.392 OA
ATOM      9  H   UNL     1      36.400 -36.454  -8.951  1.00  0.00     0.210 HD
ENDBRANCH   6   8
BRANCH   5  10
ATOM     10  C   UNL     1      33.933 -35.888 -11.688  1.00  0.00    -0.075 C 
ATOM     11  C   UNL     1      34.222 -37.125 -12.124  1.00  0.00     0.008 C 
ATOM     12  C   UNL     1      32.502 -35.414 -11.761  1.00  0.00     0.039 C 
ENDBRANCH   5  10
TORSDOF 2
ENDMDL
MODEL 4
REMARK VINA RESULT:    -2.335      1.798      3.809
REMARK INTER + INTRA:          -2.715
REMARK INTER:                  -3.258
REMARK INTRA:                   0.543
REMARK UNBOUND:                -0.175
REMARK SMILES C=C(C)[C@@H]1CC[C@@H](C)C[C@H]1O
REMARK SMILES IDX 8 1 7 2 6 3 5 4 4 5 10 6 9 7 11 8 2 10 1 11 3 12
REMARK H PARENT 11 9
REMARK Flexibility Score: inf
ROOT
ATOM      1  C   UNL     1      38.997 -37.117  -8.872  1.00  0.00     0.008 C 
ATOM      2  C   UNL     1      37.827 -36.237  -9.321  1.00  0.00    -0.012 C 
ATOM      3  C   UNL     1      36.836 -37.049 -10.176  1.00  0.00     0.004 C 
ATOM      4  C   UNL     1      35.668 -36.174 -10.644  1.00  0.00     0.011 C 
ATOM      5  C   UNL     1      36.175 -34.945 -11.424  1.00  0.00     0.043 C 
ATOM      6  C   UNL     1      37.177 -34.123 -10.575  1.00  0.00     0.121 C 
ATOM      7  C   UNL     1      38.339 -35.014 -10.106  1.00  0.00     0.035 C 
ENDROOT
BRANCH   6   8
ATOM      8  O   UNL     1      37.702 -33.066 -11.338  1.00  0.00    -0.392 OA
ATOM      9  H   UNL     1      36.940 -32.484 -11.591  1.00  0.00     0.210 HD
ENDBRANCH   6   8
BRANCH   5  10
ATOM     10  C   UNL     1      35.005 -34.092 -11.900  1.00  0.00    -0.075 C 
ATOM     11  C   UNL     1      33.807 -34.656 -12.125  1.00  0.00     0.008 C 
ATOM     12  C   UNL     1      35.157 -32.607 -12.125  1.00  0.00     0.039 C 
ENDBRANCH   5  10
TORSDOF 2
ENDMDL
MODEL 5
REMARK VINA RESULT:    -1.766      2.192      3.338
REMARK INTER + INTRA:          -2.096
REMARK INTER:                  -1.908
REMARK INTRA:                  -0.188
REMARK UNBOUND:                -0.175
REMARK SMILES C=C(C)[C@@H]1CC[C@@H](C)C[C@H]1O
REMARK SMILES IDX 8 1 7 2 6 3 5 4 4 5 10 6 9 7 11 8 2 10 1 11 3 12
REMARK H PARENT 11 9
REMARK Flexibility Score: inf
ROOT
ATOM      1  C   UNL     1      34.748 -32.280 -12.125  1.00  0.00     0.008 C 
ATOM      2  C   UNL     1      35.836 -33.349 -11.984  1.00  0.00    -0.012 C 
ATOM      3  C   UNL     1      35.206 -34.730 -11.722  1.00  0.00     0.004 C 
ATOM      4  C   UNL     1      36.287 -35.806 -11.564  1.00  0.00     0.011 C 
ATOM      5  C   UNL     1      37.274 -35.438 -10.438  1.00  0.00     0.043 C 
ATOM      6  C   UNL     1      37.909 -34.048 -10.690  1.00  0.00     0.121 C 
ATOM      7  C   UNL     1      36.816 -32.980 -10.854  1.00  0.00     0.035 C 
ENDROOT
BRANCH   6   8
ATOM      8  O   UNL     1      38.727 -33.688  -9.605  1.00  0.00    -0.392 OA
ATOM      9  H   UNL     1      39.034 -32.758  -9.769  1.00  0.00     0.210 HD
ENDBRANCH   6   8
BRANCH   5  10
ATOM     10  C   UNL     1      38.334 -36.522 -10.278  1.00  0.00    -0.075 C 
ATOM     11  C   UNL     1      39.011 -36.966 -11.349  1.00  0.00     0.008 C 
ATOM     12  C   UNL     1      38.649 -37.118  -8.928  1.00  0.00     0.039 C 
ENDBRANCH   5  10
TORSDOF 2
ENDMDL
MODEL 6
REMARK VINA RESULT:    -1.587     19.472     21.720
REMARK INTER + INTRA:          -1.901
REMARK INTER:                  -1.793
REMARK INTRA:                  -0.109
REMARK UNBOUND:                -0.175
REMARK SMILES C=C(C)[C@@H]1CC[C@@H](C)C[C@H]1O
REMARK SMILES IDX 8 1 7 2 6 3 5 4 4 5 10 6 9 7 11 8 2 10 1 11 3 12
REMARK H PARENT 11 9
REMARK Flexibility Score: inf
ROOT
ATOM      1  C   UNL     1      39.099 -25.488   3.273  1.00  0.00     0.008 C 
ATOM      2  C   UNL     1      38.534 -24.524   4.322  1.00  0.00    -0.012 C 
ATOM      3  C   UNL     1      39.090 -23.104   4.105  1.00  0.00     0.004 C 
ATOM      4  C   UNL     1      38.543 -22.134   5.158  1.00  0.00     0.011 C 
ATOM      5  C   UNL     1      38.861 -22.628   6.584  1.00  0.00     0.043 C 
ATOM      6  C   UNL     1      38.311 -24.058   6.811  1.00  0.00     0.121 C 
ATOM      7  C   UNL     1      38.861 -25.019   5.744  1.00  0.00     0.035 C 
ENDROOT
BRANCH   6   8
ATOM      8  O   UNL     1      38.698 -24.528   8.078  1.00  0.00    -0.392 OA
ATOM      9  H   UNL     1      37.865 -24.738   8.575  1.00  0.00     0.210 HD
ENDBRANCH   6   8
BRANCH   5  10
ATOM     10  C   UNL     1      38.328 -21.647   7.622  1.00  0.00    -0.075 C 
ATOM     11  C   UNL     1      39.125 -20.681   8.108  1.00  0.00     0.008 C 
ATOM     12  C   UNL     1      36.908 -21.730   8.125  1.00  0.00     0.039 C 
ENDBRANCH   5  10
TORSDOF 2
ENDMDL
