MODEL 1
REMARK VINA RESULT:    -4.873      0.000      0.000
REMARK INTER + INTRA:          -9.799
REMARK INTER:                  -8.860
REMARK INTRA:                  -0.938
REMARK UNBOUND:                -0.938
REMARK SMILES CCCCCCCCCCCCCCCC(=O)[O-]
REMARK SMILES IDX 9 1 10 2 11 3 12 4 13 5 14 6 15 7 16 8 17 9 18 10 8 11 7 12
REMARK SMILES IDX 6 13 5 14 4 15 3 16 2 17 1 18
REMARK H PARENT
REMARK Flexibility Score: inf
ROOT
ATOM      1  C   UNL     1       7.179 -33.516 -20.180  1.00  0.00     0.000 C 
ENDROOT
BRANCH   1   2
ATOM      2  C   UNL     1       6.363 -34.385 -21.155  1.00  0.00     0.000 C 
BRANCH   2   3
ATOM      3  C   UNL     1       6.766 -35.869 -21.115  1.00  0.00     0.000 C 
BRANCH   3   4
ATOM      4  C   UNL     1       6.364 -36.625 -22.392  1.00  0.00     0.000 C 
BRANCH   4   5
ATOM      5  C   UNL     1       5.078 -36.073 -23.027  1.00  0.00     0.000 C 
BRANCH   5   6
ATOM      6  C   UNL     1       3.943 -37.100 -22.948  1.00  0.00     0.006 C 
BRANCH   6   7
ATOM      7  C   UNL     1       2.593 -36.413 -22.719  1.00  0.00     0.053 C 
BRANCH   7   8
ATOM      8  C   UNL     1       1.521 -37.085 -23.516  1.00  0.00     0.041 C 
ATOM      9  O   UNL     1       0.549 -37.635 -22.933  1.00  0.00    -0.550 OA
ATOM     10  O   UNL     1       1.568 -37.064 -24.904  1.00  0.00    -0.550 OA
ENDBRANCH   7   8
ENDBRANCH   6   7
ENDBRANCH   5   6
ENDBRANCH   4   5
ENDBRANCH   3   4
ENDBRANCH   2   3
ENDBRANCH   1   2
BRANCH   1  11
ATOM     11  C   UNL     1       6.445 -32.273 -19.643  1.00  0.00     0.000 C 
BRANCH  11  12
ATOM     12  C   UNL     1       7.072 -31.717 -18.354  1.00  0.00    -0.000 C 
BRANCH  12  13
ATOM     13  C   UNL     1       6.023 -31.386 -17.282  1.00  0.00    -0.000 C 
BRANCH  13  14
ATOM     14  C   UNL     1       4.755 -30.745 -17.874  1.00  0.00    -0.000 C 
BRANCH  14  15
ATOM     15  C   UNL     1       4.908 -29.222 -18.064  1.00  0.00    -0.000 C 
BRANCH  15  16
ATOM     16  C   UNL     1       5.760 -28.549 -16.975  1.00  0.00    -0.000 C 
BRANCH  16  17
ATOM     17  C   UNL     1       6.878 -27.669 -17.552  1.00  0.00    -0.003 C 
ATOM     18  C   UNL     1       8.241 -28.334 -17.388  1.00  0.00     0.004 C 
ENDBRANCH  16  17
ENDBRANCH  15  16
ENDBRANCH  14  15
ENDBRANCH  13  14
ENDBRANCH  12  13
ENDBRANCH  11  12
ENDBRANCH   1  11
TORSDOF 14
ENDMDL
MODEL 2
REMARK VINA RESULT:    -4.790      6.745     11.537
REMARK INTER + INTRA:          -9.648
REMARK INTER:                  -8.521
REMARK INTRA:                  -1.127
REMARK UNBOUND:                -0.938
REMARK SMILES CCCCCCCCCCCCCCCC(=O)[O-]
REMARK SMILES IDX 9 1 10 2 11 3 12 4 13 5 14 6 15 7 16 8 17 9 18 10 8 11 7 12
REMARK SMILES IDX 6 13 5 14 4 15 3 16 2 17 1 18
REMARK H PARENT
REMARK Flexibility Score: inf
ROOT
ATOM      1  C   UNL     1      -0.753 -41.400 -19.581  1.00  0.00     0.000 C 
ENDROOT
BRANCH   1   2
ATOM      2  C   UNL     1      -1.526 -40.328 -20.373  1.00  0.00     0.000 C 
BRANCH   2   3
ATOM      3  C   UNL     1      -0.617 -39.485 -21.283  1.00  0.00     0.000 C 
BRANCH   3   4
ATOM      4  C   UNL     1      -1.369 -38.326 -21.957  1.00  0.00     0.000 C 
BRANCH   4   5
ATOM      5  C   UNL     1      -0.520 -37.050 -22.063  1.00  0.00     0.000 C 
BRANCH   5   6
ATOM      6  C   UNL     1       0.729 -37.291 -22.919  1.00  0.00     0.006 C 
BRANCH   6   7
ATOM      7  C   UNL     1       1.990 -36.791 -22.208  1.00  0.00     0.053 C 
BRANCH   7   8
ATOM      8  C   UNL     1       3.210 -37.129 -23.004  1.00  0.00     0.041 C 
ATOM      9  O   UNL     1       4.353 -37.038 -22.482  1.00  0.00    -0.550 OA
ATOM     10  O   UNL     1       3.084 -37.591 -24.308  1.00  0.00    -0.550 OA
ENDBRANCH   7   8
ENDBRANCH   6   7
ENDBRANCH   5   6
ENDBRANCH   4   5
ENDBRANCH   3   4
ENDBRANCH   2   3
ENDBRANCH   1   2
BRANCH   1  11
ATOM     11  C   UNL     1      -1.415 -41.840 -18.262  1.00  0.00     0.000 C 
BRANCH  11  12
ATOM     12  C   UNL     1      -0.407 -42.001 -17.111  1.00  0.00    -0.000 C 
BRANCH  12  13
ATOM     13  C   UNL     1       1.047 -42.059 -17.603  1.00  0.00    -0.000 C 
BRANCH  13  14
ATOM     14  C   UNL     1       1.689 -43.442 -17.389  1.00  0.00    -0.000 C 
BRANCH  14  15
ATOM     15  C   UNL     1       1.152 -44.493 -18.382  1.00  0.00    -0.000 C 
BRANCH  15  16
ATOM     16  C   UNL     1       0.950 -45.883 -17.756  1.00  0.00    -0.000 C 
BRANCH  16  17
ATOM     17  C   UNL     1      -0.302 -45.962 -16.871  1.00  0.00    -0.003 C 
ATOM     18  C   UNL     1      -1.540 -45.493 -17.629  1.00  0.00     0.004 C 
ENDBRANCH  16  17
ENDBRANCH  15  16
ENDBRANCH  14  15
ENDBRANCH  13  14
ENDBRANCH  12  13
ENDBRANCH  11  12
ENDBRANCH   1  11
TORSDOF 14
ENDMDL
MODEL 3
REMARK VINA RESULT:    -4.624      4.480      9.222
REMARK INTER + INTRA:          -9.346
REMARK INTER:                  -8.591
REMARK INTRA:                  -0.755
REMARK UNBOUND:                -0.938
REMARK SMILES CCCCCCCCCCCCCCCC(=O)[O-]
REMARK SMILES IDX 9 1 10 2 11 3 12 4 13 5 14 6 15 7 16 8 17 9 18 10 8 11 7 12
REMARK SMILES IDX 6 13 5 14 4 15 3 16 2 17 1 18
REMARK H PARENT
REMARK Flexibility Score: inf
ROOT
ATOM      1  C   UNL     1       6.721 -32.304 -19.914  1.00  0.00     0.000 C 
ENDROOT
BRANCH   1   2
ATOM      2  C   UNL     1       6.931 -31.748 -18.494  1.00  0.00     0.000 C 
BRANCH   2   3
ATOM      3  C   UNL     1       5.644 -31.756 -17.651  1.00  0.00     0.000 C 
BRANCH   3   4
ATOM      4  C   UNL     1       4.658 -30.653 -18.069  1.00  0.00     0.000 C 
BRANCH   4   5
ATOM      5  C   UNL     1       4.727 -29.418 -17.158  1.00  0.00     0.000 C 
BRANCH   5   6
ATOM      6  C   UNL     1       5.135 -28.172 -17.952  1.00  0.00     0.006 C 
BRANCH   6   7
ATOM      7  C   UNL     1       6.178 -27.349 -17.190  1.00  0.00     0.053 C 
BRANCH   7   8
ATOM      8  C   UNL     1       7.449 -28.123 -17.040  1.00  0.00     0.041 C 
ATOM      9  O   UNL     1       8.288 -28.152 -17.979  1.00  0.00    -0.550 OA
ATOM     10  O   UNL     1       7.729 -28.774 -15.845  1.00  0.00    -0.550 OA
ENDBRANCH   7   8
ENDBRANCH   6   7
ENDBRANCH   5   6
ENDBRANCH   4   5
ENDBRANCH   3   4
ENDBRANCH   2   3
ENDBRANCH   1   2
BRANCH   1  11
ATOM     11  C   UNL     1       7.181 -33.760 -20.119  1.00  0.00     0.000 C 
BRANCH  11  12
ATOM     12  C   UNL     1       6.495 -34.443 -21.314  1.00  0.00    -0.000 C 
BRANCH  12  13
ATOM     13  C   UNL     1       6.364 -35.962 -21.129  1.00  0.00    -0.000 C 
BRANCH  13  14
ATOM     14  C   UNL     1       5.001 -36.500 -21.601  1.00  0.00    -0.000 C 
BRANCH  14  15
ATOM     15  C   UNL     1       4.768 -36.255 -23.106  1.00  0.00    -0.000 C 
BRANCH  15  16
ATOM     16  C   UNL     1       3.474 -36.895 -23.639  1.00  0.00    -0.000 C 
BRANCH  16  17
ATOM     17  C   UNL     1       2.393 -37.040 -22.560  1.00  0.00    -0.003 C 
ATOM     18  C   UNL     1       1.030 -37.327 -23.183  1.00  0.00     0.004 C 
ENDBRANCH  16  17
ENDBRANCH  15  16
ENDBRANCH  14  15
ENDBRANCH  13  14
ENDBRANCH  12  13
ENDBRANCH  11  12
ENDBRANCH   1  11
TORSDOF 14
ENDMDL
MODEL 4
REMARK VINA RESULT:    -4.594      8.092     11.581
REMARK INTER + INTRA:          -9.291
REMARK INTER:                  -8.132
REMARK INTRA:                  -1.159
REMARK UNBOUND:                -0.938
REMARK SMILES CCCCCCCCCCCCCCCC(=O)[O-]
REMARK SMILES IDX 9 1 10 2 11 3 12 4 13 5 14 6 15 7 16 8 17 9 18 10 8 11 7 12
REMARK SMILES IDX 6 13 5 14 4 15 3 16 2 17 1 18
REMARK H PARENT
REMARK Flexibility Score: inf
ROOT
ATOM      1  C   UNL     1      -0.843 -42.312 -18.408  1.00  0.00     0.000 C 
ENDROOT
BRANCH   1   2
ATOM      2  C   UNL     1       0.058 -41.951 -17.212  1.00  0.00     0.000 C 
BRANCH   2   3
ATOM      3  C   UNL     1      -0.742 -41.633 -15.936  1.00  0.00     0.000 C 
BRANCH   3   4
ATOM      4  C   UNL     1      -0.866 -42.847 -15.001  1.00  0.00     0.000 C 
BRANCH   4   5
ATOM      5  C   UNL     1       0.001 -44.033 -15.448  1.00  0.00     0.000 C 
BRANCH   5   6
ATOM      6  C   UNL     1      -0.852 -45.292 -15.646  1.00  0.00     0.006 C 
BRANCH   6   7
ATOM      7  C   UNL     1      -0.799 -45.771 -17.099  1.00  0.00     0.053 C 
BRANCH   7   8
ATOM      8  C   UNL     1      -2.180 -45.906 -17.658  1.00  0.00     0.041 C 
ATOM      9  O   UNL     1      -2.511 -46.946 -18.285  1.00  0.00    -0.550 OA
ATOM     10  O   UNL     1      -3.117 -44.903 -17.444  1.00  0.00    -0.550 OA
ENDBRANCH   7   8
ENDBRANCH   6   7
ENDBRANCH   5   6
ENDBRANCH   4   5
ENDBRANCH   3   4
ENDBRANCH   2   3
ENDBRANCH   1   2
BRANCH   1  11
ATOM     11  C   UNL     1      -0.786 -41.324 -19.589  1.00  0.00     0.000 C 
BRANCH  11  12
ATOM     12  C   UNL     1      -1.998 -40.380 -19.638  1.00  0.00    -0.000 C 
BRANCH  12  13
ATOM     13  C   UNL     1      -1.978 -39.456 -20.865  1.00  0.00    -0.000 C 
BRANCH  13  14
ATOM     14  C   UNL     1      -0.604 -39.425 -21.559  1.00  0.00    -0.000 C 
BRANCH  14  15
ATOM     15  C   UNL     1      -0.453 -38.209 -22.495  1.00  0.00    -0.000 C 
BRANCH  15  16
ATOM     16  C   UNL     1       0.732 -37.298 -22.132  1.00  0.00    -0.000 C 
BRANCH  16  17
ATOM     17  C   UNL     1       0.503 -36.512 -20.833  1.00  0.00    -0.003 C 
ATOM     18  C   UNL     1      -0.877 -35.861 -20.820  1.00  0.00     0.004 C 
ENDBRANCH  16  17
ENDBRANCH  15  16
ENDBRANCH  14  15
ENDBRANCH  13  14
ENDBRANCH  12  13
ENDBRANCH  11  12
ENDBRANCH   1  11
TORSDOF 14
ENDMDL
MODEL 5
REMARK VINA RESULT:    -4.557      4.495      9.173
REMARK INTER + INTRA:          -9.225
REMARK INTER:                  -8.598
REMARK INTRA:                  -0.627
REMARK UNBOUND:                -0.938
REMARK SMILES CCCCCCCCCCCCCCCC(=O)[O-]
REMARK SMILES IDX 9 1 10 2 11 3 12 4 13 5 14 6 15 7 16 8 17 9 18 10 8 11 7 12
REMARK SMILES IDX 6 13 5 14 4 15 3 16 2 17 1 18
REMARK H PARENT
REMARK Flexibility Score: inf
ROOT
ATOM      1  C   UNL     1       6.592 -32.339 -19.774  1.00  0.00     0.000 C 
ENDROOT
BRANCH   1   2
ATOM      2  C   UNL     1       7.124 -31.742 -18.458  1.00  0.00     0.000 C 
BRANCH   2   3
ATOM      3  C   UNL     1       6.682 -30.285 -18.239  1.00  0.00     0.000 C 
BRANCH   3   4
ATOM      4  C   UNL     1       7.499 -29.578 -17.145  1.00  0.00     0.000 C 
BRANCH   4   5
ATOM      5  C   UNL     1       7.364 -28.049 -17.198  1.00  0.00     0.000 C 
BRANCH   5   6
ATOM      6  C   UNL     1       5.962 -27.606 -16.763  1.00  0.00     0.006 C 
BRANCH   6   7
ATOM      7  C   UNL     1       5.704 -27.956 -15.295  1.00  0.00     0.053 C 
BRANCH   7   8
ATOM      8  C   UNL     1       4.435 -28.735 -15.156  1.00  0.00     0.041 C 
ATOM      9  O   UNL     1       3.358 -28.147 -14.875  1.00  0.00    -0.550 OA
ATOM     10  O   UNL     1       4.432 -30.106 -15.384  1.00  0.00    -0.550 OA
ENDBRANCH   7   8
ENDBRANCH   6   7
ENDBRANCH   5   6
ENDBRANCH   4   5
ENDBRANCH   3   4
ENDBRANCH   2   3
ENDBRANCH   1   2
BRANCH   1  11
ATOM     11  C   UNL     1       7.179 -33.712 -20.152  1.00  0.00     0.000 C 
BRANCH  11  12
ATOM     12  C   UNL     1       6.296 -34.489 -21.143  1.00  0.00    -0.000 C 
BRANCH  12  13
ATOM     13  C   UNL     1       7.051 -35.634 -21.834  1.00  0.00    -0.000 C 
BRANCH  13  14
ATOM     14  C   UNL     1       6.349 -36.993 -21.663  1.00  0.00    -0.000 C 
BRANCH  14  15
ATOM     15  C   UNL     1       6.192 -37.385 -20.180  1.00  0.00    -0.000 C 
BRANCH  15  16
ATOM     16  C   UNL     1       6.980 -38.648 -19.792  1.00  0.00    -0.000 C 
BRANCH  16  17
ATOM     17  C   UNL     1       7.006 -38.892 -18.277  1.00  0.00    -0.003 C 
ATOM     18  C   UNL     1       8.349 -39.466 -17.836  1.00  0.00     0.004 C 
ENDBRANCH  16  17
ENDBRANCH  15  16
ENDBRANCH  14  15
ENDBRANCH  13  14
ENDBRANCH  12  13
ENDBRANCH  11  12
ENDBRANCH   1  11
TORSDOF 14
ENDMDL
MODEL 6
REMARK VINA RESULT:    -4.557      4.592      9.278
REMARK INTER + INTRA:          -9.224
REMARK INTER:                  -8.591
REMARK INTRA:                  -0.634
REMARK UNBOUND:                -0.938
REMARK SMILES CCCCCCCCCCCCCCCC(=O)[O-]
REMARK SMILES IDX 9 1 10 2 11 3 12 4 13 5 14 6 15 7 16 8 17 9 18 10 8 11 7 12
REMARK SMILES IDX 6 13 5 14 4 15 3 16 2 17 1 18
REMARK H PARENT
REMARK Flexibility Score: inf
ROOT
ATOM      1  C   UNL     1       6.354 -34.525 -20.893  1.00  0.00     0.000 C 
ENDROOT
BRANCH   1   2
ATOM      2  C   UNL     1       7.340 -33.637 -20.111  1.00  0.00     0.000 C 
BRANCH   2   3
ATOM      3  C   UNL     1       6.794 -32.222 -19.852  1.00  0.00     0.000 C 
BRANCH   3   4
ATOM      4  C   UNL     1       6.993 -31.771 -18.396  1.00  0.00     0.000 C 
BRANCH   4   5
ATOM      5  C   UNL     1       5.683 -31.322 -17.730  1.00  0.00     0.000 C 
BRANCH   5   6
ATOM      6  C   UNL     1       5.850 -29.954 -17.057  1.00  0.00     0.006 C 
BRANCH   6   7
ATOM      7  C   UNL     1       7.311 -29.495 -17.097  1.00  0.00     0.053 C 
BRANCH   7   8
ATOM      8  C   UNL     1       7.393 -28.035 -17.411  1.00  0.00     0.041 C 
ATOM      9  O   UNL     1       6.446 -27.266 -17.101  1.00  0.00    -0.550 OA
ATOM     10  O   UNL     1       8.537 -27.515 -18.004  1.00  0.00    -0.550 OA
ENDBRANCH   7   8
ENDBRANCH   6   7
ENDBRANCH   5   6
ENDBRANCH   4   5
ENDBRANCH   3   4
ENDBRANCH   2   3
ENDBRANCH   1   2
BRANCH   1  11
ATOM     11  C   UNL     1       6.692 -36.028 -20.896  1.00  0.00     0.000 C 
BRANCH  11  12
ATOM     12  C   UNL     1       5.899 -36.819 -21.950  1.00  0.00    -0.000 C 
BRANCH  12  13
ATOM     13  C   UNL     1       5.451 -35.944 -23.130  1.00  0.00    -0.000 C 
BRANCH  13  14
ATOM     14  C   UNL     1       4.169 -36.469 -23.802  1.00  0.00    -0.000 C 
BRANCH  14  15
ATOM     15  C   UNL     1       2.906 -36.151 -22.976  1.00  0.00    -0.000 C 
BRANCH  15  16
ATOM     16  C   UNL     1       1.710 -37.058 -23.309  1.00  0.00    -0.000 C 
BRANCH  16  17
ATOM     17  C   UNL     1       0.638 -37.058 -22.210  1.00  0.00    -0.003 C 
ATOM     18  C   UNL     1      -0.452 -38.083 -22.506  1.00  0.00     0.004 C 
ENDBRANCH  16  17
ENDBRANCH  15  16
ENDBRANCH  14  15
ENDBRANCH  13  14
ENDBRANCH  12  13
ENDBRANCH  11  12
ENDBRANCH   1  11
TORSDOF 14
ENDMDL
MODEL 7
REMARK VINA RESULT:    -4.501      4.987      9.055
REMARK INTER + INTRA:          -9.123
REMARK INTER:                  -8.343
REMARK INTRA:                  -0.779
REMARK UNBOUND:                -0.938
REMARK SMILES CCCCCCCCCCCCCCCC(=O)[O-]
REMARK SMILES IDX 9 1 10 2 11 3 12 4 13 5 14 6 15 7 16 8 17 9 18 10 8 11 7 12
REMARK SMILES IDX 6 13 5 14 4 15 3 16 2 17 1 18
REMARK H PARENT
REMARK Flexibility Score: inf
ROOT
ATOM      1  C   UNL     1       6.623 -33.200 -20.048  1.00  0.00     0.000 C 
ENDROOT
BRANCH   1   2
ATOM      2  C   UNL     1       7.234 -32.427 -18.865  1.00  0.00     0.000 C 
BRANCH   2   3
ATOM      3  C   UNL     1       6.732 -30.976 -18.774  1.00  0.00     0.000 C 
BRANCH   3   4
ATOM      4  C   UNL     1       5.265 -30.887 -18.322  1.00  0.00     0.000 C 
BRANCH   4   5
ATOM      5  C   UNL     1       4.727 -29.448 -18.334  1.00  0.00     0.000 C 
BRANCH   5   6
ATOM      6  C   UNL     1       5.217 -28.669 -17.109  1.00  0.00     0.006 C 
BRANCH   6   7
ATOM      7  C   UNL     1       6.072 -27.468 -17.525  1.00  0.00     0.053 C 
BRANCH   7   8
ATOM      8  C   UNL     1       7.523 -27.752 -17.298  1.00  0.00     0.041 C 
ATOM      9  O   UNL     1       8.395 -27.223 -18.035  1.00  0.00    -0.550 OA
ATOM     10  O   UNL     1       7.915 -28.564 -16.241  1.00  0.00    -0.550 OA
ENDBRANCH   7   8
ENDBRANCH   6   7
ENDBRANCH   5   6
ENDBRANCH   4   5
ENDBRANCH   3   4
ENDBRANCH   2   3
ENDBRANCH   1   2
BRANCH   1  11
ATOM     11  C   UNL     1       7.530 -34.286 -20.657  1.00  0.00     0.000 C 
BRANCH  11  12
ATOM     12  C   UNL     1       6.758 -35.297 -21.521  1.00  0.00    -0.000 C 
BRANCH  12  13
ATOM     13  C   UNL     1       5.394 -35.667 -20.919  1.00  0.00    -0.000 C 
BRANCH  13  14
ATOM     14  C   UNL     1       5.320 -37.142 -20.485  1.00  0.00    -0.000 C 
BRANCH  14  15
ATOM     15  C   UNL     1       6.717 -37.781 -20.352  1.00  0.00    -0.000 C 
BRANCH  15  16
ATOM     16  C   UNL     1       6.770 -38.938 -19.340  1.00  0.00    -0.000 C 
BRANCH  16  17
ATOM     17  C   UNL     1       7.811 -38.716 -18.234  1.00  0.00    -0.003 C 
ATOM     18  C   UNL     1       7.337 -39.300 -16.907  1.00  0.00     0.004 C 
ENDBRANCH  16  17
ENDBRANCH  15  16
ENDBRANCH  14  15
ENDBRANCH  13  14
ENDBRANCH  12  13
ENDBRANCH  11  12
ENDBRANCH   1  11
TORSDOF 14
ENDMDL
MODEL 8
REMARK VINA RESULT:    -4.492      4.250      9.297
REMARK INTER + INTRA:          -9.106
REMARK INTER:                  -8.555
REMARK INTRA:                  -0.550
REMARK UNBOUND:                -0.938
REMARK SMILES CCCCCCCCCCCCCCCC(=O)[O-]
REMARK SMILES IDX 9 1 10 2 11 3 12 4 13 5 14 6 15 7 16 8 17 9 18 10 8 11 7 12
REMARK SMILES IDX 6 13 5 14 4 15 3 16 2 17 1 18
REMARK H PARENT
REMARK Flexibility Score: inf
ROOT
ATOM      1  C   UNL     1       6.621 -32.343 -19.724  1.00  0.00     0.000 C 
ENDROOT
BRANCH   1   2
ATOM      2  C   UNL     1       7.215 -31.685 -18.464  1.00  0.00     0.000 C 
BRANCH   2   3
ATOM      3  C   UNL     1       6.751 -30.231 -18.273  1.00  0.00     0.000 C 
BRANCH   3   4
ATOM      4  C   UNL     1       7.750 -29.395 -17.457  1.00  0.00     0.000 C 
BRANCH   4   5
ATOM      5  C   UNL     1       7.506 -27.884 -17.588  1.00  0.00     0.000 C 
BRANCH   5   6
ATOM      6  C   UNL     1       6.104 -27.509 -17.093  1.00  0.00     0.006 C 
BRANCH   6   7
ATOM      7  C   UNL     1       5.946 -27.818 -15.601  1.00  0.00     0.053 C 
BRANCH   7   8
ATOM      8  C   UNL     1       4.574 -28.341 -15.317  1.00  0.00     0.041 C 
ATOM      9  O   UNL     1       3.679 -27.570 -14.881  1.00  0.00    -0.550 OA
ATOM     10  O   UNL     1       4.269 -29.671 -15.579  1.00  0.00    -0.550 OA
ENDBRANCH   7   8
ENDBRANCH   6   7
ENDBRANCH   5   6
ENDBRANCH   4   5
ENDBRANCH   3   4
ENDBRANCH   2   3
ENDBRANCH   1   2
BRANCH   1  11
ATOM     11  C   UNL     1       7.322 -33.637 -20.176  1.00  0.00     0.000 C 
BRANCH  11  12
ATOM     12  C   UNL     1       6.334 -34.746 -20.576  1.00  0.00    -0.000 C 
BRANCH  12  13
ATOM     13  C   UNL     1       6.804 -35.541 -21.803  1.00  0.00    -0.000 C 
BRANCH  13  14
ATOM     14  C   UNL     1       5.754 -35.568 -22.928  1.00  0.00    -0.000 C 
BRANCH  14  15
ATOM     15  C   UNL     1       4.686 -36.657 -22.701  1.00  0.00    -0.000 C 
BRANCH  15  16
ATOM     16  C   UNL     1       3.249 -36.172 -22.959  1.00  0.00    -0.000 C 
BRANCH  16  17
ATOM     17  C   UNL     1       2.211 -37.298 -22.852  1.00  0.00    -0.003 C 
ATOM     18  C   UNL     1       0.954 -36.821 -22.132  1.00  0.00     0.004 C 
ENDBRANCH  16  17
ENDBRANCH  15  16
ENDBRANCH  14  15
ENDBRANCH  13  14
ENDBRANCH  12  13
ENDBRANCH  11  12
ENDBRANCH   1  11
TORSDOF 14
ENDMDL
MODEL 9
REMARK VINA RESULT:    -4.469      7.404     10.438
REMARK INTER + INTRA:          -9.065
REMARK INTER:                  -8.442
REMARK INTRA:                  -0.623
REMARK UNBOUND:                -0.938
REMARK SMILES CCCCCCCCCCCCCCCC(=O)[O-]
REMARK SMILES IDX 9 1 10 2 11 3 12 4 13 5 14 6 15 7 16 8 17 9 18 10 8 11 7 12
REMARK SMILES IDX 6 13 5 14 4 15 3 16 2 17 1 18
REMARK H PARENT
REMARK Flexibility Score: inf
ROOT
ATOM      1  C   UNL     1      -1.512 -39.977 -20.589  1.00  0.00     0.000 C 
ENDROOT
BRANCH   1   2
ATOM      2  C   UNL     1      -0.754 -41.127 -19.898  1.00  0.00     0.000 C 
BRANCH   2   3
ATOM      3  C   UNL     1      -1.454 -41.622 -18.620  1.00  0.00     0.000 C 
BRANCH   3   4
ATOM      4  C   UNL     1      -0.522 -42.448 -17.720  1.00  0.00     0.000 C 
BRANCH   4   5
ATOM      5  C   UNL     1       0.892 -42.595 -18.304  1.00  0.00     0.000 C 
BRANCH   5   6
ATOM      6  C   UNL     1       1.254 -44.071 -18.499  1.00  0.00     0.006 C 
BRANCH   6   7
ATOM      7  C   UNL     1       1.379 -44.791 -17.153  1.00  0.00     0.053 C 
BRANCH   7   8
ATOM      8  C   UNL     1       0.291 -45.805 -16.998  1.00  0.00     0.041 C 
ATOM      9  O   UNL     1       0.256 -46.817 -17.747  1.00  0.00    -0.550 OA
ATOM     10  O   UNL     1      -0.659 -45.658 -15.994  1.00  0.00    -0.550 OA
ENDBRANCH   7   8
ENDBRANCH   6   7
ENDBRANCH   5   6
ENDBRANCH   4   5
ENDBRANCH   3   4
ENDBRANCH   2   3
ENDBRANCH   1   2
BRANCH   1  11
ATOM     11  C   UNL     1      -0.708 -39.219 -21.662  1.00  0.00     0.000 C 
BRANCH  11  12
ATOM     12  C   UNL     1      -1.052 -37.721 -21.722  1.00  0.00    -0.000 C 
BRANCH  12  13
ATOM     13  C   UNL     1       0.187 -36.825 -21.580  1.00  0.00    -0.000 C 
BRANCH  13  14
ATOM     14  C   UNL     1       1.172 -36.986 -22.751  1.00  0.00    -0.000 C 
BRANCH  14  15
ATOM     15  C   UNL     1       2.591 -36.501 -22.390  1.00  0.00    -0.000 C 
BRANCH  15  16
ATOM     16  C   UNL     1       3.560 -36.491 -23.585  1.00  0.00    -0.000 C 
BRANCH  16  17
ATOM     17  C   UNL     1       2.849 -36.260 -24.926  1.00  0.00    -0.003 C 
ATOM     18  C   UNL     1       3.289 -37.288 -25.964  1.00  0.00     0.004 C 
ENDBRANCH  16  17
ENDBRANCH  15  16
ENDBRANCH  14  15
ENDBRANCH  13  14
ENDBRANCH  12  13
ENDBRANCH  11  12
ENDBRANCH   1  11
TORSDOF 14
ENDMDL
