MODEL 1
REMARK VINA RESULT:    -7.939      0.000      0.000
REMARK INTER + INTRA:         -11.607
REMARK INTER:                 -10.956
REMARK INTRA:                  -0.650
REMARK UNBOUND:                -0.650
REMARK SMILES C[C@H]1OC(=O)[C@H](C)[C@H]1C[C@H](O)[C@](C)(O)[C@@H]1CC[C@@]2(O)C3=CC(=O)[C@@H]4C[C@@H](O)[C@@H](O)C[C@]4(C)[C@@H]3CC[C@@]12C
REMARK SMILES IDX 12 1 13 2 10 3 9 4 8 5 7 6 6 7 4 8 2 9 3 10 5 11 1 12 11 13
REMARK SMILES IDX 15 15 16 16 36 17 17 18 18 19 35 20 37 21 20 22 34 23 33 24
REMARK SMILES IDX 21 25 31 26 22 27 24 28 30 29 32 30 23 31 25 32 28 33 26 34
REMARK SMILES IDX 19 35 29 37 27 39 14 41
REMARK H PARENT 11 14 19 36 29 38 27 40 14 42
REMARK Flexibility Score: inf
ROOT
ATOM      1  C   UNL     1     -27.578 -13.952  -1.729  1.00  0.00     0.091 C 
ATOM      2  C   UNL     1     -27.293 -14.589  -0.332  1.00  0.00     0.045 C 
ENDROOT
BRANCH   1   3
ATOM      3  C   UNL     1     -27.515 -12.382  -1.578  1.00  0.00     0.146 C 
BRANCH   3   4
ATOM      4  C   UNL     1     -28.887 -11.676  -1.433  1.00  0.00     0.043 C 
BRANCH   4   5
ATOM      5  C   UNL     1     -29.035 -10.899  -0.096  1.00  0.00     0.046 C 
ATOM      6  C   UNL     1     -27.355 -11.382   1.801  1.00  0.00     0.020 C 
ATOM      7  C   UNL     1     -28.704 -11.756   1.162  1.00  0.00     0.103 C 
ATOM      8  C   UNL     1     -29.816 -11.416   2.082  1.00  0.00     0.309 C 
ATOM      9  C   UNL     1     -30.469 -10.310   0.162  1.00  0.00     0.177 C 
ATOM     10  O   UNL     1     -30.740 -10.560   1.528  1.00  0.00    -0.462 OA
ATOM     11  O   UNL     1     -29.928 -11.869   3.252  1.00  0.00    -0.252 OA
ATOM     12  C   UNL     1     -31.608 -10.913  -0.671  1.00  0.00     0.053 C 
ENDBRANCH   4   5
ENDBRANCH   3   4
BRANCH   3  13
ATOM     13  O   UNL     1     -26.839 -11.824  -2.682  1.00  0.00    -0.390 OA
ATOM     14  H   UNL     1     -27.128 -10.879  -2.769  1.00  0.00     0.211 HD
ENDBRANCH   3  13
ENDBRANCH   1   3
BRANCH   1  15
ATOM     15  C   UNL     1     -29.019 -14.392  -2.271  1.00  0.00     0.032 C 
ATOM     16  C   UNL     1     -29.678 -15.513  -1.446  1.00  0.00     0.010 C 
ATOM     17  C   UNL     1     -29.165 -14.955  -3.750  1.00  0.00     0.006 C 
ATOM     18  C   UNL     1     -29.271 -16.815  -2.100  1.00  0.00     0.041 C 
ATOM     19  C   UNL     1     -29.035 -16.525  -3.608  1.00  0.00     0.092 C 
ATOM     20  C   UNL     1     -30.583 -14.542  -4.255  1.00  0.00     0.011 C 
ATOM     21  C   UNL     1     -28.139 -14.398  -4.787  1.00  0.00     0.015 C 
ATOM     22  C   UNL     1     -30.016 -17.361  -4.468  1.00  0.00    -0.031 C 
ATOM     23  C   UNL     1     -30.984 -15.246  -5.541  1.00  0.00     0.009 C 
ATOM     24  C   UNL     1     -31.144 -16.757  -5.307  1.00  0.00     0.025 C 
ATOM     25  C   UNL     1     -29.959 -18.704  -4.380  1.00  0.00     0.050 C 
ATOM     26  C   UNL     1     -31.410 -17.577  -6.631  1.00  0.00    -0.013 C 
ATOM     27  C   UNL     1     -30.853 -19.587  -5.141  1.00  0.00     0.159 C 
ATOM     28  C   UNL     1     -31.768 -19.053  -6.223  1.00  0.00     0.070 C 
ATOM     29  C   UNL     1     -30.146 -17.549  -7.560  1.00  0.00     0.042 C 
ATOM     30  C   UNL     1     -32.624 -16.945  -7.372  1.00  0.00     0.013 C 
ATOM     31  O   UNL     1     -30.889 -20.811  -4.838  1.00  0.00    -0.295 OA
ATOM     32  C   UNL     1     -31.801 -20.017  -7.437  1.00  0.00     0.047 C 
ATOM     33  C   UNL     1     -30.185 -18.542  -8.735  1.00  0.00     0.143 C 
ATOM     34  C   UNL     1     -30.490 -19.969  -8.241  1.00  0.00     0.143 C 
BRANCH  19  35
ATOM     35  O   UNL     1     -27.714 -16.894  -3.957  1.00  0.00    -0.385 OA
ATOM     36  H   UNL     1     -27.713 -17.791  -4.384  1.00  0.00     0.211 HD
ENDBRANCH  19  35
BRANCH  33  37
ATOM     37  O   UNL     1     -31.131 -18.125  -9.688  1.00  0.00    -0.390 OA
ATOM     38  H   UNL     1     -31.938 -18.695  -9.571  1.00  0.00     0.211 HD
ENDBRANCH  33  37
BRANCH  34  39
ATOM     39  O   UNL     1     -30.514 -20.878  -9.315  1.00  0.00    -0.390 OA
ATOM     40  H   UNL     1     -29.713 -21.459  -9.240  1.00  0.00     0.211 HD
ENDBRANCH  34  39
ENDBRANCH   1  15
BRANCH   1  41
ATOM     41  O   UNL     1     -26.599 -14.395  -2.644  1.00  0.00    -0.387 OA
ATOM     42  H   UNL     1     -26.654 -15.378  -2.741  1.00  0.00     0.211 HD
ENDBRANCH   1  41
TORSDOF 9
ENDMDL
MODEL 2
REMARK VINA RESULT:    -7.921      1.726      2.382
REMARK INTER + INTRA:         -11.581
REMARK INTER:                 -10.538
REMARK INTRA:                  -1.043
REMARK UNBOUND:                -0.650
REMARK SMILES C[C@H]1OC(=O)[C@H](C)[C@H]1C[C@H](O)[C@](C)(O)[C@@H]1CC[C@@]2(O)C3=CC(=O)[C@@H]4C[C@@H](O)[C@@H](O)C[C@]4(C)[C@@H]3CC[C@@]12C
REMARK SMILES IDX 12 1 13 2 10 3 9 4 8 5 7 6 6 7 4 8 2 9 3 10 5 11 1 12 11 13
REMARK SMILES IDX 15 15 16 16 36 17 17 18 18 19 35 20 37 21 20 22 34 23 33 24
REMARK SMILES IDX 21 25 31 26 22 27 24 28 30 29 32 30 23 31 25 32 28 33 26 34
REMARK SMILES IDX 19 35 29 37 27 39 14 41
REMARK H PARENT 11 14 19 36 29 38 27 40 14 42
REMARK Flexibility Score: inf
ROOT
ATOM      1  C   UNL     1     -26.512 -13.043   0.249  1.00  0.00     0.091 C 
ATOM      2  C   UNL     1     -26.193 -13.845   1.551  1.00  0.00     0.045 C 
ENDROOT
BRANCH   1   3
ATOM      3  C   UNL     1     -26.549 -11.507   0.612  1.00  0.00     0.146 C 
BRANCH   3   4
ATOM      4  C   UNL     1     -27.847 -10.764   0.210  1.00  0.00     0.043 C 
BRANCH   4   5
ATOM      5  C   UNL     1     -28.783 -10.476   1.416  1.00  0.00     0.046 C 
ATOM      6  C   UNL     1     -28.926 -12.225   3.308  1.00  0.00     0.020 C 
ATOM      7  C   UNL     1     -29.502 -11.746   1.963  1.00  0.00     0.103 C 
ATOM      8  C   UNL     1     -30.895 -11.271   2.146  1.00  0.00     0.309 C 
ATOM      9  C   UNL     1     -29.927  -9.439   1.124  1.00  0.00     0.177 C 
ATOM     10  O   UNL     1     -31.086  -9.970   1.738  1.00  0.00    -0.462 OA
ATOM     11  O   UNL     1     -31.827 -11.979   2.610  1.00  0.00    -0.252 OA
ATOM     12  C   UNL     1     -30.244  -9.181  -0.355  1.00  0.00     0.053 C 
ENDBRANCH   4   5
ENDBRANCH   3   4
BRANCH   3  13
ATOM     13  O   UNL     1     -25.454 -10.851   0.013  1.00  0.00    -0.390 OA
ATOM     14  H   UNL     1     -24.986 -11.508  -0.565  1.00  0.00     0.211 HD
ENDBRANCH   3  13
ENDBRANCH   1   3
BRANCH   1  15
ATOM     15  C   UNL     1     -27.921 -13.493  -0.365  1.00  0.00     0.032 C 
ATOM     16  C   UNL     1     -28.431 -14.843   0.174  1.00  0.00     0.010 C 
ATOM     17  C   UNL     1     -28.065 -13.701  -1.934  1.00  0.00     0.006 C 
ATOM     18  C   UNL     1     -27.920 -15.900  -0.778  1.00  0.00     0.041 C 
ATOM     19  C   UNL     1     -27.771 -15.237  -2.176  1.00  0.00     0.092 C 
ATOM     20  C   UNL     1     -29.536 -13.335  -2.308  1.00  0.00     0.011 C 
ATOM     21  C   UNL     1     -27.140 -12.807  -2.819  1.00  0.00     0.015 C 
ATOM     22  C   UNL     1     -28.694 -15.945  -3.199  1.00  0.00    -0.031 C 
ATOM     23  C   UNL     1     -29.911 -13.752  -3.721  1.00  0.00     0.009 C 
ATOM     24  C   UNL     1     -29.909 -15.284  -3.854  1.00  0.00     0.025 C 
ATOM     25  C   UNL     1     -28.498 -17.256  -3.437  1.00  0.00     0.050 C 
ATOM     26  C   UNL     1     -30.139 -15.789  -5.333  1.00  0.00    -0.013 C 
ATOM     27  C   UNL     1     -29.326 -18.023  -4.377  1.00  0.00     0.159 C 
ATOM     28  C   UNL     1     -30.331 -17.349  -5.288  1.00  0.00     0.070 C 
ATOM     29  C   UNL     1     -28.921 -15.405  -6.243  1.00  0.00     0.042 C 
ATOM     30  C   UNL     1     -31.438 -15.133  -5.886  1.00  0.00     0.013 C 
ATOM     31  O   UNL     1     -29.227 -19.281  -4.377  1.00  0.00    -0.295 OA
ATOM     32  C   UNL     1     -30.311 -17.995  -6.697  1.00  0.00     0.047 C 
ATOM     33  C   UNL     1     -28.903 -16.089  -7.622  1.00  0.00     0.143 C 
ATOM     34  C   UNL     1     -29.043 -17.616  -7.482  1.00  0.00     0.143 C 
BRANCH  19  35
ATOM     35  O   UNL     1     -26.433 -15.368  -2.619  1.00  0.00    -0.385 OA
ATOM     36  H   UNL     1     -25.869 -14.660  -2.209  1.00  0.00     0.211 HD
ENDBRANCH  19  35
BRANCH  33  37
ATOM     37  O   UNL     1     -29.922 -15.561  -8.435  1.00  0.00    -0.390 OA
ATOM     38  H   UNL     1     -29.746 -14.588  -8.533  1.00  0.00     0.211 HD
ENDBRANCH  33  37
BRANCH  34  39
ATOM     39  O   UNL     1     -29.015 -18.241  -8.742  1.00  0.00    -0.390 OA
ATOM     40  H   UNL     1     -28.117 -18.646  -8.862  1.00  0.00     0.211 HD
ENDBRANCH  34  39
ENDBRANCH   1  15
BRANCH   1  41
ATOM     41  O   UNL     1     -25.504 -13.297  -0.705  1.00  0.00    -0.387 OA
ATOM     42  H   UNL     1     -25.695 -12.792  -1.535  1.00  0.00     0.211 HD
ENDBRANCH   1  41
TORSDOF 9
ENDMDL
MODEL 3
REMARK VINA RESULT:    -7.708      1.711      2.336
REMARK INTER + INTRA:         -11.287
REMARK INTER:                 -11.332
REMARK INTRA:                   0.044
REMARK UNBOUND:                -0.650
REMARK SMILES C[C@H]1OC(=O)[C@H](C)[C@H]1C[C@H](O)[C@](C)(O)[C@@H]1CC[C@@]2(O)C3=CC(=O)[C@@H]4C[C@@H](O)[C@@H](O)C[C@]4(C)[C@@H]3CC[C@@]12C
REMARK SMILES IDX 12 1 13 2 10 3 9 4 8 5 7 6 6 7 4 8 2 9 3 10 5 11 1 12 11 13
REMARK SMILES IDX 15 15 16 16 36 17 17 18 18 19 35 20 37 21 20 22 34 23 33 24
REMARK SMILES IDX 21 25 31 26 22 27 24 28 30 29 32 30 23 31 25 32 28 33 26 34
REMARK SMILES IDX 19 35 29 37 27 39 14 41
REMARK H PARENT 11 14 19 36 29 38 27 40 14 42
REMARK Flexibility Score: inf
ROOT
ATOM      1  C   UNL     1     -26.912 -12.579  -1.402  1.00  0.00     0.091 C 
ATOM      2  C   UNL     1     -25.710 -13.543  -1.149  1.00  0.00     0.045 C 
ENDROOT
BRANCH   1   3
ATOM      3  C   UNL     1     -27.005 -11.576  -0.187  1.00  0.00     0.146 C 
BRANCH   3   4
ATOM      4  C   UNL     1     -28.269 -10.682  -0.162  1.00  0.00     0.043 C 
BRANCH   4   5
ATOM      5  C   UNL     1     -28.869 -10.513   1.261  1.00  0.00     0.046 C 
ATOM      6  C   UNL     1     -27.738 -11.742   3.227  1.00  0.00     0.020 C 
ATOM      7  C   UNL     1     -28.805 -11.811   2.121  1.00  0.00     0.103 C 
ATOM      8  C   UNL     1     -30.160 -11.862   2.723  1.00  0.00     0.309 C 
ATOM      9  C   UNL     1     -30.375 -10.064   1.288  1.00  0.00     0.177 C 
ATOM     10  O   UNL     1     -30.985 -10.846   2.298  1.00  0.00    -0.462 OA
ATOM     11  O   UNL     1     -30.541 -12.749   3.531  1.00  0.00    -0.252 OA
ATOM     12  C   UNL     1     -31.163 -10.266  -0.014  1.00  0.00     0.053 C 
ENDBRANCH   4   5
ENDBRANCH   3   4
BRANCH   3  13
ATOM     13  O   UNL     1     -25.867 -10.743  -0.170  1.00  0.00    -0.390 OA
ATOM     14  H   UNL     1     -25.159 -11.208   0.345  1.00  0.00     0.211 HD
ENDBRANCH   3  13
ENDBRANCH   1   3
BRANCH   1  15
ATOM     15  C   UNL     1     -28.281 -13.400  -1.537  1.00  0.00     0.032 C 
ATOM     16  C   UNL     1     -28.614 -14.260  -0.303  1.00  0.00     0.010 C 
ATOM     17  C   UNL     1     -28.453 -14.453  -2.716  1.00  0.00     0.006 C 
ATOM     18  C   UNL     1     -28.017 -15.625  -0.564  1.00  0.00     0.041 C 
ATOM     19  C   UNL     1     -27.994 -15.838  -2.102  1.00  0.00     0.092 C 
ATOM     20  C   UNL     1     -29.968 -14.469  -3.092  1.00  0.00     0.011 C 
ATOM     21  C   UNL     1     -27.668 -14.131  -4.026  1.00  0.00     0.015 C 
ATOM     22  C   UNL     1     -28.864 -17.062  -2.482  1.00  0.00    -0.031 C 
ATOM     23  C   UNL     1     -30.340 -15.626  -4.005  1.00  0.00     0.009 C 
ATOM     24  C   UNL     1     -30.167 -16.970  -3.277  1.00  0.00     0.025 C 
ATOM     25  C   UNL     1     -28.527 -18.266  -1.980  1.00  0.00     0.050 C 
ATOM     26  C   UNL     1     -30.389 -18.225  -4.210  1.00  0.00    -0.013 C 
ATOM     27  C   UNL     1     -29.293 -19.486  -2.266  1.00  0.00     0.159 C 
ATOM     28  C   UNL     1     -30.399 -19.509  -3.301  1.00  0.00     0.070 C 
ATOM     29  C   UNL     1     -29.254 -18.318  -5.289  1.00  0.00     0.042 C 
ATOM     30  C   UNL     1     -31.772 -18.088  -4.910  1.00  0.00     0.013 C 
ATOM     31  O   UNL     1     -29.050 -20.521  -1.586  1.00  0.00    -0.295 OA
ATOM     32  C   UNL     1     -30.353 -20.823  -4.121  1.00  0.00     0.047 C 
ATOM     33  C   UNL     1     -29.205 -19.648  -6.063  1.00  0.00     0.143 C 
ATOM     34  C   UNL     1     -29.164 -20.847  -5.097  1.00  0.00     0.143 C 
BRANCH  19  35
ATOM     35  O   UNL     1     -26.665 -16.089  -2.522  1.00  0.00    -0.385 OA
ATOM     36  H   UNL     1     -26.100 -15.289  -2.356  1.00  0.00     0.211 HD
ENDBRANCH  19  35
BRANCH  33  37
ATOM     37  O   UNL     1     -30.305 -19.739  -6.935  1.00  0.00    -0.390 OA
ATOM     38  H   UNL     1     -30.827 -18.898  -6.840  1.00  0.00     0.211 HD
ENDBRANCH  33  37
BRANCH  34  39
ATOM     39  O   UNL     1     -29.108 -22.061  -5.806  1.00  0.00    -0.390 OA
ATOM     40  H   UNL     1     -28.917 -21.850  -6.757  1.00  0.00     0.211 HD
ENDBRANCH  34  39
ENDBRANCH   1  15
BRANCH   1  41
ATOM     41  O   UNL     1     -26.691 -11.874  -2.604  1.00  0.00    -0.387 OA
ATOM     42  H   UNL     1     -26.231 -11.020  -2.409  1.00  0.00     0.211 HD
ENDBRANCH   1  41
TORSDOF 9
ENDMDL
MODEL 4
REMARK VINA RESULT:    -7.646      2.106      9.089
REMARK INTER + INTRA:         -11.202
REMARK INTER:                 -10.140
REMARK INTRA:                  -1.062
REMARK UNBOUND:                -0.650
REMARK SMILES C[C@H]1OC(=O)[C@H](C)[C@H]1C[C@H](O)[C@](C)(O)[C@@H]1CC[C@@]2(O)C3=CC(=O)[C@@H]4C[C@@H](O)[C@@H](O)C[C@]4(C)[C@@H]3CC[C@@]12C
REMARK SMILES IDX 12 1 13 2 10 3 9 4 8 5 7 6 6 7 4 8 2 9 3 10 5 11 1 12 11 13
REMARK SMILES IDX 15 15 16 16 36 17 17 18 18 19 35 20 37 21 20 22 34 23 33 24
REMARK SMILES IDX 21 25 31 26 22 27 24 28 30 29 32 30 23 31 25 32 28 33 26 34
REMARK SMILES IDX 19 35 29 37 27 39 14 41
REMARK H PARENT 11 14 19 36 29 38 27 40 14 42
REMARK Flexibility Score: inf
ROOT
ATOM      1  C   UNL     1     -31.076 -14.948  -6.073  1.00  0.00     0.091 C 
ATOM      2  C   UNL     1     -32.593 -15.251  -6.280  1.00  0.00     0.045 C 
ENDROOT
BRANCH   1   3
ATOM      3  C   UNL     1     -30.286 -15.508  -7.320  1.00  0.00     0.146 C 
BRANCH   3   4
ATOM      4  C   UNL     1     -29.290 -16.653  -7.013  1.00  0.00     0.043 C 
BRANCH   4   5
ATOM      5  C   UNL     1     -29.978 -18.039  -6.871  1.00  0.00     0.046 C 
ATOM      6  C   UNL     1     -29.988 -19.177  -4.556  1.00  0.00     0.020 C 
ATOM      7  C   UNL     1     -29.243 -19.002  -5.891  1.00  0.00     0.103 C 
ATOM      8  C   UNL     1     -29.238 -20.280  -6.643  1.00  0.00     0.309 C 
ATOM      9  C   UNL     1     -30.123 -18.838  -8.216  1.00  0.00     0.177 C 
ATOM     10  O   UNL     1     -29.792 -20.177  -7.898  1.00  0.00    -0.462 OA
ATOM     11  O   UNL     1     -28.761 -21.358  -6.200  1.00  0.00    -0.252 OA
ATOM     12  C   UNL     1     -29.222 -18.384  -9.372  1.00  0.00     0.053 C 
ENDBRANCH   4   5
ENDBRANCH   3   4
BRANCH   3  13
ATOM     13  O   UNL     1     -29.582 -14.459  -7.948  1.00  0.00    -0.390 OA
ATOM     14  H   UNL     1     -28.757 -14.292  -7.424  1.00  0.00     0.211 HD
ENDBRANCH   3  13
ENDBRANCH   1   3
BRANCH   1  15
ATOM     15  C   UNL     1     -30.536 -15.636  -4.732  1.00  0.00     0.032 C 
ATOM     16  C   UNL     1     -31.648 -15.998  -3.729  1.00  0.00     0.010 C 
ATOM     17  C   UNL     1     -29.511 -14.853  -3.803  1.00  0.00     0.006 C 
ATOM     18  C   UNL     1     -31.791 -14.808  -2.807  1.00  0.00     0.041 C 
ATOM     19  C   UNL     1     -30.409 -14.101  -2.739  1.00  0.00     0.092 C 
ATOM     20  C   UNL     1     -28.600 -15.925  -3.127  1.00  0.00     0.011 C 
ATOM     21  C   UNL     1     -28.561 -13.857  -4.540  1.00  0.00     0.015 C 
ATOM     22  C   UNL     1     -29.878 -14.113  -1.284  1.00  0.00    -0.031 C 
ATOM     23  C   UNL     1     -27.757 -15.360  -1.996  1.00  0.00     0.009 C 
ATOM     24  C   UNL     1     -28.649 -14.902  -0.830  1.00  0.00     0.025 C 
ATOM     25  C   UNL     1     -30.607 -13.498  -0.332  1.00  0.00     0.050 C 
ATOM     26  C   UNL     1     -27.855 -14.163   0.319  1.00  0.00    -0.013 C 
ATOM     27  C   UNL     1     -30.201 -13.463   1.079  1.00  0.00     0.159 C 
ATOM     28  C   UNL     1     -28.838 -13.949   1.528  1.00  0.00     0.070 C 
ATOM     29  C   UNL     1     -27.297 -12.789  -0.192  1.00  0.00     0.042 C 
ATOM     30  C   UNL     1     -26.678 -15.073   0.776  1.00  0.00     0.013 C 
ATOM     31  O   UNL     1     -31.038 -13.068   1.935  1.00  0.00    -0.295 OA
ATOM     32  C   UNL     1     -28.254 -13.011   2.615  1.00  0.00     0.047 C 
ATOM     33  C   UNL     1     -26.759 -11.859   0.911  1.00  0.00     0.143 C 
ATOM     34  C   UNL     1     -27.803 -11.663   2.025  1.00  0.00     0.143 C 
BRANCH  19  35
ATOM     35  O   UNL     1     -30.548 -12.754  -3.150  1.00  0.00    -0.385 OA
ATOM     36  H   UNL     1     -30.662 -12.167  -2.357  1.00  0.00     0.211 HD
ENDBRANCH  19  35
BRANCH  33  37
ATOM     37  O   UNL     1     -25.557 -12.371   1.429  1.00  0.00    -0.390 OA
ATOM     38  H   UNL     1     -24.816 -11.992   0.885  1.00  0.00     0.211 HD
ENDBRANCH  33  37
BRANCH  34  39
ATOM     39  O   UNL     1     -27.314 -10.804   3.027  1.00  0.00    -0.390 OA
ATOM     40  H   UNL     1     -27.517 -11.216   3.907  1.00  0.00     0.211 HD
ENDBRANCH  34  39
ENDBRANCH   1  15
BRANCH   1  41
ATOM     41  O   UNL     1     -30.896 -13.552  -5.966  1.00  0.00    -0.387 OA
ATOM     42  H   UNL     1     -31.101 -13.122  -6.833  1.00  0.00     0.211 HD
ENDBRANCH   1  41
TORSDOF 9
ENDMDL
MODEL 5
REMARK VINA RESULT:    -7.601      2.247      9.099
REMARK INTER + INTRA:         -11.139
REMARK INTER:                  -9.977
REMARK INTRA:                  -1.162
REMARK UNBOUND:                -0.650
REMARK SMILES C[C@H]1OC(=O)[C@H](C)[C@H]1C[C@H](O)[C@](C)(O)[C@@H]1CC[C@@]2(O)C3=CC(=O)[C@@H]4C[C@@H](O)[C@@H](O)C[C@]4(C)[C@@H]3CC[C@@]12C
REMARK SMILES IDX 12 1 13 2 10 3 9 4 8 5 7 6 6 7 4 8 2 9 3 10 5 11 1 12 11 13
REMARK SMILES IDX 15 15 16 16 36 17 17 18 18 19 35 20 37 21 20 22 34 23 33 24
REMARK SMILES IDX 21 25 31 26 22 27 24 28 30 29 32 30 23 31 25 32 28 33 26 34
REMARK SMILES IDX 19 35 29 37 27 39 14 41
REMARK H PARENT 11 14 19 36 29 38 27 40 14 42
REMARK Flexibility Score: inf
ROOT
ATOM      1  C   UNL     1     -30.765 -15.529  -8.023  1.00  0.00     0.091 C 
ATOM      2  C   UNL     1     -32.084 -14.800  -8.431  1.00  0.00     0.045 C 
ENDROOT
BRANCH   1   3
ATOM      3  C   UNL     1     -30.628 -16.833  -8.902  1.00  0.00     0.146 C 
BRANCH   3   4
ATOM      4  C   UNL     1     -30.600 -18.164  -8.111  1.00  0.00     0.043 C 
BRANCH   4   5
ATOM      5  C   UNL     1     -31.816 -19.081  -8.416  1.00  0.00     0.046 C 
ATOM      6  C   UNL     1     -33.398 -18.427 -10.346  1.00  0.00     0.020 C 
ATOM      7  C   UNL     1     -33.094 -18.299  -8.843  1.00  0.00     0.103 C 
ATOM      8  C   UNL     1     -34.156 -18.964  -8.050  1.00  0.00     0.309 C 
ATOM      9  C   UNL     1     -32.263 -19.995  -7.218  1.00  0.00     0.177 C 
ATOM     10  O   UNL     1     -33.677 -19.945  -7.211  1.00  0.00    -0.462 OA
ATOM     11  O   UNL     1     -35.377 -18.664  -8.112  1.00  0.00    -0.252 OA
ATOM     12  C   UNL     1     -31.762 -19.580  -5.828  1.00  0.00     0.053 C 
ENDBRANCH   4   5
ENDBRANCH   3   4
BRANCH   3  13
ATOM     13  O   UNL     1     -29.462 -16.755  -9.691  1.00  0.00    -0.390 OA
ATOM     14  H   UNL     1     -29.733 -16.835 -10.642  1.00  0.00     0.211 HD
ENDBRANCH   3  13
ENDBRANCH   1   3
BRANCH   1  15
ATOM     15  C   UNL     1     -30.787 -15.918  -6.469  1.00  0.00     0.032 C 
ATOM     16  C   UNL     1     -31.806 -15.112  -5.642  1.00  0.00     0.010 C 
ATOM     17  C   UNL     1     -29.468 -15.754  -5.598  1.00  0.00     0.006 C 
ATOM     18  C   UNL     1     -31.064 -13.907  -5.111  1.00  0.00     0.041 C 
ATOM     19  C   UNL     1     -29.570 -14.307  -4.964  1.00  0.00     0.092 C 
ATOM     20  C   UNL     1     -29.507 -16.863  -4.501  1.00  0.00     0.011 C 
ATOM     21  C   UNL     1     -28.124 -15.934  -6.372  1.00  0.00     0.015 C 
ATOM     22  C   UNL     1     -29.133 -14.192  -3.482  1.00  0.00    -0.031 C 
ATOM     23  C   UNL     1     -28.462 -16.663  -3.416  1.00  0.00     0.009 C 
ATOM     24  C   UNL     1     -28.755 -15.389  -2.607  1.00  0.00     0.025 C 
ATOM     25  C   UNL     1     -29.209 -12.987  -2.885  1.00  0.00     0.050 C 
ATOM     26  C   UNL     1     -27.626 -15.032  -1.561  1.00  0.00    -0.013 C 
ATOM     27  C   UNL     1     -28.833 -12.772  -1.481  1.00  0.00     0.159 C 
ATOM     28  C   UNL     1     -28.151 -13.851  -0.665  1.00  0.00     0.070 C 
ATOM     29  C   UNL     1     -26.302 -14.625  -2.296  1.00  0.00     0.042 C 
ATOM     30  C   UNL     1     -27.369 -16.276  -0.662  1.00  0.00     0.013 C 
ATOM     31  O   UNL     1     -29.142 -11.677  -0.938  1.00  0.00    -0.295 OA
ATOM     32  C   UNL     1     -27.042 -13.240   0.230  1.00  0.00     0.047 C 
ATOM     33  C   UNL     1     -25.231 -13.985  -1.393  1.00  0.00     0.143 C 
ATOM     34  C   UNL     1     -25.817 -12.807  -0.594  1.00  0.00     0.143 C 
BRANCH  19  35
ATOM     35  O   UNL     1     -28.769 -13.429  -5.733  1.00  0.00    -0.385 OA
ATOM     36  H   UNL     1     -27.927 -13.884  -6.000  1.00  0.00     0.211 HD
ENDBRANCH  19  35
BRANCH  33  37
ATOM     37  O   UNL     1     -24.682 -14.954  -0.536  1.00  0.00    -0.390 OA
ATOM     38  H   UNL     1     -24.512 -15.768  -1.082  1.00  0.00     0.211 HD
ENDBRANCH  33  37
BRANCH  34  39
ATOM     39  O   UNL     1     -24.835 -12.216   0.223  1.00  0.00    -0.390 OA
ATOM     40  H   UNL     1     -24.398 -12.938   0.745  1.00  0.00     0.211 HD
ENDBRANCH  34  39
ENDBRANCH   1  15
BRANCH   1  41
ATOM     41  O   UNL     1     -29.672 -14.666  -8.255  1.00  0.00    -0.387 OA
ATOM     42  H   UNL     1     -28.927 -14.901  -7.648  1.00  0.00     0.211 HD
ENDBRANCH   1  41
TORSDOF 9
ENDMDL
MODEL 6
REMARK VINA RESULT:    -7.554      1.756      9.251
REMARK INTER + INTRA:         -11.075
REMARK INTER:                  -9.914
REMARK INTRA:                  -1.161
REMARK UNBOUND:                -0.650
REMARK SMILES C[C@H]1OC(=O)[C@H](C)[C@H]1C[C@H](O)[C@](C)(O)[C@@H]1CC[C@@]2(O)C3=CC(=O)[C@@H]4C[C@@H](O)[C@@H](O)C[C@]4(C)[C@@H]3CC[C@@]12C
REMARK SMILES IDX 12 1 13 2 10 3 9 4 8 5 7 6 6 7 4 8 2 9 3 10 5 11 1 12 11 13
REMARK SMILES IDX 15 15 16 16 36 17 17 18 18 19 35 20 37 21 20 22 34 23 33 24
REMARK SMILES IDX 21 25 31 26 22 27 24 28 30 29 32 30 23 31 25 32 28 33 26 34
REMARK SMILES IDX 19 35 29 37 27 39 14 41
REMARK H PARENT 11 14 19 36 29 38 27 40 14 42
REMARK Flexibility Score: inf
ROOT
ATOM      1  C   UNL     1     -29.098 -15.594  -6.178  1.00  0.00     0.091 C 
ATOM      2  C   UNL     1     -29.888 -14.912  -7.339  1.00  0.00     0.045 C 
ENDROOT
BRANCH   1   3
ATOM      3  C   UNL     1     -28.788 -17.083  -6.601  1.00  0.00     0.146 C 
BRANCH   3   4
ATOM      4  C   UNL     1     -29.437 -18.172  -5.711  1.00  0.00     0.043 C 
BRANCH   4   5
ATOM      5  C   UNL     1     -30.369 -19.131  -6.502  1.00  0.00     0.046 C 
ATOM      6  C   UNL     1     -29.909 -19.498  -9.014  1.00  0.00     0.020 C 
ATOM      7  C   UNL     1     -30.653 -18.660  -7.960  1.00  0.00     0.103 C 
ATOM      8  C   UNL     1     -32.117 -18.869  -8.083  1.00  0.00     0.309 C 
ATOM      9  C   UNL     1     -31.780 -19.358  -5.850  1.00  0.00     0.177 C 
ATOM     10  O   UNL     1     -32.703 -19.320  -6.923  1.00  0.00    -0.462 OA
ATOM     11  O   UNL     1     -32.777 -18.644  -9.131  1.00  0.00    -0.252 OA
ATOM     12  C   UNL     1     -32.217 -18.321  -4.807  1.00  0.00     0.053 C 
ENDBRANCH   4   5
ENDBRANCH   3   4
BRANCH   3  13
ATOM     13  O   UNL     1     -27.393 -17.292  -6.618  1.00  0.00    -0.390 OA
ATOM     14  H   UNL     1     -27.040 -17.053  -5.723  1.00  0.00     0.211 HD
ENDBRANCH   3  13
ENDBRANCH   1   3
BRANCH   1  15
ATOM     15  C   UNL     1     -29.950 -15.577  -4.823  1.00  0.00     0.032 C 
ATOM     16  C   UNL     1     -31.057 -14.506  -4.798  1.00  0.00     0.010 C 
ATOM     17  C   UNL     1     -29.219 -15.313  -3.437  1.00  0.00     0.006 C 
ATOM     18  C   UNL     1     -30.440 -13.274  -4.175  1.00  0.00     0.041 C 
ATOM     19  C   UNL     1     -29.323 -13.751  -3.207  1.00  0.00     0.092 C 
ATOM     20  C   UNL     1     -30.010 -16.104  -2.348  1.00  0.00     0.011 C 
ATOM     21  C   UNL     1     -27.737 -15.796  -3.355  1.00  0.00     0.015 C 
ATOM     22  C   UNL     1     -29.649 -13.305  -1.760  1.00  0.00    -0.031 C 
ATOM     23  C   UNL     1     -29.608 -15.728  -0.931  1.00  0.00     0.009 C 
ATOM     24  C   UNL     1     -29.993 -14.271  -0.625  1.00  0.00     0.025 C 
ATOM     25  C   UNL     1     -29.760 -11.986  -1.507  1.00  0.00     0.050 C 
ATOM     26  C   UNL     1     -29.470 -13.761   0.775  1.00  0.00    -0.013 C 
ATOM     27  C   UNL     1     -30.080 -11.459  -0.173  1.00  0.00     0.159 C 
ATOM     28  C   UNL     1     -30.114 -12.352   1.049  1.00  0.00     0.070 C 
ATOM     29  C   UNL     1     -27.905 -13.665   0.778  1.00  0.00     0.042 C 
ATOM     30  C   UNL     1     -29.939 -14.757   1.875  1.00  0.00     0.013 C 
ATOM     31  O   UNL     1     -30.385 -10.240  -0.067  1.00  0.00    -0.295 OA
ATOM     32  C   UNL     1     -29.483 -11.634   2.269  1.00  0.00     0.047 C 
ATOM     33  C   UNL     1     -27.304 -12.913   1.979  1.00  0.00     0.143 C 
ATOM     34  C   UNL     1     -27.954 -11.526   2.142  1.00  0.00     0.143 C 
BRANCH  19  35
ATOM     35  O   UNL     1     -28.091 -13.165  -3.586  1.00  0.00    -0.385 OA
ATOM     36  H   UNL     1     -27.625 -13.748  -4.241  1.00  0.00     0.211 HD
ENDBRANCH  19  35
BRANCH  33  37
ATOM     37  O   UNL     1     -27.450 -13.679   3.149  1.00  0.00    -0.390 OA
ATOM     38  H   UNL     1     -27.459 -13.047   3.917  1.00  0.00     0.211 HD
ENDBRANCH  33  37
BRANCH  34  39
ATOM     39  O   UNL     1     -27.397 -10.836   3.234  1.00  0.00    -0.390 OA
ATOM     40  H   UNL     1     -27.398  -9.867   3.015  1.00  0.00     0.211 HD
ENDBRANCH  34  39
ENDBRANCH   1  15
BRANCH   1  41
ATOM     41  O   UNL     1     -27.896 -14.886  -5.962  1.00  0.00    -0.387 OA
ATOM     42  H   UNL     1     -28.097 -13.998  -5.575  1.00  0.00     0.211 HD
ENDBRANCH   1  41
TORSDOF 9
ENDMDL
MODEL 7
REMARK VINA RESULT:    -7.546      2.708      9.110
REMARK INTER + INTRA:         -11.064
REMARK INTER:                  -9.932
REMARK INTRA:                  -1.132
REMARK UNBOUND:                -0.650
REMARK SMILES C[C@H]1OC(=O)[C@H](C)[C@H]1C[C@H](O)[C@](C)(O)[C@@H]1CC[C@@]2(O)C3=CC(=O)[C@@H]4C[C@@H](O)[C@@H](O)C[C@]4(C)[C@@H]3CC[C@@]12C
REMARK SMILES IDX 12 1 13 2 10 3 9 4 8 5 7 6 6 7 4 8 2 9 3 10 5 11 1 12 11 13
REMARK SMILES IDX 15 15 16 16 36 17 17 18 18 19 35 20 37 21 20 22 34 23 33 24
REMARK SMILES IDX 21 25 31 26 22 27 24 28 30 29 32 30 23 31 25 32 28 33 26 34
REMARK SMILES IDX 19 35 29 37 27 39 14 41
REMARK H PARENT 11 14 19 36 29 38 27 40 14 42
REMARK Flexibility Score: inf
ROOT
ATOM      1  C   UNL     1     -30.372 -17.047  -8.777  1.00  0.00     0.091 C 
ATOM      2  C   UNL     1     -30.470 -15.994  -9.926  1.00  0.00     0.045 C 
ENDROOT
BRANCH   1   3
ATOM      3  C   UNL     1     -31.293 -18.273  -9.152  1.00  0.00     0.146 C 
BRANCH   3   4
ATOM      4  C   UNL     1     -32.372 -18.636  -8.101  1.00  0.00     0.043 C 
BRANCH   4   5
ATOM      5  C   UNL     1     -33.815 -18.617  -8.677  1.00  0.00     0.046 C 
ATOM      6  C   UNL     1     -34.118 -18.605 -11.239  1.00  0.00     0.020 C 
ATOM      7  C   UNL     1     -33.959 -17.755  -9.966  1.00  0.00     0.103 C 
ATOM      8  C   UNL     1     -35.205 -16.993  -9.703  1.00  0.00     0.309 C 
ATOM      9  C   UNL     1     -34.908 -18.077  -7.685  1.00  0.00     0.177 C 
ATOM     10  O   UNL     1     -35.745 -17.243  -8.463  1.00  0.00    -0.462 OA
ATOM     11  O   UNL     1     -35.722 -16.182 -10.516  1.00  0.00    -0.252 OA
ATOM     12  C   UNL     1     -34.393 -17.260  -6.492  1.00  0.00     0.053 C 
ENDBRANCH   4   5
ENDBRANCH   3   4
BRANCH   3  13
ATOM     13  O   UNL     1     -30.496 -19.413  -9.387  1.00  0.00    -0.390 OA
ATOM     14  H   UNL     1     -31.096 -20.202  -9.411  1.00  0.00     0.211 HD
ENDBRANCH   3  13
ENDBRANCH   1   3
BRANCH   1  15
ATOM     15  C   UNL     1     -30.844 -16.415  -7.384  1.00  0.00     0.032 C 
ATOM     16  C   UNL     1     -30.837 -14.875  -7.366  1.00  0.00     0.010 C 
ATOM     17  C   UNL     1     -30.042 -16.753  -6.054  1.00  0.00     0.006 C 
ATOM     18  C   UNL     1     -29.477 -14.463  -6.848  1.00  0.00     0.041 C 
ATOM     19  C   UNL     1     -28.973 -15.596  -5.911  1.00  0.00     0.092 C 
ATOM     20  C   UNL     1     -31.073 -16.727  -4.882  1.00  0.00     0.011 C 
ATOM     21  C   UNL     1     -29.359 -18.157  -6.019  1.00  0.00     0.015 C 
ATOM     22  C   UNL     1     -28.766 -15.045  -4.478  1.00  0.00    -0.031 C 
ATOM     23  C   UNL     1     -30.416 -16.750  -3.512  1.00  0.00     0.009 C 
ATOM     24  C   UNL     1     -29.612 -15.462  -3.273  1.00  0.00     0.025 C 
ATOM     25  C   UNL     1     -27.876 -14.051  -4.297  1.00  0.00     0.050 C 
ATOM     26  C   UNL     1     -28.775 -15.480  -1.933  1.00  0.00    -0.013 C 
ATOM     27  C   UNL     1     -27.615 -13.450  -2.982  1.00  0.00     0.159 C 
ATOM     28  C   UNL     1     -28.187 -14.038  -1.709  1.00  0.00     0.070 C 
ATOM     29  C   UNL     1     -27.624 -16.543  -2.015  1.00  0.00     0.042 C 
ATOM     30  C   UNL     1     -29.731 -15.827  -0.754  1.00  0.00     0.013 C 
ATOM     31  O   UNL     1     -26.942 -12.384  -2.932  1.00  0.00    -0.295 OA
ATOM     32  C   UNL     1     -27.140 -13.990  -0.567  1.00  0.00     0.047 C 
ATOM     33  C   UNL     1     -26.576 -16.449  -0.891  1.00  0.00     0.143 C 
ATOM     34  C   UNL     1     -26.016 -15.020  -0.777  1.00  0.00     0.143 C 
BRANCH  19  35
ATOM     35  O   UNL     1     -27.730 -16.080  -6.385  1.00  0.00    -0.385 OA
ATOM     36  H   UNL     1     -27.870 -16.635  -7.197  1.00  0.00     0.211 HD
ENDBRANCH  19  35
BRANCH  33  37
ATOM     37  O   UNL     1     -27.138 -16.870   0.327  1.00  0.00    -0.390 OA
ATOM     38  H   UNL     1     -28.125 -16.890   0.206  1.00  0.00     0.211 HD
ENDBRANCH  33  37
BRANCH  34  39
ATOM     39  O   UNL     1     -25.050 -14.938   0.243  1.00  0.00    -0.390 OA
ATOM     40  H   UNL     1     -25.253 -14.136   0.792  1.00  0.00     0.211 HD
ENDBRANCH  34  39
ENDBRANCH   1  15
BRANCH   1  41
ATOM     41  O   UNL     1     -29.030 -17.464  -8.649  1.00  0.00    -0.387 OA
ATOM     42  H   UNL     1     -28.453 -16.916  -9.237  1.00  0.00     0.211 HD
ENDBRANCH   1  41
TORSDOF 9
ENDMDL
MODEL 8
REMARK VINA RESULT:    -7.532      3.781      6.225
REMARK INTER + INTRA:         -11.044
REMARK INTER:                  -9.930
REMARK INTRA:                  -1.114
REMARK UNBOUND:                -0.650
REMARK SMILES C[C@H]1OC(=O)[C@H](C)[C@H]1C[C@H](O)[C@](C)(O)[C@@H]1CC[C@@]2(O)C3=CC(=O)[C@@H]4C[C@@H](O)[C@@H](O)C[C@]4(C)[C@@H]3CC[C@@]12C
REMARK SMILES IDX 12 1 13 2 10 3 9 4 8 5 7 6 6 7 4 8 2 9 3 10 5 11 1 12 11 13
REMARK SMILES IDX 15 15 16 16 36 17 17 18 18 19 35 20 37 21 20 22 34 23 33 24
REMARK SMILES IDX 21 25 31 26 22 27 24 28 30 29 32 30 23 31 25 32 28 33 26 34
REMARK SMILES IDX 19 35 29 37 27 39 14 41
REMARK H PARENT 11 14 19 36 29 38 27 40 14 42
REMARK Flexibility Score: inf
ROOT
ATOM      1  C   UNL     1     -29.473 -16.916  -7.282  1.00  0.00     0.091 C 
ATOM      2  C   UNL     1     -28.458 -17.887  -7.965  1.00  0.00     0.045 C 
ENDROOT
BRANCH   1   3
ATOM      3  C   UNL     1     -28.665 -15.940  -6.341  1.00  0.00     0.146 C 
BRANCH   3   4
ATOM      4  C   UNL     1     -28.959 -16.086  -4.827  1.00  0.00     0.043 C 
BRANCH   4   5
ATOM      5  C   UNL     1     -29.065 -14.722  -4.092  1.00  0.00     0.046 C 
ATOM      6  C   UNL     1     -27.011 -13.162  -4.089  1.00  0.00     0.020 C 
ATOM      7  C   UNL     1     -27.752 -14.301  -3.367  1.00  0.00     0.103 C 
ATOM      8  C   UNL     1     -28.249 -13.832  -2.051  1.00  0.00     0.309 C 
ATOM      9  C   UNL     1     -30.190 -14.655  -2.997  1.00  0.00     0.177 C 
ATOM     10  O   UNL     1     -29.609 -13.975  -1.899  1.00  0.00    -0.462 OA
ATOM     11  O   UNL     1     -27.512 -13.363  -1.144  1.00  0.00    -0.252 OA
ATOM     12  C   UNL     1     -30.726 -16.002  -2.495  1.00  0.00     0.053 C 
ENDBRANCH   4   5
ENDBRANCH   3   4
BRANCH   3  13
ATOM     13  O   UNL     1     -28.912 -14.603  -6.718  1.00  0.00    -0.390 OA
ATOM     14  H   UNL     1     -29.859 -14.398  -6.503  1.00  0.00     0.211 HD
ENDBRANCH   3  13
ENDBRANCH   1   3
BRANCH   1  15
ATOM     15  C   UNL     1     -30.552 -17.733  -6.425  1.00  0.00     0.032 C 
ATOM     16  C   UNL     1     -30.737 -19.191  -6.885  1.00  0.00     0.010 C 
ATOM     17  C   UNL     1     -32.056 -17.224  -6.364  1.00  0.00     0.006 C 
ATOM     18  C   UNL     1     -31.863 -19.177  -7.894  1.00  0.00     0.041 C 
ATOM     19  C   UNL     1     -32.799 -17.991  -7.532  1.00  0.00     0.092 C 
ATOM     20  C   UNL     1     -32.617 -17.631  -4.965  1.00  0.00     0.011 C 
ATOM     21  C   UNL     1     -32.250 -15.680  -6.493  1.00  0.00     0.015 C 
ATOM     22  C   UNL     1     -34.217 -18.517  -7.195  1.00  0.00    -0.031 C 
ATOM     23  C   UNL     1     -34.125 -17.469  -4.860  1.00  0.00     0.009 C 
ATOM     24  C   UNL     1     -34.845 -18.448  -5.802  1.00  0.00     0.025 C 
ATOM     25  C   UNL     1     -34.893 -19.188  -8.148  1.00  0.00     0.050 C 
ATOM     26  C   UNL     1     -36.409 -18.232  -5.861  1.00  0.00    -0.013 C 
ATOM     27  C   UNL     1     -36.236 -19.739  -7.927  1.00  0.00     0.159 C 
ATOM     28  C   UNL     1     -37.031 -19.424  -6.677  1.00  0.00     0.070 C 
ATOM     29  C   UNL     1     -36.751 -16.858  -6.535  1.00  0.00     0.042 C 
ATOM     30  C   UNL     1     -36.970 -18.262  -4.410  1.00  0.00     0.013 C 
ATOM     31  O   UNL     1     -36.705 -20.539  -8.783  1.00  0.00    -0.295 OA
ATOM     32  C   UNL     1     -38.525 -19.195  -7.024  1.00  0.00     0.047 C 
ATOM     33  C   UNL     1     -38.234 -16.671  -6.905  1.00  0.00     0.143 C 
ATOM     34  C   UNL     1     -38.746 -17.855  -7.746  1.00  0.00     0.143 C 
BRANCH  19  35
ATOM     35  O   UNL     1     -32.901 -17.117  -8.641  1.00  0.00    -0.385 OA
ATOM     36  H   UNL     1     -32.121 -17.241  -9.244  1.00  0.00     0.211 HD
ENDBRANCH  19  35
BRANCH  33  37
ATOM     37  O   UNL     1     -39.004 -16.509  -5.740  1.00  0.00    -0.390 OA
ATOM     38  H   UNL     1     -39.417 -15.605  -5.783  1.00  0.00     0.211 HD
ENDBRANCH  33  37
BRANCH  34  39
ATOM     39  O   UNL     1     -40.098 -17.677  -8.093  1.00  0.00    -0.390 OA
ATOM     40  H   UNL     1     -40.167 -17.712  -9.082  1.00  0.00     0.211 HD
ENDBRANCH  34  39
ENDBRANCH   1  15
BRANCH   1  41
ATOM     41  O   UNL     1     -30.152 -16.185  -8.280  1.00  0.00    -0.387 OA
ATOM     42  H   UNL     1     -30.070 -15.216  -8.097  1.00  0.00     0.211 HD
ENDBRANCH   1  41
TORSDOF 9
ENDMDL
MODEL 9
REMARK VINA RESULT:    -7.484      2.003      3.872
REMARK INTER + INTRA:         -10.977
REMARK INTER:                  -9.953
REMARK INTRA:                  -1.024
REMARK UNBOUND:                -0.650
REMARK SMILES C[C@H]1OC(=O)[C@H](C)[C@H]1C[C@H](O)[C@](C)(O)[C@@H]1CC[C@@]2(O)C3=CC(=O)[C@@H]4C[C@@H](O)[C@@H](O)C[C@]4(C)[C@@H]3CC[C@@]12C
REMARK SMILES IDX 12 1 13 2 10 3 9 4 8 5 7 6 6 7 4 8 2 9 3 10 5 11 1 12 11 13
REMARK SMILES IDX 15 15 16 16 36 17 17 18 18 19 35 20 37 21 20 22 34 23 33 24
REMARK SMILES IDX 21 25 31 26 22 27 24 28 30 29 32 30 23 31 25 32 28 33 26 34
REMARK SMILES IDX 19 35 29 37 27 39 14 41
REMARK H PARENT 11 14 19 36 29 38 27 40 14 42
REMARK Flexibility Score: inf
ROOT
ATOM      1  C   UNL     1     -29.773 -13.215  -1.554  1.00  0.00     0.091 C 
ATOM      2  C   UNL     1     -29.332 -11.751  -1.870  1.00  0.00     0.045 C 
ENDROOT
BRANCH   1   3
ATOM      3  C   UNL     1     -29.578 -13.466  -0.008  1.00  0.00     0.146 C 
BRANCH   3   4
ATOM      4  C   UNL     1     -28.504 -14.519   0.362  1.00  0.00     0.043 C 
BRANCH   4   5
ATOM      5  C   UNL     1     -27.260 -13.902   1.059  1.00  0.00     0.046 C 
ATOM      6  C   UNL     1     -27.439 -11.508   2.003  1.00  0.00     0.020 C 
ATOM      7  C   UNL     1     -27.084 -12.379   0.785  1.00  0.00     0.103 C 
ATOM      8  C   UNL     1     -25.635 -12.273   0.488  1.00  0.00     0.309 C 
ATOM      9  C   UNL     1     -25.891 -14.563   0.660  1.00  0.00     0.177 C 
ATOM     10  O   UNL     1     -24.987 -13.487   0.494  1.00  0.00    -0.462 OA
ATOM     11  O   UNL     1     -25.042 -11.191   0.237  1.00  0.00    -0.252 OA
ATOM     12  C   UNL     1     -25.892 -15.391  -0.631  1.00  0.00     0.053 C 
ENDBRANCH   4   5
ENDBRANCH   3   4
BRANCH   3  13
ATOM     13  O   UNL     1     -30.804 -13.857   0.569  1.00  0.00    -0.390 OA
ATOM     14  H   UNL     1     -31.282 -14.423  -0.091  1.00  0.00     0.211 HD
ENDBRANCH   3  13
ENDBRANCH   1   3
BRANCH   1  15
ATOM     15  C   UNL     1     -28.900 -14.265  -2.392  1.00  0.00     0.032 C 
ATOM     16  C   UNL     1     -28.073 -13.623  -3.521  1.00  0.00     0.010 C 
ATOM     17  C   UNL     1     -29.624 -15.452  -3.161  1.00  0.00     0.006 C 
ATOM     18  C   UNL     1     -28.936 -13.675  -4.761  1.00  0.00     0.041 C 
ATOM     19  C   UNL     1     -29.878 -14.903  -4.623  1.00  0.00     0.092 C 
ATOM     20  C   UNL     1     -28.633 -16.659  -3.168  1.00  0.00     0.011 C 
ATOM     21  C   UNL     1     -30.950 -15.964  -2.514  1.00  0.00     0.015 C 
ATOM     22  C   UNL     1     -29.614 -15.907  -5.773  1.00  0.00    -0.031 C 
ATOM     23  C   UNL     1     -29.062 -17.774  -4.108  1.00  0.00     0.009 C 
ATOM     24  C   UNL     1     -29.015 -17.300  -5.570  1.00  0.00     0.025 C 
ATOM     25  C   UNL     1     -29.803 -15.491  -7.040  1.00  0.00     0.050 C 
ATOM     26  C   UNL     1     -29.593 -18.354  -6.595  1.00  0.00    -0.013 C 
ATOM     27  C   UNL     1     -29.568 -16.358  -8.202  1.00  0.00     0.159 C 
ATOM     28  C   UNL     1     -29.284 -17.838  -8.048  1.00  0.00     0.070 C 
ATOM     29  C   UNL     1     -31.137 -18.536  -6.386  1.00  0.00     0.042 C 
ATOM     30  C   UNL     1     -28.867 -19.713  -6.373  1.00  0.00     0.013 C 
ATOM     31  O   UNL     1     -29.550 -15.833  -9.349  1.00  0.00    -0.295 OA
ATOM     32  C   UNL     1     -30.022 -18.653  -9.141  1.00  0.00     0.047 C 
ATOM     33  C   UNL     1     -31.853 -19.315  -7.505  1.00  0.00     0.143 C 
ATOM     34  C   UNL     1     -31.538 -18.711  -8.886  1.00  0.00     0.143 C 
BRANCH  19  35
ATOM     35  O   UNL     1     -31.225 -14.475  -4.707  1.00  0.00    -0.385 OA
ATOM     36  H   UNL     1     -31.745 -15.102  -5.276  1.00  0.00     0.211 HD
ENDBRANCH  19  35
BRANCH  33  37
ATOM     37  O   UNL     1     -31.492 -20.673  -7.453  1.00  0.00    -0.390 OA
ATOM     38  H   UNL     1     -30.875 -20.785  -6.681  1.00  0.00     0.211 HD
ENDBRANCH  33  37
BRANCH  34  39
ATOM     39  O   UNL     1     -32.202 -19.418  -9.906  1.00  0.00    -0.390 OA
ATOM     40  H   UNL     1     -31.573 -20.098 -10.264  1.00  0.00     0.211 HD
ENDBRANCH  34  39
ENDBRANCH   1  15
BRANCH   1  41
ATOM     41  O   UNL     1     -31.129 -13.373  -1.909  1.00  0.00    -0.387 OA
ATOM     42  H   UNL     1     -31.283 -13.001  -2.813  1.00  0.00     0.211 HD
ENDBRANCH   1  41
TORSDOF 9
ENDMDL
