MODEL 1
REMARK VINA RESULT:    -4.557      0.000      0.000
REMARK INTER + INTRA:          -6.032
REMARK INTER:                  -5.623
REMARK INTRA:                  -0.409
REMARK UNBOUND:                -0.409
REMARK SMILES C=CC[C@H](C)C(=O)CC
REMARK SMILES IDX 4 1 5 2 6 3 7 4 8 5 9 6 3 7 2 8 1 9
REMARK H PARENT
REMARK Flexibility Score: inf
ROOT
ATOM      1  C   UNL     1      -7.478  22.023  69.058  1.00  0.00     0.057 C 
ATOM      2  C   UNL     1      -7.081  23.436  68.609  1.00  0.00     0.016 C 
ENDROOT
BRANCH   1   3
ATOM      3  C   UNL     1      -7.856  22.034  70.523  1.00  0.00     0.135 C 
ATOM      4  O   UNL     1      -8.643  22.869  70.943  1.00  0.00    -0.299 OA
BRANCH   3   5
ATOM      5  C   UNL     1      -7.240  21.053  71.482  1.00  0.00     0.072 C 
ATOM      6  C   UNL     1      -8.282  20.056  71.977  1.00  0.00     0.012 C 
ENDBRANCH   3   5
ENDBRANCH   1   3
BRANCH   1   7
ATOM      7  C   UNL     1      -6.343  21.006  68.811  1.00  0.00     0.038 C 
BRANCH   7   8
ATOM      8  C   UNL     1      -6.794  19.836  67.978  1.00  0.00    -0.034 C 
ATOM      9  C   UNL     1      -7.405  18.779  68.523  1.00  0.00     0.004 C 
ENDBRANCH   7   8
ENDBRANCH   1   7
TORSDOF 4
ENDMDL
MODEL 2
REMARK VINA RESULT:    -4.442      0.893      2.774
REMARK INTER + INTRA:          -5.889
REMARK INTER:                  -5.492
REMARK INTRA:                  -0.397
REMARK UNBOUND:                -0.409
REMARK SMILES C=CC[C@H](C)C(=O)CC
REMARK SMILES IDX 4 1 5 2 6 3 7 4 8 5 9 6 3 7 2 8 1 9
REMARK H PARENT
REMARK Flexibility Score: inf
ROOT
ATOM      1  C   UNL     1      -7.216  21.065  70.372  1.00  0.00     0.057 C 
ATOM      2  C   UNL     1      -7.687  20.673  71.779  1.00  0.00     0.016 C 
ENDROOT
BRANCH   1   3
ATOM      3  C   UNL     1      -7.622  22.491  70.071  1.00  0.00     0.135 C 
ATOM      4  O   UNL     1      -8.595  22.978  70.628  1.00  0.00    -0.299 OA
BRANCH   3   5
ATOM      5  C   UNL     1      -6.867  23.307  69.058  1.00  0.00     0.072 C 
ATOM      6  C   UNL     1      -7.698  23.502  67.795  1.00  0.00     0.012 C 
ENDBRANCH   3   5
ENDBRANCH   1   3
BRANCH   1   7
ATOM      7  C   UNL     1      -7.780  20.114  69.295  1.00  0.00     0.038 C 
BRANCH   7   8
ATOM      8  C   UNL     1      -6.727  19.667  68.317  1.00  0.00    -0.034 C 
ATOM      9  C   UNL     1      -6.843  19.894  67.005  1.00  0.00     0.004 C 
ENDBRANCH   7   8
ENDBRANCH   1   7
TORSDOF 4
ENDMDL
MODEL 3
REMARK VINA RESULT:    -4.342      1.291      3.079
REMARK INTER + INTRA:          -5.766
REMARK INTER:                  -5.385
REMARK INTRA:                  -0.381
REMARK UNBOUND:                -0.409
REMARK SMILES C=CC[C@H](C)C(=O)CC
REMARK SMILES IDX 4 1 5 2 6 3 7 4 8 5 9 6 3 7 2 8 1 9
REMARK H PARENT
REMARK Flexibility Score: inf
ROOT
ATOM      1  C   UNL     1      -7.027  22.269  69.099  1.00  0.00     0.057 C 
ATOM      2  C   UNL     1      -7.231  23.638  68.438  1.00  0.00     0.016 C 
ENDROOT
BRANCH   1   3
ATOM      3  C   UNL     1      -7.559  21.176  68.198  1.00  0.00     0.135 C 
ATOM      4  O   UNL     1      -8.754  21.120  67.949  1.00  0.00    -0.299 OA
BRANCH   3   5
ATOM      5  C   UNL     1      -6.639  20.128  67.637  1.00  0.00     0.072 C 
ATOM      6  C   UNL     1      -6.889  18.778  68.302  1.00  0.00     0.012 C 
ENDBRANCH   3   5
ENDBRANCH   1   3
BRANCH   1   7
ATOM      7  C   UNL     1      -7.711  22.195  70.481  1.00  0.00     0.038 C 
BRANCH   7   8
ATOM      8  C   UNL     1      -7.293  20.978  71.263  1.00  0.00    -0.034 C 
ATOM      9  C   UNL     1      -8.156  20.304  72.029  1.00  0.00     0.004 C 
ENDBRANCH   7   8
ENDBRANCH   1   7
TORSDOF 4
ENDMDL
MODEL 4
REMARK VINA RESULT:    -4.312      1.701      3.143
REMARK INTER + INTRA:          -5.729
REMARK INTER:                  -5.534
REMARK INTRA:                  -0.195
REMARK UNBOUND:                -0.409
REMARK SMILES C=CC[C@H](C)C(=O)CC
REMARK SMILES IDX 4 1 5 2 6 3 7 4 8 5 9 6 3 7 2 8 1 9
REMARK H PARENT
REMARK Flexibility Score: inf
ROOT
ATOM      1  C   UNL     1      -6.873  20.950  68.771  1.00  0.00     0.057 C 
ATOM      2  C   UNL     1      -6.476  19.990  67.642  1.00  0.00     0.016 C 
ENDROOT
BRANCH   1   3
ATOM      3  C   UNL     1      -7.601  20.193  69.859  1.00  0.00     0.135 C 
ATOM      4  O   UNL     1      -7.624  18.972  69.842  1.00  0.00    -0.299 OA
BRANCH   3   5
ATOM      5  C   UNL     1      -8.338  20.929  70.945  1.00  0.00     0.072 C 
ATOM      6  C   UNL     1      -7.862  20.476  72.321  1.00  0.00     0.012 C 
ENDBRANCH   3   5
ENDBRANCH   1   3
BRANCH   1   7
ATOM      7  C   UNL     1      -7.751  22.109  68.253  1.00  0.00     0.038 C 
BRANCH   7   8
ATOM      8  C   UNL     1      -7.138  23.457  68.523  1.00  0.00    -0.034 C 
ATOM      9  C   UNL     1      -7.519  24.551  67.854  1.00  0.00     0.004 C 
ENDBRANCH   7   8
ENDBRANCH   1   7
TORSDOF 4
ENDMDL
MODEL 5
REMARK VINA RESULT:    -4.217      1.676      3.669
REMARK INTER + INTRA:          -5.612
REMARK INTER:                  -5.385
REMARK INTRA:                  -0.227
REMARK UNBOUND:                -0.409
REMARK SMILES C=CC[C@H](C)C(=O)CC
REMARK SMILES IDX 4 1 5 2 6 3 7 4 8 5 9 6 3 7 2 8 1 9
REMARK H PARENT
REMARK Flexibility Score: inf
ROOT
ATOM      1  C   UNL     1      -7.463  20.964  68.821  1.00  0.00     0.057 C 
ATOM      2  C   UNL     1      -6.466  19.994  68.174  1.00  0.00     0.016 C 
ENDROOT
BRANCH   1   3
ATOM      3  C   UNL     1      -7.553  22.233  68.002  1.00  0.00     0.135 C 
ATOM      4  O   UNL     1      -7.944  22.186  66.845  1.00  0.00    -0.299 OA
BRANCH   3   5
ATOM      5  C   UNL     1      -7.124  23.553  68.583  1.00  0.00     0.072 C 
ATOM      6  C   UNL     1      -7.633  24.709  67.728  1.00  0.00     0.012 C 
ENDBRANCH   3   5
ENDBRANCH   1   3
BRANCH   1   7
ATOM      7  C   UNL     1      -7.072  21.299  70.276  1.00  0.00     0.038 C 
BRANCH   7   8
ATOM      8  C   UNL     1      -8.106  20.837  71.267  1.00  0.00    -0.034 C 
ATOM      9  C   UNL     1      -8.036  19.636  71.850  1.00  0.00     0.004 C 
ENDBRANCH   7   8
ENDBRANCH   1   7
TORSDOF 4
ENDMDL
MODEL 6
REMARK VINA RESULT:    -4.058      2.164      3.922
REMARK INTER + INTRA:          -5.416
REMARK INTER:                  -5.225
REMARK INTRA:                  -0.191
REMARK UNBOUND:                -0.409
REMARK SMILES C=CC[C@H](C)C(=O)CC
REMARK SMILES IDX 4 1 5 2 6 3 7 4 8 5 9 6 3 7 2 8 1 9
REMARK H PARENT
REMARK Flexibility Score: inf
ROOT
ATOM      1  C   UNL     1      -6.897  20.808  68.644  1.00  0.00     0.057 C 
ATOM      2  C   UNL     1      -7.188  22.310  68.753  1.00  0.00     0.016 C 
ENDROOT
BRANCH   1   3
ATOM      3  C   UNL     1      -7.407  20.278  67.322  1.00  0.00     0.135 C 
ATOM      4  O   UNL     1      -7.443  21.011  66.344  1.00  0.00    -0.299 OA
BRANCH   3   5
ATOM      5  C   UNL     1      -7.911  18.866  67.203  1.00  0.00     0.072 C 
ATOM      6  C   UNL     1      -8.300  18.551  65.763  1.00  0.00     0.012 C 
ENDBRANCH   3   5
ENDBRANCH   1   3
BRANCH   1   7
ATOM      7  C   UNL     1      -7.529  20.018  69.810  1.00  0.00     0.038 C 
BRANCH   7   8
ATOM      8  C   UNL     1      -7.737  20.871  71.033  1.00  0.00    -0.034 C 
ATOM      9  C   UNL     1      -7.897  20.333  72.247  1.00  0.00     0.004 C 
ENDBRANCH   7   8
ENDBRANCH   1   7
TORSDOF 4
ENDMDL
MODEL 7
REMARK VINA RESULT:    -4.044      1.558      3.537
REMARK INTER + INTRA:          -5.398
REMARK INTER:                  -5.056
REMARK INTRA:                  -0.341
REMARK UNBOUND:                -0.409
REMARK SMILES C=CC[C@H](C)C(=O)CC
REMARK SMILES IDX 4 1 5 2 6 3 7 4 8 5 9 6 3 7 2 8 1 9
REMARK H PARENT
REMARK Flexibility Score: inf
ROOT
ATOM      1  C   UNL     1      -7.862  21.787  69.825  1.00  0.00     0.057 C 
ATOM      2  C   UNL     1      -7.408  21.269  71.196  1.00  0.00     0.016 C 
ENDROOT
BRANCH   1   3
ATOM      3  C   UNL     1      -8.191  20.623  68.916  1.00  0.00     0.135 C 
ATOM      4  O   UNL     1      -9.120  20.709  68.126  1.00  0.00    -0.299 OA
BRANCH   3   5
ATOM      5  C   UNL     1      -7.412  19.339  69.001  1.00  0.00     0.072 C 
ATOM      6  C   UNL     1      -6.676  19.067  67.694  1.00  0.00     0.012 C 
ENDBRANCH   3   5
ENDBRANCH   1   3
BRANCH   1   7
ATOM      7  C   UNL     1      -6.790  22.684  69.170  1.00  0.00     0.038 C 
BRANCH   7   8
ATOM      8  C   UNL     1      -7.393  23.747  68.291  1.00  0.00    -0.034 C 
ATOM      9  C   UNL     1      -8.501  24.407  68.643  1.00  0.00     0.004 C 
ENDBRANCH   7   8
ENDBRANCH   1   7
TORSDOF 4
ENDMDL
MODEL 8
REMARK VINA RESULT:    -3.986      1.706      2.420
REMARK INTER + INTRA:          -5.327
REMARK INTER:                  -5.148
REMARK INTRA:                  -0.178
REMARK UNBOUND:                -0.409
REMARK SMILES C=CC[C@H](C)C(=O)CC
REMARK SMILES IDX 4 1 5 2 6 3 7 4 8 5 9 6 3 7 2 8 1 9
REMARK H PARENT
REMARK Flexibility Score: inf
ROOT
ATOM      1  C   UNL     1      -6.783  20.877  68.624  1.00  0.00     0.057 C 
ATOM      2  C   UNL     1      -6.851  19.367  68.363  1.00  0.00     0.016 C 
ENDROOT
BRANCH   1   3
ATOM      3  C   UNL     1      -7.318  21.187  70.005  1.00  0.00     0.135 C 
ATOM      4  O   UNL     1      -7.235  22.322  70.450  1.00  0.00    -0.299 OA
BRANCH   3   5
ATOM      5  C   UNL     1      -7.915  20.102  70.858  1.00  0.00     0.072 C 
ATOM      6  C   UNL     1      -7.881  20.494  72.331  1.00  0.00     0.012 C 
ENDBRANCH   3   5
ENDBRANCH   1   3
BRANCH   1   7
ATOM      7  C   UNL     1      -7.567  21.676  67.561  1.00  0.00     0.038 C 
BRANCH   7   8
ATOM      8  C   UNL     1      -7.698  20.925  66.262  1.00  0.00    -0.034 C 
ATOM      9  C   UNL     1      -8.047  21.539  65.127  1.00  0.00     0.004 C 
ENDBRANCH   7   8
ENDBRANCH   1   7
TORSDOF 4
ENDMDL
MODEL 9
REMARK VINA RESULT:    -3.962      9.630     10.756
REMARK INTER + INTRA:          -5.297
REMARK INTER:                  -4.995
REMARK INTRA:                  -0.303
REMARK UNBOUND:                -0.409
REMARK SMILES C=CC[C@H](C)C(=O)CC
REMARK SMILES IDX 4 1 5 2 6 3 7 4 8 5 9 6 3 7 2 8 1 9
REMARK H PARENT
REMARK Flexibility Score: inf
ROOT
ATOM      1  C   UNL     1      -7.296  28.103  76.093  1.00  0.00     0.057 C 
ATOM      2  C   UNL     1      -8.829  28.119  76.043  1.00  0.00     0.016 C 
ENDROOT
BRANCH   1   3
ATOM      3  C   UNL     1      -6.816  28.694  77.401  1.00  0.00     0.135 C 
ATOM      4  O   UNL     1      -5.714  29.217  77.466  1.00  0.00    -0.299 OA
BRANCH   3   5
ATOM      5  C   UNL     1      -7.666  28.608  78.639  1.00  0.00     0.072 C 
ATOM      6  C   UNL     1      -7.936  29.998  79.205  1.00  0.00     0.012 C 
ENDBRANCH   3   5
ENDBRANCH   1   3
BRANCH   1   7
ATOM      7  C   UNL     1      -6.677  28.872  74.906  1.00  0.00     0.038 C 
BRANCH   7   8
ATOM      8  C   UNL     1      -7.547  30.011  74.447  1.00  0.00    -0.034 C 
ATOM      9  C   UNL     1      -7.032  31.197  74.106  1.00  0.00     0.004 C 
ENDBRANCH   7   8
ENDBRANCH   1   7
TORSDOF 4
ENDMDL
