MODEL 1
REMARK VINA RESULT:    -6.779      0.000      0.000
REMARK INTER + INTRA:         -13.676
REMARK INTER:                 -11.732
REMARK INTRA:                  -1.944
REMARK UNBOUND:                -1.944
REMARK SMILES OC[C@@H]1O[C@@H](O)[C@@H](O)[C@H](O)[C@@H]1O[C@H]1O[C@H](CO)[C@H](O[C@@H]2O[C@H](CO)[C@@H](O)[C@@H](O)[C@@H]2O)[C@@H](O)[C@H]1O
REMARK SMILES IDX 18 1 15 2 14 3 13 4 33 5 31 6 19 7 20 8 22 9 25 10 21 11
REMARK SMILES IDX 27 12 29 13 23 14 24 15 26 17 28 19 30 21 16 23 17 24 32 26
REMARK SMILES IDX 34 28 12 30 11 31 3 32 9 33 4 34 7 35 5 36 2 37 1 38 10 40
REMARK SMILES IDX 8 42 6 44
REMARK H PARENT 24 16 26 18 28 20 30 22 17 25 32 27 34 29 1 39 10 41 8 43 6 45
REMARK Flexibility Score: inf
ROOT
ATOM      1  C   UNL     1      36.439   3.604  43.065  1.00  0.00     0.184 C 
ATOM      2  C   UNL     1      36.802   4.832  42.186  1.00  0.00     0.178 C 
ATOM      3  O   UNL     1      35.830   5.855  42.339  1.00  0.00    -0.341 OA
ATOM      4  C   UNL     1      35.823   6.384  43.656  1.00  0.00     0.282 C 
ATOM      5  C   UNL     1      35.470   5.286  44.686  1.00  0.00     0.202 C 
ATOM      6  C   UNL     1      36.399   4.064  44.537  1.00  0.00     0.180 C 
ENDROOT
BRANCH   1   7
ATOM      7  O   UNL     1      35.151   3.110  42.725  1.00  0.00    -0.341 OA
BRANCH   7   8
ATOM      8  C   UNL     1      35.143   1.741  42.337  1.00  0.00     0.282 C 
ATOM      9  C   UNL     1      33.194   1.939  40.956  1.00  0.00     0.178 C 
ATOM     10  C   UNL     1      32.319   1.139  41.955  1.00  0.00     0.177 C 
ATOM     11  O   UNL     1      34.579   1.607  41.037  1.00  0.00    -0.341 OA
ATOM     12  C   UNL     1      32.895   1.231  43.380  1.00  0.00     0.179 C 
ATOM     13  C   UNL     1      34.392   0.866  43.361  1.00  0.00     0.202 C 
BRANCH   9  14
ATOM     14  C   UNL     1      32.947   3.465  40.989  1.00  0.00     0.191 C 
BRANCH  14  15
ATOM     15  O   UNL     1      31.575   3.740  41.101  1.00  0.00    -0.394 OA
ATOM     16  H   UNL     1      31.138   3.369  40.290  1.00  0.00     0.210 HD
ENDBRANCH  14  15
ENDBRANCH   9  14
BRANCH  10  17
ATOM     17  O   UNL     1      32.272  -0.202  41.534  1.00  0.00    -0.387 OA
ATOM     18  H   UNL     1      33.205  -0.482  41.339  1.00  0.00     0.211 HD
ENDBRANCH  10  17
BRANCH  12  19
ATOM     19  O   UNL     1      32.173   0.418  44.275  1.00  0.00    -0.387 OA
ATOM     20  H   UNL     1      31.206   0.599  44.148  1.00  0.00     0.211 HD
ENDBRANCH  12  19
BRANCH  13  21
ATOM     21  O   UNL     1      34.974   0.960  44.638  1.00  0.00    -0.385 OA
ATOM     22  H   UNL     1      34.815   1.876  44.980  1.00  0.00     0.211 HD
ENDBRANCH  13  21
ENDBRANCH   7   8
ENDBRANCH   1   7
BRANCH   2  23
ATOM     23  C   UNL     1      36.915   4.491  40.694  1.00  0.00     0.191 C 
BRANCH  23  24
ATOM     24  O   UNL     1      37.912   5.260  40.073  1.00  0.00    -0.394 OA
ATOM     25  H   UNL     1      37.775   6.197  40.371  1.00  0.00     0.210 HD
ENDBRANCH  23  24
ENDBRANCH   2  23
BRANCH   6  26
ATOM     26  O   UNL     1      37.691   4.387  44.988  1.00  0.00    -0.387 OA
ATOM     27  H   UNL     1      37.671   4.335  45.979  1.00  0.00     0.211 HD
ENDBRANCH   6  26
BRANCH   5  28
ATOM     28  O   UNL     1      35.545   5.803  45.989  1.00  0.00    -0.385 OA
ATOM     29  H   UNL     1      36.462   6.166  46.102  1.00  0.00     0.211 HD
ENDBRANCH   5  28
BRANCH   4  30
ATOM     30  O   UNL     1      37.084   6.976  43.952  1.00  0.00    -0.341 OA
BRANCH  30  31
ATOM     31  C   UNL     1      37.111   8.370  43.679  1.00  0.00     0.184 C 
ATOM     32  C   UNL     1      38.514   9.011  43.967  1.00  0.00     0.178 C 
ATOM     33  C   UNL     1      36.005   9.058  44.497  1.00  0.00     0.180 C 
ATOM     34  O   UNL     1      38.429  10.314  44.537  1.00  0.00    -0.342 OA
ATOM     35  C   UNL     1      36.014  10.592  44.274  1.00  0.00     0.201 C 
ATOM     36  C   UNL     1      37.431  11.110  43.919  1.00  0.00     0.279 C 
BRANCH  32  37
ATOM     37  C   UNL     1      39.388   8.141  44.892  1.00  0.00     0.191 C 
BRANCH  37  38
ATOM     38  O   UNL     1      39.097   8.413  46.238  1.00  0.00    -0.394 OA
ATOM     39  H   UNL     1      38.110   8.493  46.307  1.00  0.00     0.210 HD
ENDBRANCH  37  38
ENDBRANCH  32  37
BRANCH  33  40
ATOM     40  O   UNL     1      36.108   8.729  45.863  1.00  0.00    -0.387 OA
ATOM     41  H   UNL     1      37.010   8.349  46.026  1.00  0.00     0.211 HD
ENDBRANCH  33  40
BRANCH  35  42
ATOM     42  O   UNL     1      35.104  10.924  43.255  1.00  0.00    -0.385 OA
ATOM     43  H   UNL     1      35.641  11.094  42.437  1.00  0.00     0.211 HD
ENDBRANCH  35  42
BRANCH  36  44
ATOM     44  O   UNL     1      37.620  11.172  42.526  1.00  0.00    -0.366 OA
ATOM     45  H   UNL     1      37.832  10.247  42.231  1.00  0.00     0.213 HD
ENDBRANCH  36  44
ENDBRANCH  30  31
ENDBRANCH   4  30
TORSDOF 18
ENDMDL
MODEL 2
REMARK VINA RESULT:    -5.670      1.405      8.006
REMARK INTER + INTRA:         -11.758
REMARK INTER:                  -9.713
REMARK INTRA:                  -2.045
REMARK UNBOUND:                -1.944
REMARK SMILES OC[C@@H]1O[C@@H](O)[C@@H](O)[C@H](O)[C@@H]1O[C@H]1O[C@H](CO)[C@H](O[C@@H]2O[C@H](CO)[C@@H](O)[C@@H](O)[C@@H]2O)[C@@H](O)[C@H]1O
REMARK SMILES IDX 18 1 15 2 14 3 13 4 33 5 31 6 19 7 20 8 22 9 25 10 21 11
REMARK SMILES IDX 27 12 29 13 23 14 24 15 26 17 28 19 30 21 16 23 17 24 32 26
REMARK SMILES IDX 34 28 12 30 11 31 3 32 9 33 4 34 7 35 5 36 2 37 1 38 10 40
REMARK SMILES IDX 8 42 6 44
REMARK H PARENT 24 16 26 18 28 20 30 22 17 25 32 27 34 29 1 39 10 41 8 43 6 45
REMARK Flexibility Score: inf
ROOT
ATOM      1  C   UNL     1      37.162   5.428  43.729  1.00  0.00     0.184 C 
ATOM      2  C   UNL     1      35.726   4.841  43.804  1.00  0.00     0.178 C 
ATOM      3  O   UNL     1      35.033   5.071  42.587  1.00  0.00    -0.341 OA
ATOM      4  C   UNL     1      35.621   4.365  41.504  1.00  0.00     0.282 C 
ATOM      5  C   UNL     1      37.078   4.829  41.273  1.00  0.00     0.202 C 
ATOM      6  C   UNL     1      37.905   4.730  42.571  1.00  0.00     0.180 C 
ENDROOT
BRANCH   1   7
ATOM      7  O   UNL     1      37.119   6.820  43.445  1.00  0.00    -0.341 OA
BRANCH   7   8
ATOM      8  C   UNL     1      38.342   7.499  43.706  1.00  0.00     0.282 C 
ATOM      9  C   UNL     1      37.300   9.384  44.758  1.00  0.00     0.178 C 
ATOM     10  C   UNL     1      37.621  10.317  43.562  1.00  0.00     0.177 C 
ATOM     11  O   UNL     1      38.216   8.296  44.878  1.00  0.00    -0.341 OA
ATOM     12  C   UNL     1      37.789   9.504  42.265  1.00  0.00     0.179 C 
ATOM     13  C   UNL     1      38.785   8.351  42.499  1.00  0.00     0.202 C 
BRANCH   9  14
ATOM     14  C   UNL     1      35.824   8.927  44.819  1.00  0.00     0.191 C 
BRANCH  14  15
ATOM     15  O   UNL     1      35.422   8.739  46.150  1.00  0.00    -0.394 OA
ATOM     16  H   UNL     1      34.442   8.898  46.182  1.00  0.00     0.210 HD
ENDBRANCH  14  15
ENDBRANCH   9  14
BRANCH  10  17
ATOM     17  O   UNL     1      38.802  11.025  43.851  1.00  0.00    -0.387 OA
ATOM     18  H   UNL     1      38.541  11.963  44.049  1.00  0.00     0.211 HD
ENDBRANCH  10  17
BRANCH  12  19
ATOM     19  O   UNL     1      38.190  10.328  41.196  1.00  0.00    -0.387 OA
ATOM     20  H   UNL     1      37.665  10.073  40.394  1.00  0.00     0.211 HD
ENDBRANCH  12  19
BRANCH  13  21
ATOM     21  O   UNL     1      38.954   7.560  41.349  1.00  0.00    -0.385 OA
ATOM     22  H   UNL     1      38.077   7.161  41.120  1.00  0.00     0.211 HD
ENDBRANCH  13  21
ENDBRANCH   7   8
ENDBRANCH   1   7
BRANCH   2  23
ATOM     23  C   UNL     1      34.895   5.430  44.952  1.00  0.00     0.191 C 
BRANCH  23  24
ATOM     24  O   UNL     1      35.721   5.911  45.980  1.00  0.00    -0.394 OA
ATOM     25  H   UNL     1      36.610   5.489  45.852  1.00  0.00     0.210 HD
ENDBRANCH  23  24
ENDBRANCH   2  23
BRANCH   6  26
ATOM     26  O   UNL     1      38.146   3.380  42.883  1.00  0.00    -0.387 OA
ATOM     27  H   UNL     1      37.271   2.913  42.832  1.00  0.00     0.211 HD
ENDBRANCH   6  26
BRANCH   5  28
ATOM     28  O   UNL     1      37.672   4.070  40.253  1.00  0.00    -0.385 OA
ATOM     29  H   UNL     1      36.933   3.644  39.745  1.00  0.00     0.211 HD
ENDBRANCH   5  28
BRANCH   4  30
ATOM     30  O   UNL     1      35.562   2.963  41.744  1.00  0.00    -0.341 OA
BRANCH  30  31
ATOM     31  C   UNL     1      34.276   2.534  42.166  1.00  0.00     0.184 C 
ATOM     32  C   UNL     1      34.339   1.264  43.087  1.00  0.00     0.178 C 
ATOM     33  C   UNL     1      33.405   2.280  40.924  1.00  0.00     0.180 C 
ATOM     34  O   UNL     1      33.278   0.344  42.846  1.00  0.00    -0.342 OA
ATOM     35  C   UNL     1      31.998   1.764  41.322  1.00  0.00     0.201 C 
ATOM     36  C   UNL     1      32.030   0.993  42.666  1.00  0.00     0.279 C 
BRANCH  32  37
ATOM     37  C   UNL     1      35.672   0.501  42.958  1.00  0.00     0.191 C 
BRANCH  37  38
ATOM     38  O   UNL     1      36.657   1.099  43.758  1.00  0.00    -0.394 OA
ATOM     39  H   UNL     1      37.057   1.831  43.221  1.00  0.00     0.210 HD
ENDBRANCH  37  38
ENDBRANCH  32  37
BRANCH  33  40
ATOM     40  O   UNL     1      34.047   1.403  40.027  1.00  0.00    -0.387 OA
ATOM     41  H   UNL     1      34.830   1.872  39.638  1.00  0.00     0.211 HD
ENDBRANCH  33  40
BRANCH  35  42
ATOM     42  O   UNL     1      31.106   2.848  41.403  1.00  0.00    -0.385 OA
ATOM     43  H   UNL     1      31.661   3.671  41.453  1.00  0.00     0.211 HD
ENDBRANCH  35  42
BRANCH  36  44
ATOM     44  O   UNL     1      31.737   1.841  43.751  1.00  0.00    -0.366 OA
ATOM     45  H   UNL     1      32.589   2.287  43.996  1.00  0.00     0.213 HD
ENDBRANCH  36  44
ENDBRANCH  30  31
ENDBRANCH   4  30
TORSDOF 18
ENDMDL
MODEL 3
REMARK VINA RESULT:    -5.588      0.883      2.128
REMARK INTER + INTRA:         -11.616
REMARK INTER:                 -11.505
REMARK INTRA:                  -0.112
REMARK UNBOUND:                -1.944
REMARK SMILES OC[C@@H]1O[C@@H](O)[C@@H](O)[C@H](O)[C@@H]1O[C@H]1O[C@H](CO)[C@H](O[C@@H]2O[C@H](CO)[C@@H](O)[C@@H](O)[C@@H]2O)[C@@H](O)[C@H]1O
REMARK SMILES IDX 18 1 15 2 14 3 13 4 33 5 31 6 19 7 20 8 22 9 25 10 21 11
REMARK SMILES IDX 27 12 29 13 23 14 24 15 26 17 28 19 30 21 16 23 17 24 32 26
REMARK SMILES IDX 34 28 12 30 11 31 3 32 9 33 4 34 7 35 5 36 2 37 1 38 10 40
REMARK SMILES IDX 8 42 6 44
REMARK H PARENT 24 16 26 18 28 20 30 22 17 25 32 27 34 29 1 39 10 41 8 43 6 45
REMARK Flexibility Score: inf
ROOT
ATOM      1  C   UNL     1      36.826   3.249  42.883  1.00  0.00     0.184 C 
ATOM      2  C   UNL     1      37.180   4.485  42.012  1.00  0.00     0.178 C 
ATOM      3  O   UNL     1      36.138   5.447  42.072  1.00  0.00    -0.341 OA
ATOM      4  C   UNL     1      35.997   5.992  43.375  1.00  0.00     0.282 C 
ATOM      5  C   UNL     1      35.633   4.889  44.395  1.00  0.00     0.202 C 
ATOM      6  C   UNL     1      36.644   3.725  44.340  1.00  0.00     0.180 C 
ENDROOT
BRANCH   1   7
ATOM      7  O   UNL     1      35.600   2.670  42.456  1.00  0.00    -0.341 OA
BRANCH   7   8
ATOM      8  C   UNL     1      34.578   2.691  43.445  1.00  0.00     0.282 C 
ATOM      9  C   UNL     1      34.756   0.356  43.960  1.00  0.00     0.178 C 
ATOM     10  C   UNL     1      33.399   0.032  43.286  1.00  0.00     0.177 C 
ATOM     11  O   UNL     1      34.838   1.700  44.433  1.00  0.00    -0.341 OA
ATOM     12  C   UNL     1      33.055   1.086  42.217  1.00  0.00     0.179 C 
ATOM     13  C   UNL     1      33.181   2.499  42.820  1.00  0.00     0.202 C 
BRANCH   9  14
ATOM     14  C   UNL     1      35.988  -0.052  43.119  1.00  0.00     0.191 C 
BRANCH  14  15
ATOM     15  O   UNL     1      37.168   0.120  43.860  1.00  0.00    -0.394 OA
ATOM     16  H   UNL     1      36.961  -0.132  44.798  1.00  0.00     0.210 HD
ENDBRANCH  14  15
ENDBRANCH   9  14
BRANCH  10  17
ATOM     17  O   UNL     1      32.402   0.000  44.278  1.00  0.00    -0.387 OA
ATOM     18  H   UNL     1      31.731   0.694  44.043  1.00  0.00     0.211 HD
ENDBRANCH  10  17
BRANCH  12  19
ATOM     19  O   UNL     1      31.774   0.865  41.677  1.00  0.00    -0.387 OA
ATOM     20  H   UNL     1      31.758  -0.043  41.276  1.00  0.00     0.211 HD
ENDBRANCH  12  19
BRANCH  13  21
ATOM     21  O   UNL     1      32.902   3.502  41.875  1.00  0.00    -0.385 OA
ATOM     22  H   UNL     1      32.081   3.976  42.164  1.00  0.00     0.211 HD
ENDBRANCH  13  21
ENDBRANCH   7   8
ENDBRANCH   1   7
BRANCH   2  23
ATOM     23  C   UNL     1      37.429   4.131  40.540  1.00  0.00     0.191 C 
BRANCH  23  24
ATOM     24  O   UNL     1      37.875   5.250  39.819  1.00  0.00    -0.394 OA
ATOM     25  H   UNL     1      38.672   4.957  39.305  1.00  0.00     0.210 HD
ENDBRANCH  23  24
ENDBRANCH   2  23
BRANCH   6  26
ATOM     26  O   UNL     1      37.875   4.135  44.881  1.00  0.00    -0.387 OA
ATOM     27  H   UNL     1      38.128   3.459  45.563  1.00  0.00     0.211 HD
ENDBRANCH   6  26
BRANCH   5  28
ATOM     28  O   UNL     1      35.575   5.427  45.690  1.00  0.00    -0.385 OA
ATOM     29  H   UNL     1      34.758   5.989  45.731  1.00  0.00     0.211 HD
ENDBRANCH   5  28
BRANCH   4  30
ATOM     30  O   UNL     1      37.193   6.666  43.755  1.00  0.00    -0.341 OA
BRANCH  30  31
ATOM     31  C   UNL     1      37.111   8.072  43.568  1.00  0.00     0.184 C 
ATOM     32  C   UNL     1      38.483   8.791  43.817  1.00  0.00     0.178 C 
ATOM     33  C   UNL     1      36.013   8.633  44.488  1.00  0.00     0.180 C 
ATOM     34  O   UNL     1      38.347  10.050  44.470  1.00  0.00    -0.342 OA
ATOM     35  C   UNL     1      35.907  10.174  44.360  1.00  0.00     0.201 C 
ATOM     36  C   UNL     1      37.263  10.809  43.960  1.00  0.00     0.279 C 
BRANCH  32  37
ATOM     37  C   UNL     1      39.467   7.932  44.636  1.00  0.00     0.191 C 
BRANCH  37  38
ATOM     38  O   UNL     1      39.375   8.250  46.000  1.00  0.00    -0.394 OA
ATOM     39  H   UNL     1      38.511   7.883  46.323  1.00  0.00     0.210 HD
ENDBRANCH  37  38
ENDBRANCH  32  37
BRANCH  33  40
ATOM     40  O   UNL     1      36.219   8.233  45.823  1.00  0.00    -0.387 OA
ATOM     41  H   UNL     1      37.145   7.887  45.907  1.00  0.00     0.211 HD
ENDBRANCH  33  40
BRANCH  35  42
ATOM     42  O   UNL     1      34.918  10.500  43.416  1.00  0.00    -0.385 OA
ATOM     43  H   UNL     1      35.222  11.327  42.957  1.00  0.00     0.211 HD
ENDBRANCH  35  42
BRANCH  36  44
ATOM     44  O   UNL     1      37.364  10.965  42.565  1.00  0.00    -0.366 OA
ATOM     45  H   UNL     1      38.233  10.561  42.300  1.00  0.00     0.213 HD
ENDBRANCH  36  44
ENDBRANCH  30  31
ENDBRANCH   4  30
TORSDOF 18
ENDMDL
MODEL 4
REMARK VINA RESULT:    -5.485      2.149      8.155
REMARK INTER + INTRA:         -11.437
REMARK INTER:                  -9.921
REMARK INTRA:                  -1.516
REMARK UNBOUND:                -1.944
REMARK SMILES OC[C@@H]1O[C@@H](O)[C@@H](O)[C@H](O)[C@@H]1O[C@H]1O[C@H](CO)[C@H](O[C@@H]2O[C@H](CO)[C@@H](O)[C@@H](O)[C@@H]2O)[C@@H](O)[C@H]1O
REMARK SMILES IDX 18 1 15 2 14 3 13 4 33 5 31 6 19 7 20 8 22 9 25 10 21 11
REMARK SMILES IDX 27 12 29 13 23 14 24 15 26 17 28 19 30 21 16 23 17 24 32 26
REMARK SMILES IDX 34 28 12 30 11 31 3 32 9 33 4 34 7 35 5 36 2 37 1 38 10 40
REMARK SMILES IDX 8 42 6 44
REMARK H PARENT 24 16 26 18 28 20 30 22 17 25 32 27 34 29 1 39 10 41 8 43 6 45
REMARK Flexibility Score: inf
ROOT
ATOM      1  C   UNL     1      37.292   6.849  42.609  1.00  0.00     0.184 C 
ATOM      2  C   UNL     1      38.234   5.667  42.258  1.00  0.00     0.178 C 
ATOM      3  O   UNL     1      38.649   4.997  43.439  1.00  0.00    -0.341 OA
ATOM      4  C   UNL     1      37.560   4.366  44.098  1.00  0.00     0.282 C 
ATOM      5  C   UNL     1      36.504   5.408  44.532  1.00  0.00     0.202 C 
ATOM      6  C   UNL     1      36.058   6.279  43.340  1.00  0.00     0.180 C 
ENDROOT
BRANCH   1   7
ATOM      7  O   UNL     1      37.939   7.761  43.488  1.00  0.00    -0.341 OA
BRANCH   7   8
ATOM      8  C   UNL     1      37.062   8.715  44.075  1.00  0.00     0.282 C 
ATOM      9  C   UNL     1      37.559  10.440  42.485  1.00  0.00     0.178 C 
ATOM     10  C   UNL     1      38.348  11.271  43.529  1.00  0.00     0.177 C 
ATOM     11  O   UNL     1      36.568   9.600  43.075  1.00  0.00    -0.341 OA
ATOM     12  C   UNL     1      38.892  10.366  44.650  1.00  0.00     0.179 C 
ATOM     13  C   UNL     1      37.752   9.494  45.213  1.00  0.00     0.202 C 
BRANCH   9  14
ATOM     14  C   UNL     1      38.455   9.682  41.479  1.00  0.00     0.191 C 
BRANCH  14  15
ATOM     15  O   UNL     1      38.674  10.461  40.331  1.00  0.00    -0.394 OA
ATOM     16  H   UNL     1      39.628  10.348  40.081  1.00  0.00     0.210 HD
ENDBRANCH  14  15
ENDBRANCH   9  14
BRANCH  10  17
ATOM     17  O   UNL     1      37.490  12.248  44.064  1.00  0.00    -0.387 OA
ATOM     18  H   UNL     1      36.589  11.837  44.144  1.00  0.00     0.211 HD
ENDBRANCH  10  17
BRANCH  12  19
ATOM     19  O   UNL     1      39.514  11.123  45.660  1.00  0.00    -0.387 OA
ATOM     20  H   UNL     1      38.968  11.047  46.486  1.00  0.00     0.211 HD
ENDBRANCH  12  19
BRANCH  13  21
ATOM     21  O   UNL     1      38.203   8.627  46.224  1.00  0.00    -0.385 OA
ATOM     22  H   UNL     1      38.315   7.726  45.828  1.00  0.00     0.211 HD
ENDBRANCH  13  21
ENDBRANCH   7   8
ENDBRANCH   1   7
BRANCH   2  23
ATOM     23  C   UNL     1      39.486   6.104  41.486  1.00  0.00     0.191 C 
BRANCH  23  24
ATOM     24  O   UNL     1      39.154   6.561  40.201  1.00  0.00    -0.394 OA
ATOM     25  H   UNL     1      38.396   6.002  39.888  1.00  0.00     0.210 HD
ENDBRANCH  23  24
ENDBRANCH   2  23
BRANCH   6  26
ATOM     26  O   UNL     1      35.272   5.517  42.459  1.00  0.00    -0.387 OA
ATOM     27  H   UNL     1      34.653   6.148  42.006  1.00  0.00     0.211 HD
ENDBRANCH   6  26
BRANCH   5  28
ATOM     28  O   UNL     1      35.398   4.765  45.110  1.00  0.00    -0.385 OA
ATOM     29  H   UNL     1      34.712   5.464  45.272  1.00  0.00     0.211 HD
ENDBRANCH   5  28
BRANCH   4  30
ATOM     30  O   UNL     1      36.984   3.376  43.251  1.00  0.00    -0.341 OA
BRANCH  30  31
ATOM     31  C   UNL     1      37.474   2.071  43.523  1.00  0.00     0.184 C 
ATOM     32  C   UNL     1      36.625   0.953  42.822  1.00  0.00     0.178 C 
ATOM     33  C   UNL     1      37.519   1.864  45.047  1.00  0.00     0.180 C 
ATOM     34  O   UNL     1      36.461  -0.213  43.626  1.00  0.00    -0.342 OA
ATOM     35  C   UNL     1      38.006   0.437  45.405  1.00  0.00     0.201 C 
ATOM     36  C   UNL     1      37.656  -0.583  44.293  1.00  0.00     0.279 C 
BRANCH  32  37
ATOM     37  C   UNL     1      35.226   1.443  42.400  1.00  0.00     0.191 C 
BRANCH  37  38
ATOM     38  O   UNL     1      34.601   2.113  43.462  1.00  0.00    -0.394 OA
ATOM     39  H   UNL     1      34.017   2.808  43.059  1.00  0.00     0.210 HD
ENDBRANCH  37  38
ENDBRANCH  32  37
BRANCH  33  40
ATOM     40  O   UNL     1      36.271   2.152  45.633  1.00  0.00    -0.387 OA
ATOM     41  H   UNL     1      36.303   1.883  46.587  1.00  0.00     0.211 HD
ENDBRANCH  33  40
BRANCH  35  42
ATOM     42  O   UNL     1      39.394   0.457  45.631  1.00  0.00    -0.385 OA
ATOM     43  H   UNL     1      39.606  -0.346  46.176  1.00  0.00     0.211 HD
ENDBRANCH  35  42
BRANCH  36  44
ATOM     44  O   UNL     1      38.720  -0.734  43.383  1.00  0.00    -0.366 OA
ATOM     45  H   UNL     1      39.511  -0.306  43.804  1.00  0.00     0.213 HD
ENDBRANCH  36  44
ENDBRANCH  30  31
ENDBRANCH   4  30
TORSDOF 18
ENDMDL
MODEL 5
REMARK VINA RESULT:    -5.472      2.585      3.835
REMARK INTER + INTRA:         -11.416
REMARK INTER:                  -8.980
REMARK INTRA:                  -2.435
REMARK UNBOUND:                -1.944
REMARK SMILES OC[C@@H]1O[C@@H](O)[C@@H](O)[C@H](O)[C@@H]1O[C@H]1O[C@H](CO)[C@H](O[C@@H]2O[C@H](CO)[C@@H](O)[C@@H](O)[C@@H]2O)[C@@H](O)[C@H]1O
REMARK SMILES IDX 18 1 15 2 14 3 13 4 33 5 31 6 19 7 20 8 22 9 25 10 21 11
REMARK SMILES IDX 27 12 29 13 23 14 24 15 26 17 28 19 30 21 16 23 17 24 32 26
REMARK SMILES IDX 34 28 12 30 11 31 3 32 9 33 4 34 7 35 5 36 2 37 1 38 10 40
REMARK SMILES IDX 8 42 6 44
REMARK H PARENT 24 16 26 18 28 20 30 22 17 25 32 27 34 29 1 39 10 41 8 43 6 45
REMARK Flexibility Score: inf
ROOT
ATOM      1  C   UNL     1      38.339   3.250  42.182  1.00  0.00     0.184 C 
ATOM      2  C   UNL     1      37.158   4.235  41.963  1.00  0.00     0.178 C 
ATOM      3  O   UNL     1      36.651   4.684  43.210  1.00  0.00    -0.341 OA
ATOM      4  C   UNL     1      37.603   5.464  43.918  1.00  0.00     0.282 C 
ATOM      5  C   UNL     1      38.867   4.632  44.233  1.00  0.00     0.202 C 
ATOM      6  C   UNL     1      39.448   3.995  42.954  1.00  0.00     0.180 C 
ENDROOT
BRANCH   1   7
ATOM      7  O   UNL     1      37.926   2.142  42.971  1.00  0.00    -0.341 OA
BRANCH   7   8
ATOM      8  C   UNL     1      37.665   0.964  42.216  1.00  0.00     0.282 C 
ATOM      9  C   UNL     1      36.283  -0.044  43.896  1.00  0.00     0.178 C 
ATOM     10  C   UNL     1      37.357  -1.107  44.241  1.00  0.00     0.177 C 
ATOM     11  O   UNL     1      36.387   0.441  42.558  1.00  0.00    -0.341 OA
ATOM     12  C   UNL     1      38.764  -0.602  43.873  1.00  0.00     0.179 C 
ATOM     13  C   UNL     1      38.770  -0.093  42.417  1.00  0.00     0.202 C 
BRANCH   9  14
ATOM     14  C   UNL     1      36.176   1.099  44.933  1.00  0.00     0.191 C 
BRANCH  14  15
ATOM     15  O   UNL     1      35.305   2.099  44.475  1.00  0.00    -0.394 OA
ATOM     16  H   UNL     1      35.809   2.644  43.816  1.00  0.00     0.210 HD
ENDBRANCH  14  15
ENDBRANCH   9  14
BRANCH  10  17
ATOM     17  O   UNL     1      37.061  -2.287  43.533  1.00  0.00    -0.387 OA
ATOM     18  H   UNL     1      37.901  -2.584  43.093  1.00  0.00     0.211 HD
ENDBRANCH  10  17
BRANCH  12  19
ATOM     19  O   UNL     1      39.734  -1.602  44.077  1.00  0.00    -0.387 OA
ATOM     20  H   UNL     1      39.354  -2.283  44.690  1.00  0.00     0.211 HD
ENDBRANCH  12  19
BRANCH  13  21
ATOM     21  O   UNL     1      40.029   0.405  42.039  1.00  0.00    -0.385 OA
ATOM     22  H   UNL     1      40.194   1.239  42.547  1.00  0.00     0.211 HD
ENDBRANCH  13  21
ENDBRANCH   7   8
ENDBRANCH   1   7
BRANCH   2  23
ATOM     23  C   UNL     1      36.002   3.620  41.163  1.00  0.00     0.191 C 
BRANCH  23  24
ATOM     24  O   UNL     1      34.983   3.166  42.014  1.00  0.00    -0.394 OA
ATOM     25  H   UNL     1      34.416   3.953  42.224  1.00  0.00     0.210 HD
ENDBRANCH  23  24
ENDBRANCH   2  23
BRANCH   6  26
ATOM     26  O   UNL     1      40.028   4.988  42.146  1.00  0.00    -0.387 OA
ATOM     27  H   UNL     1      39.403   5.147  41.391  1.00  0.00     0.211 HD
ENDBRANCH   6  26
BRANCH   5  28
ATOM     28  O   UNL     1      39.831   5.436  44.862  1.00  0.00    -0.385 OA
ATOM     29  H   UNL     1      39.664   5.374  45.838  1.00  0.00     0.211 HD
ENDBRANCH   5  28
BRANCH   4  30
ATOM     30  O   UNL     1      37.932   6.631  43.170  1.00  0.00    -0.341 OA
BRANCH  30  31
ATOM     31  C   UNL     1      37.173   7.765  43.566  1.00  0.00     0.184 C 
ATOM     32  C   UNL     1      37.450   9.017  42.661  1.00  0.00     0.178 C 
ATOM     33  C   UNL     1      37.468   8.069  45.045  1.00  0.00     0.180 C 
ATOM     34  O   UNL     1      37.474  10.242  43.391  1.00  0.00    -0.342 OA
ATOM     35  C   UNL     1      36.700   9.328  45.522  1.00  0.00     0.201 C 
ATOM     36  C   UNL     1      36.439  10.316  44.357  1.00  0.00     0.279 C 
BRANCH  32  37
ATOM     37  C   UNL     1      38.771   8.904  41.875  1.00  0.00     0.191 C 
BRANCH  37  38
ATOM     38  O   UNL     1      38.669   9.574  40.647  1.00  0.00    -0.394 OA
ATOM     39  H   UNL     1      37.824   9.270  40.224  1.00  0.00     0.210 HD
ENDBRANCH  37  38
ENDBRANCH  32  37
BRANCH  33  40
ATOM     40  O   UNL     1      38.853   8.187  45.270  1.00  0.00    -0.387 OA
ATOM     41  H   UNL     1      39.231   7.276  45.379  1.00  0.00     0.211 HD
ENDBRANCH  33  40
BRANCH  35  42
ATOM     42  O   UNL     1      35.486   8.940  46.115  1.00  0.00    -0.385 OA
ATOM     43  H   UNL     1      35.697   8.671  47.048  1.00  0.00     0.211 HD
ENDBRANCH  35  42
BRANCH  36  44
ATOM     44  O   UNL     1      35.179  10.093  43.770  1.00  0.00    -0.366 OA
ATOM     45  H   UNL     1      34.933   9.154  43.981  1.00  0.00     0.213 HD
ENDBRANCH  36  44
ENDBRANCH  30  31
ENDBRANCH   4  30
TORSDOF 18
ENDMDL
MODEL 6
REMARK VINA RESULT:    -5.324      2.248      7.933
REMARK INTER + INTRA:         -11.159
REMARK INTER:                  -9.627
REMARK INTRA:                  -1.532
REMARK UNBOUND:                -1.944
REMARK SMILES OC[C@@H]1O[C@@H](O)[C@@H](O)[C@H](O)[C@@H]1O[C@H]1O[C@H](CO)[C@H](O[C@@H]2O[C@H](CO)[C@@H](O)[C@@H](O)[C@@H]2O)[C@@H](O)[C@H]1O
REMARK SMILES IDX 18 1 15 2 14 3 13 4 33 5 31 6 19 7 20 8 22 9 25 10 21 11
REMARK SMILES IDX 27 12 29 13 23 14 24 15 26 17 28 19 30 21 16 23 17 24 32 26
REMARK SMILES IDX 34 28 12 30 11 31 3 32 9 33 4 34 7 35 5 36 2 37 1 38 10 40
REMARK SMILES IDX 8 42 6 44
REMARK H PARENT 24 16 26 18 28 20 30 22 17 25 32 27 34 29 1 39 10 41 8 43 6 45
REMARK Flexibility Score: inf
ROOT
ATOM      1  C   UNL     1      37.650   5.754  42.446  1.00  0.00     0.184 C 
ATOM      2  C   UNL     1      37.989   4.731  43.563  1.00  0.00     0.178 C 
ATOM      3  O   UNL     1      36.907   4.616  44.475  1.00  0.00    -0.341 OA
ATOM      4  C   UNL     1      35.755   4.060  43.859  1.00  0.00     0.282 C 
ATOM      5  C   UNL     1      35.262   4.962  42.704  1.00  0.00     0.202 C 
ATOM      6  C   UNL     1      36.396   5.250  41.700  1.00  0.00     0.180 C 
ENDROOT
BRANCH   1   7
ATOM      7  O   UNL     1      37.345   7.024  43.007  1.00  0.00    -0.341 OA
BRANCH   7   8
ATOM      8  C   UNL     1      38.492   7.792  43.350  1.00  0.00     0.282 C 
ATOM      9  C   UNL     1      37.358   9.114  44.997  1.00  0.00     0.178 C 
ATOM     10  C   UNL     1      37.397  10.382  44.106  1.00  0.00     0.177 C 
ATOM     11  O   UNL     1      38.415   8.199  44.711  1.00  0.00    -0.341 OA
ATOM     12  C   UNL     1      37.500  10.002  42.618  1.00  0.00     0.179 C 
ATOM     13  C   UNL     1      38.660   9.007  42.415  1.00  0.00     0.202 C 
BRANCH   9  14
ATOM     14  C   UNL     1      35.975   8.424  45.046  1.00  0.00     0.191 C 
BRANCH  14  15
ATOM     15  O   UNL     1      36.082   7.148  45.621  1.00  0.00    -0.394 OA
ATOM     16  H   UNL     1      35.799   7.232  46.569  1.00  0.00     0.210 HD
ENDBRANCH  14  15
ENDBRANCH   9  14
BRANCH  10  17
ATOM     17  O   UNL     1      38.502  11.164  44.489  1.00  0.00    -0.387 OA
ATOM     18  H   UNL     1      39.178  11.091  43.765  1.00  0.00     0.211 HD
ENDBRANCH  10  17
BRANCH  12  19
ATOM     19  O   UNL     1      37.649  11.145  41.810  1.00  0.00    -0.387 OA
ATOM     20  H   UNL     1      38.528  11.089  41.352  1.00  0.00     0.211 HD
ENDBRANCH  12  19
BRANCH  13  21
ATOM     21  O   UNL     1      38.782   8.606  41.073  1.00  0.00    -0.385 OA
ATOM     22  H   UNL     1      38.412   7.691  40.992  1.00  0.00     0.211 HD
ENDBRANCH  13  21
ENDBRANCH   7   8
ENDBRANCH   1   7
BRANCH   2  23
ATOM     23  C   UNL     1      39.251   5.101  44.354  1.00  0.00     0.191 C 
BRANCH  23  24
ATOM     24  O   UNL     1      39.874   3.957  44.878  1.00  0.00    -0.394 OA
ATOM     25  H   UNL     1      39.204   3.226  44.842  1.00  0.00     0.210 HD
ENDBRANCH  23  24
ENDBRANCH   2  23
BRANCH   6  26
ATOM     26  O   UNL     1      36.693   4.089  40.966  1.00  0.00    -0.387 OA
ATOM     27  H   UNL     1      36.198   4.157  40.108  1.00  0.00     0.211 HD
ENDBRANCH   6  26
BRANCH   5  28
ATOM     28  O   UNL     1      34.172   4.362  42.054  1.00  0.00    -0.385 OA
ATOM     29  H   UNL     1      34.477   3.469  41.747  1.00  0.00     0.211 HD
ENDBRANCH   5  28
BRANCH   4  30
ATOM     30  O   UNL     1      36.035   2.743  43.395  1.00  0.00    -0.341 OA
BRANCH  30  31
ATOM     31  C   UNL     1      36.886   2.022  44.276  1.00  0.00     0.184 C 
ATOM     32  C   UNL     1      37.900   1.102  43.511  1.00  0.00     0.178 C 
ATOM     33  C   UNL     1      36.017   1.207  45.249  1.00  0.00     0.180 C 
ATOM     34  O   UNL     1      38.121  -0.149  44.159  1.00  0.00    -0.342 OA
ATOM     35  C   UNL     1      36.893   0.362  46.210  1.00  0.00     0.201 C 
ATOM     36  C   UNL     1      38.251  -0.014  45.564  1.00  0.00     0.279 C 
BRANCH  32  37
ATOM     37  C   UNL     1      37.469   0.817  42.059  1.00  0.00     0.191 C 
BRANCH  37  38
ATOM     38  O   UNL     1      38.042   1.755  41.186  1.00  0.00    -0.394 OA
ATOM     39  H   UNL     1      38.907   2.031  41.588  1.00  0.00     0.210 HD
ENDBRANCH  37  38
ENDBRANCH  32  37
BRANCH  33  40
ATOM     40  O   UNL     1      35.089   0.409  44.551  1.00  0.00    -0.387 OA
ATOM     41  H   UNL     1      35.464  -0.505  44.467  1.00  0.00     0.211 HD
ENDBRANCH  33  40
BRANCH  35  42
ATOM     42  O   UNL     1      37.101   1.075  47.404  1.00  0.00    -0.385 OA
ATOM     43  H   UNL     1      36.632   0.572  48.121  1.00  0.00     0.211 HD
ENDBRANCH  35  42
BRANCH  36  44
ATOM     44  O   UNL     1      39.252   0.919  45.896  1.00  0.00    -0.366 OA
ATOM     45  H   UNL     1      40.030   0.392  46.217  1.00  0.00     0.213 HD
ENDBRANCH  36  44
ENDBRANCH  30  31
ENDBRANCH   4  30
TORSDOF 18
ENDMDL
MODEL 7
REMARK VINA RESULT:    -5.224      1.496      8.019
REMARK INTER + INTRA:         -10.986
REMARK INTER:                 -10.718
REMARK INTRA:                  -0.268
REMARK UNBOUND:                -1.944
REMARK SMILES OC[C@@H]1O[C@@H](O)[C@@H](O)[C@H](O)[C@@H]1O[C@H]1O[C@H](CO)[C@H](O[C@@H]2O[C@H](CO)[C@@H](O)[C@@H](O)[C@@H]2O)[C@@H](O)[C@H]1O
REMARK SMILES IDX 18 1 15 2 14 3 13 4 33 5 31 6 19 7 20 8 22 9 25 10 21 11
REMARK SMILES IDX 27 12 29 13 23 14 24 15 26 17 28 19 30 21 16 23 17 24 32 26
REMARK SMILES IDX 34 28 12 30 11 31 3 32 9 33 4 34 7 35 5 36 2 37 1 38 10 40
REMARK SMILES IDX 8 42 6 44
REMARK H PARENT 24 16 26 18 28 20 30 22 17 25 32 27 34 29 1 39 10 41 8 43 6 45
REMARK Flexibility Score: inf
ROOT
ATOM      1  C   UNL     1      37.732   6.416  44.235  1.00  0.00     0.184 C 
ATOM      2  C   UNL     1      36.251   5.967  44.357  1.00  0.00     0.178 C 
ATOM      3  O   UNL     1      35.643   5.914  43.075  1.00  0.00    -0.341 OA
ATOM      4  C   UNL     1      36.225   4.910  42.256  1.00  0.00     0.282 C 
ATOM      5  C   UNL     1      37.725   5.199  42.018  1.00  0.00     0.202 C 
ATOM      6  C   UNL     1      38.474   5.390  43.353  1.00  0.00     0.180 C 
ENDROOT
BRANCH   1   7
ATOM      7  O   UNL     1      37.820   7.685  43.598  1.00  0.00    -0.341 OA
BRANCH   7   8
ATOM      8  C   UNL     1      36.989   8.681  44.183  1.00  0.00     0.282 C 
ATOM      9  C   UNL     1      37.459  10.334  42.512  1.00  0.00     0.178 C 
ATOM     10  C   UNL     1      38.308  11.183  43.492  1.00  0.00     0.177 C 
ATOM     11  O   UNL     1      36.474   9.539  43.172  1.00  0.00    -0.341 OA
ATOM     12  C   UNL     1      38.877  10.307  44.623  1.00  0.00     0.179 C 
ATOM     13  C   UNL     1      37.742   9.484  45.263  1.00  0.00     0.202 C 
BRANCH   9  14
ATOM     14  C   UNL     1      38.297   9.519  41.499  1.00  0.00     0.191 C 
BRANCH  14  15
ATOM     15  O   UNL     1      38.695  10.330  40.425  1.00  0.00    -0.394 OA
ATOM     16  H   UNL     1      39.615  10.645  40.624  1.00  0.00     0.210 HD
ENDBRANCH  14  15
ENDBRANCH   9  14
BRANCH  10  17
ATOM     17  O   UNL     1      37.494  12.200  44.024  1.00  0.00    -0.387 OA
ATOM     18  H   UNL     1      37.680  13.027  43.505  1.00  0.00     0.211 HD
ENDBRANCH  10  17
BRANCH  12  19
ATOM     19  O   UNL     1      39.556  11.086  45.579  1.00  0.00    -0.387 OA
ATOM     20  H   UNL     1      40.288  11.573  45.119  1.00  0.00     0.211 HD
ENDBRANCH  12  19
BRANCH  13  21
ATOM     21  O   UNL     1      38.214   8.644  46.288  1.00  0.00    -0.385 OA
ATOM     22  H   UNL     1      39.165   8.865  46.452  1.00  0.00     0.211 HD
ENDBRANCH  13  21
ENDBRANCH   7   8
ENDBRANCH   1   7
BRANCH   2  23
ATOM     23  C   UNL     1      35.414   6.891  45.252  1.00  0.00     0.191 C 
BRANCH  23  24
ATOM     24  O   UNL     1      35.187   6.309  46.509  1.00  0.00    -0.394 OA
ATOM     25  H   UNL     1      35.788   6.771  47.149  1.00  0.00     0.210 HD
ENDBRANCH  23  24
ENDBRANCH   2  23
BRANCH   6  26
ATOM     26  O   UNL     1      38.586   4.158  44.020  1.00  0.00    -0.387 OA
ATOM     27  H   UNL     1      38.527   3.449  43.326  1.00  0.00     0.211 HD
ENDBRANCH   6  26
BRANCH   5  28
ATOM     28  O   UNL     1      38.306   4.160  41.275  1.00  0.00    -0.385 OA
ATOM     29  H   UNL     1      38.155   4.373  40.317  1.00  0.00     0.211 HD
ENDBRANCH   5  28
BRANCH   4  30
ATOM     30  O   UNL     1      36.039   3.628  42.847  1.00  0.00    -0.341 OA
BRANCH  30  31
ATOM     31  C   UNL     1      34.690   3.187  42.782  1.00  0.00     0.184 C 
ATOM     32  C   UNL     1      34.440   1.894  43.635  1.00  0.00     0.178 C 
ATOM     33  C   UNL     1      34.310   2.965  41.308  1.00  0.00     0.180 C 
ATOM     34  O   UNL     1      33.539   0.979  43.016  1.00  0.00    -0.342 OA
ATOM     35  C   UNL     1      32.858   2.438  41.176  1.00  0.00     0.201 C 
ATOM     36  C   UNL     1      32.426   1.631  42.427  1.00  0.00     0.279 C 
BRANCH  32  37
ATOM     37  C   UNL     1      35.741   1.134  43.962  1.00  0.00     0.191 C 
BRANCH  37  38
ATOM     38  O   UNL     1      36.533   1.881  44.848  1.00  0.00    -0.394 OA
ATOM     39  H   UNL     1      37.248   2.305  44.305  1.00  0.00     0.210 HD
ENDBRANCH  37  38
ENDBRANCH  32  37
BRANCH  33  40
ATOM     40  O   UNL     1      35.234   2.113  40.671  1.00  0.00    -0.387 OA
ATOM     41  H   UNL     1      35.554   2.559  39.845  1.00  0.00     0.211 HD
ENDBRANCH  33  40
BRANCH  35  42
ATOM     42  O   UNL     1      31.985   3.519  40.966  1.00  0.00    -0.385 OA
ATOM     43  H   UNL     1      32.546   4.338  40.937  1.00  0.00     0.211 HD
ENDBRANCH  35  42
BRANCH  36  44
ATOM     44  O   UNL     1      31.764   2.450  43.360  1.00  0.00    -0.366 OA
ATOM     45  H   UNL     1      32.327   3.261  43.471  1.00  0.00     0.213 HD
ENDBRANCH  36  44
ENDBRANCH  30  31
ENDBRANCH   4  30
TORSDOF 18
ENDMDL
MODEL 8
REMARK VINA RESULT:    -5.007      3.686      5.291
REMARK INTER + INTRA:         -10.609
REMARK INTER:                  -8.681
REMARK INTRA:                  -1.928
REMARK UNBOUND:                -1.944
REMARK SMILES OC[C@@H]1O[C@@H](O)[C@@H](O)[C@H](O)[C@@H]1O[C@H]1O[C@H](CO)[C@H](O[C@@H]2O[C@H](CO)[C@@H](O)[C@@H](O)[C@@H]2O)[C@@H](O)[C@H]1O
REMARK SMILES IDX 18 1 15 2 14 3 13 4 33 5 31 6 19 7 20 8 22 9 25 10 21 11
REMARK SMILES IDX 27 12 29 13 23 14 24 15 26 17 28 19 30 21 16 23 17 24 32 26
REMARK SMILES IDX 34 28 12 30 11 31 3 32 9 33 4 34 7 35 5 36 2 37 1 38 10 40
REMARK SMILES IDX 8 42 6 44
REMARK H PARENT 24 16 26 18 28 20 30 22 17 25 32 27 34 29 1 39 10 41 8 43 6 45
REMARK Flexibility Score: inf
ROOT
ATOM      1  C   UNL     1      38.916   1.711  40.736  1.00  0.00     0.184 C 
ATOM      2  C   UNL     1      38.959   3.255  40.899  1.00  0.00     0.178 C 
ATOM      3  O   UNL     1      37.675   3.813  40.669  1.00  0.00    -0.341 OA
ATOM      4  C   UNL     1      36.738   3.404  41.655  1.00  0.00     0.282 C 
ATOM      5  C   UNL     1      36.558   1.868  41.636  1.00  0.00     0.202 C 
ATOM      6  C   UNL     1      37.916   1.148  41.767  1.00  0.00     0.180 C 
ENDROOT
BRANCH   1   7
ATOM      7  O   UNL     1      38.454   1.358  39.439  1.00  0.00    -0.341 OA
BRANCH   7   8
ATOM      8  C   UNL     1      39.464   1.392  38.438  1.00  0.00     0.282 C 
ATOM      9  C   UNL     1      37.958   1.946  36.657  1.00  0.00     0.178 C 
ATOM     10  C   UNL     1      38.082   0.537  36.022  1.00  0.00     0.177 C 
ATOM     11  O   UNL     1      39.107   2.318  37.418  1.00  0.00    -0.341 OA
ATOM     12  C   UNL     1      38.488  -0.506  37.079  1.00  0.00     0.179 C 
ATOM     13  C   UNL     1      39.727  -0.009  37.850  1.00  0.00     0.202 C 
BRANCH   9  14
ATOM     14  C   UNL     1      36.638   2.172  37.429  1.00  0.00     0.191 C 
BRANCH  14  15
ATOM     15  O   UNL     1      36.687   3.378  38.146  1.00  0.00    -0.394 OA
ATOM     16  H   UNL     1      37.397   3.278  38.833  1.00  0.00     0.210 HD
ENDBRANCH  14  15
ENDBRANCH   9  14
BRANCH  10  17
ATOM     17  O   UNL     1      39.044   0.593  34.996  1.00  0.00    -0.387 OA
ATOM     18  H   UNL     1      39.848   1.039  35.371  1.00  0.00     0.211 HD
ENDBRANCH  10  17
BRANCH  12  19
ATOM     19  O   UNL     1      38.712  -1.765  36.492  1.00  0.00    -0.387 OA
ATOM     20  H   UNL     1      38.520  -2.463  37.171  1.00  0.00     0.211 HD
ENDBRANCH  12  19
BRANCH  13  21
ATOM     21  O   UNL     1      40.124  -0.916  38.849  1.00  0.00    -0.385 OA
ATOM     22  H   UNL     1      39.421  -1.609  38.931  1.00  0.00     0.211 HD
ENDBRANCH  13  21
ENDBRANCH   7   8
ENDBRANCH   1   7
BRANCH   2  23
ATOM     23  C   UNL     1      39.958   3.932  39.951  1.00  0.00     0.191 C 
BRANCH  23  24
ATOM     24  O   UNL     1      39.297   4.741  39.013  1.00  0.00    -0.394 OA
ATOM     25  H   UNL     1      38.970   4.137  38.297  1.00  0.00     0.210 HD
ENDBRANCH  23  24
ENDBRANCH   2  23
BRANCH   6  26
ATOM     26  O   UNL     1      38.415   1.300  43.072  1.00  0.00    -0.387 OA
ATOM     27  H   UNL     1      39.148   0.640  43.179  1.00  0.00     0.211 HD
ENDBRANCH   6  26
BRANCH   5  28
ATOM     28  O   UNL     1      35.691   1.470  42.666  1.00  0.00    -0.385 OA
ATOM     29  H   UNL     1      36.058   0.627  43.040  1.00  0.00     0.211 HD
ENDBRANCH   5  28
BRANCH   4  30
ATOM     30  O   UNL     1      37.151   3.856  42.940  1.00  0.00    -0.341 OA
BRANCH  30  31
ATOM     31  C   UNL     1      37.386   5.256  42.978  1.00  0.00     0.184 C 
ATOM     32  C   UNL     1      38.843   5.608  43.443  1.00  0.00     0.178 C 
ATOM     33  C   UNL     1      36.336   5.912  43.891  1.00  0.00     0.180 C 
ATOM     34  O   UNL     1      38.902   6.760  44.280  1.00  0.00    -0.342 OA
ATOM     35  C   UNL     1      36.569   7.440  44.008  1.00  0.00     0.201 C 
ATOM     36  C   UNL     1      38.063   7.806  43.820  1.00  0.00     0.279 C 
BRANCH  32  37
ATOM     37  C   UNL     1      39.530   4.443  44.184  1.00  0.00     0.191 C 
BRANCH  37  38
ATOM     38  O   UNL     1      38.615   3.791  45.025  1.00  0.00    -0.394 OA
ATOM     39  H   UNL     1      38.143   3.119  44.469  1.00  0.00     0.210 HD
ENDBRANCH  37  38
ENDBRANCH  32  37
BRANCH  33  40
ATOM     40  O   UNL     1      36.307   5.290  45.155  1.00  0.00    -0.387 OA
ATOM     41  H   UNL     1      36.477   4.321  45.032  1.00  0.00     0.211 HD
ENDBRANCH  33  40
BRANCH  35  42
ATOM     42  O   UNL     1      35.778   8.109  43.058  1.00  0.00    -0.385 OA
ATOM     43  H   UNL     1      35.959   9.080  43.169  1.00  0.00     0.211 HD
ENDBRANCH  35  42
BRANCH  36  44
ATOM     44  O   UNL     1      38.346   8.132  42.480  1.00  0.00    -0.366 OA
ATOM     45  H   UNL     1      39.331   8.247  42.421  1.00  0.00     0.213 HD
ENDBRANCH  36  44
ENDBRANCH  30  31
ENDBRANCH   4  30
TORSDOF 18
ENDMDL
MODEL 9
REMARK VINA RESULT:    -4.671      2.820      3.846
REMARK INTER + INTRA:         -10.029
REMARK INTER:                  -8.599
REMARK INTRA:                  -1.430
REMARK UNBOUND:                -1.944
REMARK SMILES OC[C@@H]1O[C@@H](O)[C@@H](O)[C@H](O)[C@@H]1O[C@H]1O[C@H](CO)[C@H](O[C@@H]2O[C@H](CO)[C@@H](O)[C@@H](O)[C@@H]2O)[C@@H](O)[C@H]1O
REMARK SMILES IDX 18 1 15 2 14 3 13 4 33 5 31 6 19 7 20 8 22 9 25 10 21 11
REMARK SMILES IDX 27 12 29 13 23 14 24 15 26 17 28 19 30 21 16 23 17 24 32 26
REMARK SMILES IDX 34 28 12 30 11 31 3 32 9 33 4 34 7 35 5 36 2 37 1 38 10 40
REMARK SMILES IDX 8 42 6 44
REMARK H PARENT 24 16 26 18 28 20 30 22 17 25 32 27 34 29 1 39 10 41 8 43 6 45
REMARK Flexibility Score: inf
ROOT
ATOM      1  C   UNL     1      35.308   2.261  42.442  1.00  0.00     0.184 C 
ATOM      2  C   UNL     1      35.970   3.133  41.340  1.00  0.00     0.178 C 
ATOM      3  O   UNL     1      35.680   4.506  41.554  1.00  0.00    -0.341 OA
ATOM      4  C   UNL     1      36.268   4.988  42.753  1.00  0.00     0.282 C 
ATOM      5  C   UNL     1      35.716   4.227  43.980  1.00  0.00     0.202 C 
ATOM      6  C   UNL     1      35.876   2.702  43.807  1.00  0.00     0.180 C 
ENDROOT
BRANCH   1   7
ATOM      7  O   UNL     1      33.902   2.467  42.465  1.00  0.00    -0.341 OA
BRANCH   7   8
ATOM      8  C   UNL     1      33.145   1.313  42.117  1.00  0.00     0.282 C 
ATOM      9  C   UNL     1      31.593   2.507  40.734  1.00  0.00     0.178 C 
ATOM     10  C   UNL     1      30.442   2.335  41.757  1.00  0.00     0.177 C 
ATOM     11  O   UNL     1      32.577   1.477  40.822  1.00  0.00    -0.341 OA
ATOM     12  C   UNL     1      30.999   2.133  43.178  1.00  0.00     0.179 C 
ATOM     13  C   UNL     1      32.057   1.011  43.167  1.00  0.00     0.202 C 
BRANCH   9  14
ATOM     14  C   UNL     1      32.216   3.922  40.722  1.00  0.00     0.191 C 
BRANCH  14  15
ATOM     15  O   UNL     1      31.224   4.894  40.516  1.00  0.00    -0.394 OA
ATOM     16  H   UNL     1      30.578   4.516  39.864  1.00  0.00     0.210 HD
ENDBRANCH  14  15
ENDBRANCH   9  14
BRANCH  10  17
ATOM     17  O   UNL     1      29.666   1.225  41.375  1.00  0.00    -0.387 OA
ATOM     18  H   UNL     1      30.237   0.650  40.800  1.00  0.00     0.211 HD
ENDBRANCH  10  17
BRANCH  12  19
ATOM     19  O   UNL     1      29.968   1.863  44.097  1.00  0.00    -0.387 OA
ATOM     20  H   UNL     1      29.809   2.683  44.635  1.00  0.00     0.211 HD
ENDBRANCH  12  19
BRANCH  13  21
ATOM     21  O   UNL     1      32.619   0.805  44.440  1.00  0.00    -0.385 OA
ATOM     22  H   UNL     1      33.139   1.613  44.680  1.00  0.00     0.211 HD
ENDBRANCH  13  21
ENDBRANCH   7   8
ENDBRANCH   1   7
BRANCH   2  23
ATOM     23  C   UNL     1      35.515   2.758  39.923  1.00  0.00     0.191 C 
BRANCH  23  24
ATOM     24  O   UNL     1      36.206   1.631  39.451  1.00  0.00    -0.394 OA
ATOM     25  H   UNL     1      36.649   1.218  40.238  1.00  0.00     0.210 HD
ENDBRANCH  23  24
ENDBRANCH   2  23
BRANCH   6  26
ATOM     26  O   UNL     1      37.232   2.348  43.915  1.00  0.00    -0.387 OA
ATOM     27  H   UNL     1      37.487   2.473  44.866  1.00  0.00     0.211 HD
ENDBRANCH   6  26
BRANCH   5  28
ATOM     28  O   UNL     1      36.363   4.658  45.149  1.00  0.00    -0.385 OA
ATOM     29  H   UNL     1      35.666   4.731  45.852  1.00  0.00     0.211 HD
ENDBRANCH   5  28
BRANCH   4  30
ATOM     30  O   UNL     1      37.686   4.880  42.680  1.00  0.00    -0.341 OA
BRANCH  30  31
ATOM     31  C   UNL     1      38.216   5.432  41.483  1.00  0.00     0.184 C 
ATOM     32  C   UNL     1      38.952   4.361  40.603  1.00  0.00     0.178 C 
ATOM     33  C   UNL     1      39.152   6.598  41.844  1.00  0.00     0.180 C 
ATOM     34  O   UNL     1      40.124   4.867  39.968  1.00  0.00    -0.342 OA
ATOM     35  C   UNL     1      39.797   7.213  40.575  1.00  0.00     0.201 C 
ATOM     36  C   UNL     1      39.933   6.168  39.438  1.00  0.00     0.279 C 
BRANCH  32  37
ATOM     37  C   UNL     1      39.347   3.103  41.402  1.00  0.00     0.191 C 
BRANCH  37  38
ATOM     38  O   UNL     1      40.026   3.462  42.576  1.00  0.00    -0.394 OA
ATOM     39  H   UNL     1      40.399   2.626  42.959  1.00  0.00     0.210 HD
ENDBRANCH  37  38
ENDBRANCH  32  37
BRANCH  33  40
ATOM     40  O   UNL     1      40.125   6.193  42.779  1.00  0.00    -0.387 OA
ATOM     41  H   UNL     1      40.244   6.921  43.442  1.00  0.00     0.211 HD
ENDBRANCH  33  40
BRANCH  35  42
ATOM     42  O   UNL     1      39.029   8.308  40.143  1.00  0.00    -0.385 OA
ATOM     43  H   UNL     1      39.605   8.835  39.528  1.00  0.00     0.211 HD
ENDBRANCH  35  42
BRANCH  36  44
ATOM     44  O   UNL     1      38.824   6.207  38.572  1.00  0.00    -0.366 OA
ATOM     45  H   UNL     1      39.022   5.571  37.835  1.00  0.00     0.213 HD
ENDBRANCH  36  44
ENDBRANCH  30  31
ENDBRANCH   4  30
TORSDOF 18
ENDMDL
