MODEL 1
REMARK VINA RESULT:    -2.203      0.000      0.000
REMARK INTER + INTRA:          -2.203
REMARK INTER:                  -2.203
REMARK INTRA:                   0.000
REMARK UNBOUND:                 0.000
REMARK SMILES CC(=O)[O-]
REMARK SMILES IDX 1 1 2 2 3 3 4 4
REMARK H PARENT
REMARK Flexibility Score: inf
ROOT
ATOM      1  C   UNL     1      23.577 -26.805  19.724  1.00  0.00     0.063 C 
ATOM      2  C   UNL     1      22.895 -25.480  19.654  1.00  0.00     0.038 C 
ATOM      3  O   UNL     1      21.661 -25.391  19.893  1.00  0.00    -0.550 OA
ATOM      4  O   UNL     1      23.606 -24.351  19.273  1.00  0.00    -0.550 OA
ENDROOT
TORSDOF 0
ENDMDL
MODEL 2
REMARK VINA RESULT:    -2.186      1.402      1.737
REMARK INTER + INTRA:          -2.186
REMARK INTER:                  -2.186
REMARK INTRA:                   0.000
REMARK UNBOUND:                 0.000
REMARK SMILES CC(=O)[O-]
REMARK SMILES IDX 1 1 2 2 3 3 4 4
REMARK H PARENT
REMARK Flexibility Score: inf
ROOT
ATOM      1  C   UNL     1      23.673 -24.311  19.908  1.00  0.00     0.063 C 
ATOM      2  C   UNL     1      22.848 -25.539  19.718  1.00  0.00     0.038 C 
ATOM      3  O   UNL     1      21.600 -25.493  19.882  1.00  0.00    -0.550 OA
ATOM      4  O   UNL     1      23.459 -26.747  19.411  1.00  0.00    -0.550 OA
ENDROOT
TORSDOF 0
ENDMDL
MODEL 3
REMARK VINA RESULT:    -2.173     11.489     11.892
REMARK INTER + INTRA:          -2.173
REMARK INTER:                  -2.173
REMARK INTRA:                   0.000
REMARK UNBOUND:                 0.000
REMARK SMILES CC(=O)[O-]
REMARK SMILES IDX 1 1 2 2 3 3 4 4
REMARK H PARENT
REMARK Flexibility Score: inf
ROOT
ATOM      1  C   UNL     1      11.196 -28.486  23.191  1.00  0.00     0.063 C 
ATOM      2  C   UNL     1      12.478 -28.666  23.933  1.00  0.00     0.038 C 
ATOM      3  O   UNL     1      12.959 -29.818  24.092  1.00  0.00    -0.550 OA
ATOM      4  O   UNL     1      13.115 -27.569  24.496  1.00  0.00    -0.550 OA
ENDROOT
TORSDOF 0
ENDMDL
MODEL 4
REMARK VINA RESULT:    -2.156      1.458      2.052
REMARK INTER + INTRA:          -2.156
REMARK INTER:                  -2.156
REMARK INTRA:                   0.000
REMARK UNBOUND:                 0.000
REMARK SMILES CC(=O)[O-]
REMARK SMILES IDX 1 1 2 2 3 3 4 4
REMARK H PARENT
REMARK Flexibility Score: inf
ROOT
ATOM      1  C   UNL     1      21.404 -25.688  20.115  1.00  0.00     0.063 C 
ATOM      2  C   UNL     1      22.824 -25.720  19.656  1.00  0.00     0.038 C 
ATOM      3  O   UNL     1      23.426 -24.647  19.392  1.00  0.00    -0.550 OA
ATOM      4  O   UNL     1      23.466 -26.936  19.468  1.00  0.00    -0.550 OA
ENDROOT
TORSDOF 0
ENDMDL
MODEL 5
REMARK VINA RESULT:    -2.149      1.381      1.678
REMARK INTER + INTRA:          -2.149
REMARK INTER:                  -2.149
REMARK INTRA:                   0.000
REMARK UNBOUND:                 0.000
REMARK SMILES CC(=O)[O-]
REMARK SMILES IDX 1 1 2 2 3 3 4 4
REMARK H PARENT
REMARK Flexibility Score: inf
ROOT
ATOM      1  C   UNL     1      21.477 -25.653  20.146  1.00  0.00     0.063 C 
ATOM      2  C   UNL     1      22.882 -25.600  19.647  1.00  0.00     0.038 C 
ATOM      3  O   UNL     1      23.494 -26.666  19.371  1.00  0.00    -0.550 OA
ATOM      4  O   UNL     1      23.536 -24.381  19.537  1.00  0.00    -0.550 OA
ENDROOT
TORSDOF 0
ENDMDL
MODEL 6
REMARK VINA RESULT:    -2.111     18.335     18.607
REMARK INTER + INTRA:          -2.111
REMARK INTER:                  -2.111
REMARK INTRA:                   0.000
REMARK UNBOUND:                 0.000
REMARK SMILES CC(=O)[O-]
REMARK SMILES IDX 1 1 2 2 3 3 4 4
REMARK H PARENT
REMARK Flexibility Score: inf
ROOT
ATOM      1  C   UNL     1      23.669 -36.593  33.352  1.00  0.00     0.063 C 
ATOM      2  C   UNL     1      22.997 -36.347  34.662  1.00  0.00     0.038 C 
ATOM      3  O   UNL     1      23.621 -35.776  35.594  1.00  0.00    -0.550 OA
ATOM      4  O   UNL     1      21.701 -36.796  34.873  1.00  0.00    -0.550 OA
ENDROOT
TORSDOF 0
ENDMDL
MODEL 7
REMARK VINA RESULT:    -2.091     11.635     12.036
REMARK INTER + INTRA:          -2.091
REMARK INTER:                  -2.091
REMARK INTRA:                   0.000
REMARK UNBOUND:                 0.000
REMARK SMILES CC(=O)[O-]
REMARK SMILES IDX 1 1 2 2 3 3 4 4
REMARK H PARENT
REMARK Flexibility Score: inf
ROOT
ATOM      1  C   UNL     1      13.009 -30.131  23.287  1.00  0.00     0.063 C 
ATOM      2  C   UNL     1      12.236 -28.919  23.687  1.00  0.00     0.038 C 
ATOM      3  O   UNL     1      12.666 -28.170  24.603  1.00  0.00    -0.550 OA
ATOM      4  O   UNL     1      11.014 -28.644  23.088  1.00  0.00    -0.550 OA
ENDROOT
TORSDOF 0
ENDMDL
MODEL 8
REMARK VINA RESULT:    -2.060     11.719     11.890
REMARK INTER + INTRA:          -2.060
REMARK INTER:                  -2.060
REMARK INTRA:                   0.000
REMARK UNBOUND:                 0.000
REMARK SMILES CC(=O)[O-]
REMARK SMILES IDX 1 1 2 2 3 3 4 4
REMARK H PARENT
REMARK Flexibility Score: inf
ROOT
ATOM      1  C   UNL     1      12.539 -28.834  23.849  1.00  0.00     0.063 C 
ATOM      2  C   UNL     1      12.856 -30.190  23.314  1.00  0.00     0.038 C 
ATOM      3  O   UNL     1      13.678 -30.930  23.915  1.00  0.00    -0.550 OA
ATOM      4  O   UNL     1      12.285 -30.619  22.124  1.00  0.00    -0.550 OA
ENDROOT
TORSDOF 0
ENDMDL
MODEL 9
REMARK VINA RESULT:    -0.869     15.769     16.291
REMARK INTER + INTRA:          -0.869
REMARK INTER:                  -0.869
REMARK INTRA:                   0.000
REMARK UNBOUND:                 0.000
REMARK SMILES CC(=O)[O-]
REMARK SMILES IDX 1 1 2 2 3 3 4 4
REMARK H PARENT
REMARK Flexibility Score: inf
ROOT
ATOM      1  C   UNL     1      15.923 -38.125  27.815  1.00  0.00     0.063 C 
ATOM      2  C   UNL     1      17.167 -37.789  28.568  1.00  0.00     0.038 C 
ATOM      3  O   UNL     1      17.173 -37.828  29.827  1.00  0.00    -0.550 OA
ATOM      4  O   UNL     1      18.304 -37.381  27.886  1.00  0.00    -0.550 OA
ENDROOT
TORSDOF 0
ENDMDL
