MODEL 1
REMARK VINA RESULT:    -4.259      0.000      0.000
REMARK INTER + INTRA:         -14.150
REMARK INTER:                  -9.737
REMARK INTRA:                  -4.413
REMARK UNBOUND:                -4.413
REMARK SMILES CCCCCCCCCCCCCCCCCCCCCCCC(=O)[O-]
REMARK SMILES IDX 13 1 14 2 15 3 16 4 17 5 18 6 19 7 20 8 21 9 22 10 23 11
REMARK SMILES IDX 24 12 25 13 26 14 12 15 11 16 10 17 9 18 8 19 7 20 6 21 5 22
REMARK SMILES IDX 4 23 3 24 2 25 1 26
REMARK H PARENT
REMARK Flexibility Score: inf
ROOT
ATOM      1  C   UNL     1       6.367   4.560  18.498  1.00  0.00     0.000 C 
ENDROOT
BRANCH   1   2
ATOM      2  C   UNL     1       6.538   6.082  18.381  1.00  0.00     0.000 C 
BRANCH   2   3
ATOM      3  C   UNL     1       6.169   6.616  16.985  1.00  0.00     0.000 C 
BRANCH   3   4
ATOM      4  C   UNL     1       6.274   5.540  15.892  1.00  0.00     0.000 C 
BRANCH   4   5
ATOM      5  C   UNL     1       7.647   5.537  15.195  1.00  0.00     0.000 C 
BRANCH   5   6
ATOM      6  C   UNL     1       8.337   4.164  15.253  1.00  0.00     0.000 C 
BRANCH   6   7
ATOM      7  C   UNL     1       9.661   4.204  16.035  1.00  0.00     0.000 C 
BRANCH   7   8
ATOM      8  C   UNL     1       9.898   5.554  16.736  1.00  0.00     0.000 C 
BRANCH   8   9
ATOM      9  C   UNL     1      11.078   6.383  16.185  1.00  0.00     0.000 C 
BRANCH   9  10
ATOM     10  C   UNL     1      11.427   6.125  14.708  1.00  0.00     0.006 C 
BRANCH  10  11
ATOM     11  C   UNL     1      10.616   6.999  13.743  1.00  0.00     0.053 C 
BRANCH  11  12
ATOM     12  C   UNL     1      10.510   6.341  12.402  1.00  0.00     0.041 C 
ATOM     13  O   UNL     1      11.497   6.330  11.620  1.00  0.00    -0.550 OA
ATOM     14  O   UNL     1       9.322   5.729  12.021  1.00  0.00    -0.550 OA
ENDBRANCH  11  12
ENDBRANCH  10  11
ENDBRANCH   9  10
ENDBRANCH   8   9
ENDBRANCH   7   8
ENDBRANCH   6   7
ENDBRANCH   5   6
ENDBRANCH   4   5
ENDBRANCH   3   4
ENDBRANCH   2   3
ENDBRANCH   1   2
BRANCH   1  15
ATOM     15  C   UNL     1       7.561   3.884  19.197  1.00  0.00     0.000 C 
BRANCH  15  16
ATOM     16  C   UNL     1       7.142   2.677  20.053  1.00  0.00     0.000 C 
BRANCH  16  17
ATOM     17  C   UNL     1       5.632   2.573  20.341  1.00  0.00     0.000 C 
BRANCH  17  18
ATOM     18  C   UNL     1       5.296   2.319  21.827  1.00  0.00    -0.000 C 
BRANCH  18  19
ATOM     19  C   UNL     1       4.665   3.549  22.502  1.00  0.00    -0.000 C 
BRANCH  19  20
ATOM     20  C   UNL     1       4.252   4.630  21.478  1.00  0.00    -0.000 C 
BRANCH  20  21
ATOM     21  C   UNL     1       4.981   5.971  21.665  1.00  0.00    -0.000 C 
BRANCH  21  22
ATOM     22  C   UNL     1       6.114   5.899  22.699  1.00  0.00    -0.000 C 
BRANCH  22  23
ATOM     23  C   UNL     1       7.484   6.081  22.030  1.00  0.00    -0.000 C 
BRANCH  23  24
ATOM     24  C   UNL     1       8.562   5.147  22.606  1.00  0.00    -0.000 C 
BRANCH  24  25
ATOM     25  C   UNL     1       8.111   4.303  23.812  1.00  0.00    -0.003 C 
ATOM     26  C   UNL     1       8.369   2.808  23.624  1.00  0.00     0.004 C 
ENDBRANCH  24  25
ENDBRANCH  23  24
ENDBRANCH  22  23
ENDBRANCH  21  22
ENDBRANCH  20  21
ENDBRANCH  19  20
ENDBRANCH  18  19
ENDBRANCH  17  18
ENDBRANCH  16  17
ENDBRANCH  15  16
ENDBRANCH   1  15
TORSDOF 22
ENDMDL
MODEL 2
REMARK VINA RESULT:    -4.188      3.242      8.382
REMARK INTER + INTRA:         -13.986
REMARK INTER:                 -10.244
REMARK INTRA:                  -3.742
REMARK UNBOUND:                -4.413
REMARK SMILES CCCCCCCCCCCCCCCCCCCCCCCC(=O)[O-]
REMARK SMILES IDX 13 1 14 2 15 3 16 4 17 5 18 6 19 7 20 8 21 9 22 10 23 11
REMARK SMILES IDX 24 12 25 13 26 14 12 15 11 16 10 17 9 18 8 19 7 20 6 21 5 22
REMARK SMILES IDX 4 23 3 24 2 25 1 26
REMARK H PARENT
REMARK Flexibility Score: inf
ROOT
ATOM      1  C   UNL     1       6.005   6.731  16.629  1.00  0.00     0.000 C 
ENDROOT
BRANCH   1   2
ATOM      2  C   UNL     1       6.482   6.744  18.090  1.00  0.00     0.000 C 
BRANCH   2   3
ATOM      3  C   UNL     1       6.276   5.391  18.794  1.00  0.00     0.000 C 
BRANCH   3   4
ATOM      4  C   UNL     1       7.570   4.842  19.415  1.00  0.00     0.000 C 
BRANCH   4   5
ATOM      5  C   UNL     1       7.424   3.388  19.896  1.00  0.00     0.000 C 
BRANCH   5   6
ATOM      6  C   UNL     1       5.980   2.871  19.787  1.00  0.00     0.000 C 
BRANCH   6   7
ATOM      7  C   UNL     1       5.351   2.590  21.162  1.00  0.00     0.000 C 
BRANCH   7   8
ATOM      8  C   UNL     1       4.473   3.751  21.664  1.00  0.00     0.000 C 
BRANCH   8   9
ATOM      9  C   UNL     1       5.191   4.776  22.565  1.00  0.00     0.000 C 
BRANCH   9  10
ATOM     10  C   UNL     1       5.201   6.222  22.035  1.00  0.00     0.006 C 
BRANCH  10  11
ATOM     11  C   UNL     1       6.564   6.908  22.199  1.00  0.00     0.053 C 
BRANCH  11  12
ATOM     12  C   UNL     1       6.443   8.380  21.962  1.00  0.00     0.041 C 
ATOM     13  O   UNL     1       7.234   8.965  21.175  1.00  0.00    -0.550 OA
ATOM     14  O   UNL     1       5.447   9.108  22.603  1.00  0.00    -0.550 OA
ENDBRANCH  11  12
ENDBRANCH  10  11
ENDBRANCH   9  10
ENDBRANCH   8   9
ENDBRANCH   7   8
ENDBRANCH   6   7
ENDBRANCH   5   6
ENDBRANCH   4   5
ENDBRANCH   3   4
ENDBRANCH   2   3
ENDBRANCH   1   2
BRANCH   1  15
ATOM     15  C   UNL     1       6.030   5.320  16.013  1.00  0.00     0.000 C 
BRANCH  15  16
ATOM     16  C   UNL     1       7.272   5.075  15.139  1.00  0.00     0.000 C 
BRANCH  16  17
ATOM     17  C   UNL     1       8.467   4.432  15.870  1.00  0.00     0.000 C 
BRANCH  17  18
ATOM     18  C   UNL     1       9.489   5.453  16.415  1.00  0.00    -0.000 C 
BRANCH  18  19
ATOM     19  C   UNL     1       9.557   6.728  15.554  1.00  0.00    -0.000 C 
BRANCH  19  20
ATOM     20  C   UNL     1      11.008   7.100  15.175  1.00  0.00    -0.000 C 
BRANCH  20  21
ATOM     21  C   UNL     1      11.999   5.929  15.294  1.00  0.00    -0.000 C 
BRANCH  21  22
ATOM     22  C   UNL     1      12.135   5.124  13.994  1.00  0.00    -0.000 C 
BRANCH  22  23
ATOM     23  C   UNL     1      11.968   6.028  12.764  1.00  0.00    -0.000 C 
BRANCH  23  24
ATOM     24  C   UNL     1      10.998   5.447  11.720  1.00  0.00    -0.000 C 
BRANCH  24  25
ATOM     25  C   UNL     1       9.513   5.482  12.124  1.00  0.00    -0.003 C 
ATOM     26  C   UNL     1       8.851   4.105  12.083  1.00  0.00     0.004 C 
ENDBRANCH  24  25
ENDBRANCH  23  24
ENDBRANCH  22  23
ENDBRANCH  21  22
ENDBRANCH  20  21
ENDBRANCH  19  20
ENDBRANCH  18  19
ENDBRANCH  17  18
ENDBRANCH  16  17
ENDBRANCH  15  16
ENDBRANCH   1  15
TORSDOF 22
ENDMDL
MODEL 3
REMARK VINA RESULT:    -4.150      3.266      8.297
REMARK INTER + INTRA:         -13.899
REMARK INTER:                 -10.121
REMARK INTRA:                  -3.779
REMARK UNBOUND:                -4.413
REMARK SMILES CCCCCCCCCCCCCCCCCCCCCCCC(=O)[O-]
REMARK SMILES IDX 13 1 14 2 15 3 16 4 17 5 18 6 19 7 20 8 21 9 22 10 23 11
REMARK SMILES IDX 24 12 25 13 26 14 12 15 11 16 10 17 9 18 8 19 7 20 6 21 5 22
REMARK SMILES IDX 4 23 3 24 2 25 1 26
REMARK H PARENT
REMARK Flexibility Score: inf
ROOT
ATOM      1  C   UNL     1       6.339   5.970  19.005  1.00  0.00     0.000 C 
ENDROOT
BRANCH   1   2
ATOM      2  C   UNL     1       7.663   5.418  19.556  1.00  0.00     0.000 C 
BRANCH   2   3
ATOM      3  C   UNL     1       7.628   3.895  19.771  1.00  0.00     0.000 C 
BRANCH   3   4
ATOM      4  C   UNL     1       6.292   3.266  19.345  1.00  0.00     0.000 C 
BRANCH   4   5
ATOM      5  C   UNL     1       5.582   2.546  20.505  1.00  0.00     0.000 C 
BRANCH   5   6
ATOM      6  C   UNL     1       4.754   3.504  21.378  1.00  0.00     0.000 C 
BRANCH   6   7
ATOM      7  C   UNL     1       4.876   3.186  22.878  1.00  0.00     0.000 C 
BRANCH   7   8
ATOM      8  C   UNL     1       5.273   4.415  23.717  1.00  0.00     0.000 C 
BRANCH   8   9
ATOM      9  C   UNL     1       6.309   5.352  23.061  1.00  0.00     0.000 C 
BRANCH   9  10
ATOM     10  C   UNL     1       6.098   6.853  23.330  1.00  0.00     0.006 C 
BRANCH  10  11
ATOM     11  C   UNL     1       5.734   7.640  22.065  1.00  0.00     0.053 C 
BRANCH  11  12
ATOM     12  C   UNL     1       6.628   8.829  21.910  1.00  0.00     0.041 C 
ATOM     13  O   UNL     1       7.595   8.797  21.102  1.00  0.00    -0.550 OA
ATOM     14  O   UNL     1       6.388   9.981  22.650  1.00  0.00    -0.550 OA
ENDBRANCH  11  12
ENDBRANCH  10  11
ENDBRANCH   9  10
ENDBRANCH   8   9
ENDBRANCH   7   8
ENDBRANCH   6   7
ENDBRANCH   5   6
ENDBRANCH   4   5
ENDBRANCH   3   4
ENDBRANCH   2   3
ENDBRANCH   1   2
BRANCH   1  15
ATOM     15  C   UNL     1       6.550   7.124  18.008  1.00  0.00     0.000 C 
BRANCH  15  16
ATOM     16  C   UNL     1       6.068   6.778  16.589  1.00  0.00     0.000 C 
BRANCH  16  17
ATOM     17  C   UNL     1       6.253   5.305  16.177  1.00  0.00     0.000 C 
BRANCH  17  18
ATOM     18  C   UNL     1       7.379   5.083  15.143  1.00  0.00    -0.000 C 
BRANCH  18  19
ATOM     19  C   UNL     1       8.649   4.489  15.780  1.00  0.00    -0.000 C 
BRANCH  19  20
ATOM     20  C   UNL     1       9.625   5.583  16.265  1.00  0.00    -0.000 C 
BRANCH  20  21
ATOM     21  C   UNL     1       9.626   6.846  15.388  1.00  0.00    -0.000 C 
BRANCH  21  22
ATOM     22  C   UNL     1      10.754   6.852  14.346  1.00  0.00    -0.000 C 
BRANCH  22  23
ATOM     23  C   UNL     1      10.208   6.567  12.939  1.00  0.00    -0.000 C 
BRANCH  23  24
ATOM     24  C   UNL     1      10.980   5.453  12.210  1.00  0.00    -0.000 C 
BRANCH  24  25
ATOM     25  C   UNL     1      10.209   4.131  12.047  1.00  0.00    -0.003 C 
ATOM     26  C   UNL     1       8.704   4.336  11.875  1.00  0.00     0.004 C 
ENDBRANCH  24  25
ENDBRANCH  23  24
ENDBRANCH  22  23
ENDBRANCH  21  22
ENDBRANCH  20  21
ENDBRANCH  19  20
ENDBRANCH  18  19
ENDBRANCH  17  18
ENDBRANCH  16  17
ENDBRANCH  15  16
ENDBRANCH   1  15
TORSDOF 22
ENDMDL
MODEL 4
REMARK VINA RESULT:    -4.102      3.402      8.361
REMARK INTER + INTRA:         -13.792
REMARK INTER:                  -9.958
REMARK INTRA:                  -3.833
REMARK UNBOUND:                -4.413
REMARK SMILES CCCCCCCCCCCCCCCCCCCCCCCC(=O)[O-]
REMARK SMILES IDX 13 1 14 2 15 3 16 4 17 5 18 6 19 7 20 8 21 9 22 10 23 11
REMARK SMILES IDX 24 12 25 13 26 14 12 15 11 16 10 17 9 18 8 19 7 20 6 21 5 22
REMARK SMILES IDX 4 23 3 24 2 25 1 26
REMARK H PARENT
REMARK Flexibility Score: inf
ROOT
ATOM      1  C   UNL     1       6.377   6.997  18.155  1.00  0.00     0.000 C 
ENDROOT
BRANCH   1   2
ATOM      2  C   UNL     1       6.729   5.906  19.178  1.00  0.00     0.000 C 
BRANCH   2   3
ATOM      3  C   UNL     1       6.245   4.511  18.749  1.00  0.00     0.000 C 
BRANCH   3   4
ATOM      4  C   UNL     1       6.920   3.378  19.539  1.00  0.00     0.000 C 
BRANCH   4   5
ATOM      5  C   UNL     1       5.915   2.327  20.042  1.00  0.00     0.000 C 
BRANCH   5   6
ATOM      6  C   UNL     1       5.447   2.598  21.482  1.00  0.00     0.000 C 
BRANCH   6   7
ATOM      7  C   UNL     1       4.401   3.724  21.558  1.00  0.00     0.000 C 
BRANCH   7   8
ATOM      8  C   UNL     1       4.897   4.946  22.353  1.00  0.00     0.000 C 
BRANCH   8   9
ATOM      9  C   UNL     1       6.169   4.711  23.194  1.00  0.00     0.000 C 
BRANCH   9  10
ATOM     10  C   UNL     1       7.326   5.689  22.920  1.00  0.00     0.006 C 
BRANCH  10  11
ATOM     11  C   UNL     1       8.540   5.010  22.273  1.00  0.00     0.053 C 
BRANCH  11  12
ATOM     12  C   UNL     1       8.954   3.808  23.063  1.00  0.00     0.041 C 
ATOM     13  O   UNL     1       9.358   3.936  24.249  1.00  0.00    -0.550 OA
ATOM     14  O   UNL     1       8.883   2.543  22.493  1.00  0.00    -0.550 OA
ENDBRANCH  11  12
ENDBRANCH  10  11
ENDBRANCH   9  10
ENDBRANCH   8   9
ENDBRANCH   7   8
ENDBRANCH   6   7
ENDBRANCH   5   6
ENDBRANCH   4   5
ENDBRANCH   3   4
ENDBRANCH   2   3
ENDBRANCH   1   2
BRANCH   1  15
ATOM     15  C   UNL     1       6.075   6.422  16.760  1.00  0.00     0.000 C 
BRANCH  15  16
ATOM     16  C   UNL     1       7.326   6.335  15.869  1.00  0.00     0.000 C 
BRANCH  16  17
ATOM     17  C   UNL     1       7.659   4.924  15.347  1.00  0.00     0.000 C 
BRANCH  17  18
ATOM     18  C   UNL     1       8.892   4.283  16.023  1.00  0.00    -0.000 C 
BRANCH  18  19
ATOM     19  C   UNL     1       9.704   5.302  16.842  1.00  0.00    -0.000 C 
BRANCH  19  20
ATOM     20  C   UNL     1      10.994   5.741  16.114  1.00  0.00    -0.000 C 
BRANCH  20  21
ATOM     21  C   UNL     1      10.886   7.118  15.438  1.00  0.00    -0.000 C 
BRANCH  21  22
ATOM     22  C   UNL     1      10.525   7.029  13.948  1.00  0.00    -0.000 C 
BRANCH  22  23
ATOM     23  C   UNL     1      11.449   6.045  13.215  1.00  0.00    -0.000 C 
BRANCH  23  24
ATOM     24  C   UNL     1      10.733   5.271  12.094  1.00  0.00    -0.000 C 
BRANCH  24  25
ATOM     25  C   UNL     1       9.208   5.475  12.038  1.00  0.00    -0.003 C 
ATOM     26  C   UNL     1       8.438   4.169  11.841  1.00  0.00     0.004 C 
ENDBRANCH  24  25
ENDBRANCH  23  24
ENDBRANCH  22  23
ENDBRANCH  21  22
ENDBRANCH  20  21
ENDBRANCH  19  20
ENDBRANCH  18  19
ENDBRANCH  17  18
ENDBRANCH  16  17
ENDBRANCH  15  16
ENDBRANCH   1  15
TORSDOF 22
ENDMDL
MODEL 5
REMARK VINA RESULT:    -4.071      4.078      8.037
REMARK INTER + INTRA:         -13.720
REMARK INTER:                 -10.559
REMARK INTRA:                  -3.161
REMARK UNBOUND:                -4.413
REMARK SMILES CCCCCCCCCCCCCCCCCCCCCCCC(=O)[O-]
REMARK SMILES IDX 13 1 14 2 15 3 16 4 17 5 18 6 19 7 20 8 21 9 22 10 23 11
REMARK SMILES IDX 24 12 25 13 26 14 12 15 11 16 10 17 9 18 8 19 7 20 6 21 5 22
REMARK SMILES IDX 4 23 3 24 2 25 1 26
REMARK H PARENT
REMARK Flexibility Score: inf
ROOT
ATOM      1  C   UNL     1       6.082   3.500  19.375  1.00  0.00     0.000 C 
ENDROOT
BRANCH   1   2
ATOM      2  C   UNL     1       6.006   2.276  20.301  1.00  0.00     0.000 C 
BRANCH   2   3
ATOM      3  C   UNL     1       5.392   2.607  21.673  1.00  0.00     0.000 C 
BRANCH   3   4
ATOM      4  C   UNL     1       4.483   3.846  21.634  1.00  0.00     0.000 C 
BRANCH   4   5
ATOM      5  C   UNL     1       4.885   4.907  22.674  1.00  0.00     0.000 C 
BRANCH   5   6
ATOM      6  C   UNL     1       6.384   4.860  23.017  1.00  0.00     0.000 C 
BRANCH   6   7
ATOM      7  C   UNL     1       7.174   6.004  22.356  1.00  0.00     0.000 C 
BRANCH   7   8
ATOM      8  C   UNL     1       6.325   7.272  22.151  1.00  0.00     0.000 C 
BRANCH   8   9
ATOM      9  C   UNL     1       6.984   8.372  21.292  1.00  0.00     0.000 C 
BRANCH   9  10
ATOM     10  C   UNL     1       7.825   9.398  22.074  1.00  0.00     0.006 C 
BRANCH  10  11
ATOM     11  C   UNL     1       7.449  10.849  21.747  1.00  0.00     0.053 C 
BRANCH  11  12
ATOM     12  C   UNL     1       6.446  11.367  22.730  1.00  0.00     0.041 C 
ATOM     13  O   UNL     1       6.677  12.422  23.378  1.00  0.00    -0.550 OA
ATOM     14  O   UNL     1       5.248  10.689  22.922  1.00  0.00    -0.550 OA
ENDBRANCH  11  12
ENDBRANCH  10  11
ENDBRANCH   9  10
ENDBRANCH   8   9
ENDBRANCH   7   8
ENDBRANCH   6   7
ENDBRANCH   5   6
ENDBRANCH   4   5
ENDBRANCH   3   4
ENDBRANCH   2   3
ENDBRANCH   1   2
BRANCH   1  15
ATOM     15  C   UNL     1       7.530   3.951  19.113  1.00  0.00     0.000 C 
BRANCH  15  16
ATOM     16  C   UNL     1       7.646   5.466  18.870  1.00  0.00     0.000 C 
BRANCH  16  17
ATOM     17  C   UNL     1       6.320   6.176  18.533  1.00  0.00     0.000 C 
BRANCH  17  18
ATOM     18  C   UNL     1       6.366   6.996  17.224  1.00  0.00    -0.000 C 
BRANCH  18  19
ATOM     19  C   UNL     1       7.424   6.465  16.239  1.00  0.00    -0.000 C 
BRANCH  19  20
ATOM     20  C   UNL     1       6.927   5.227  15.460  1.00  0.00    -0.000 C 
BRANCH  20  21
ATOM     21  C   UNL     1       8.060   4.333  14.930  1.00  0.00    -0.000 C 
BRANCH  21  22
ATOM     22  C   UNL     1       8.631   4.819  13.590  1.00  0.00    -0.000 C 
BRANCH  22  23
ATOM     23  C   UNL     1      10.111   5.203  13.727  1.00  0.00    -0.000 C 
BRANCH  23  24
ATOM     24  C   UNL     1      10.327   6.719  13.879  1.00  0.00    -0.000 C 
BRANCH  24  25
ATOM     25  C   UNL     1      10.863   7.163  15.252  1.00  0.00    -0.003 C 
ATOM     26  C   UNL     1      11.136   5.990  16.194  1.00  0.00     0.004 C 
ENDBRANCH  24  25
ENDBRANCH  23  24
ENDBRANCH  22  23
ENDBRANCH  21  22
ENDBRANCH  20  21
ENDBRANCH  19  20
ENDBRANCH  18  19
ENDBRANCH  17  18
ENDBRANCH  16  17
ENDBRANCH  15  16
ENDBRANCH   1  15
TORSDOF 22
ENDMDL
MODEL 6
REMARK VINA RESULT:    -4.068      3.992      7.656
REMARK INTER + INTRA:         -13.713
REMARK INTER:                  -9.321
REMARK INTRA:                  -4.393
REMARK UNBOUND:                -4.413
REMARK SMILES CCCCCCCCCCCCCCCCCCCCCCCC(=O)[O-]
REMARK SMILES IDX 13 1 14 2 15 3 16 4 17 5 18 6 19 7 20 8 21 9 22 10 23 11
REMARK SMILES IDX 24 12 25 13 26 14 12 15 11 16 10 17 9 18 8 19 7 20 6 21 5 22
REMARK SMILES IDX 4 23 3 24 2 25 1 26
REMARK H PARENT
REMARK Flexibility Score: inf
ROOT
ATOM      1  C   UNL     1       4.434   3.931  21.483  1.00  0.00     0.000 C 
ENDROOT
BRANCH   1   2
ATOM      2  C   UNL     1       5.017   5.017  22.401  1.00  0.00     0.000 C 
BRANCH   2   3
ATOM      3  C   UNL     1       6.004   4.451  23.437  1.00  0.00     0.000 C 
BRANCH   3   4
ATOM      4  C   UNL     1       6.229   5.402  24.624  1.00  0.00     0.000 C 
BRANCH   4   5
ATOM      5  C   UNL     1       7.660   5.967  24.665  1.00  0.00     0.000 C 
BRANCH   5   6
ATOM      6  C   UNL     1       8.566   5.362  23.580  1.00  0.00     0.000 C 
BRANCH   6   7
ATOM      7  C   UNL     1       9.156   6.432  22.643  1.00  0.00     0.000 C 
BRANCH   7   8
ATOM      8  C   UNL     1       8.473   7.803  22.800  1.00  0.00     0.000 C 
BRANCH   8   9
ATOM      9  C   UNL     1       7.715   8.307  21.555  1.00  0.00     0.000 C 
BRANCH   9  10
ATOM     10  C   UNL     1       6.202   8.514  21.747  1.00  0.00     0.006 C 
BRANCH  10  11
ATOM     11  C   UNL     1       5.824   8.842  23.198  1.00  0.00     0.053 C 
BRANCH  11  12
ATOM     12  C   UNL     1       5.233  10.214  23.290  1.00  0.00     0.041 C 
ATOM     13  O   UNL     1       4.167  10.404  23.934  1.00  0.00    -0.550 OA
ATOM     14  O   UNL     1       5.866  11.286  22.673  1.00  0.00    -0.550 OA
ENDBRANCH  11  12
ENDBRANCH  10  11
ENDBRANCH   9  10
ENDBRANCH   8   9
ENDBRANCH   7   8
ENDBRANCH   6   7
ENDBRANCH   5   6
ENDBRANCH   4   5
ENDBRANCH   3   4
ENDBRANCH   2   3
ENDBRANCH   1   2
BRANCH   1  15
ATOM     15  C   UNL     1       5.197   2.598  21.587  1.00  0.00     0.000 C 
BRANCH  15  16
ATOM     16  C   UNL     1       5.966   2.252  20.300  1.00  0.00     0.000 C 
BRANCH  16  17
ATOM     17  C   UNL     1       7.451   2.666  20.295  1.00  0.00     0.000 C 
BRANCH  17  18
ATOM     18  C   UNL     1       7.808   3.696  19.202  1.00  0.00    -0.000 C 
BRANCH  18  19
ATOM     19  C   UNL     1       7.484   5.139  19.630  1.00  0.00    -0.000 C 
BRANCH  19  20
ATOM     20  C   UNL     1       6.239   5.698  18.906  1.00  0.00    -0.000 C 
BRANCH  20  21
ATOM     21  C   UNL     1       6.454   7.088  18.286  1.00  0.00    -0.000 C 
BRANCH  21  22
ATOM     22  C   UNL     1       6.346   7.085  16.754  1.00  0.00    -0.000 C 
BRANCH  22  23
ATOM     23  C   UNL     1       6.223   5.654  16.212  1.00  0.00    -0.000 C 
BRANCH  23  24
ATOM     24  C   UNL     1       7.442   5.221  15.378  1.00  0.00    -0.000 C 
BRANCH  24  25
ATOM     25  C   UNL     1       8.713   6.060  15.605  1.00  0.00    -0.003 C 
ATOM     26  C   UNL     1       9.701   5.399  16.565  1.00  0.00     0.004 C 
ENDBRANCH  24  25
ENDBRANCH  23  24
ENDBRANCH  22  23
ENDBRANCH  21  22
ENDBRANCH  20  21
ENDBRANCH  19  20
ENDBRANCH  18  19
ENDBRANCH  17  18
ENDBRANCH  16  17
ENDBRANCH  15  16
ENDBRANCH   1  15
TORSDOF 22
ENDMDL
MODEL 7
REMARK VINA RESULT:    -4.066      3.083      8.047
REMARK INTER + INTRA:         -13.708
REMARK INTER:                 -10.087
REMARK INTRA:                  -3.621
REMARK UNBOUND:                -4.413
REMARK SMILES CCCCCCCCCCCCCCCCCCCCCCCC(=O)[O-]
REMARK SMILES IDX 13 1 14 2 15 3 16 4 17 5 18 6 19 7 20 8 21 9 22 10 23 11
REMARK SMILES IDX 24 12 25 13 26 14 12 15 11 16 10 17 9 18 8 19 7 20 6 21 5 22
REMARK SMILES IDX 4 23 3 24 2 25 1 26
REMARK H PARENT
REMARK Flexibility Score: inf
ROOT
ATOM      1  C   UNL     1      10.485   5.641  17.506  1.00  0.00     0.000 C 
ENDROOT
BRANCH   1   2
ATOM      2  C   UNL     1      10.310   4.169  17.102  1.00  0.00     0.000 C 
BRANCH   2   3
ATOM      3  C   UNL     1       9.137   3.489  17.830  1.00  0.00     0.000 C 
BRANCH   3   4
ATOM      4  C   UNL     1       9.192   3.679  19.354  1.00  0.00     0.000 C 
BRANCH   4   5
ATOM      5  C   UNL     1       7.833   4.090  19.948  1.00  0.00     0.000 C 
BRANCH   5   6
ATOM      6  C   UNL     1       6.646   3.481  19.183  1.00  0.00     0.000 C 
BRANCH   6   7
ATOM      7  C   UNL     1       5.943   2.367  19.979  1.00  0.00     0.000 C 
BRANCH   7   8
ATOM      8  C   UNL     1       5.544   2.811  21.398  1.00  0.00     0.000 C 
BRANCH   8   9
ATOM      9  C   UNL     1       4.449   3.896  21.465  1.00  0.00     0.000 C 
BRANCH   9  10
ATOM     10  C   UNL     1       4.890   5.235  22.082  1.00  0.00     0.006 C 
BRANCH  10  11
ATOM     11  C   UNL     1       5.086   6.339  21.034  1.00  0.00     0.053 C 
BRANCH  11  12
ATOM     12  C   UNL     1       6.262   7.195  21.386  1.00  0.00     0.041 C 
ATOM     13  O   UNL     1       6.729   8.009  20.546  1.00  0.00    -0.550 OA
ATOM     14  O   UNL     1       6.836   7.103  22.648  1.00  0.00    -0.550 OA
ENDBRANCH  11  12
ENDBRANCH  10  11
ENDBRANCH   9  10
ENDBRANCH   8   9
ENDBRANCH   7   8
ENDBRANCH   6   7
ENDBRANCH   5   6
ENDBRANCH   4   5
ENDBRANCH   3   4
ENDBRANCH   2   3
ENDBRANCH   1   2
BRANCH   1  15
ATOM     15  C   UNL     1      11.519   6.373  16.632  1.00  0.00     0.000 C 
BRANCH  15  16
ATOM     16  C   UNL     1      10.897   6.992  15.368  1.00  0.00     0.000 C 
BRANCH  16  17
ATOM     17  C   UNL     1      11.252   6.277  14.049  1.00  0.00     0.000 C 
BRANCH  17  18
ATOM     18  C   UNL     1      10.422   6.756  12.838  1.00  0.00    -0.000 C 
BRANCH  18  19
ATOM     19  C   UNL     1       9.424   5.688  12.354  1.00  0.00    -0.000 C 
BRANCH  19  20
ATOM     20  C   UNL     1       9.580   4.355  13.118  1.00  0.00    -0.000 C 
BRANCH  20  21
ATOM     21  C   UNL     1       8.305   3.911  13.855  1.00  0.00    -0.000 C 
BRANCH  21  22
ATOM     22  C   UNL     1       7.737   4.998  14.778  1.00  0.00    -0.000 C 
BRANCH  22  23
ATOM     23  C   UNL     1       6.417   4.544  15.419  1.00  0.00    -0.000 C 
BRANCH  23  24
ATOM     24  C   UNL     1       5.695   5.676  16.171  1.00  0.00    -0.000 C 
BRANCH  24  25
ATOM     25  C   UNL     1       6.592   6.511  17.102  1.00  0.00    -0.003 C 
ATOM     26  C   UNL     1       6.440   8.017  16.884  1.00  0.00     0.004 C 
ENDBRANCH  24  25
ENDBRANCH  23  24
ENDBRANCH  22  23
ENDBRANCH  21  22
ENDBRANCH  20  21
ENDBRANCH  19  20
ENDBRANCH  18  19
ENDBRANCH  17  18
ENDBRANCH  16  17
ENDBRANCH  15  16
ENDBRANCH   1  15
TORSDOF 22
ENDMDL
MODEL 8
REMARK VINA RESULT:    -4.025      3.204      5.041
REMARK INTER + INTRA:         -13.615
REMARK INTER:                 -11.233
REMARK INTRA:                  -2.382
REMARK UNBOUND:                -4.413
REMARK SMILES CCCCCCCCCCCCCCCCCCCCCCCC(=O)[O-]
REMARK SMILES IDX 13 1 14 2 15 3 16 4 17 5 18 6 19 7 20 8 21 9 22 10 23 11
REMARK SMILES IDX 24 12 25 13 26 14 12 15 11 16 10 17 9 18 8 19 7 20 6 21 5 22
REMARK SMILES IDX 4 23 3 24 2 25 1 26
REMARK H PARENT
REMARK Flexibility Score: inf
ROOT
ATOM      1  C   UNL     1       5.282   2.587  21.377  1.00  0.00     0.000 C 
ENDROOT
BRANCH   1   2
ATOM      2  C   UNL     1       5.994   2.575  20.015  1.00  0.00     0.000 C 
BRANCH   2   3
ATOM      3  C   UNL     1       7.419   3.150  20.086  1.00  0.00     0.000 C 
BRANCH   3   4
ATOM      4  C   UNL     1       7.633   4.329  19.123  1.00  0.00     0.000 C 
BRANCH   4   5
ATOM      5  C   UNL     1       6.331   4.770  18.432  1.00  0.00     0.000 C 
BRANCH   5   6
ATOM      6  C   UNL     1       6.388   6.224  17.934  1.00  0.00     0.000 C 
BRANCH   6   7
ATOM      7  C   UNL     1       6.003   6.353  16.450  1.00  0.00     0.000 C 
BRANCH   7   8
ATOM      8  C   UNL     1       6.666   5.279  15.568  1.00  0.00     0.000 C 
BRANCH   8   9
ATOM      9  C   UNL     1       8.174   5.479  15.309  1.00  0.00     0.000 C 
BRANCH   9  10
ATOM     10  C   UNL     1       8.761   4.631  14.166  1.00  0.00     0.006 C 
BRANCH  10  11
ATOM     11  C   UNL     1      10.269   4.842  13.981  1.00  0.00     0.053 C 
BRANCH  11  12
ATOM     12  C   UNL     1      10.531   5.856  12.911  1.00  0.00     0.041 C 
ATOM     13  O   UNL     1      10.265   7.071  13.108  1.00  0.00    -0.550 OA
ATOM     14  O   UNL     1      11.081   5.459  11.698  1.00  0.00    -0.550 OA
ENDBRANCH  11  12
ENDBRANCH  10  11
ENDBRANCH   9  10
ENDBRANCH   8   9
ENDBRANCH   7   8
ENDBRANCH   6   7
ENDBRANCH   5   6
ENDBRANCH   4   5
ENDBRANCH   3   4
ENDBRANCH   2   3
ENDBRANCH   1   2
BRANCH   1  15
ATOM     15  C   UNL     1       4.379   3.820  21.560  1.00  0.00     0.000 C 
BRANCH  15  16
ATOM     16  C   UNL     1       5.047   4.927  22.394  1.00  0.00     0.000 C 
BRANCH  16  17
ATOM     17  C   UNL     1       5.294   6.251  21.643  1.00  0.00     0.000 C 
BRANCH  17  18
ATOM     18  C   UNL     1       6.703   6.842  21.869  1.00  0.00    -0.000 C 
BRANCH  18  19
ATOM     19  C   UNL     1       7.026   7.977  20.880  1.00  0.00    -0.000 C 
BRANCH  19  20
ATOM     20  C   UNL     1       7.313   9.314  21.599  1.00  0.00    -0.000 C 
BRANCH  20  21
ATOM     21  C   UNL     1       6.809   9.356  23.052  1.00  0.00    -0.000 C 
BRANCH  21  22
ATOM     22  C   UNL     1       5.441  10.039  23.192  1.00  0.00    -0.000 C 
BRANCH  22  23
ATOM     23  C   UNL     1       5.545  11.318  24.034  1.00  0.00    -0.000 C 
BRANCH  23  24
ATOM     24  C   UNL     1       4.891  12.537  23.359  1.00  0.00    -0.000 C 
BRANCH  24  25
ATOM     25  C   UNL     1       5.721  13.174  22.230  1.00  0.00    -0.003 C 
ATOM     26  C   UNL     1       5.266  14.592  21.882  1.00  0.00     0.004 C 
ENDBRANCH  24  25
ENDBRANCH  23  24
ENDBRANCH  22  23
ENDBRANCH  21  22
ENDBRANCH  20  21
ENDBRANCH  19  20
ENDBRANCH  18  19
ENDBRANCH  17  18
ENDBRANCH  16  17
ENDBRANCH  15  16
ENDBRANCH   1  15
TORSDOF 22
ENDMDL
MODEL 9
REMARK VINA RESULT:    -3.983      3.375      7.902
REMARK INTER + INTRA:         -13.519
REMARK INTER:                  -9.914
REMARK INTRA:                  -3.605
REMARK UNBOUND:                -4.413
REMARK SMILES CCCCCCCCCCCCCCCCCCCCCCCC(=O)[O-]
REMARK SMILES IDX 13 1 14 2 15 3 16 4 17 5 18 6 19 7 20 8 21 9 22 10 23 11
REMARK SMILES IDX 24 12 25 13 26 14 12 15 11 16 10 17 9 18 8 19 7 20 6 21 5 22
REMARK SMILES IDX 4 23 3 24 2 25 1 26
REMARK H PARENT
REMARK Flexibility Score: inf
ROOT
ATOM      1  C   UNL     1       9.682   5.097  19.239  1.00  0.00     0.000 C 
ENDROOT
BRANCH   1   2
ATOM      2  C   UNL     1       9.477   3.813  20.058  1.00  0.00     0.000 C 
BRANCH   2   3
ATOM      3  C   UNL     1       8.010   3.602  20.473  1.00  0.00     0.000 C 
BRANCH   3   4
ATOM      4  C   UNL     1       7.047   3.608  19.274  1.00  0.00     0.000 C 
BRANCH   4   5
ATOM      5  C   UNL     1       5.600   3.275  19.677  1.00  0.00     0.000 C 
BRANCH   5   6
ATOM      6  C   UNL     1       5.376   3.355  21.197  1.00  0.00     0.000 C 
BRANCH   6   7
ATOM      7  C   UNL     1       4.521   4.568  21.601  1.00  0.00     0.000 C 
BRANCH   7   8
ATOM      8  C   UNL     1       5.370   5.800  21.968  1.00  0.00     0.000 C 
BRANCH   8   9
ATOM      9  C   UNL     1       5.445   6.894  20.883  1.00  0.00     0.000 C 
BRANCH   9  10
ATOM     10  C   UNL     1       6.868   7.284  20.442  1.00  0.00     0.006 C 
BRANCH  10  11
ATOM     11  C   UNL     1       7.853   7.371  21.615  1.00  0.00     0.053 C 
BRANCH  11  12
ATOM     12  C   UNL     1       7.914   8.768  22.147  1.00  0.00     0.041 C 
ATOM     13  O   UNL     1       7.628   9.744  21.404  1.00  0.00    -0.550 OA
ATOM     14  O   UNL     1       8.278   8.993  23.469  1.00  0.00    -0.550 OA
ENDBRANCH  11  12
ENDBRANCH  10  11
ENDBRANCH   9  10
ENDBRANCH   8   9
ENDBRANCH   7   8
ENDBRANCH   6   7
ENDBRANCH   5   6
ENDBRANCH   4   5
ENDBRANCH   3   4
ENDBRANCH   2   3
ENDBRANCH   1   2
BRANCH   1  15
ATOM     15  C   UNL     1      10.320   4.825  17.865  1.00  0.00     0.000 C 
BRANCH  15  16
ATOM     16  C   UNL     1      11.076   6.044  17.309  1.00  0.00     0.000 C 
BRANCH  16  17
ATOM     17  C   UNL     1      11.424   5.968  15.809  1.00  0.00     0.000 C 
BRANCH  17  18
ATOM     18  C   UNL     1      10.876   7.152  14.982  1.00  0.00    -0.000 C 
BRANCH  18  19
ATOM     19  C   UNL     1      10.453   6.728  13.564  1.00  0.00    -0.000 C 
BRANCH  19  20
ATOM     20  C   UNL     1      10.213   5.205  13.457  1.00  0.00    -0.000 C 
BRANCH  20  21
ATOM     21  C   UNL     1       8.763   4.830  13.109  1.00  0.00    -0.000 C 
BRANCH  21  22
ATOM     22  C   UNL     1       7.989   4.255  14.305  1.00  0.00    -0.000 C 
BRANCH  22  23
ATOM     23  C   UNL     1       7.717   5.338  15.358  1.00  0.00    -0.000 C 
BRANCH  23  24
ATOM     24  C   UNL     1       6.288   5.277  15.927  1.00  0.00    -0.000 C 
BRANCH  24  25
ATOM     25  C   UNL     1       6.013   6.245  17.092  1.00  0.00    -0.003 C 
ATOM     26  C   UNL     1       6.419   7.686  16.779  1.00  0.00     0.004 C 
ENDBRANCH  24  25
ENDBRANCH  23  24
ENDBRANCH  22  23
ENDBRANCH  21  22
ENDBRANCH  20  21
ENDBRANCH  19  20
ENDBRANCH  18  19
ENDBRANCH  17  18
ENDBRANCH  16  17
ENDBRANCH  15  16
ENDBRANCH   1  15
TORSDOF 22
ENDMDL
