MODEL 1
REMARK VINA RESULT:    -5.234      0.000      0.000
REMARK INTER + INTRA:          -6.053
REMARK INTER:                  -5.999
REMARK INTRA:                  -0.054
REMARK UNBOUND:                -0.054
REMARK SMILES CC(C)[C@H]([NH3+])C(=O)[O-]
REMARK SMILES IDX 4 1 5 2 6 6 7 7 8 8 2 9 1 10 3 11
REMARK H PARENT 5 3 5 4 5 5
REMARK Flexibility Score: inf
ROOT
ATOM      1  C   UNL     1      14.963 -10.516 -15.819  1.00  0.00     0.230 C 
ENDROOT
BRANCH   1   2
ATOM      2  N   UNL     1      16.084 -11.133 -16.543  1.00  0.00    -0.350 N 
ATOM      3  H   UNL     1      16.831 -10.436 -16.758  1.00  0.00     0.345 HD
ATOM      4  H   UNL     1      15.736 -11.537 -17.445  1.00  0.00     0.345 HD
ATOM      5  H   UNL     1      16.491 -11.911 -15.976  1.00  0.00     0.345 HD
ENDBRANCH   1   2
BRANCH   1   6
ATOM      6  C   UNL     1      14.820 -11.124 -14.444  1.00  0.00     0.099 C 
ATOM      7  O   UNL     1      15.813 -11.176 -13.671  1.00  0.00    -0.544 OA
ATOM      8  O   UNL     1      13.591 -11.604 -14.006  1.00  0.00    -0.544 OA
ENDBRANCH   1   6
BRANCH   1   9
ATOM      9  C   UNL     1      13.642 -10.574 -16.643  1.00  0.00     0.047 C 
ATOM     10  C   UNL     1      13.630 -11.781 -17.595  1.00  0.00     0.014 C 
ATOM     11  C   UNL     1      13.347  -9.283 -17.427  1.00  0.00     0.014 C 
ENDBRANCH   1   9
TORSDOF 3
ENDMDL
MODEL 2
REMARK VINA RESULT:    -5.204      1.618      2.435
REMARK INTER + INTRA:          -6.018
REMARK INTER:                  -5.966
REMARK INTRA:                  -0.052
REMARK UNBOUND:                -0.054
REMARK SMILES CC(C)[C@H]([NH3+])C(=O)[O-]
REMARK SMILES IDX 4 1 5 2 6 6 7 7 8 8 2 9 1 10 3 11
REMARK H PARENT 5 3 5 4 5 5
REMARK Flexibility Score: inf
ROOT
ATOM      1  C   UNL     1      14.148 -11.460 -15.969  1.00  0.00     0.230 C 
ENDROOT
BRANCH   1   2
ATOM      2  N   UNL     1      13.008 -10.635 -16.394  1.00  0.00    -0.350 N 
ATOM      3  H   UNL     1      13.155 -10.242 -17.350  1.00  0.00     0.345 HD
ATOM      4  H   UNL     1      12.882  -9.841 -15.723  1.00  0.00     0.345 HD
ATOM      5  H   UNL     1      12.131 -11.205 -16.387  1.00  0.00     0.345 HD
ENDBRANCH   1   2
BRANCH   1   6
ATOM      6  C   UNL     1      14.265 -11.469 -14.463  1.00  0.00     0.099 C 
ATOM      7  O   UNL     1      13.268 -11.772 -13.755  1.00  0.00    -0.544 OA
ATOM      8  O   UNL     1      15.475 -11.176 -13.845  1.00  0.00    -0.544 OA
ENDBRANCH   1   6
BRANCH   1   9
ATOM      9  C   UNL     1      15.469 -11.025 -16.673  1.00  0.00     0.047 C 
ATOM     10  C   UNL     1      15.455  -9.525 -17.007  1.00  0.00     0.014 C 
ATOM     11  C   UNL     1      15.793 -11.843 -17.936  1.00  0.00     0.014 C 
ENDBRANCH   1   9
TORSDOF 3
ENDMDL
MODEL 3
REMARK VINA RESULT:    -5.095      3.818      4.407
REMARK INTER + INTRA:          -5.894
REMARK INTER:                  -5.841
REMARK INTRA:                  -0.053
REMARK UNBOUND:                -0.054
REMARK SMILES CC(C)[C@H]([NH3+])C(=O)[O-]
REMARK SMILES IDX 4 1 5 2 6 6 7 7 8 8 2 9 1 10 3 11
REMARK H PARENT 5 3 5 4 5 5
REMARK Flexibility Score: inf
ROOT
ATOM      1  C   UNL     1      15.220 -10.770 -18.616  1.00  0.00     0.230 C 
ENDROOT
BRANCH   1   2
ATOM      2  N   UNL     1      16.074  -9.903 -17.790  1.00  0.00    -0.350 N 
ATOM      3  H   UNL     1      15.509  -9.337 -17.119  1.00  0.00     0.345 HD
ATOM      4  H   UNL     1      16.609  -9.250 -18.409  1.00  0.00     0.345 HD
ATOM      5  H   UNL     1      16.763 -10.482 -17.259  1.00  0.00     0.345 HD
ENDBRANCH   1   2
BRANCH   1   6
ATOM      6  C   UNL     1      15.110 -10.226 -20.021  1.00  0.00     0.099 C 
ATOM      7  O   UNL     1      16.151  -9.919 -20.661  1.00  0.00    -0.544 OA
ATOM      8  O   UNL     1      13.869 -10.087 -20.631  1.00  0.00    -0.544 OA
ENDBRANCH   1   6
BRANCH   1   9
ATOM      9  C   UNL     1      13.830 -11.010 -17.953  1.00  0.00     0.047 C 
ATOM     10  C   UNL     1      13.401  -9.804 -17.102  1.00  0.00     0.014 C 
ATOM     11  C   UNL     1      13.761 -12.297 -17.113  1.00  0.00     0.014 C 
ENDBRANCH   1   9
TORSDOF 3
ENDMDL
MODEL 4
REMARK VINA RESULT:    -5.065      3.193      3.842
REMARK INTER + INTRA:          -5.859
REMARK INTER:                  -5.888
REMARK INTRA:                   0.029
REMARK UNBOUND:                -0.054
REMARK SMILES CC(C)[C@H]([NH3+])C(=O)[O-]
REMARK SMILES IDX 4 1 5 2 6 6 7 7 8 8 2 9 1 10 3 11
REMARK H PARENT 5 3 5 4 5 5
REMARK Flexibility Score: inf
ROOT
ATOM      1  C   UNL     1      15.241 -11.634 -17.804  1.00  0.00     0.230 C 
ENDROOT
BRANCH   1   2
ATOM      2  N   UNL     1      16.528 -12.293 -18.071  1.00  0.00    -0.350 N 
ATOM      3  H   UNL     1      16.845 -12.859 -17.252  1.00  0.00     0.345 HD
ATOM      4  H   UNL     1      17.255 -11.568 -18.276  1.00  0.00     0.345 HD
ATOM      5  H   UNL     1      16.445 -12.914 -18.908  1.00  0.00     0.345 HD
ENDBRANCH   1   2
BRANCH   1   6
ATOM      6  C   UNL     1      14.838 -10.765 -18.972  1.00  0.00     0.099 C 
ATOM      7  O   UNL     1      13.618 -10.564 -19.216  1.00  0.00    -0.544 OA
ATOM      8  O   UNL     1      15.801 -10.154 -19.766  1.00  0.00    -0.544 OA
ENDBRANCH   1   6
BRANCH   1   9
ATOM      9  C   UNL     1      15.260 -10.857 -16.453  1.00  0.00     0.047 C 
ATOM     10  C   UNL     1      13.996 -11.144 -15.627  1.00  0.00     0.014 C 
ATOM     11  C   UNL     1      15.448  -9.339 -16.617  1.00  0.00     0.014 C 
ENDBRANCH   1   9
TORSDOF 3
ENDMDL
MODEL 5
REMARK VINA RESULT:    -5.000      1.788      2.374
REMARK INTER + INTRA:          -5.784
REMARK INTER:                  -5.820
REMARK INTRA:                   0.035
REMARK UNBOUND:                -0.054
REMARK SMILES CC(C)[C@H]([NH3+])C(=O)[O-]
REMARK SMILES IDX 4 1 5 2 6 6 7 7 8 8 2 9 1 10 3 11
REMARK H PARENT 5 3 5 4 5 5
REMARK Flexibility Score: inf
ROOT
ATOM      1  C   UNL     1      14.928  -9.634 -16.730  1.00  0.00     0.230 C 
ENDROOT
BRANCH   1   2
ATOM      2  N   UNL     1      15.972  -8.690 -16.306  1.00  0.00    -0.350 N 
ATOM      3  H   UNL     1      16.264  -8.860 -15.318  1.00  0.00     0.345 HD
ATOM      4  H   UNL     1      15.609  -7.711 -16.382  1.00  0.00     0.345 HD
ATOM      5  H   UNL     1      16.806  -8.774 -16.931  1.00  0.00     0.345 HD
ENDBRANCH   1   2
BRANCH   1   6
ATOM      6  C   UNL     1      14.617 -10.614 -15.623  1.00  0.00     0.099 C 
ATOM      7  O   UNL     1      13.461 -11.104 -15.522  1.00  0.00    -0.544 OA
ATOM      8  O   UNL     1      15.605 -11.009 -14.728  1.00  0.00    -0.544 OA
ENDBRANCH   1   6
BRANCH   1   9
ATOM      9  C   UNL     1      15.297 -10.337 -18.071  1.00  0.00     0.047 C 
ATOM     10  C   UNL     1      14.115 -10.322 -19.053  1.00  0.00     0.014 C 
ATOM     11  C   UNL     1      15.814 -11.776 -17.891  1.00  0.00     0.014 C 
ENDBRANCH   1   9
TORSDOF 3
ENDMDL
MODEL 6
REMARK VINA RESULT:    -4.966      3.329      4.104
REMARK INTER + INTRA:          -5.745
REMARK INTER:                  -5.739
REMARK INTRA:                  -0.007
REMARK UNBOUND:                -0.054
REMARK SMILES CC(C)[C@H]([NH3+])C(=O)[O-]
REMARK SMILES IDX 4 1 5 2 6 6 7 7 8 8 2 9 1 10 3 11
REMARK H PARENT 5 3 5 4 5 5
REMARK Flexibility Score: inf
ROOT
ATOM      1  C   UNL     1      13.890  -9.530 -17.380  1.00  0.00     0.230 C 
ENDROOT
BRANCH   1   2
ATOM      2  N   UNL     1      12.607  -8.812 -17.407  1.00  0.00    -0.350 N 
ATOM      3  H   UNL     1      11.888  -9.334 -17.955  1.00  0.00     0.345 HD
ATOM      4  H   UNL     1      12.744  -7.872 -17.848  1.00  0.00     0.345 HD
ATOM      5  H   UNL     1      12.259  -8.664 -16.433  1.00  0.00     0.345 HD
ENDBRANCH   1   2
BRANCH   1   6
ATOM      6  C   UNL     1      14.385  -9.787 -18.784  1.00  0.00     0.099 C 
ATOM      7  O   UNL     1      13.574  -9.792 -19.747  1.00  0.00    -0.544 OA
ATOM      8  O   UNL     1      15.738  -9.989 -19.031  1.00  0.00    -0.544 OA
ENDBRANCH   1   6
BRANCH   1   9
ATOM      9  C   UNL     1      13.804 -10.830 -16.524  1.00  0.00     0.047 C 
ATOM     10  C   UNL     1      15.017 -10.965 -15.590  1.00  0.00     0.014 C 
ATOM     11  C   UNL     1      13.640 -12.111 -17.362  1.00  0.00     0.014 C 
ENDBRANCH   1   9
TORSDOF 3
ENDMDL
MODEL 7
REMARK VINA RESULT:    -4.960      1.843      2.045
REMARK INTER + INTRA:          -5.739
REMARK INTER:                  -5.761
REMARK INTRA:                   0.022
REMARK UNBOUND:                -0.054
REMARK SMILES CC(C)[C@H]([NH3+])C(=O)[O-]
REMARK SMILES IDX 4 1 5 2 6 6 7 7 8 8 2 9 1 10 3 11
REMARK H PARENT 5 3 5 4 5 5
REMARK Flexibility Score: inf
ROOT
ATOM      1  C   UNL     1      14.237 -11.833 -17.328  1.00  0.00     0.230 C 
ENDROOT
BRANCH   1   2
ATOM      2  N   UNL     1      13.146 -12.818 -17.361  1.00  0.00    -0.350 N 
ATOM      3  H   UNL     1      13.035 -13.234 -18.312  1.00  0.00     0.345 HD
ATOM      4  H   UNL     1      12.247 -12.352 -17.094  1.00  0.00     0.345 HD
ATOM      5  H   UNL     1      13.332 -13.581 -16.671  1.00  0.00     0.345 HD
ENDBRANCH   1   2
BRANCH   1   6
ATOM      6  C   UNL     1      14.527 -11.409 -15.907  1.00  0.00     0.099 C 
ATOM      7  O   UNL     1      15.689 -11.048 -15.583  1.00  0.00    -0.544 OA
ATOM      8  O   UNL     1      13.515 -11.383 -14.955  1.00  0.00    -0.544 OA
ENDBRANCH   1   6
BRANCH   1   9
ATOM      9  C   UNL     1      13.952 -10.625 -18.271  1.00  0.00     0.047 C 
ATOM     10  C   UNL     1      15.200 -10.244 -19.083  1.00  0.00     0.014 C 
ATOM     11  C   UNL     1      13.402  -9.388 -17.539  1.00  0.00     0.014 C 
ENDBRANCH   1   9
TORSDOF 3
ENDMDL
MODEL 8
REMARK VINA RESULT:    -4.821      2.832      3.204
REMARK INTER + INTRA:          -5.579
REMARK INTER:                  -5.525
REMARK INTRA:                  -0.054
REMARK UNBOUND:                -0.054
REMARK SMILES CC(C)[C@H]([NH3+])C(=O)[O-]
REMARK SMILES IDX 4 1 5 2 6 6 7 7 8 8 2 9 1 10 3 11
REMARK H PARENT 5 3 5 4 5 5
REMARK Flexibility Score: inf
ROOT
ATOM      1  C   UNL     1      14.548 -11.031 -18.216  1.00  0.00     0.230 C 
ENDROOT
BRANCH   1   2
ATOM      2  N   UNL     1      13.140 -11.414 -18.033  1.00  0.00    -0.350 N 
ATOM      3  H   UNL     1      12.853 -12.152 -18.715  1.00  0.00     0.345 HD
ATOM      4  H   UNL     1      12.529 -10.576 -18.173  1.00  0.00     0.345 HD
ATOM      5  H   UNL     1      12.989 -11.766 -17.060  1.00  0.00     0.345 HD
ENDBRANCH   1   2
BRANCH   1   6
ATOM      6  C   UNL     1      15.121 -10.486 -16.928  1.00  0.00     0.099 C 
ATOM      7  O   UNL     1      15.369 -11.265 -15.970  1.00  0.00    -0.544 OA
ATOM      8  O   UNL     1      15.409  -9.132 -16.799  1.00  0.00    -0.544 OA
ENDBRANCH   1   6
BRANCH   1   9
ATOM      9  C   UNL     1      14.728 -10.053 -19.416  1.00  0.00     0.047 C 
ATOM     10  C   UNL     1      13.512 -10.092 -20.355  1.00  0.00     0.014 C 
ATOM     11  C   UNL     1      16.020 -10.293 -20.218  1.00  0.00     0.014 C 
ENDBRANCH   1   9
TORSDOF 3
ENDMDL
MODEL 9
REMARK VINA RESULT:    -4.793      2.493      2.866
REMARK INTER + INTRA:          -5.547
REMARK INTER:                  -5.492
REMARK INTRA:                  -0.055
REMARK UNBOUND:                -0.054
REMARK SMILES CC(C)[C@H]([NH3+])C(=O)[O-]
REMARK SMILES IDX 4 1 5 2 6 6 7 7 8 8 2 9 1 10 3 11
REMARK H PARENT 5 3 5 4 5 5
REMARK Flexibility Score: inf
ROOT
ATOM      1  C   UNL     1      14.938 -10.204 -17.853  1.00  0.00     0.230 C 
ENDROOT
BRANCH   1   2
ATOM      2  N   UNL     1      16.339  -9.946 -17.491  1.00  0.00    -0.350 N 
ATOM      3  H   UNL     1      16.701 -10.666 -16.828  1.00  0.00     0.345 HD
ATOM      4  H   UNL     1      16.414  -9.006 -17.037  1.00  0.00     0.345 HD
ATOM      5  H   UNL     1      16.934  -9.938 -18.351  1.00  0.00     0.345 HD
ENDBRANCH   1   2
BRANCH   1   6
ATOM      6  C   UNL     1      14.326 -11.221 -16.918  1.00  0.00     0.099 C 
ATOM      7  O   UNL     1      13.883 -12.308 -17.373  1.00  0.00    -0.544 OA
ATOM      8  O   UNL     1      14.273 -10.983 -15.550  1.00  0.00    -0.544 OA
ENDBRANCH   1   6
BRANCH   1   9
ATOM      9  C   UNL     1      14.793 -10.602 -19.353  1.00  0.00     0.047 C 
ATOM     10  C   UNL     1      16.070 -10.272 -20.144  1.00  0.00     0.014 C 
ATOM     11  C   UNL     1      13.570  -9.974 -20.044  1.00  0.00     0.014 C 
ENDBRANCH   1   9
TORSDOF 3
ENDMDL
