MODEL 1
REMARK VINA RESULT:    61.634      0.000      0.000
REMARK INTER + INTRA:          81.879
REMARK INTER:                  81.451
REMARK INTRA:                   0.428
REMARK UNBOUND:                 0.428
REMARK SMILES C=C(CC[C@@H](C)[C@@H]1CC[C@@]2(C)[C@@H]3CC[C@@H]4C(C)(C)[C@H](O)CC[C@@]45C[C@@]35CC[C@@]12C)C(C)C
REMARK SMILES IDX 4 1 3 2 2 3 1 4 30 5 31 6 32 7 5 8 6 9 7 10 8 11 28 12 9 13
REMARK SMILES IDX 10 14 27 15 29 16 11 17 12 18 26 19 25 20 13 21 23 22 24 23
REMARK SMILES IDX 14 24 15 25 22 26 16 27 21 28 19 29 17 30 18 31 20 32
REMARK H PARENT 20 33
REMARK Flexibility Score: inf
ROOT
ATOM      1  C   UNL     1       6.859  37.963  50.188  1.00  0.00     0.008 C 
ENDROOT
BRANCH   1   2
ATOM      2  C   UNL     1       7.332  36.754  51.008  1.00  0.00     0.031 C 
BRANCH   2   3
ATOM      3  C   UNL     1       8.842  36.640  50.990  1.00  0.00    -0.075 C 
ATOM      4  C   UNL     1       9.533  36.859  52.125  1.00  0.00     0.008 C 
BRANCH   3   5
ATOM      5  C   UNL     1       9.555  36.279  49.694  1.00  0.00     0.008 C 
ATOM      6  C   UNL     1      10.643  37.306  49.351  1.00  0.00     0.012 C 
ATOM      7  C   UNL     1       8.561  36.119  48.538  1.00  0.00     0.012 C 
ENDBRANCH   3   5
ENDBRANCH   2   3
ENDBRANCH   1   2
BRANCH   1   8
ATOM      8  C   UNL     1       5.738  38.762  50.918  1.00  0.00    -0.010 C 
ATOM      9  C   UNL     1       6.386  39.509  52.107  1.00  0.00     0.008 C 
BRANCH   8  10
ATOM     10  C   UNL     1       5.003  39.729  49.917  1.00  0.00    -0.002 C 
ATOM     11  C   UNL     1       5.957  40.524  48.998  1.00  0.00     0.005 C 
ATOM     12  C   UNL     1       3.995  40.808  50.520  1.00  0.00    -0.024 C 
ATOM     13  C   UNL     1       5.386  41.925  48.878  1.00  0.00     0.008 C 
ATOM     14  C   UNL     1       4.675  42.205  50.214  1.00  0.00    -0.024 C 
ATOM     15  C   UNL     1       2.658  40.641  49.726  1.00  0.00     0.008 C 
ATOM     16  C   UNL     1       3.672  40.644  52.037  1.00  0.00     0.012 C 
ATOM     17  C   UNL     1       5.792  42.543  51.256  1.00  0.00     0.012 C 
ATOM     18  C   UNL     1       3.706  43.453  50.033  1.00  0.00     0.002 C 
ATOM     19  C   UNL     1       1.675  41.787  49.893  1.00  0.00     0.008 C 
ATOM     20  C   UNL     1       2.328  43.087  49.423  1.00  0.00    -0.020 C 
ATOM     21  C   UNL     1       3.482  44.339  51.289  1.00  0.00     0.005 C 
ATOM     22  C   UNL     1       1.385  44.284  49.161  1.00  0.00    -0.020 C 
ATOM     23  C   UNL     1       2.070  43.564  47.989  1.00  0.00     0.015 C 
ATOM     24  C   UNL     1       2.467  45.494  51.086  1.00  0.00     0.005 C 
ATOM     25  C   UNL     1       1.959  45.649  49.629  1.00  0.00     0.004 C 
ATOM     26  C   UNL     1      -0.147  44.118  49.197  1.00  0.00     0.010 C 
ATOM     27  C   UNL     1       0.949  46.851  49.416  1.00  0.00    -0.006 C 
ATOM     28  C   UNL     1      -0.872  45.275  48.479  1.00  0.00     0.033 C 
ATOM     29  C   UNL     1       0.009  46.520  48.215  1.00  0.00     0.120 C 
ATOM     30  C   UNL     1       1.762  48.123  49.067  1.00  0.00     0.014 C 
ATOM     31  C   UNL     1       0.097  47.176  50.675  1.00  0.00     0.014 C 
BRANCH  29  32
ATOM     32  O   UNL     1      -0.817  47.618  47.912  1.00  0.00    -0.393 OA
ATOM     33  H   UNL     1      -1.177  47.466  46.999  1.00  0.00     0.210 HD
ENDBRANCH  29  32
ENDBRANCH   8  10
ENDBRANCH   1   8
TORSDOF 6
ENDMDL
MODEL 2
REMARK VINA RESULT:    63.360      1.081      2.713
REMARK INTER + INTRA:          84.160
REMARK INTER:                  83.441
REMARK INTRA:                   0.720
REMARK UNBOUND:                 0.428
REMARK SMILES C=C(CC[C@@H](C)[C@@H]1CC[C@@]2(C)[C@@H]3CC[C@@H]4C(C)(C)[C@H](O)CC[C@@]45C[C@@]35CC[C@@]12C)C(C)C
REMARK SMILES IDX 4 1 3 2 2 3 1 4 30 5 31 6 32 7 5 8 6 9 7 10 8 11 28 12 9 13
REMARK SMILES IDX 10 14 27 15 29 16 11 17 12 18 26 19 25 20 13 21 23 22 24 23
REMARK SMILES IDX 14 24 15 25 22 26 16 27 21 28 19 29 17 30 18 31 20 32
REMARK H PARENT 20 33
REMARK Flexibility Score: inf
ROOT
ATOM      1  C   UNL     1       6.911  38.040  52.111  1.00  0.00     0.008 C 
ENDROOT
BRANCH   1   2
ATOM      2  C   UNL     1       8.286  37.357  52.075  1.00  0.00     0.031 C 
BRANCH   2   3
ATOM      3  C   UNL     1       8.485  36.598  50.780  1.00  0.00    -0.075 C 
ATOM      4  C   UNL     1       7.494  35.814  50.317  1.00  0.00     0.008 C 
BRANCH   3   5
ATOM      5  C   UNL     1       9.798  36.735  50.021  1.00  0.00     0.008 C 
ATOM      6  C   UNL     1       9.994  38.165  49.500  1.00  0.00     0.012 C 
ATOM      7  C   UNL     1       9.892  35.712  48.883  1.00  0.00     0.012 C 
ENDBRANCH   3   5
ENDBRANCH   2   3
ENDBRANCH   1   2
BRANCH   1   8
ATOM      8  C   UNL     1       6.833  39.250  51.133  1.00  0.00    -0.010 C 
ATOM      9  C   UNL     1       6.529  38.699  49.720  1.00  0.00     0.008 C 
BRANCH   8  10
ATOM     10  C   UNL     1       5.762  40.294  51.624  1.00  0.00    -0.002 C 
ATOM     11  C   UNL     1       4.447  39.655  52.125  1.00  0.00     0.005 C 
ATOM     12  C   UNL     1       5.318  41.446  50.615  1.00  0.00    -0.024 C 
ATOM     13  C   UNL     1       3.315  40.539  51.636  1.00  0.00     0.008 C 
ATOM     14  C   UNL     1       3.796  41.140  50.303  1.00  0.00    -0.024 C 
ATOM     15  C   UNL     1       5.480  42.791  51.397  1.00  0.00     0.008 C 
ATOM     16  C   UNL     1       6.165  41.550  49.309  1.00  0.00     0.012 C 
ATOM     17  C   UNL     1       3.643  40.019  49.223  1.00  0.00     0.012 C 
ATOM     18  C   UNL     1       2.874  42.381  49.931  1.00  0.00     0.002 C 
ATOM     19  C   UNL     1       4.793  43.984  50.753  1.00  0.00     0.008 C 
ATOM     20  C   UNL     1       3.295  43.700  50.630  1.00  0.00    -0.020 C 
ATOM     21  C   UNL     1       2.669  42.657  48.417  1.00  0.00     0.005 C 
ATOM     22  C   UNL     1       2.377  44.913  50.354  1.00  0.00    -0.020 C 
ATOM     23  C   UNL     1       2.356  44.220  51.725  1.00  0.00     0.015 C 
ATOM     24  C   UNL     1       1.830  43.924  48.104  1.00  0.00     0.005 C 
ATOM     25  C   UNL     1       1.227  44.616  49.355  1.00  0.00     0.004 C 
ATOM     26  C   UNL     1       2.927  46.354  50.382  1.00  0.00     0.010 C 
ATOM     27  C   UNL     1       0.342  45.890  49.032  1.00  0.00    -0.006 C 
ATOM     28  C   UNL     1       1.803  47.399  50.537  1.00  0.00     0.033 C 
ATOM     29  C   UNL     1       0.380  46.860  50.254  1.00  0.00     0.120 C 
ATOM     30  C   UNL     1      -1.122  45.432  48.813  1.00  0.00     0.014 C 
ATOM     31  C   UNL     1       0.789  46.645  47.749  1.00  0.00     0.014 C 
BRANCH  29  32
ATOM     32  O   UNL     1      -0.497  47.942  50.057  1.00  0.00    -0.393 OA
ATOM     33  H   UNL     1      -0.352  48.572  50.811  1.00  0.00     0.210 HD
ENDBRANCH  29  32
ENDBRANCH   8  10
ENDBRANCH   1   8
TORSDOF 6
ENDMDL
MODEL 3
REMARK VINA RESULT:    63.366      2.963      8.943
REMARK INTER + INTRA:          84.168
REMARK INTER:                  82.051
REMARK INTRA:                   2.117
REMARK UNBOUND:                 0.428
REMARK SMILES C=C(CC[C@@H](C)[C@@H]1CC[C@@]2(C)[C@@H]3CC[C@@H]4C(C)(C)[C@H](O)CC[C@@]45C[C@@]35CC[C@@]12C)C(C)C
REMARK SMILES IDX 4 1 3 2 2 3 1 4 30 5 31 6 32 7 5 8 6 9 7 10 8 11 28 12 9 13
REMARK SMILES IDX 10 14 27 15 29 16 11 17 12 18 26 19 25 20 13 21 23 22 24 23
REMARK SMILES IDX 14 24 15 25 22 26 16 27 21 28 19 29 17 30 18 31 20 32
REMARK H PARENT 20 33
REMARK Flexibility Score: inf
ROOT
ATOM      1  C   UNL     1       0.586  46.029  49.635  1.00  0.00     0.008 C 
ENDROOT
BRANCH   1   2
ATOM      2  C   UNL     1       0.246  47.474  49.236  1.00  0.00     0.031 C 
BRANCH   2   3
ATOM      3  C   UNL     1       0.807  47.808  47.870  1.00  0.00    -0.075 C 
ATOM      4  C   UNL     1      -0.038  48.098  46.864  1.00  0.00     0.008 C 
BRANCH   3   5
ATOM      5  C   UNL     1       2.315  47.815  47.657  1.00  0.00     0.008 C 
ATOM      6  C   UNL     1       2.795  46.498  47.031  1.00  0.00     0.012 C 
ATOM      7  C   UNL     1       3.061  48.112  48.963  1.00  0.00     0.012 C 
ENDBRANCH   3   5
ENDBRANCH   2   3
ENDBRANCH   1   2
BRANCH   1   8
ATOM      8  C   UNL     1      -0.537  45.030  49.226  1.00  0.00    -0.010 C 
ATOM      9  C   UNL     1      -0.943  45.346  47.767  1.00  0.00     0.008 C 
BRANCH   8  10
ATOM     10  C   UNL     1      -0.056  43.544  49.417  1.00  0.00    -0.002 C 
ATOM     11  C   UNL     1      -0.344  42.968  50.822  1.00  0.00     0.005 C 
ATOM     12  C   UNL     1       1.474  43.205  49.123  1.00  0.00    -0.024 C 
ATOM     13  C   UNL     1       0.862  42.133  51.209  1.00  0.00     0.008 C 
ATOM     14  C   UNL     1       2.072  42.802  50.533  1.00  0.00    -0.024 C 
ATOM     15  C   UNL     1       1.466  41.990  48.139  1.00  0.00     0.008 C 
ATOM     16  C   UNL     1       2.294  44.352  48.456  1.00  0.00     0.012 C 
ATOM     17  C   UNL     1       2.427  44.061  51.391  1.00  0.00     0.012 C 
ATOM     18  C   UNL     1       3.293  41.783  50.532  1.00  0.00     0.002 C 
ATOM     19  C   UNL     1       2.804  41.283  47.995  1.00  0.00     0.008 C 
ATOM     20  C   UNL     1       3.254  40.766  49.362  1.00  0.00    -0.020 C 
ATOM     21  C   UNL     1       4.712  42.410  50.607  1.00  0.00     0.005 C 
ATOM     22  C   UNL     1       4.383  39.710  49.369  1.00  0.00    -0.020 C 
ATOM     23  C   UNL     1       2.945  39.311  49.735  1.00  0.00     0.015 C 
ATOM     24  C   UNL     1       5.872  41.383  50.520  1.00  0.00     0.005 C 
ATOM     25  C   UNL     1       5.414  39.901  50.515  1.00  0.00     0.004 C 
ATOM     26  C   UNL     1       4.899  39.083  48.059  1.00  0.00     0.010 C 
ATOM     27  C   UNL     1       6.600  38.852  50.461  1.00  0.00    -0.006 C 
ATOM     28  C   UNL     1       5.667  37.768  48.309  1.00  0.00     0.033 C 
ATOM     29  C   UNL     1       6.093  37.543  49.780  1.00  0.00     0.120 C 
ATOM     30  C   UNL     1       7.029  38.517  51.912  1.00  0.00     0.014 C 
ATOM     31  C   UNL     1       7.859  39.378  49.716  1.00  0.00     0.014 C 
BRANCH  29  32
ATOM     32  O   UNL     1       7.080  36.542  49.829  1.00  0.00    -0.393 OA
ATOM     33  H   UNL     1       6.928  36.028  50.666  1.00  0.00     0.210 HD
ENDBRANCH  29  32
ENDBRANCH   8  10
ENDBRANCH   1   8
TORSDOF 6
ENDMDL
