MODEL 1
REMARK VINA RESULT:    -6.233      0.000      0.000
REMARK INTER + INTRA:         -11.010
REMARK INTER:                  -9.512
REMARK INTRA:                  -1.497
REMARK UNBOUND:                -1.497
REMARK SMILES CC(=O)CCC=C(C)CCC=C(C)CCC=C(C)C
REMARK SMILES IDX 10 1 11 2 12 3 13 4 14 5 15 6 16 7 18 8 17 9 19 10 9 11 7 12
REMARK SMILES IDX 6 13 8 14 5 15 4 16 2 17 3 18 1 19
REMARK H PARENT
REMARK Flexibility Score: inf
ROOT
ATOM      1  C   UNL     1     -10.247 -18.301  31.607  1.00  0.00     0.032 C 
ENDROOT
BRANCH   1   2
ATOM      2  C   UNL     1     -11.065 -18.812  30.444  1.00  0.00    -0.028 C 
ATOM      3  C   UNL     1     -12.094 -19.675  30.589  1.00  0.00    -0.077 C 
ATOM      4  C   UNL     1     -12.504 -20.191  31.948  1.00  0.00     0.039 C 
BRANCH   3   5
ATOM      5  C   UNL     1     -12.856 -20.131  29.363  1.00  0.00     0.034 C 
BRANCH   5   6
ATOM      6  C   UNL     1     -13.315 -18.929  28.530  1.00  0.00     0.032 C 
BRANCH   6   7
ATOM      7  C   UNL     1     -12.249 -18.524  27.543  1.00  0.00    -0.028 C 
ATOM      8  C   UNL     1     -11.159 -17.135  25.834  1.00  0.00     0.039 C 
ATOM      9  C   UNL     1     -12.321 -17.436  26.745  1.00  0.00    -0.080 C 
ATOM     10  C   UNL     1     -13.532 -16.533  26.731  1.00  0.00     0.039 C 
ENDBRANCH   6   7
ENDBRANCH   5   6
ENDBRANCH   3   5
ENDBRANCH   1   2
BRANCH   1  11
ATOM     11  C   UNL     1     -10.132 -16.770  31.605  1.00  0.00     0.034 C 
BRANCH  11  12
ATOM     12  C   UNL     1     -11.171 -16.121  30.712  1.00  0.00    -0.077 C 
ATOM     13  C   UNL     1     -12.458 -16.070  31.123  1.00  0.00    -0.028 C 
ATOM     14  C   UNL     1     -10.745 -15.523  29.392  1.00  0.00     0.039 C 
BRANCH  13  15
ATOM     15  C   UNL     1     -13.561 -15.447  30.302  1.00  0.00     0.035 C 
BRANCH  15  16
ATOM     16  C   UNL     1     -14.340 -14.406  31.119  1.00  0.00     0.079 C 
BRANCH  16  17
ATOM     17  C   UNL     1     -14.660 -14.835  32.534  1.00  0.00     0.130 C 
ATOM     18  O   UNL     1     -15.503 -15.705  32.699  1.00  0.00    -0.300 OA
ATOM     19  C   UNL     1     -13.989 -14.242  33.742  1.00  0.00     0.087 C 
ENDBRANCH  16  17
ENDBRANCH  15  16
ENDBRANCH  13  15
ENDBRANCH  11  12
ENDBRANCH   1  11
TORSDOF 9
ENDMDL
MODEL 2
REMARK VINA RESULT:    -5.781      1.588      4.998
REMARK INTER + INTRA:         -10.320
REMARK INTER:                  -9.138
REMARK INTRA:                  -1.183
REMARK UNBOUND:                -1.497
REMARK SMILES CC(=O)CCC=C(C)CCC=C(C)CCC=C(C)C
REMARK SMILES IDX 10 1 11 2 12 3 13 4 14 5 15 6 16 7 18 8 17 9 19 10 9 11 7 12
REMARK SMILES IDX 6 13 8 14 5 15 4 16 2 17 3 18 1 19
REMARK H PARENT
REMARK Flexibility Score: inf
ROOT
ATOM      1  C   UNL     1     -12.553 -19.436  28.202  1.00  0.00     0.032 C 
ENDROOT
BRANCH   1   2
ATOM      2  C   UNL     1     -13.264 -18.120  27.988  1.00  0.00    -0.028 C 
ATOM      3  C   UNL     1     -12.844 -17.191  27.103  1.00  0.00    -0.077 C 
ATOM      4  C   UNL     1     -11.619 -17.413  26.249  1.00  0.00     0.039 C 
BRANCH   3   5
ATOM      5  C   UNL     1     -13.624 -15.901  26.958  1.00  0.00     0.034 C 
BRANCH   5   6
ATOM      6  C   UNL     1     -13.319 -14.948  28.119  1.00  0.00     0.032 C 
BRANCH   6   7
ATOM      7  C   UNL     1     -14.371 -13.871  28.217  1.00  0.00    -0.028 C 
ATOM      8  C   UNL     1     -15.983 -12.378  29.317  1.00  0.00     0.039 C 
ATOM      9  C   UNL     1     -14.977 -13.499  29.366  1.00  0.00    -0.080 C 
ATOM     10  C   UNL     1     -14.689 -14.184  30.681  1.00  0.00     0.039 C 
ENDBRANCH   6   7
ENDBRANCH   5   6
ENDBRANCH   3   5
ENDBRANCH   1   2
BRANCH   1  11
ATOM     11  C   UNL     1     -12.978 -20.118  29.510  1.00  0.00     0.034 C 
BRANCH  11  12
ATOM     12  C   UNL     1     -12.046 -19.782  30.658  1.00  0.00    -0.077 C 
ATOM     13  C   UNL     1     -10.912 -19.090  30.409  1.00  0.00    -0.028 C 
ATOM     14  C   UNL     1     -12.414 -20.207  32.060  1.00  0.00     0.039 C 
BRANCH  13  15
ATOM     15  C   UNL     1      -9.924 -18.713  31.486  1.00  0.00     0.035 C 
BRANCH  15  16
ATOM     16  C   UNL     1      -9.888 -17.192  31.697  1.00  0.00     0.079 C 
BRANCH  16  17
ATOM     17  C   UNL     1     -10.709 -16.404  30.701  1.00  0.00     0.130 C 
ATOM     18  O   UNL     1     -11.909 -16.286  30.903  1.00  0.00    -0.300 OA
ATOM     19  C   UNL     1     -10.118 -15.760  29.477  1.00  0.00     0.087 C 
ENDBRANCH  16  17
ENDBRANCH  15  16
ENDBRANCH  13  15
ENDBRANCH  11  12
ENDBRANCH   1  11
TORSDOF 9
ENDMDL
MODEL 3
REMARK VINA RESULT:    -5.349      1.517      4.818
REMARK INTER + INTRA:          -9.661
REMARK INTER:                  -8.185
REMARK INTRA:                  -1.476
REMARK UNBOUND:                -1.497
REMARK SMILES CC(=O)CCC=C(C)CCC=C(C)CCC=C(C)C
REMARK SMILES IDX 10 1 11 2 12 3 13 4 14 5 15 6 16 7 18 8 17 9 19 10 9 11 7 12
REMARK SMILES IDX 6 13 8 14 5 15 4 16 2 17 3 18 1 19
REMARK H PARENT
REMARK Flexibility Score: inf
ROOT
ATOM      1  C   UNL     1     -10.351 -16.538  28.447  1.00  0.00     0.032 C 
ENDROOT
BRANCH   1   2
ATOM      2  C   UNL     1     -11.342 -15.810  29.326  1.00  0.00    -0.028 C 
ATOM      3  C   UNL     1     -11.465 -16.046  30.650  1.00  0.00    -0.077 C 
ATOM      4  C   UNL     1     -10.601 -17.067  31.351  1.00  0.00     0.039 C 
BRANCH   3   5
ATOM      5  C   UNL     1     -12.486 -15.265  31.449  1.00  0.00     0.034 C 
BRANCH   5   6
ATOM      6  C   UNL     1     -13.904 -15.547  30.943  1.00  0.00     0.032 C 
BRANCH   6   7
ATOM      7  C   UNL     1     -14.641 -14.259  30.670  1.00  0.00    -0.028 C 
ATOM      8  C   UNL     1     -15.568 -12.426  29.322  1.00  0.00     0.039 C 
ATOM      9  C   UNL     1     -14.768 -13.697  29.449  1.00  0.00    -0.080 C 
ATOM     10  C   UNL     1     -14.120 -14.293  28.221  1.00  0.00     0.039 C 
ENDBRANCH   6   7
ENDBRANCH   5   6
ENDBRANCH   3   5
ENDBRANCH   1   2
BRANCH   1  11
ATOM     11  C   UNL     1     -10.966 -16.952  27.102  1.00  0.00     0.034 C 
BRANCH  11  12
ATOM     12  C   UNL     1     -12.323 -17.606  27.273  1.00  0.00    -0.077 C 
ATOM     13  C   UNL     1     -12.473 -18.593  28.185  1.00  0.00    -0.028 C 
ATOM     14  C   UNL     1     -13.487 -17.128  26.437  1.00  0.00     0.039 C 
BRANCH  13  15
ATOM     15  C   UNL     1     -13.783 -19.303  28.423  1.00  0.00     0.035 C 
BRANCH  15  16
ATOM     16  C   UNL     1     -13.637 -20.392  29.496  1.00  0.00     0.079 C 
BRANCH  16  17
ATOM     17  C   UNL     1     -13.148 -19.886  30.836  1.00  0.00     0.130 C 
ATOM     18  O   UNL     1     -13.610 -18.838  31.263  1.00  0.00    -0.300 OA
ATOM     19  C   UNL     1     -12.123 -20.613  31.662  1.00  0.00     0.087 C 
ENDBRANCH  16  17
ENDBRANCH  15  16
ENDBRANCH  13  15
ENDBRANCH  11  12
ENDBRANCH   1  11
TORSDOF 9
ENDMDL
MODEL 4
REMARK VINA RESULT:    -5.100      1.843      5.039
REMARK INTER + INTRA:          -9.280
REMARK INTER:                  -8.342
REMARK INTRA:                  -0.938
REMARK UNBOUND:                -1.497
REMARK SMILES CC(=O)CCC=C(C)CCC=C(C)CCC=C(C)C
REMARK SMILES IDX 10 1 11 2 12 3 13 4 14 5 15 6 16 7 18 8 17 9 19 10 9 11 7 12
REMARK SMILES IDX 6 13 8 14 5 15 4 16 2 17 3 18 1 19
REMARK H PARENT
REMARK Flexibility Score: inf
ROOT
ATOM      1  C   UNL     1      -9.875 -18.564  31.584  1.00  0.00     0.032 C 
ENDROOT
BRANCH   1   2
ATOM      2  C   UNL     1     -10.316 -17.551  30.553  1.00  0.00    -0.028 C 
ATOM      3  C   UNL     1     -10.477 -16.240  30.829  1.00  0.00    -0.077 C 
ATOM      4  C   UNL     1     -10.218 -15.689  32.211  1.00  0.00     0.039 C 
BRANCH   3   5
ATOM      5  C   UNL     1     -10.921 -15.300  29.729  1.00  0.00     0.034 C 
BRANCH   5   6
ATOM      6  C   UNL     1     -12.436 -15.389  29.516  1.00  0.00     0.032 C 
BRANCH   6   7
ATOM      7  C   UNL     1     -13.158 -15.486  30.837  1.00  0.00    -0.028 C 
ATOM      8  C   UNL     1     -14.915 -15.031  32.493  1.00  0.00     0.039 C 
ATOM      9  C   UNL     1     -14.282 -14.803  31.145  1.00  0.00    -0.080 C 
ATOM     10  C   UNL     1     -14.904 -13.813  30.188  1.00  0.00     0.039 C 
ENDBRANCH   6   7
ENDBRANCH   5   6
ENDBRANCH   3   5
ENDBRANCH   1   2
BRANCH   1  11
ATOM     11  C   UNL     1     -11.012 -19.516  31.984  1.00  0.00     0.034 C 
BRANCH  11  12
ATOM     12  C   UNL     1     -12.163 -19.476  30.997  1.00  0.00    -0.077 C 
ATOM     13  C   UNL     1     -11.930 -19.755  29.696  1.00  0.00    -0.028 C 
ATOM     14  C   UNL     1     -13.552 -19.147  31.492  1.00  0.00     0.039 C 
BRANCH  13  15
ATOM     15  C   UNL     1     -13.011 -19.737  28.643  1.00  0.00     0.035 C 
BRANCH  15  16
ATOM     16  C   UNL     1     -13.447 -18.300  28.320  1.00  0.00     0.079 C 
BRANCH  16  17
ATOM     17  C   UNL     1     -12.798 -17.713  27.086  1.00  0.00     0.130 C 
ATOM     18  O   UNL     1     -13.519 -17.209  26.237  1.00  0.00    -0.300 OA
ATOM     19  C   UNL     1     -11.311 -17.721  26.858  1.00  0.00     0.087 C 
ENDBRANCH  16  17
ENDBRANCH  15  16
ENDBRANCH  13  15
ENDBRANCH  11  12
ENDBRANCH   1  11
TORSDOF 9
ENDMDL
MODEL 5
REMARK VINA RESULT:    -5.074      1.831      6.475
REMARK INTER + INTRA:          -9.240
REMARK INTER:                  -8.100
REMARK INTRA:                  -1.141
REMARK UNBOUND:                -1.497
REMARK SMILES CC(=O)CCC=C(C)CCC=C(C)CCC=C(C)C
REMARK SMILES IDX 10 1 11 2 12 3 13 4 14 5 15 6 16 7 18 8 17 9 19 10 9 11 7 12
REMARK SMILES IDX 6 13 8 14 5 15 4 16 2 17 3 18 1 19
REMARK H PARENT
REMARK Flexibility Score: inf
ROOT
ATOM      1  C   UNL     1     -13.137 -15.359  29.112  1.00  0.00     0.032 C 
ENDROOT
BRANCH   1   2
ATOM      2  C   UNL     1     -13.513 -15.320  30.575  1.00  0.00    -0.028 C 
ATOM      3  C   UNL     1     -14.464 -14.498  31.070  1.00  0.00    -0.077 C 
ATOM      4  C   UNL     1     -15.229 -13.551  30.177  1.00  0.00     0.039 C 
BRANCH   3   5
ATOM      5  C   UNL     1     -14.772 -14.531  32.552  1.00  0.00     0.034 C 
BRANCH   5   6
ATOM      6  C   UNL     1     -13.486 -14.666  33.373  1.00  0.00     0.032 C 
BRANCH   6   7
ATOM      7  C   UNL     1     -13.544 -13.797  34.605  1.00  0.00    -0.028 C 
ATOM      8  C   UNL     1     -12.678 -12.567  36.548  1.00  0.00     0.039 C 
ATOM      9  C   UNL     1     -12.474 -13.480  35.366  1.00  0.00    -0.080 C 
ATOM     10  C   UNL     1     -11.095 -14.025  35.076  1.00  0.00     0.039 C 
ENDBRANCH   6   7
ENDBRANCH   5   6
ENDBRANCH   3   5
ENDBRANCH   1   2
BRANCH   1  11
ATOM     11  C   UNL     1     -11.616 -15.409  28.907  1.00  0.00     0.034 C 
BRANCH  11  12
ATOM     12  C   UNL     1     -11.089 -16.831  28.884  1.00  0.00    -0.077 C 
ATOM     13  C   UNL     1     -10.720 -17.419  30.043  1.00  0.00    -0.028 C 
ATOM     14  C   UNL     1     -11.009 -17.570  27.569  1.00  0.00     0.039 C 
BRANCH  13  15
ATOM     15  C   UNL     1     -10.183 -18.828  30.118  1.00  0.00     0.035 C 
BRANCH  15  16
ATOM     16  C   UNL     1     -11.035 -19.697  31.055  1.00  0.00     0.079 C 
BRANCH  16  17
ATOM     17  C   UNL     1     -12.508 -19.728  30.711  1.00  0.00     0.130 C 
ATOM     18  O   UNL     1     -13.310 -19.389  31.568  1.00  0.00    -0.300 OA
ATOM     19  C   UNL     1     -13.026 -20.156  29.366  1.00  0.00     0.087 C 
ENDBRANCH  16  17
ENDBRANCH  15  16
ENDBRANCH  13  15
ENDBRANCH  11  12
ENDBRANCH   1  11
TORSDOF 9
ENDMDL
MODEL 6
REMARK VINA RESULT:    -5.072      1.932      4.957
REMARK INTER + INTRA:          -9.238
REMARK INTER:                  -7.205
REMARK INTRA:                  -2.033
REMARK UNBOUND:                -1.497
REMARK SMILES CC(=O)CCC=C(C)CCC=C(C)CCC=C(C)C
REMARK SMILES IDX 10 1 11 2 12 3 13 4 14 5 15 6 16 7 18 8 17 9 19 10 9 11 7 12
REMARK SMILES IDX 6 13 8 14 5 15 4 16 2 17 3 18 1 19
REMARK H PARENT
REMARK Flexibility Score: inf
ROOT
ATOM      1  C   UNL     1     -11.046 -17.657  26.412  1.00  0.00     0.032 C 
ENDROOT
BRANCH   1   2
ATOM      2  C   UNL     1     -12.055 -16.531  26.424  1.00  0.00    -0.028 C 
ATOM      3  C   UNL     1     -13.308 -16.669  26.906  1.00  0.00    -0.077 C 
ATOM      4  C   UNL     1     -13.791 -17.979  27.481  1.00  0.00     0.039 C 
BRANCH   3   5
ATOM      5  C   UNL     1     -14.247 -15.483  26.877  1.00  0.00     0.034 C 
BRANCH   5   6
ATOM      6  C   UNL     1     -13.738 -14.362  27.790  1.00  0.00     0.032 C 
BRANCH   6   7
ATOM      7  C   UNL     1     -13.578 -14.858  29.206  1.00  0.00    -0.028 C 
ATOM      8  C   UNL     1     -14.095 -15.074  31.598  1.00  0.00     0.039 C 
ATOM      9  C   UNL     1     -14.346 -14.462  30.244  1.00  0.00    -0.080 C 
ATOM     10  C   UNL     1     -15.426 -13.417  30.088  1.00  0.00     0.039 C 
ENDBRANCH   6   7
ENDBRANCH   5   6
ENDBRANCH   3   5
ENDBRANCH   1   2
BRANCH   1  11
ATOM     11  C   UNL     1      -9.875 -17.395  27.370  1.00  0.00     0.034 C 
BRANCH  11  12
ATOM     12  C   UNL     1     -10.342 -17.178  28.796  1.00  0.00    -0.077 C 
ATOM     13  C   UNL     1     -10.869 -18.214  29.485  1.00  0.00    -0.028 C 
ATOM     14  C   UNL     1     -10.188 -15.814  29.427  1.00  0.00     0.039 C 
BRANCH  13  15
ATOM     15  C   UNL     1     -11.362 -18.092  30.907  1.00  0.00     0.035 C 
BRANCH  15  16
ATOM     16  C   UNL     1     -12.769 -18.690  31.058  1.00  0.00     0.079 C 
BRANCH  16  17
ATOM     17  C   UNL     1     -12.864 -20.159  30.707  1.00  0.00     0.130 C 
ATOM     18  O   UNL     1     -12.398 -20.973  31.490  1.00  0.00    -0.300 OA
ATOM     19  C   UNL     1     -13.505 -20.659  29.442  1.00  0.00     0.087 C 
ENDBRANCH  16  17
ENDBRANCH  15  16
ENDBRANCH  13  15
ENDBRANCH  11  12
ENDBRANCH   1  11
TORSDOF 9
ENDMDL
MODEL 7
REMARK VINA RESULT:    -5.067      1.076      3.490
REMARK INTER + INTRA:          -9.230
REMARK INTER:                  -7.855
REMARK INTRA:                  -1.376
REMARK UNBOUND:                -1.497
REMARK SMILES CC(=O)CCC=C(C)CCC=C(C)CCC=C(C)C
REMARK SMILES IDX 10 1 11 2 12 3 13 4 14 5 15 6 16 7 18 8 17 9 19 10 9 11 7 12
REMARK SMILES IDX 6 13 8 14 5 15 4 16 2 17 3 18 1 19
REMARK H PARENT
REMARK Flexibility Score: inf
ROOT
ATOM      1  C   UNL     1     -12.907 -18.229  27.340  1.00  0.00     0.032 C 
ENDROOT
BRANCH   1   2
ATOM      2  C   UNL     1     -13.045 -18.571  28.805  1.00  0.00    -0.028 C 
ATOM      3  C   UNL     1     -13.356 -19.808  29.248  1.00  0.00    -0.077 C 
ATOM      4  C   UNL     1     -13.584 -20.953  28.290  1.00  0.00     0.039 C 
BRANCH   3   5
ATOM      5  C   UNL     1     -13.471 -20.055  30.737  1.00  0.00     0.034 C 
BRANCH   5   6
ATOM      6  C   UNL     1     -12.126 -20.504  31.320  1.00  0.00     0.032 C 
BRANCH   6   7
ATOM      7  C   UNL     1     -11.452 -19.366  32.046  1.00  0.00    -0.028 C 
ATOM      8  C   UNL     1      -9.906 -17.483  32.359  1.00  0.00     0.039 C 
ATOM      9  C   UNL     1     -10.457 -18.613  31.529  1.00  0.00    -0.080 C 
ATOM     10  C   UNL     1      -9.875 -18.885  30.162  1.00  0.00     0.039 C 
ENDBRANCH   6   7
ENDBRANCH   5   6
ENDBRANCH   3   5
ENDBRANCH   1   2
BRANCH   1  11
ATOM     11  C   UNL     1     -11.999 -17.012  27.112  1.00  0.00     0.034 C 
BRANCH  11  12
ATOM     12  C   UNL     1     -12.069 -16.026  28.262  1.00  0.00    -0.077 C 
ATOM     13  C   UNL     1     -13.276 -15.621  28.715  1.00  0.00    -0.028 C 
ATOM     14  C   UNL     1     -10.788 -15.532  28.893  1.00  0.00     0.039 C 
BRANCH  13  15
ATOM     15  C   UNL     1     -13.444 -14.642  29.851  1.00  0.00     0.035 C 
BRANCH  15  16
ATOM     16  C   UNL     1     -13.594 -15.372  31.195  1.00  0.00     0.079 C 
BRANCH  16  17
ATOM     17  C   UNL     1     -14.551 -14.709  32.161  1.00  0.00     0.130 C 
ATOM     18  O   UNL     1     -15.672 -14.426  31.765  1.00  0.00    -0.300 OA
ATOM     19  C   UNL     1     -14.186 -14.384  33.584  1.00  0.00     0.087 C 
ENDBRANCH  16  17
ENDBRANCH  15  16
ENDBRANCH  13  15
ENDBRANCH  11  12
ENDBRANCH   1  11
TORSDOF 9
ENDMDL
MODEL 8
REMARK VINA RESULT:    -4.918      2.061      5.875
REMARK INTER + INTRA:          -9.003
REMARK INTER:                  -6.983
REMARK INTRA:                  -2.020
REMARK UNBOUND:                -1.497
REMARK SMILES CC(=O)CCC=C(C)CCC=C(C)CCC=C(C)C
REMARK SMILES IDX 10 1 11 2 12 3 13 4 14 5 15 6 16 7 18 8 17 9 19 10 9 11 7 12
REMARK SMILES IDX 6 13 8 14 5 15 4 16 2 17 3 18 1 19
REMARK H PARENT
REMARK Flexibility Score: inf
ROOT
ATOM      1  C   UNL     1     -13.228 -15.213  28.259  1.00  0.00     0.032 C 
ENDROOT
BRANCH   1   2
ATOM      2  C   UNL     1     -11.920 -15.265  29.013  1.00  0.00    -0.028 C 
ATOM      3  C   UNL     1     -11.818 -15.712  30.284  1.00  0.00    -0.077 C 
ATOM      4  C   UNL     1     -13.026 -16.202  31.045  1.00  0.00     0.039 C 
BRANCH   3   5
ATOM      5  C   UNL     1     -10.462 -15.728  30.956  1.00  0.00     0.034 C 
BRANCH   5   6
ATOM      6  C   UNL     1     -10.579 -16.218  32.404  1.00  0.00     0.032 C 
BRANCH   6   7
ATOM      7  C   UNL     1      -9.960 -15.225  33.356  1.00  0.00    -0.028 C 
ATOM      8  C   UNL     1      -9.906 -13.500  35.105  1.00  0.00     0.039 C 
ATOM      9  C   UNL     1     -10.663 -14.415  34.177  1.00  0.00    -0.080 C 
ATOM     10  C   UNL     1     -12.174 -14.389  34.175  1.00  0.00     0.039 C 
ENDBRANCH   6   7
ENDBRANCH   5   6
ENDBRANCH   3   5
ENDBRANCH   1   2
BRANCH   1  11
ATOM     11  C   UNL     1     -13.229 -16.141  27.036  1.00  0.00     0.034 C 
BRANCH  11  12
ATOM     12  C   UNL     1     -12.714 -17.528  27.371  1.00  0.00    -0.077 C 
ATOM     13  C   UNL     1     -13.522 -18.396  28.019  1.00  0.00    -0.028 C 
ATOM     14  C   UNL     1     -11.315 -17.920  26.955  1.00  0.00     0.039 C 
BRANCH  13  15
ATOM     15  C   UNL     1     -13.097 -19.794  28.396  1.00  0.00     0.035 C 
BRANCH  15  16
ATOM     16  C   UNL     1     -13.403 -20.087  29.873  1.00  0.00     0.079 C 
BRANCH  16  17
ATOM     17  C   UNL     1     -12.252 -19.814  30.815  1.00  0.00     0.130 C 
ATOM     18  O   UNL     1     -12.436 -19.965  32.014  1.00  0.00    -0.300 OA
ATOM     19  C   UNL     1     -10.895 -19.366  30.345  1.00  0.00     0.087 C 
ENDBRANCH  16  17
ENDBRANCH  15  16
ENDBRANCH  13  15
ENDBRANCH  11  12
ENDBRANCH   1  11
TORSDOF 9
ENDMDL
MODEL 9
REMARK VINA RESULT:    -4.894      1.652      5.273
REMARK INTER + INTRA:          -8.966
REMARK INTER:                  -7.767
REMARK INTRA:                  -1.200
REMARK UNBOUND:                -1.497
REMARK SMILES CC(=O)CCC=C(C)CCC=C(C)CCC=C(C)C
REMARK SMILES IDX 10 1 11 2 12 3 13 4 14 5 15 6 16 7 18 8 17 9 19 10 9 11 7 12
REMARK SMILES IDX 6 13 8 14 5 15 4 16 2 17 3 18 1 19
REMARK H PARENT
REMARK Flexibility Score: inf
ROOT
ATOM      1  C   UNL     1     -10.934 -17.005  27.868  1.00  0.00     0.032 C 
ENDROOT
BRANCH   1   2
ATOM      2  C   UNL     1     -11.993 -15.971  28.173  1.00  0.00    -0.028 C 
ATOM      3  C   UNL     1     -13.174 -15.910  27.520  1.00  0.00    -0.077 C 
ATOM      4  C   UNL     1     -13.520 -16.892  26.426  1.00  0.00     0.039 C 
BRANCH   3   5
ATOM      5  C   UNL     1     -14.174 -14.838  27.897  1.00  0.00     0.034 C 
BRANCH   5   6
ATOM      6  C   UNL     1     -13.672 -14.022  29.093  1.00  0.00     0.032 C 
BRANCH   6   7
ATOM      7  C   UNL     1     -14.613 -14.156  30.264  1.00  0.00    -0.028 C 
ATOM      8  C   UNL     1     -15.366 -14.876  32.489  1.00  0.00     0.039 C 
ATOM      9  C   UNL     1     -14.344 -14.866  31.382  1.00  0.00    -0.080 C 
ATOM     10  C   UNL     1     -13.066 -15.656  31.540  1.00  0.00     0.039 C 
ENDBRANCH   6   7
ENDBRANCH   5   6
ENDBRANCH   3   5
ENDBRANCH   1   2
BRANCH   1  11
ATOM     11  C   UNL     1      -9.875 -17.093  28.976  1.00  0.00     0.034 C 
BRANCH  11  12
ATOM     12  C   UNL     1     -10.398 -17.804  30.209  1.00  0.00    -0.077 C 
ATOM     13  C   UNL     1     -11.002 -19.006  30.075  1.00  0.00    -0.028 C 
ATOM     14  C   UNL     1     -10.213 -17.167  31.567  1.00  0.00     0.039 C 
BRANCH  13  15
ATOM     15  C   UNL     1     -11.555 -19.785  31.243  1.00  0.00     0.035 C 
BRANCH  15  16
ATOM     16  C   UNL     1     -12.946 -20.353  30.922  1.00  0.00     0.079 C 
BRANCH  16  17
ATOM     17  C   UNL     1     -13.533 -19.864  29.616  1.00  0.00     0.130 C 
ATOM     18  O   UNL     1     -13.797 -18.675  29.509  1.00  0.00    -0.300 OA
ATOM     19  C   UNL     1     -13.806 -20.771  28.448  1.00  0.00     0.087 C 
ENDBRANCH  16  17
ENDBRANCH  15  16
ENDBRANCH  13  15
ENDBRANCH  11  12
ENDBRANCH   1  11
TORSDOF 9
ENDMDL
