MODEL 1
REMARK VINA RESULT:    -3.274      0.000      0.000
REMARK INTER + INTRA:          -5.403
REMARK INTER:                  -4.996
REMARK INTRA:                  -0.407
REMARK UNBOUND:                -0.407
REMARK SMILES CC1=CCC[C@H](C)C(=O)C[C@@H](C(C)C)C(=O)C1
REMARK SMILES IDX 8 1 9 2 6 3 7 4 5 5 4 6 3 7 2 8 1 9 10 11 11 12 15 13 16 14
REMARK SMILES IDX 17 15 12 17 13 18 14 19
REMARK H PARENT
REMARK Flexibility Score: 70.00
ROOT
ATOM      1  C   UNL     1     128.942 121.973  99.234  1.00  0.00     0.136 C 
ATOM      2  O   UNL     1     128.108 121.265  99.780  1.00  0.00    -0.299 OA
ENDROOT
BRANCH   1   3
ATOM      3  C   UNL     1     128.810 123.483  99.316  1.00  0.00     0.053 C 
ATOM      4  C   UNL     1     129.520 124.016 100.567  1.00  0.00     0.016 C 
BRANCH   3   5
ATOM      5  C   UNL     1     129.373 124.146  98.038  1.00  0.00     0.015 C 
BRANCH   5   6
ATOM      6  C   UNL     1     130.607 125.016  98.347  1.00  0.00     0.028 C 
BRANCH   6   7
ATOM      7  C   UNL     1     131.745 124.799  97.380  1.00  0.00    -0.028 C 
ATOM      8  C   UNL     1     132.749 123.900  97.538  1.00  0.00    -0.070 CG0
ATOM      9  C   UNL     1     133.744 123.759  96.413  1.00  0.00     0.039 C 
ATOM     10  G   UNL     1     132.948 123.070  98.800  1.00  0.00     0.000 G0
ENDBRANCH   6   7
ENDBRANCH   5   6
ENDBRANCH   3   5
ENDBRANCH   1   3
BRANCH   1  11
ATOM     11  C   UNL     1     130.076 121.320  98.477  1.00  0.00     0.087 C 
BRANCH  11  12
ATOM     12  C   UNL     1     131.330 121.103  99.367  1.00  0.00     0.066 C 
BRANCH  12  13
ATOM     13  C   UNL     1     132.587 121.627  98.686  1.00  0.00     0.140 C 
ATOM     14  O   UNL     1     133.323 120.866  98.075  1.00  0.00    -0.299 OA
BRANCH  13  15
ATOM     15  C   UNL     1     132.962 123.084  98.813  1.00  0.00     0.106 CG0
ATOM     16  G   UNL     1     132.737 123.894  97.543  1.00  0.00     0.000 G0
ENDBRANCH  13  15
ENDBRANCH  12  13
BRANCH  12  17
ATOM     17  C   UNL     1     131.502 119.626  99.851  1.00  0.00    -0.006 C 
ATOM     18  C   UNL     1     131.064 119.458 101.315  1.00  0.00     0.008 C 
ATOM     19  C   UNL     1     130.775 118.594  98.970  1.00  0.00     0.008 C 
ENDBRANCH  12  17
ENDBRANCH  11  12
ENDBRANCH   1  11
TORSDOF 1
ENDMDL
MODEL 2
REMARK VINA RESULT:    -3.198      1.456      2.116
REMARK INTER + INTRA:          -5.287
REMARK INTER:                  -5.061
REMARK INTRA:                  -0.227
REMARK UNBOUND:                -0.407
REMARK SMILES CC1=CCC[C@H](C)C(=O)C[C@@H](C(C)C)C(=O)C1
REMARK SMILES IDX 8 1 9 2 6 3 7 4 5 5 4 6 3 7 2 8 1 9 10 11 11 12 15 13 16 14
REMARK SMILES IDX 17 15 12 17 13 18 14 19
REMARK H PARENT
REMARK Flexibility Score: 70.00
ROOT
ATOM      1  C   UNL     1     128.737 122.473  99.138  1.00  0.00     0.136 C 
ATOM      2  O   UNL     1     127.706 122.840  99.685  1.00  0.00    -0.299 OA
ENDROOT
BRANCH   1   3
ATOM      3  C   UNL     1     129.725 123.510  98.635  1.00  0.00     0.053 C 
ATOM      4  C   UNL     1     129.023 124.515  97.713  1.00  0.00     0.016 C 
BRANCH   3   5
ATOM      5  C   UNL     1     130.404 124.231  99.821  1.00  0.00     0.015 C 
BRANCH   5   6
ATOM      6  C   UNL     1     131.792 123.635 100.128  1.00  0.00     0.028 C 
BRANCH   6   7
ATOM      7  C   UNL     1     132.587 123.308  98.888  1.00  0.00    -0.028 C 
ATOM      8  C   UNL     1     132.935 122.061  98.484  1.00  0.00    -0.070 CG0
ATOM      9  C   UNL     1     133.647 121.928  97.161  1.00  0.00     0.039 C 
ATOM     10  G   UNL     1     132.687 120.806  99.311  1.00  0.00     0.000 G0
ENDBRANCH   6   7
ENDBRANCH   5   6
ENDBRANCH   3   5
ENDBRANCH   1   3
BRANCH   1  11
ATOM     11  C   UNL     1     128.988 120.992  98.964  1.00  0.00     0.087 C 
BRANCH  11  12
ATOM     12  C   UNL     1     130.153 120.485  99.856  1.00  0.00     0.066 C 
BRANCH  12  13
ATOM     13  C   UNL     1     131.372 120.123  99.019  1.00  0.00     0.140 C 
ATOM     14  O   UNL     1     131.295 119.263  98.154  1.00  0.00    -0.299 OA
BRANCH  13  15
ATOM     15  C   UNL     1     132.700 120.786  99.295  1.00  0.00     0.106 CG0
ATOM     16  G   UNL     1     132.927 122.070  98.507  1.00  0.00     0.000 G0
ENDBRANCH  13  15
ENDBRANCH  12  13
BRANCH  12  17
ATOM     17  C   UNL     1     129.741 119.322 100.817  1.00  0.00    -0.006 C 
ATOM     18  C   UNL     1     130.949 118.782 101.599  1.00  0.00     0.008 C 
ATOM     19  C   UNL     1     128.612 119.695 101.797  1.00  0.00     0.008 C 
ENDBRANCH  12  17
ENDBRANCH  11  12
ENDBRANCH   1  11
TORSDOF 1
ENDMDL
MODEL 3
REMARK VINA RESULT:    -3.134     14.515     16.731
REMARK INTER + INTRA:          -5.189
REMARK INTER:                  -4.858
REMARK INTRA:                  -0.331
REMARK UNBOUND:                -0.407
REMARK SMILES CC1=CCC[C@H](C)C(=O)C[C@@H](C(C)C)C(=O)C1
REMARK SMILES IDX 8 1 9 2 6 3 7 4 5 5 4 6 3 7 2 8 1 9 10 11 11 12 15 13 16 14
REMARK SMILES IDX 17 15 12 17 13 18 14 19
REMARK H PARENT
REMARK Flexibility Score: 70.00
ROOT
ATOM      1  C   UNL     1     118.407 126.533 108.276  1.00  0.00     0.136 C 
ATOM      2  O   UNL     1     118.218 127.184 109.295  1.00  0.00    -0.299 OA
ENDROOT
BRANCH   1   3
ATOM      3  C   UNL     1     119.823 126.151 107.887  1.00  0.00     0.053 C 
ATOM      4  C   UNL     1     120.638 127.403 107.534  1.00  0.00     0.016 C 
BRANCH   3   5
ATOM      5  C   UNL     1     120.502 125.354 109.024  1.00  0.00     0.015 C 
BRANCH   5   6
ATOM      6  C   UNL     1     120.174 123.850 108.938  1.00  0.00     0.028 C 
BRANCH   6   7
ATOM      7  C   UNL     1     120.128 123.331 107.522  1.00  0.00    -0.028 C 
ATOM      8  C   UNL     1     119.020 122.873 106.888  1.00  0.00    -0.070 CG0
ATOM      9  C   UNL     1     119.154 122.488 105.436  1.00  0.00     0.039 C 
ATOM     10  G   UNL     1     117.673 122.685 107.574  1.00  0.00     0.000 G0
ENDBRANCH   6   7
ENDBRANCH   5   6
ENDBRANCH   3   5
ENDBRANCH   1   3
BRANCH   1  11
ATOM     11  C   UNL     1     117.221 126.142 107.425  1.00  0.00     0.087 C 
BRANCH  11  12
ATOM     12  C   UNL     1     116.435 124.946 108.024  1.00  0.00     0.066 C 
BRANCH  12  13
ATOM     13  C   UNL     1     116.612 123.690 107.182  1.00  0.00     0.140 C 
ATOM     14  O   UNL     1     115.879 123.476 106.227  1.00  0.00    -0.299 OA
BRANCH  13  15
ATOM     15  C   UNL     1     117.661 122.671 107.558  1.00  0.00     0.106 CG0
ATOM     16  G   UNL     1     119.014 122.902 106.897  1.00  0.00     0.000 G0
ENDBRANCH  13  15
ENDBRANCH  12  13
BRANCH  12  17
ATOM     17  C   UNL     1     114.925 125.261 108.288  1.00  0.00    -0.006 C 
ATOM     18  C   UNL     1     114.648 125.480 109.784  1.00  0.00     0.008 C 
ATOM     19  C   UNL     1     114.390 126.458 107.480  1.00  0.00     0.008 C 
ENDBRANCH  12  17
ENDBRANCH  11  12
ENDBRANCH   1  11
TORSDOF 1
ENDMDL
MODEL 4
REMARK VINA RESULT:    -3.074     13.201     14.954
REMARK INTER + INTRA:          -5.098
REMARK INTER:                  -4.746
REMARK INTRA:                  -0.352
REMARK UNBOUND:                -0.407
REMARK SMILES CC1=CCC[C@H](C)C(=O)C[C@@H](C(C)C)C(=O)C1
REMARK SMILES IDX 8 1 9 2 6 3 7 4 5 5 4 6 3 7 2 8 1 9 10 11 11 12 15 13 16 14
REMARK SMILES IDX 17 15 12 17 13 18 14 19
REMARK H PARENT
REMARK Flexibility Score: 70.00
ROOT
ATOM      1  C   UNL     1     116.971 118.633 106.060  1.00  0.00     0.136 C 
ATOM      2  O   UNL     1     117.018 117.552 106.632  1.00  0.00    -0.299 OA
ENDROOT
BRANCH   1   3
ATOM      3  C   UNL     1     116.068 119.726 106.603  1.00  0.00     0.053 C 
ATOM      4  C   UNL     1     114.607 119.257 106.616  1.00  0.00     0.016 C 
BRANCH   3   5
ATOM      5  C   UNL     1     116.524 120.152 108.017  1.00  0.00     0.015 C 
BRANCH   5   6
ATOM      6  C   UNL     1     117.930 120.783 107.995  1.00  0.00     0.028 C 
BRANCH   6   7
ATOM      7  C   UNL     1     117.990 122.075 107.219  1.00  0.00    -0.028 C 
ATOM      8  C   UNL     1     118.880 122.361 106.236  1.00  0.00    -0.070 CG0
ATOM      9  C   UNL     1     118.719 123.670 105.506  1.00  0.00     0.039 C 
ATOM     10  G   UNL     1     120.050 121.456 105.868  1.00  0.00     0.000 G0
ENDBRANCH   6   7
ENDBRANCH   5   6
ENDBRANCH   3   5
ENDBRANCH   1   3
BRANCH   1  11
ATOM     11  C   UNL     1     117.804 118.841 104.816  1.00  0.00     0.087 C 
BRANCH  11  12
ATOM     12  C   UNL     1     119.306 119.056 105.143  1.00  0.00     0.066 C 
BRANCH  12  13
ATOM     13  C   UNL     1     119.757 120.461 104.769  1.00  0.00     0.140 C 
ATOM     14  O   UNL     1     119.912 120.770 103.597  1.00  0.00    -0.299 OA
BRANCH  13  15
ATOM     15  C   UNL     1     120.072 121.465 105.852  1.00  0.00     0.106 CG0
ATOM     16  G   UNL     1     118.890 122.343 106.245  1.00  0.00     0.000 G0
ENDBRANCH  13  15
ENDBRANCH  12  13
BRANCH  12  17
ATOM     17  C   UNL     1     120.240 117.962 104.528  1.00  0.00    -0.006 C 
ATOM     18  C   UNL     1     120.714 116.962 105.595  1.00  0.00     0.008 C 
ATOM     19  C   UNL     1     119.612 117.201 103.345  1.00  0.00     0.008 C 
ENDBRANCH  12  17
ENDBRANCH  11  12
ENDBRANCH   1  11
TORSDOF 1
ENDMDL
MODEL 5
REMARK VINA RESULT:    -3.073     12.942     15.046
REMARK INTER + INTRA:          -5.096
REMARK INTER:                  -4.865
REMARK INTRA:                  -0.231
REMARK UNBOUND:                -0.407
REMARK SMILES CC1=CCC[C@H](C)C(=O)C[C@@H](C(C)C)C(=O)C1
REMARK SMILES IDX 8 1 9 2 6 3 7 4 5 5 4 6 3 7 2 8 1 9 10 11 11 12 15 13 16 14
REMARK SMILES IDX 17 15 12 17 13 18 14 19
REMARK H PARENT
REMARK Flexibility Score: 70.00
ROOT
ATOM      1  C   UNL     1     119.975 126.178 108.147  1.00  0.00     0.136 C 
ATOM      2  O   UNL     1     120.638 126.132 109.175  1.00  0.00    -0.299 OA
ENDROOT
BRANCH   1   3
ATOM      3  C   UNL     1     120.614 126.687 106.868  1.00  0.00     0.053 C 
ATOM      4  C   UNL     1     120.972 128.173 107.002  1.00  0.00     0.016 C 
BRANCH   3   5
ATOM      5  C   UNL     1     121.864 125.848 106.517  1.00  0.00     0.015 C 
BRANCH   5   6
ATOM      6  C   UNL     1     121.502 124.374 106.247  1.00  0.00     0.028 C 
BRANCH   6   7
ATOM      7  C   UNL     1     120.869 124.154 104.895  1.00  0.00    -0.028 C 
ATOM      8  C   UNL     1     119.664 123.572 104.677  1.00  0.00    -0.070 CG0
ATOM      9  C   UNL     1     119.154 123.531 103.258  1.00  0.00     0.039 C 
ATOM     10  G   UNL     1     118.829 122.922 105.774  1.00  0.00     0.000 G0
ENDBRANCH   6   7
ENDBRANCH   5   6
ENDBRANCH   3   5
ENDBRANCH   1   3
BRANCH   1  11
ATOM     11  C   UNL     1     118.528 125.740 108.188  1.00  0.00     0.087 C 
BRANCH  11  12
ATOM     12  C   UNL     1     118.373 124.206 108.010  1.00  0.00     0.066 C 
BRANCH  12  13
ATOM     13  C   UNL     1     117.972 123.854 106.585  1.00  0.00     0.140 C 
ATOM     14  O   UNL     1     116.941 124.301 106.103  1.00  0.00    -0.299 OA
BRANCH  13  15
ATOM     15  C   UNL     1     118.818 122.899 105.777  1.00  0.00     0.106 CG0
ATOM     16  G   UNL     1     119.648 123.574 104.691  1.00  0.00     0.000 G0
ENDBRANCH  13  15
ENDBRANCH  12  13
BRANCH  12  17
ATOM     17  C   UNL     1     117.420 123.551 109.062  1.00  0.00    -0.006 C 
ATOM     18  C   UNL     1     118.208 122.919 110.221  1.00  0.00     0.008 C 
ATOM     19  C   UNL     1     116.355 124.513 109.622  1.00  0.00     0.008 C 
ENDBRANCH  12  17
ENDBRANCH  11  12
ENDBRANCH   1  11
TORSDOF 1
ENDMDL
MODEL 6
REMARK VINA RESULT:    -3.022      2.246      4.071
REMARK INTER + INTRA:          -5.018
REMARK INTER:                  -4.947
REMARK INTRA:                  -0.071
REMARK UNBOUND:                -0.407
REMARK SMILES CC1=CCC[C@H](C)C(=O)C[C@@H](C(C)C)C(=O)C1
REMARK SMILES IDX 8 1 9 2 6 3 7 4 5 5 4 6 3 7 2 8 1 9 10 11 11 12 15 13 16 14
REMARK SMILES IDX 17 15 12 17 13 18 14 19
REMARK H PARENT
REMARK Flexibility Score: 70.00
ROOT
ATOM      1  C   UNL     1     129.256 123.428  99.271  1.00  0.00     0.136 C 
ATOM      2  O   UNL     1     129.285 124.061 100.318  1.00  0.00    -0.299 OA
ENDROOT
BRANCH   1   3
ATOM      3  C   UNL     1     130.061 123.916  98.080  1.00  0.00     0.053 C 
ATOM      4  C   UNL     1     129.712 125.375  97.759  1.00  0.00     0.016 C 
BRANCH   3   5
ATOM      5  C   UNL     1     131.575 123.757  98.349  1.00  0.00     0.015 C 
BRANCH   5   6
ATOM      6  C   UNL     1     131.995 122.274  98.369  1.00  0.00     0.028 C 
BRANCH   6   7
ATOM      7  C   UNL     1     132.181 121.727  99.763  1.00  0.00    -0.028 C 
ATOM      8  C   UNL     1     131.573 120.621 100.261  1.00  0.00    -0.070 CG0
ATOM      9  C   UNL     1     131.963 120.174 101.647  1.00  0.00     0.039 C 
ATOM     10  G   UNL     1     130.493 119.845  99.517  1.00  0.00     0.000 G0
ENDBRANCH   6   7
ENDBRANCH   5   6
ENDBRANCH   3   5
ENDBRANCH   1   3
BRANCH   1  11
ATOM     11  C   UNL     1     128.401 122.184  99.191  1.00  0.00     0.087 C 
BRANCH  11  12
ATOM     12  C   UNL     1     128.512 121.310 100.469  1.00  0.00     0.066 C 
BRANCH  12  13
ATOM     13  C   UNL     1     129.106 119.945 100.154  1.00  0.00     0.140 C 
ATOM     14  O   UNL     1     128.499 118.924 100.444  1.00  0.00    -0.299 OA
BRANCH  13  15
ATOM     15  C   UNL     1     130.479 119.844  99.533  1.00  0.00     0.106 CG0
ATOM     16  G   UNL     1     131.552 120.635 100.270  1.00  0.00     0.000 G0
ENDBRANCH  13  15
ENDBRANCH  12  13
BRANCH  12  17
ATOM     17  C   UNL     1     127.169 121.192 101.262  1.00  0.00    -0.006 C 
ATOM     18  C   UNL     1     127.198 122.033 102.548  1.00  0.00     0.008 C 
ATOM     19  C   UNL     1     125.923 121.555 100.432  1.00  0.00     0.008 C 
ENDBRANCH  12  17
ENDBRANCH  11  12
ENDBRANCH   1  11
TORSDOF 1
ENDMDL
MODEL 7
REMARK VINA RESULT:    -3.018      2.313      5.534
REMARK INTER + INTRA:          -5.013
REMARK INTER:                  -4.725
REMARK INTRA:                  -0.288
REMARK UNBOUND:                -0.407
REMARK SMILES CC1=CCC[C@H](C)C(=O)C[C@@H](C(C)C)C(=O)C1
REMARK SMILES IDX 8 1 9 2 6 3 7 4 5 5 4 6 3 7 2 8 1 9 10 11 11 12 15 13 16 14
REMARK SMILES IDX 17 15 12 17 13 18 14 19
REMARK H PARENT
REMARK Flexibility Score: 70.00
ROOT
ATOM      1  C   UNL     1     132.126 121.469  98.422  1.00  0.00     0.136 C 
ATOM      2  O   UNL     1     132.981 122.287  98.110  1.00  0.00    -0.299 OA
ENDROOT
BRANCH   1   3
ATOM      3  C   UNL     1     132.527 120.028  98.677  1.00  0.00     0.053 C 
ATOM      4  C   UNL     1     133.298 119.912  99.999  1.00  0.00     0.016 C 
BRANCH   3   5
ATOM      5  C   UNL     1     131.282 119.112  98.682  1.00  0.00     0.015 C 
BRANCH   5   6
ATOM      6  C   UNL     1     130.932 118.639 100.107  1.00  0.00     0.028 C 
BRANCH   6   7
ATOM      7  C   UNL     1     129.468 118.793 100.442  1.00  0.00    -0.028 C 
ATOM      8  C   UNL     1     128.896 119.901 100.974  1.00  0.00    -0.070 CG0
ATOM      9  C   UNL     1     127.398 119.900 101.146  1.00  0.00     0.039 C 
ATOM     10  G   UNL     1     129.687 121.116 101.445  1.00  0.00     0.000 G0
ENDBRANCH   6   7
ENDBRANCH   5   6
ENDBRANCH   3   5
ENDBRANCH   1   3
BRANCH   1  11
ATOM     11  C   UNL     1     130.686 121.919  98.528  1.00  0.00     0.087 C 
BRANCH  11  12
ATOM     12  C   UNL     1     130.465 122.914  99.699  1.00  0.00     0.066 C 
BRANCH  12  13
ATOM     13  C   UNL     1     129.419 122.395 100.675  1.00  0.00     0.140 C 
ATOM     14  O   UNL     1     128.384 123.018 100.862  1.00  0.00    -0.299 OA
BRANCH  13  15
ATOM     15  C   UNL     1     129.682 121.134 101.462  1.00  0.00     0.106 CG0
ATOM     16  G   UNL     1     128.899 119.922 100.971  1.00  0.00     0.000 G0
ENDBRANCH  13  15
ENDBRANCH  12  13
BRANCH  12  17
ATOM     17  C   UNL     1     130.149 124.371  99.226  1.00  0.00    -0.006 C 
ATOM     18  C   UNL     1     131.406 125.255  99.246  1.00  0.00     0.008 C 
ATOM     19  C   UNL     1     129.483 124.444  97.839  1.00  0.00     0.008 C 
ENDBRANCH  12  17
ENDBRANCH  11  12
ENDBRANCH   1  11
TORSDOF 1
ENDMDL
MODEL 8
REMARK VINA RESULT:    -2.967      1.939      4.232
REMARK INTER + INTRA:          -4.935
REMARK INTER:                  -4.855
REMARK INTRA:                  -0.080
REMARK UNBOUND:                -0.407
REMARK SMILES CC1=CCC[C@H](C)C(=O)C[C@@H](C(C)C)C(=O)C1
REMARK SMILES IDX 8 1 9 2 6 3 7 4 5 5 4 6 3 7 2 8 1 9 10 11 11 12 15 13 16 14
REMARK SMILES IDX 17 15 12 17 13 18 14 19
REMARK H PARENT
REMARK Flexibility Score: 70.00
ROOT
ATOM      1  C   UNL     1     129.795 123.359  98.607  1.00  0.00     0.136 C 
ATOM      2  O   UNL     1     129.096 123.955  97.798  1.00  0.00    -0.299 OA
ENDROOT
BRANCH   1   3
ATOM      3  C   UNL     1     129.214 122.186  99.375  1.00  0.00     0.053 C 
ATOM      4  C   UNL     1     127.810 122.528  99.893  1.00  0.00     0.016 C 
BRANCH   3   5
ATOM      5  C   UNL     1     129.181 120.921  98.488  1.00  0.00     0.015 C 
BRANCH   5   6
ATOM      6  C   UNL     1     129.960 119.756  99.132  1.00  0.00     0.028 C 
BRANCH   6   7
ATOM      7  C   UNL     1     130.271 119.983 100.591  1.00  0.00    -0.028 C 
ATOM      8  C   UNL     1     131.440 120.468 101.079  1.00  0.00    -0.070 CG0
ATOM      9  C   UNL     1     131.526 120.718 102.564  1.00  0.00     0.039 C 
ATOM     10  G   UNL     1     132.671 120.726 100.220  1.00  0.00     0.000 G0
ENDBRANCH   6   7
ENDBRANCH   5   6
ENDBRANCH   3   5
ENDBRANCH   1   3
BRANCH   1  11
ATOM     11  C   UNL     1     131.217 123.823  98.830  1.00  0.00     0.087 C 
BRANCH  11  12
ATOM     12  C   UNL     1     132.253 122.705  98.535  1.00  0.00     0.066 C 
BRANCH  12  13
ATOM     13  C   UNL     1     132.864 122.166  99.821  1.00  0.00     0.140 C 
ATOM     14  O   UNL     1     133.558 122.884 100.525  1.00  0.00    -0.299 OA
BRANCH  13  15
ATOM     15  C   UNL     1     132.661 120.719 100.204  1.00  0.00     0.106 CG0
ATOM     16  G   UNL     1     131.436 120.475 101.075  1.00  0.00     0.000 G0
ENDBRANCH  13  15
ENDBRANCH  12  13
BRANCH  12  17
ATOM     17  C   UNL     1     133.349 123.128  97.503  1.00  0.00    -0.006 C 
ATOM     18  C   UNL     1     133.761 121.951  96.604  1.00  0.00     0.008 C 
ATOM     19  C   UNL     1     132.949 124.333  96.630  1.00  0.00     0.008 C 
ENDBRANCH  12  17
ENDBRANCH  11  12
ENDBRANCH   1  11
TORSDOF 1
ENDMDL
MODEL 9
REMARK VINA RESULT:    -2.962     14.890     17.196
REMARK INTER + INTRA:          -4.927
REMARK INTER:                  -4.755
REMARK INTRA:                  -0.172
REMARK UNBOUND:                -0.407
REMARK SMILES CC1=CCC[C@H](C)C(=O)C[C@@H](C(C)C)C(=O)C1
REMARK SMILES IDX 8 1 9 2 6 3 7 4 5 5 4 6 3 7 2 8 1 9 10 11 11 12 15 13 16 14
REMARK SMILES IDX 17 15 12 17 13 18 14 19
REMARK H PARENT
REMARK Flexibility Score: 70.00
ROOT
ATOM      1  C   UNL     1     117.602 125.592 110.089  1.00  0.00     0.136 C 
ATOM      2  O   UNL     1     117.761 126.505 110.888  1.00  0.00    -0.299 OA
ENDROOT
BRANCH   1   3
ATOM      3  C   UNL     1     116.195 125.165 109.712  1.00  0.00     0.053 C 
ATOM      4  C   UNL     1     115.386 124.817 110.968  1.00  0.00     0.016 C 
BRANCH   3   5
ATOM      5  C   UNL     1     115.494 126.274 108.894  1.00  0.00     0.015 C 
BRANCH   5   6
ATOM      6  C   UNL     1     115.300 125.858 107.423  1.00  0.00     0.028 C 
BRANCH   6   7
ATOM      7  C   UNL     1     115.028 124.384 107.252  1.00  0.00    -0.028 C 
ATOM      8  C   UNL     1     115.916 123.469 106.790  1.00  0.00    -0.070 CG0
ATOM      9  C   UNL     1     115.490 122.023 106.784  1.00  0.00     0.039 C 
ATOM     10  G   UNL     1     117.289 123.831 106.238  1.00  0.00     0.000 G0
ENDBRANCH   6   7
ENDBRANCH   5   6
ENDBRANCH   3   5
ENDBRANCH   1   3
BRANCH   1  11
ATOM     11  C   UNL     1     118.818 124.903 109.512  1.00  0.00     0.087 C 
BRANCH  11  12
ATOM     12  C   UNL     1     118.887 125.029 107.967  1.00  0.00     0.066 C 
BRANCH  12  13
ATOM     13  C   UNL     1     118.404 123.755 107.287  1.00  0.00     0.140 C 
ATOM     14  O   UNL     1     118.929 122.681 107.540  1.00  0.00    -0.299 OA
BRANCH  13  15
ATOM     15  C   UNL     1     117.310 123.823 106.249  1.00  0.00     0.106 CG0
ATOM     16  G   UNL     1     115.926 123.477 106.784  1.00  0.00     0.000 G0
ENDBRANCH  13  15
ENDBRANCH  12  13
BRANCH  12  17
ATOM     17  C   UNL     1     120.292 125.472 107.440  1.00  0.00    -0.006 C 
ATOM     18  C   UNL     1     120.258 126.905 106.884  1.00  0.00     0.008 C 
ATOM     19  C   UNL     1     121.416 125.347 108.486  1.00  0.00     0.008 C 
ENDBRANCH  12  17
ENDBRANCH  11  12
ENDBRANCH   1  11
TORSDOF 1
ENDMDL
