MODEL 1
REMARK VINA RESULT:    -3.095      0.000      0.000
REMARK INTER + INTRA:          -3.054
REMARK INTER:                  -3.819
REMARK INTRA:                   0.764
REMARK UNBOUND:                 0.764
REMARK SMILES CC1=CC=CC(C)(C)CC1=O
REMARK SMILES IDX 1 1 2 2 3 3 10 4 11 5 9 6 4 8 5 9 6 10 7 11 8 12
REMARK H PARENT
REMARK Flexibility Score: 80.00
ROOT
ATOM      1  C   UNL     1      22.280  50.557  -3.028  1.00  0.00     0.048 C 
ATOM      2  C   UNL     1      22.792  50.683  -1.612  1.00  0.00    -0.008 C 
ATOM      3  C   UNL     1      23.510  51.784  -1.302  1.00  0.00     0.007 C 
ENDROOT
BRANCH   2   4
ATOM      4  C   UNL     1      22.401  49.618  -0.655  1.00  0.00     0.159 C 
ATOM      5  O   UNL     1      21.504  48.796  -0.993  1.00  0.00    -0.295 OA
BRANCH   4   6
ATOM      6  C   UNL     1      23.023  49.452   0.697  1.00  0.00     0.091 CG0
ATOM      7  G   UNL     1      22.836  50.684   1.609  1.00  0.00     0.000 G0
ENDBRANCH   4   6
ENDBRANCH   2   4
BRANCH   3   8
ATOM      8  C   UNL     1      24.112  52.193  -0.011  1.00  0.00    -0.003 C 
ATOM      9  C   UNL     1      23.837  51.758   1.225  1.00  0.00    -0.020 C 
BRANCH   9  10
ATOM     10  C   UNL     1      22.835  50.692   1.599  1.00  0.00    -0.010 CG0
ATOM     11  C   UNL     1      21.402  51.268   1.531  1.00  0.00     0.016 C 
ATOM     12  C   UNL     1      23.107  50.262   3.059  1.00  0.00     0.016 C 
ATOM     13  G   UNL     1      23.025  49.457   0.690  1.00  0.00     0.000 G0
ENDBRANCH   9  10
ENDBRANCH   3   8
TORSDOF 0
ENDMDL
MODEL 2
REMARK VINA RESULT:    -3.012      1.662      2.641
REMARK INTER + INTRA:          -2.952
REMARK INTER:                  -3.715
REMARK INTRA:                   0.763
REMARK UNBOUND:                 0.764
REMARK SMILES CC1=CC=CC(C)(C)CC1=O
REMARK SMILES IDX 1 1 2 2 3 3 10 4 11 5 9 6 4 8 5 9 6 10 7 11 8 12
REMARK H PARENT
REMARK Flexibility Score: 80.00
ROOT
ATOM      1  C   UNL     1      25.270  53.838  -0.466  1.00  0.00     0.048 C 
ATOM      2  C   UNL     1      24.763  52.553   0.147  1.00  0.00    -0.008 C 
ATOM      3  C   UNL     1      25.235  52.212   1.366  1.00  0.00     0.007 C 
ENDROOT
BRANCH   2   4
ATOM      4  C   UNL     1      23.729  51.805  -0.610  1.00  0.00     0.159 C 
ATOM      5  O   UNL     1      23.189  52.356  -1.609  1.00  0.00    -0.295 OA
BRANCH   4   6
ATOM      6  C   UNL     1      23.293  50.416  -0.261  1.00  0.00     0.091 CG0
ATOM      7  G   UNL     1      22.712  50.299   1.166  1.00  0.00     0.000 G0
ENDBRANCH   4   6
ENDBRANCH   2   4
BRANCH   3   8
ATOM      8  C   UNL     1      24.910  51.045   2.219  1.00  0.00    -0.003 C 
ATOM      9  C   UNL     1      23.851  50.228   2.165  1.00  0.00    -0.020 C 
BRANCH   9  10
ATOM     10  C   UNL     1      22.718  50.292   1.167  1.00  0.00    -0.010 CG0
ATOM     11  C   UNL     1      21.762  51.451   1.530  1.00  0.00     0.016 C 
ATOM     12  C   UNL     1      21.920  48.971   1.255  1.00  0.00     0.016 C 
ATOM     13  G   UNL     1      23.290  50.416  -0.263  1.00  0.00     0.000 G0
ENDBRANCH   9  10
ENDBRANCH   3   8
TORSDOF 0
ENDMDL
MODEL 3
REMARK VINA RESULT:    -2.910      2.031      2.987
REMARK INTER + INTRA:          -2.827
REMARK INTER:                  -3.867
REMARK INTRA:                   1.040
REMARK UNBOUND:                 0.764
REMARK SMILES CC1=CC=CC(C)(C)CC1=O
REMARK SMILES IDX 1 1 2 2 3 3 10 4 11 5 9 6 4 8 5 9 6 10 7 11 8 12
REMARK H PARENT
REMARK Flexibility Score: 80.00
ROOT
ATOM      1  C   UNL     1      25.492  53.847  -0.288  1.00  0.00     0.048 C 
ATOM      2  C   UNL     1      24.612  52.632  -0.109  1.00  0.00    -0.008 C 
ATOM      3  C   UNL     1      23.704  52.370  -1.074  1.00  0.00     0.007 C 
ENDROOT
BRANCH   2   4
ATOM      4  C   UNL     1      24.868  51.782   1.080  1.00  0.00     0.159 C 
ATOM      5  O   UNL     1      25.582  52.240   2.014  1.00  0.00    -0.295 OA
BRANCH   4   6
ATOM      6  C   UNL     1      24.312  50.401   1.243  1.00  0.00     0.091 CG0
ATOM      7  G   UNL     1      22.768  50.356   1.202  1.00  0.00     0.000 G0
ENDBRANCH   4   6
ENDBRANCH   2   4
BRANCH   3   8
ATOM      8  C   UNL     1      22.734  51.255  -1.189  1.00  0.00    -0.003 C 
ATOM      9  C   UNL     1      22.337  50.381  -0.256  1.00  0.00    -0.020 C 
BRANCH   9  10
ATOM     10  C   UNL     1      22.780  50.347   1.187  1.00  0.00    -0.010 CG0
ATOM     11  C   UNL     1      22.196  49.100   1.889  1.00  0.00     0.016 C 
ATOM     12  C   UNL     1      22.214  51.600   1.897  1.00  0.00     0.016 C 
ATOM     13  G   UNL     1      24.322  50.407   1.262  1.00  0.00     0.000 G0
ENDBRANCH   9  10
ENDBRANCH   3   8
TORSDOF 0
ENDMDL
MODEL 4
REMARK VINA RESULT:    -2.852      1.721      3.129
REMARK INTER + INTRA:          -2.755
REMARK INTER:                  -3.516
REMARK INTRA:                   0.761
REMARK UNBOUND:                 0.764
REMARK SMILES CC1=CC=CC(C)(C)CC1=O
REMARK SMILES IDX 1 1 2 2 3 3 10 4 11 5 9 6 4 8 5 9 6 10 7 11 8 12
REMARK H PARENT
REMARK Flexibility Score: 80.00
ROOT
ATOM      1  C   UNL     1      24.665  52.857  -0.394  1.00  0.00     0.048 C 
ATOM      2  C   UNL     1      23.634  51.773  -0.603  1.00  0.00    -0.008 C 
ATOM      3  C   UNL     1      23.298  51.466  -1.874  1.00  0.00     0.007 C 
ENDROOT
BRANCH   2   4
ATOM      4  C   UNL     1      23.128  51.080   0.608  1.00  0.00     0.159 C 
ATOM      5  O   UNL     1      23.720  51.266   1.707  1.00  0.00    -0.295 OA
BRANCH   4   6
ATOM      6  C   UNL     1      21.936  50.174   0.604  1.00  0.00     0.091 CG0
ATOM      7  G   UNL     1      22.098  48.958  -0.335  1.00  0.00     0.000 G0
ENDBRANCH   4   6
ENDBRANCH   2   4
BRANCH   3   8
ATOM      8  C   UNL     1      22.353  50.446  -2.388  1.00  0.00    -0.003 C 
ATOM      9  C   UNL     1      21.845  49.375  -1.765  1.00  0.00    -0.020 C 
BRANCH   9  10
ATOM     10  C   UNL     1      22.105  48.962  -0.335  1.00  0.00    -0.010 CG0
ATOM     11  C   UNL     1      23.501  48.308  -0.221  1.00  0.00     0.016 C 
ATOM     12  C   UNL     1      21.049  47.904   0.063  1.00  0.00     0.016 C 
ATOM     13  G   UNL     1      21.941  50.182   0.598  1.00  0.00     0.000 G0
ENDBRANCH   9  10
ENDBRANCH   3   8
TORSDOF 0
ENDMDL
MODEL 5
REMARK VINA RESULT:    -2.758      1.728      3.252
REMARK INTER + INTRA:          -2.639
REMARK INTER:                  -3.398
REMARK INTRA:                   0.758
REMARK UNBOUND:                 0.764
REMARK SMILES CC1=CC=CC(C)(C)CC1=O
REMARK SMILES IDX 1 1 2 2 3 3 10 4 11 5 9 6 4 8 5 9 6 10 7 11 8 12
REMARK H PARENT
REMARK Flexibility Score: 80.00
ROOT
ATOM      1  C   UNL     1      25.652  52.957   0.896  1.00  0.00     0.048 C 
ATOM      2  C   UNL     1      24.509  52.122   0.367  1.00  0.00    -0.008 C 
ATOM      3  C   UNL     1      24.057  52.396  -0.876  1.00  0.00     0.007 C 
ENDROOT
BRANCH   2   4
ATOM      4  C   UNL     1      24.025  51.016   1.230  1.00  0.00     0.159 C 
ATOM      5  O   UNL     1      24.701  50.697   2.247  1.00  0.00    -0.295 OA
BRANCH   4   6
ATOM      6  C   UNL     1      22.760  50.258   0.970  1.00  0.00     0.091 CG0
ATOM      7  G   UNL     1      22.756  49.530  -0.393  1.00  0.00     0.000 G0
ENDBRANCH   4   6
ENDBRANCH   2   4
BRANCH   3   8
ATOM      8  C   UNL     1      22.985  51.742  -1.663  1.00  0.00    -0.003 C 
ATOM      9  C   UNL     1      22.428  50.537  -1.493  1.00  0.00    -0.020 C 
BRANCH   9  10
ATOM     10  C   UNL     1      22.755  49.543  -0.404  1.00  0.00    -0.010 CG0
ATOM     11  C   UNL     1      24.091  48.833  -0.722  1.00  0.00     0.016 C 
ATOM     12  C   UNL     1      21.640  48.471  -0.375  1.00  0.00     0.016 C 
ATOM     13  G   UNL     1      22.771  50.257   0.966  1.00  0.00     0.000 G0
ENDBRANCH   9  10
ENDBRANCH   3   8
TORSDOF 0
ENDMDL
MODEL 6
REMARK VINA RESULT:    -2.716      1.667      2.671
REMARK INTER + INTRA:          -2.587
REMARK INTER:                  -3.338
REMARK INTRA:                   0.750
REMARK UNBOUND:                 0.764
REMARK SMILES CC1=CC=CC(C)(C)CC1=O
REMARK SMILES IDX 1 1 2 2 3 3 10 4 11 5 9 6 4 8 5 9 6 10 7 11 8 12
REMARK H PARENT
REMARK Flexibility Score: 80.00
ROOT
ATOM      1  C   UNL     1      22.810  50.827  -2.179  1.00  0.00     0.048 C 
ATOM      2  C   UNL     1      22.420  50.474  -0.762  1.00  0.00    -0.008 C 
ATOM      3  C   UNL     1      21.698  49.348  -0.574  1.00  0.00     0.007 C 
ENDROOT
BRANCH   2   4
ATOM      4  C   UNL     1      22.925  51.358   0.318  1.00  0.00     0.159 C 
ATOM      5  O   UNL     1      23.798  52.225   0.036  1.00  0.00    -0.295 OA
BRANCH   4   6
ATOM      6  C   UNL     1      22.447  51.288   1.735  1.00  0.00     0.091 CG0
ATOM      7  G   UNL     1      22.690  49.911   2.393  1.00  0.00     0.000 G0
ENDBRANCH   4   6
ENDBRANCH   2   4
BRANCH   3   8
ATOM      8  C   UNL     1      21.199  48.738   0.681  1.00  0.00    -0.003 C 
ATOM      9  C   UNL     1      21.605  48.943   1.940  1.00  0.00    -0.020 C 
BRANCH   9  10
ATOM     10  C   UNL     1      22.684  49.899   2.390  1.00  0.00    -0.010 CG0
ATOM     11  C   UNL     1      24.077  49.304   2.085  1.00  0.00     0.016 C 
ATOM     12  C   UNL     1      22.566  50.077   3.921  1.00  0.00     0.016 C 
ATOM     13  G   UNL     1      22.467  51.278   1.728  1.00  0.00     0.000 G0
ENDBRANCH   9  10
ENDBRANCH   3   8
TORSDOF 0
ENDMDL
MODEL 7
REMARK VINA RESULT:    -2.664      2.529      3.460
REMARK INTER + INTRA:          -2.523
REMARK INTER:                  -3.267
REMARK INTRA:                   0.744
REMARK UNBOUND:                 0.764
REMARK SMILES CC1=CC=CC(C)(C)CC1=O
REMARK SMILES IDX 1 1 2 2 3 3 10 4 11 5 9 6 4 8 5 9 6 10 7 11 8 12
REMARK H PARENT
REMARK Flexibility Score: 80.00
ROOT
ATOM      1  C   UNL     1      24.453  52.270   0.622  1.00  0.00     0.048 C 
ATOM      2  C   UNL     1      23.417  51.515   1.421  1.00  0.00    -0.008 C 
ATOM      3  C   UNL     1      22.127  51.624   1.035  1.00  0.00     0.007 C 
ENDROOT
BRANCH   2   4
ATOM      4  C   UNL     1      23.910  50.655   2.525  1.00  0.00     0.159 C 
ATOM      5  O   UNL     1      25.149  50.433   2.615  1.00  0.00    -0.295 OA
BRANCH   4   6
ATOM      6  C   UNL     1      23.016  50.037   3.555  1.00  0.00     0.091 CG0
ATOM      7  G   UNL     1      21.950  49.095   2.951  1.00  0.00     0.000 G0
ENDBRANCH   4   6
ENDBRANCH   2   4
BRANCH   3   8
ATOM      8  C   UNL     1      20.910  50.992   1.597  1.00  0.00    -0.003 C 
ATOM      9  C   UNL     1      20.806  49.926   2.400  1.00  0.00    -0.020 C 
BRANCH   9  10
ATOM     10  C   UNL     1      21.947  49.111   2.962  1.00  0.00    -0.010 CG0
ATOM     11  C   UNL     1      22.498  48.157   1.878  1.00  0.00     0.016 C 
ATOM     12  C   UNL     1      21.400  48.249   4.123  1.00  0.00     0.016 C 
ATOM     13  G   UNL     1      23.029  50.055   3.531  1.00  0.00     0.000 G0
ENDBRANCH   9  10
ENDBRANCH   3   8
TORSDOF 0
ENDMDL
MODEL 8
REMARK VINA RESULT:    -2.424     16.136     17.317
REMARK INTER + INTRA:          -2.227
REMARK INTER:                  -2.990
REMARK INTRA:                   0.763
REMARK UNBOUND:                 0.764
REMARK SMILES CC1=CC=CC(C)(C)CC1=O
REMARK SMILES IDX 1 1 2 2 3 3 10 4 11 5 9 6 4 8 5 9 6 10 7 11 8 12
REMARK H PARENT
REMARK Flexibility Score: 80.00
ROOT
ATOM      1  C   UNL     1      19.938  67.769  -7.050  1.00  0.00     0.048 C 
ATOM      2  C   UNL     1      19.719  66.398  -7.647  1.00  0.00    -0.008 C 
ATOM      3  C   UNL     1      20.713  65.493  -7.518  1.00  0.00     0.007 C 
ENDROOT
BRANCH   2   4
ATOM      4  C   UNL     1      18.396  66.135  -8.265  1.00  0.00     0.159 C 
ATOM      5  O   UNL     1      17.472  66.981  -8.109  1.00  0.00    -0.295 OA
BRANCH   4   6
ATOM      6  C   UNL     1      18.092  64.916  -9.080  1.00  0.00     0.091 CG0
ATOM      7  G   UNL     1      18.314  63.596  -8.308  1.00  0.00     0.000 G0
ENDBRANCH   4   6
ENDBRANCH   2   4
BRANCH   3   8
ATOM      8  C   UNL     1      20.778  64.083  -7.969  1.00  0.00    -0.003 C 
ATOM      9  C   UNL     1      19.781  63.256  -8.305  1.00  0.00    -0.020 C 
BRANCH   9  10
ATOM     10  C   UNL     1      18.308  63.592  -8.331  1.00  0.00    -0.010 CG0
ATOM     11  C   UNL     1      17.748  63.620  -6.890  1.00  0.00     0.016 C 
ATOM     12  C   UNL     1      17.571  62.475  -9.107  1.00  0.00     0.016 C 
ATOM     13  G   UNL     1      18.090  64.924  -9.082  1.00  0.00     0.000 G0
ENDBRANCH   9  10
ENDBRANCH   3   8
TORSDOF 0
ENDMDL
MODEL 9
REMARK VINA RESULT:    -2.342      2.043      4.159
REMARK INTER + INTRA:          -2.125
REMARK INTER:                  -2.882
REMARK INTRA:                   0.757
REMARK UNBOUND:                 0.764
REMARK SMILES CC1=CC=CC(C)(C)CC1=O
REMARK SMILES IDX 1 1 2 2 3 3 10 4 11 5 9 6 4 8 5 9 6 10 7 11 8 12
REMARK H PARENT
REMARK Flexibility Score: 80.00
ROOT
ATOM      1  C   UNL     1      21.611  51.128   1.517  1.00  0.00     0.048 C 
ATOM      2  C   UNL     1      22.131  50.348   0.333  1.00  0.00    -0.008 C 
ATOM      3  C   UNL     1      21.430  49.261  -0.057  1.00  0.00     0.007 C 
ENDROOT
BRANCH   2   4
ATOM      4  C   UNL     1      23.333  50.883  -0.353  1.00  0.00     0.159 C 
ATOM      5  O   UNL     1      23.742  52.038  -0.051  1.00  0.00    -0.295 OA
BRANCH   4   6
ATOM      6  C   UNL     1      24.104  50.120  -1.386  1.00  0.00     0.091 CG0
ATOM      7  G   UNL     1      23.248  49.712  -2.606  1.00  0.00     0.000 G0
ENDBRANCH   4   6
ENDBRANCH   2   4
BRANCH   3   8
ATOM      8  C   UNL     1      21.673  48.327  -1.182  1.00  0.00    -0.003 C 
ATOM      9  C   UNL     1      22.428  48.498  -2.274  1.00  0.00    -0.020 C 
BRANCH   9  10
ATOM     10  C   UNL     1      23.258  49.714  -2.609  1.00  0.00    -0.010 CG0
ATOM     11  C   UNL     1      22.345  50.854  -3.114  1.00  0.00     0.016 C 
ATOM     12  C   UNL     1      24.228  49.338  -3.754  1.00  0.00     0.016 C 
ATOM     13  G   UNL     1      24.100  50.125  -1.381  1.00  0.00     0.000 G0
ENDBRANCH   9  10
ENDBRANCH   3   8
TORSDOF 0
ENDMDL
