MODEL 1
REMARK VINA RESULT:    -3.951      0.000      0.000
REMARK INTER + INTRA:          -5.020
REMARK INTER:                  -4.759
REMARK INTRA:                  -0.261
REMARK UNBOUND:                -0.261
REMARK SMILES C=CCc1ccc(O)c(OC)c1
REMARK SMILES IDX 9 1 7 2 6 3 5 4 4 5 12 6 10 7 11 8 8 9 3 11 2 12 1 13
REMARK H PARENT 8 10
REMARK Flexibility Score: inf
ROOT
ATOM      1  C   UNL     1     135.092 137.540 129.437  1.00  0.00     0.160 A 
ATOM      2  C   UNL     1     134.247 136.494 129.040  1.00  0.00     0.157 A 
ATOM      3  C   UNL     1     134.692 135.166 129.110  1.00  0.00     0.050 A 
ATOM      4  C   UNL     1     135.975 134.877 129.574  1.00  0.00     0.008 A 
ATOM      5  C   UNL     1     136.836 135.913 129.966  1.00  0.00    -0.040 A 
ATOM      6  C   UNL     1     136.388 137.243 129.904  1.00  0.00     0.054 A 
ENDROOT
BRANCH   1   7
ATOM      7  O   UNL     1     134.609 138.856 129.357  1.00  0.00    -0.493 OA
ATOM      8  C   UNL     1     135.360 139.961 128.866  1.00  0.00     0.278 C 
ENDBRANCH   1   7
BRANCH   2   9
ATOM      9  O   UNL     1     132.965 136.781 128.575  1.00  0.00    -0.504 OA
ATOM     10  H   UNL     1     132.304 137.307 129.135  1.00  0.00     0.293 HD
ENDBRANCH   2   9
BRANCH   5  11
ATOM     11  C   UNL     1     138.209 135.595 130.495  1.00  0.00     0.062 C 
BRANCH  11  12
ATOM     12  C   UNL     1     138.812 134.437 129.751  1.00  0.00    -0.030 C 
ATOM     13  C   UNL     1     139.610 134.618 128.693  1.00  0.00     0.004 C 
ENDBRANCH  11  12
ENDBRANCH   5  11
TORSDOF 4
ENDMDL
MODEL 2
REMARK VINA RESULT:    -3.950      3.290      4.558
REMARK INTER + INTRA:          -5.019
REMARK INTER:                  -4.757
REMARK INTRA:                  -0.262
REMARK UNBOUND:                -0.261
REMARK SMILES C=CCc1ccc(O)c(OC)c1
REMARK SMILES IDX 9 1 7 2 6 3 5 4 4 5 12 6 10 7 11 8 8 9 3 11 2 12 1 13
REMARK H PARENT 8 10
REMARK Flexibility Score: inf
ROOT
ATOM      1  C   UNL     1     137.498 140.162 129.512  1.00  0.00     0.160 A 
ATOM      2  C   UNL     1     136.513 141.032 129.023  1.00  0.00     0.157 A 
ATOM      3  C   UNL     1     135.172 140.625 128.987  1.00  0.00     0.050 A 
ATOM      4  C   UNL     1     134.808 139.355 129.436  1.00  0.00     0.008 A 
ATOM      5  C   UNL     1     135.783 138.469 129.917  1.00  0.00    -0.040 A 
ATOM      6  C   UNL     1     137.126 138.879 129.962  1.00  0.00     0.054 A 
ENDROOT
BRANCH   1   7
ATOM      7  O   UNL     1     138.830 140.607 129.537  1.00  0.00    -0.493 OA
ATOM      8  C   UNL     1     139.938 139.860 129.045  1.00  0.00     0.278 C 
ENDBRANCH   1   7
BRANCH   2   9
ATOM      9  O   UNL     1     136.874 142.301 128.575  1.00  0.00    -0.504 OA
ATOM     10  H   UNL     1     136.717 142.589 127.616  1.00  0.00     0.293 HD
ENDBRANCH   2   9
BRANCH   5  11
ATOM     11  C   UNL     1     135.384 137.111 130.428  1.00  0.00     0.062 C 
BRANCH  11  12
ATOM     12  C   UNL     1     134.315 136.508 129.559  1.00  0.00    -0.030 C 
ATOM     13  C   UNL     1     134.605 135.625 128.598  1.00  0.00     0.004 C 
ENDBRANCH  11  12
ENDBRANCH   5  11
TORSDOF 4
ENDMDL
MODEL 3
REMARK VINA RESULT:    -3.925      3.992      6.291
REMARK INTER + INTRA:          -4.989
REMARK INTER:                  -4.727
REMARK INTRA:                  -0.262
REMARK UNBOUND:                -0.261
REMARK SMILES C=CCc1ccc(O)c(OC)c1
REMARK SMILES IDX 9 1 7 2 6 3 5 4 4 5 12 6 10 7 11 8 8 9 3 11 2 12 1 13
REMARK H PARENT 8 10
REMARK Flexibility Score: inf
ROOT
ATOM      1  C   UNL     1     140.107 137.587 129.642  1.00  0.00     0.160 A 
ATOM      2  C   UNL     1     140.892 138.568 129.018  1.00  0.00     0.157 A 
ATOM      3  C   UNL     1     140.460 139.901 128.990  1.00  0.00     0.050 A 
ATOM      4  C   UNL     1     139.248 140.261 129.582  1.00  0.00     0.008 A 
ATOM      5  C   UNL     1     138.447 139.291 130.201  1.00  0.00    -0.040 A 
ATOM      6  C   UNL     1     138.884 137.956 130.238  1.00  0.00     0.054 A 
ENDROOT
BRANCH   1   7
ATOM      7  O   UNL     1     140.576 136.264 129.654  1.00  0.00    -0.493 OA
ATOM      8  C   UNL     1     139.917 135.170 129.025  1.00  0.00     0.278 C 
ENDBRANCH   1   7
BRANCH   2   9
ATOM      9  O   UNL     1     142.101 138.209 128.426  1.00  0.00    -0.504 OA
ATOM     10  H   UNL     1     142.539 138.790 127.720  1.00  0.00     0.293 HD
ENDBRANCH   2   9
BRANCH   5  11
ATOM     11  C   UNL     1     137.156 139.688 130.865  1.00  0.00     0.062 C 
BRANCH  11  12
ATOM     12  C   UNL     1     136.393 140.658 130.007  1.00  0.00    -0.030 C 
ATOM     13  C   UNL     1     135.332 140.277 129.288  1.00  0.00     0.004 C 
ENDBRANCH  11  12
ENDBRANCH   5  11
TORSDOF 4
ENDMDL
MODEL 4
REMARK VINA RESULT:    -3.922      3.090      4.431
REMARK INTER + INTRA:          -4.985
REMARK INTER:                  -4.734
REMARK INTRA:                  -0.252
REMARK UNBOUND:                -0.261
REMARK SMILES C=CCc1ccc(O)c(OC)c1
REMARK SMILES IDX 9 1 7 2 6 3 5 4 4 5 12 6 10 7 11 8 8 9 3 11 2 12 1 13
REMARK H PARENT 8 10
REMARK Flexibility Score: inf
ROOT
ATOM      1  C   UNL     1     137.593 135.091 129.547  1.00  0.00     0.160 A 
ATOM      2  C   UNL     1     138.580 134.290 128.953  1.00  0.00     0.157 A 
ATOM      3  C   UNL     1     139.916 134.714 128.941  1.00  0.00     0.050 A 
ATOM      4  C   UNL     1     140.273 135.933 129.518  1.00  0.00     0.008 A 
ATOM      5  C   UNL     1     139.297 136.750 130.106  1.00  0.00    -0.040 A 
ATOM      6  C   UNL     1     137.959 136.322 130.127  1.00  0.00     0.054 A 
ENDROOT
BRANCH   1   7
ATOM      7  O   UNL     1     136.267 134.630 129.545  1.00  0.00    -0.493 OA
ATOM      8  C   UNL     1     135.153 135.384 129.077  1.00  0.00     0.278 C 
ENDBRANCH   1   7
BRANCH   2   9
ATOM      9  O   UNL     1     138.224 133.072 128.377  1.00  0.00    -0.504 OA
ATOM     10  H   UNL     1     137.713 132.368 128.897  1.00  0.00     0.293 HD
ENDBRANCH   2   9
BRANCH   5  11
ATOM     11  C   UNL     1     139.691 138.051 130.754  1.00  0.00     0.062 C 
BRANCH  11  12
ATOM     12  C   UNL     1     140.670 138.800 129.894  1.00  0.00    -0.030 C 
ATOM     13  C   UNL     1     140.312 139.888 129.205  1.00  0.00     0.004 C 
ENDBRANCH  11  12
ENDBRANCH   5  11
TORSDOF 4
ENDMDL
MODEL 5
REMARK VINA RESULT:    -3.864      4.629      5.368
REMARK INTER + INTRA:          -4.915
REMARK INTER:                  -4.716
REMARK INTRA:                  -0.199
REMARK UNBOUND:                -0.261
REMARK SMILES C=CCc1ccc(O)c(OC)c1
REMARK SMILES IDX 9 1 7 2 6 3 5 4 4 5 12 6 10 7 11 8 8 9 3 11 2 12 1 13
REMARK H PARENT 8 10
REMARK Flexibility Score: inf
ROOT
ATOM      1  C   UNL     1     140.180 139.023 130.561  1.00  0.00     0.160 A 
ATOM      2  C   UNL     1     140.570 139.064 129.215  1.00  0.00     0.157 A 
ATOM      3  C   UNL     1     140.566 137.891 128.447  1.00  0.00     0.050 A 
ATOM      4  C   UNL     1     140.175 136.678 129.014  1.00  0.00     0.008 A 
ATOM      5  C   UNL     1     139.792 136.619 130.362  1.00  0.00    -0.040 A 
ATOM      6  C   UNL     1     139.786 137.796 131.130  1.00  0.00     0.054 A 
ENDROOT
BRANCH   1   7
ATOM      7  O   UNL     1     140.192 140.219 131.296  1.00  0.00    -0.493 OA
ATOM      8  C   UNL     1     140.976 140.439 132.465  1.00  0.00     0.278 C 
ENDBRANCH   1   7
BRANCH   2   9
ATOM      9  O   UNL     1     140.962 140.274 128.647  1.00  0.00    -0.504 OA
ATOM     10  H   UNL     1     140.738 141.162 129.082  1.00  0.00     0.293 HD
ENDBRANCH   2   9
BRANCH   5  11
ATOM     11  C   UNL     1     139.341 135.315 130.963  1.00  0.00     0.062 C 
BRANCH  11  12
ATOM     12  C   UNL     1     140.473 134.644 131.690  1.00  0.00    -0.030 C 
ATOM     13  C   UNL     1     140.268 133.920 132.795  1.00  0.00     0.004 C 
ENDBRANCH  11  12
ENDBRANCH   5  11
TORSDOF 4
ENDMDL
MODEL 6
REMARK VINA RESULT:    -3.842      2.866      4.191
REMARK INTER + INTRA:          -4.889
REMARK INTER:                  -4.670
REMARK INTRA:                  -0.219
REMARK UNBOUND:                -0.261
REMARK SMILES C=CCc1ccc(O)c(OC)c1
REMARK SMILES IDX 9 1 7 2 6 3 5 4 4 5 12 6 10 7 11 8 8 9 3 11 2 12 1 13
REMARK H PARENT 8 10
REMARK Flexibility Score: inf
ROOT
ATOM      1  C   UNL     1     136.038 138.716 128.438  1.00  0.00     0.160 A 
ATOM      2  C   UNL     1     135.917 140.048 128.861  1.00  0.00     0.157 A 
ATOM      3  C   UNL     1     137.064 140.801 129.148  1.00  0.00     0.050 A 
ATOM      4  C   UNL     1     138.331 140.233 129.018  1.00  0.00     0.008 A 
ATOM      5  C   UNL     1     138.469 138.899 128.607  1.00  0.00    -0.040 A 
ATOM      6  C   UNL     1     137.321 138.146 128.309  1.00  0.00     0.054 A 
ENDROOT
BRANCH   1   7
ATOM      7  O   UNL     1     134.867 137.996 128.154  1.00  0.00    -0.493 OA
ATOM      8  C   UNL     1     134.380 136.910 128.936  1.00  0.00     0.278 C 
ENDBRANCH   1   7
BRANCH   2   9
ATOM      9  O   UNL     1     134.652 140.617 128.992  1.00  0.00    -0.504 OA
ATOM     10  H   UNL     1     134.521 141.622 129.007  1.00  0.00     0.293 HD
ENDBRANCH   2   9
BRANCH   5  11
ATOM     11  C   UNL     1     139.839 138.298 128.438  1.00  0.00     0.062 C 
BRANCH  11  12
ATOM     12  C   UNL     1     140.832 139.345 128.018  1.00  0.00    -0.030 C 
ATOM     13  C   UNL     1     142.131 139.065 127.875  1.00  0.00     0.004 C 
ENDBRANCH  11  12
ENDBRANCH   5  11
TORSDOF 4
ENDMDL
MODEL 7
REMARK VINA RESULT:    -3.834      2.765      4.120
REMARK INTER + INTRA:          -4.880
REMARK INTER:                  -4.593
REMARK INTRA:                  -0.287
REMARK UNBOUND:                -0.261
REMARK SMILES C=CCc1ccc(O)c(OC)c1
REMARK SMILES IDX 9 1 7 2 6 3 5 4 4 5 12 6 10 7 11 8 8 9 3 11 2 12 1 13
REMARK H PARENT 8 10
REMARK Flexibility Score: inf
ROOT
ATOM      1  C   UNL     1     135.105 136.149 130.688  1.00  0.00     0.160 A 
ATOM      2  C   UNL     1     134.707 135.966 129.356  1.00  0.00     0.157 A 
ATOM      3  C   UNL     1     134.651 137.061 128.482  1.00  0.00     0.050 A 
ATOM      4  C   UNL     1     134.988 138.338 128.931  1.00  0.00     0.008 A 
ATOM      5  C   UNL     1     135.378 138.540 130.264  1.00  0.00    -0.040 A 
ATOM      6  C   UNL     1     135.444 137.441 131.137  1.00  0.00     0.054 A 
ENDROOT
BRANCH   1   7
ATOM      7  O   UNL     1     135.154 135.027 131.530  1.00  0.00    -0.493 OA
ATOM      8  C   UNL     1     134.163 134.704 132.500  1.00  0.00     0.278 C 
ENDBRANCH   1   7
BRANCH   2   9
ATOM      9  O   UNL     1     134.369 134.691 128.906  1.00  0.00    -0.504 OA
ATOM     10  H   UNL     1     134.060 133.968 129.545  1.00  0.00     0.293 HD
ENDBRANCH   2   9
BRANCH   5  11
ATOM     11  C   UNL     1     135.770 139.914 130.737  1.00  0.00     0.062 C 
BRANCH  11  12
ATOM     12  C   UNL     1     136.724 140.558 129.770  1.00  0.00    -0.030 C 
ATOM     13  C   UNL     1     138.033 140.284 129.786  1.00  0.00     0.004 C 
ENDBRANCH  11  12
ENDBRANCH   5  11
TORSDOF 4
ENDMDL
MODEL 8
REMARK VINA RESULT:    -3.800      3.213      4.497
REMARK INTER + INTRA:          -4.839
REMARK INTER:                  -4.615
REMARK INTRA:                  -0.224
REMARK UNBOUND:                -0.261
REMARK SMILES C=CCc1ccc(O)c(OC)c1
REMARK SMILES IDX 9 1 7 2 6 3 5 4 4 5 12 6 10 7 11 8 8 9 3 11 2 12 1 13
REMARK H PARENT 8 10
REMARK Flexibility Score: inf
ROOT
ATOM      1  C   UNL     1     138.695 139.234 128.596  1.00  0.00     0.160 A 
ATOM      2  C   UNL     1     140.051 139.331 128.937  1.00  0.00     0.157 A 
ATOM      3  C   UNL     1     140.827 138.171 129.067  1.00  0.00     0.050 A 
ATOM      4  C   UNL     1     140.257 136.914 128.861  1.00  0.00     0.008 A 
ATOM      5  C   UNL     1     138.899 136.800 128.530  1.00  0.00    -0.040 A 
ATOM      6  C   UNL     1     138.122 137.963 128.390  1.00  0.00     0.054 A 
ENDROOT
BRANCH   1   7
ATOM      7  O   UNL     1     137.951 140.418 128.469  1.00  0.00    -0.493 OA
ATOM      8  C   UNL     1     136.918 140.821 129.362  1.00  0.00     0.278 C 
ENDBRANCH   1   7
BRANCH   2   9
ATOM      9  O   UNL     1     140.622 140.585 129.144  1.00  0.00    -0.504 OA
ATOM     10  H   UNL     1     141.151 141.054 128.417  1.00  0.00     0.293 HD
ENDBRANCH   2   9
BRANCH   5  11
ATOM     11  C   UNL     1     138.294 135.445 128.279  1.00  0.00     0.062 C 
BRANCH  11  12
ATOM     12  C   UNL     1     139.356 134.381 128.267  1.00  0.00    -0.030 C 
ATOM     13  C   UNL     1     139.094 133.130 127.875  1.00  0.00     0.004 C 
ENDBRANCH  11  12
ENDBRANCH   5  11
TORSDOF 4
ENDMDL
MODEL 9
REMARK VINA RESULT:    -3.770      3.202      4.783
REMARK INTER + INTRA:          -4.802
REMARK INTER:                  -4.578
REMARK INTRA:                  -0.224
REMARK UNBOUND:                -0.261
REMARK SMILES C=CCc1ccc(O)c(OC)c1
REMARK SMILES IDX 9 1 7 2 6 3 5 4 4 5 12 6 10 7 11 8 8 9 3 11 2 12 1 13
REMARK H PARENT 8 10
REMARK Flexibility Score: inf
ROOT
ATOM      1  C   UNL     1     139.381 136.460 129.545  1.00  0.00     0.160 A 
ATOM      2  C   UNL     1     139.636 135.086 129.432  1.00  0.00     0.157 A 
ATOM      3  C   UNL     1     138.571 134.179 129.338  1.00  0.00     0.050 A 
ATOM      4  C   UNL     1     137.253 134.635 129.358  1.00  0.00     0.008 A 
ATOM      5  C   UNL     1     136.981 136.006 129.481  1.00  0.00    -0.040 A 
ATOM      6  C   UNL     1     138.047 136.916 129.566  1.00  0.00     0.054 A 
ENDROOT
BRANCH   1   7
ATOM      7  O   UNL     1     140.473 137.337 129.632  1.00  0.00    -0.493 OA
ATOM      8  C   UNL     1     140.674 138.460 128.779  1.00  0.00     0.278 C 
ENDBRANCH   1   7
BRANCH   2   9
ATOM      9  O   UNL     1     140.952 134.628 129.413  1.00  0.00    -0.504 OA
ATOM     10  H   UNL     1     141.563 134.805 128.624  1.00  0.00     0.293 HD
ENDBRANCH   2   9
BRANCH   5  11
ATOM     11  C   UNL     1     135.558 136.498 129.472  1.00  0.00     0.062 C 
BRANCH  11  12
ATOM     12  C   UNL     1     134.694 135.613 128.617  1.00  0.00    -0.030 C 
ATOM     13  C   UNL     1     133.698 136.108 127.875  1.00  0.00     0.004 C 
ENDBRANCH  11  12
ENDBRANCH   5  11
TORSDOF 4
ENDMDL
