MODEL 1
REMARK VINA RESULT:    -3.490      0.000      0.000
REMARK INTER + INTRA:          -3.817
REMARK INTER:                  -3.796
REMARK INTRA:                  -0.020
REMARK UNBOUND:                -0.020
REMARK SMILES OCc1ccco1
REMARK SMILES IDX 2 1 3 2 5 3 6 4 4 5 7 6 1 7
REMARK H PARENT 1 8
REMARK Flexibility Score: inf
ROOT
ATOM      1  C   UNL     1      26.120 -51.487  -9.708  1.00  0.00     0.231 C 
ENDROOT
BRANCH   1   2
ATOM      2  C   UNL     1      27.225 -51.255  -8.726  1.00  0.00     0.129 A 
ATOM      3  C   UNL     1      29.202 -50.919  -7.831  1.00  0.00     0.042 A 
ATOM      4  C   UNL     1      28.229 -51.041  -6.858  1.00  0.00     0.195 A 
ATOM      5  C   UNL     1      28.555 -51.061  -9.040  1.00  0.00     0.048 A 
ATOM      6  O   UNL     1      27.061 -51.242  -7.423  1.00  0.00    -0.467 OA
ENDBRANCH   1   2
BRANCH   1   7
ATOM      7  O   UNL     1      24.885 -51.183  -9.120  1.00  0.00    -0.388 OA
ATOM      8  H   UNL     1      24.858 -50.197  -9.008  1.00  0.00     0.211 HD
ENDBRANCH   1   7
TORSDOF 2
ENDMDL
MODEL 2
REMARK VINA RESULT:    -3.454      2.285      3.013
REMARK INTER + INTRA:          -3.777
REMARK INTER:                  -3.761
REMARK INTRA:                  -0.016
REMARK UNBOUND:                -0.020
REMARK SMILES OCc1ccco1
REMARK SMILES IDX 2 1 3 2 5 3 6 4 4 5 7 6 1 7
REMARK H PARENT 1 8
REMARK Flexibility Score: inf
ROOT
ATOM      1  C   UNL     1      27.327 -54.259 -10.334  1.00  0.00     0.231 C 
ENDROOT
BRANCH   1   2
ATOM      2  C   UNL     1      26.977 -52.912  -9.784  1.00  0.00     0.129 A 
ATOM      3  C   UNL     1      26.091 -50.921  -9.512  1.00  0.00     0.042 A 
ATOM      4  C   UNL     1      27.021 -51.192  -8.527  1.00  0.00     0.195 A 
ATOM      5  C   UNL     1      26.063 -52.031 -10.328  1.00  0.00     0.048 A 
ATOM      6  O   UNL     1      27.533 -52.385  -8.718  1.00  0.00    -0.467 OA
ENDBRANCH   1   2
BRANCH   1   7
ATOM      7  O   UNL     1      27.049 -55.251  -9.385  1.00  0.00    -0.388 OA
ATOM      8  H   UNL     1      26.668 -54.789  -8.594  1.00  0.00     0.211 HD
ENDBRANCH   1   7
TORSDOF 2
ENDMDL
MODEL 3
REMARK VINA RESULT:    -3.377      4.195      4.589
REMARK INTER + INTRA:          -3.694
REMARK INTER:                  -3.672
REMARK INTRA:                  -0.021
REMARK UNBOUND:                -0.020
REMARK SMILES OCc1ccco1
REMARK SMILES IDX 2 1 3 2 5 3 6 4 4 5 7 6 1 7
REMARK H PARENT 1 8
REMARK Flexibility Score: inf
ROOT
ATOM      1  C   UNL     1      28.091 -56.549 -10.225  1.00  0.00     0.231 C 
ENDROOT
BRANCH   1   2
ATOM      2  C   UNL     1      27.868 -55.073 -10.329  1.00  0.00     0.129 A 
ATOM      3  C   UNL     1      28.047 -52.956 -10.887  1.00  0.00     0.042 A 
ATOM      4  C   UNL     1      27.061 -53.140  -9.938  1.00  0.00     0.195 A 
ATOM      5  C   UNL     1      28.572 -54.205 -11.139  1.00  0.00     0.048 A 
ATOM      6  O   UNL     1      26.980 -54.412  -9.624  1.00  0.00    -0.467 OA
ENDBRANCH   1   2
BRANCH   1   7
ATOM      7  O   UNL     1      27.372 -57.067  -9.140  1.00  0.00    -0.388 OA
ATOM      8  H   UNL     1      27.950 -57.755  -8.718  1.00  0.00     0.211 HD
ENDBRANCH   1   7
TORSDOF 2
ENDMDL
MODEL 4
REMARK VINA RESULT:    -3.344      1.676      2.885
REMARK INTER + INTRA:          -3.658
REMARK INTER:                  -3.645
REMARK INTRA:                  -0.013
REMARK UNBOUND:                -0.020
REMARK SMILES OCc1ccco1
REMARK SMILES IDX 2 1 3 2 5 3 6 4 4 5 7 6 1 7
REMARK H PARENT 1 8
REMARK Flexibility Score: inf
ROOT
ATOM      1  C   UNL     1      27.743 -51.181  -6.185  1.00  0.00     0.231 C 
ENDROOT
BRANCH   1   2
ATOM      2  C   UNL     1      28.258 -51.361  -7.578  1.00  0.00     0.129 A 
ATOM      3  C   UNL     1      29.495 -51.255  -9.389  1.00  0.00     0.042 A 
ATOM      4  C   UNL     1      28.319 -51.940  -9.628  1.00  0.00     0.195 A 
ATOM      5  C   UNL     1      29.455 -50.877  -8.065  1.00  0.00     0.048 A 
ATOM      6  O   UNL     1      27.602 -51.985  -8.529  1.00  0.00    -0.467 OA
ENDBRANCH   1   2
BRANCH   1   7
ATOM      7  O   UNL     1      28.147 -52.254  -5.381  1.00  0.00    -0.388 OA
ATOM      8  H   UNL     1      28.973 -51.964  -4.913  1.00  0.00     0.211 HD
ENDBRANCH   1   7
TORSDOF 2
ENDMDL
MODEL 5
REMARK VINA RESULT:    -3.282      4.293      4.789
REMARK INTER + INTRA:          -3.590
REMARK INTER:                  -3.575
REMARK INTRA:                  -0.016
REMARK UNBOUND:                -0.020
REMARK SMILES OCc1ccco1
REMARK SMILES IDX 2 1 3 2 5 3 6 4 4 5 7 6 1 7
REMARK H PARENT 1 8
REMARK Flexibility Score: inf
ROOT
ATOM      1  C   UNL     1      28.162 -56.492 -10.301  1.00  0.00     0.231 C 
ENDROOT
BRANCH   1   2
ATOM      2  C   UNL     1      28.071 -55.004 -10.428  1.00  0.00     0.129 A 
ATOM      3  C   UNL     1      27.419 -52.916 -10.233  1.00  0.00     0.042 A 
ATOM      4  C   UNL     1      28.495 -53.024 -11.092  1.00  0.00     0.195 A 
ATOM      5  C   UNL     1      27.141 -54.196  -9.805  1.00  0.00     0.048 A 
ATOM      6  O   UNL     1      28.859 -54.281 -11.190  1.00  0.00    -0.467 OA
ENDBRANCH   1   2
BRANCH   1   7
ATOM      7  O   UNL     1      27.400 -56.928  -9.209  1.00  0.00    -0.388 OA
ATOM      8  H   UNL     1      26.515 -57.196  -9.569  1.00  0.00     0.211 HD
ENDBRANCH   1   7
TORSDOF 2
ENDMDL
MODEL 6
REMARK VINA RESULT:    -3.203      1.869      3.539
REMARK INTER + INTRA:          -3.504
REMARK INTER:                  -3.488
REMARK INTRA:                  -0.016
REMARK UNBOUND:                -0.020
REMARK SMILES OCc1ccco1
REMARK SMILES IDX 2 1 3 2 5 3 6 4 4 5 7 6 1 7
REMARK H PARENT 1 8
REMARK Flexibility Score: inf
ROOT
ATOM      1  C   UNL     1      27.839 -51.597  -7.844  1.00  0.00     0.231 C 
ENDROOT
BRANCH   1   2
ATOM      2  C   UNL     1      27.206 -52.183  -9.067  1.00  0.00     0.129 A 
ATOM      3  C   UNL     1      25.966 -52.472 -10.856  1.00  0.00     0.042 A 
ATOM      4  C   UNL     1      26.700 -53.607 -10.569  1.00  0.00     0.195 A 
ATOM      5  C   UNL     1      26.290 -51.551  -9.883  1.00  0.00     0.048 A 
ATOM      6  O   UNL     1      27.427 -53.404  -9.496  1.00  0.00    -0.467 OA
ENDBRANCH   1   2
BRANCH   1   7
ATOM      7  O   UNL     1      29.232 -51.567  -7.992  1.00  0.00    -0.388 OA
ATOM      8  H   UNL     1      29.599 -52.237  -7.359  1.00  0.00     0.211 HD
ENDBRANCH   1   7
TORSDOF 2
ENDMDL
MODEL 7
REMARK VINA RESULT:    -3.172      2.286      3.120
REMARK INTER + INTRA:          -3.470
REMARK INTER:                  -3.456
REMARK INTRA:                  -0.014
REMARK UNBOUND:                -0.020
REMARK SMILES OCc1ccco1
REMARK SMILES IDX 2 1 3 2 5 3 6 4 4 5 7 6 1 7
REMARK H PARENT 1 8
REMARK Flexibility Score: inf
ROOT
ATOM      1  C   UNL     1      26.492 -51.270  -8.930  1.00  0.00     0.231 C 
ENDROOT
BRANCH   1   2
ATOM      2  C   UNL     1      27.194 -52.261  -9.804  1.00  0.00     0.129 A 
ATOM      3  C   UNL     1      27.689 -54.064 -10.957  1.00  0.00     0.042 A 
ATOM      4  C   UNL     1      28.726 -53.151 -10.988  1.00  0.00     0.195 A 
ATOM      5  C   UNL     1      26.699 -53.491 -10.189  1.00  0.00     0.048 A 
ATOM      6  O   UNL     1      28.401 -52.088 -10.290  1.00  0.00    -0.467 OA
ENDBRANCH   1   2
BRANCH   1   7
ATOM      7  O   UNL     1      25.116 -51.288  -9.193  1.00  0.00    -0.388 OA
ATOM      8  H   UNL     1      24.855 -52.241  -9.280  1.00  0.00     0.211 HD
ENDBRANCH   1   7
TORSDOF 2
ENDMDL
MODEL 8
REMARK VINA RESULT:    -3.170      5.146      5.703
REMARK INTER + INTRA:          -3.468
REMARK INTER:                  -3.456
REMARK INTRA:                  -0.013
REMARK UNBOUND:                -0.020
REMARK SMILES OCc1ccco1
REMARK SMILES IDX 2 1 3 2 5 3 6 4 4 5 7 6 1 7
REMARK H PARENT 1 8
REMARK Flexibility Score: inf
ROOT
ATOM      1  C   UNL     1      27.240 -54.207 -10.511  1.00  0.00     0.231 C 
ENDROOT
BRANCH   1   2
ATOM      2  C   UNL     1      28.108 -55.185 -11.238  1.00  0.00     0.129 A 
ATOM      3  C   UNL     1      29.839 -56.185 -12.147  1.00  0.00     0.042 A 
ATOM      4  C   UNL     1      28.671 -56.874 -12.410  1.00  0.00     0.195 A 
ATOM      5  C   UNL     1      29.476 -55.091 -11.391  1.00  0.00     0.048 A 
ATOM      6  O   UNL     1      27.656 -56.251 -11.857  1.00  0.00    -0.467 OA
ENDBRANCH   1   2
BRANCH   1   7
ATOM      7  O   UNL     1      27.502 -54.262  -9.136  1.00  0.00    -0.388 OA
ATOM      8  H   UNL     1      27.046 -53.480  -8.728  1.00  0.00     0.211 HD
ENDBRANCH   1   7
TORSDOF 2
ENDMDL
MODEL 9
REMARK VINA RESULT:    -3.168      1.761      1.770
REMARK INTER + INTRA:          -3.466
REMARK INTER:                  -3.449
REMARK INTRA:                  -0.018
REMARK UNBOUND:                -0.020
REMARK SMILES OCc1ccco1
REMARK SMILES IDX 2 1 3 2 5 3 6 4 4 5 7 6 1 7
REMARK H PARENT 1 8
REMARK Flexibility Score: inf
ROOT
ATOM      1  C   UNL     1      26.860 -52.998 -10.394  1.00  0.00     0.231 C 
ENDROOT
BRANCH   1   2
ATOM      2  C   UNL     1      27.753 -52.209  -9.489  1.00  0.00     0.129 A 
ATOM      3  C   UNL     1      29.450 -51.070  -8.684  1.00  0.00     0.042 A 
ATOM      4  C   UNL     1      28.479 -51.266  -7.721  1.00  0.00     0.195 A 
ATOM      5  C   UNL     1      28.983 -51.682  -9.828  1.00  0.00     0.048 A 
ATOM      6  O   UNL     1      27.482 -51.951  -8.231  1.00  0.00    -0.467 OA
ENDBRANCH   1   2
BRANCH   1   7
ATOM      7  O   UNL     1      26.567 -54.240  -9.816  1.00  0.00    -0.388 OA
ATOM      8  H   UNL     1      25.623 -54.196  -9.513  1.00  0.00     0.211 HD
ENDBRANCH   1   7
TORSDOF 2
ENDMDL
