MODEL 1
REMARK VINA RESULT:    -2.589      0.000      0.000
REMARK INTER + INTRA:          -2.589
REMARK INTER:                  -2.589
REMARK INTRA:                   0.000
REMARK UNBOUND:                 0.000
REMARK SMILES CC(=O)[O-]
REMARK SMILES IDX 1 1 2 2 3 3 4 4
REMARK H PARENT
REMARK Flexibility Score: inf
ROOT
ATOM      1  C   UNL     1      60.616  50.935  11.233  1.00  0.00     0.063 C 
ATOM      2  C   UNL     1      59.854  51.401  10.040  1.00  0.00     0.038 C 
ATOM      3  O   UNL     1      60.321  51.229   8.884  1.00  0.00    -0.550 OA
ATOM      4  O   UNL     1      58.601  51.978  10.197  1.00  0.00    -0.550 OA
ENDROOT
TORSDOF 0
ENDMDL
MODEL 2
REMARK VINA RESULT:    -2.533     19.706     20.113
REMARK INTER + INTRA:          -2.533
REMARK INTER:                  -2.533
REMARK INTRA:                   0.000
REMARK UNBOUND:                 0.000
REMARK SMILES CC(=O)[O-]
REMARK SMILES IDX 1 1 2 2 3 3 4 4
REMARK H PARENT
REMARK Flexibility Score: inf
ROOT
ATOM      1  C   UNL     1      56.310  61.604  -6.368  1.00  0.00     0.063 C 
ATOM      2  C   UNL     1      55.793  62.883  -5.803  1.00  0.00     0.038 C 
ATOM      3  O   UNL     1      56.173  63.272  -4.668  1.00  0.00    -0.550 OA
ATOM      4  O   UNL     1      54.932  63.676  -6.550  1.00  0.00    -0.550 OA
ENDROOT
TORSDOF 0
ENDMDL
MODEL 3
REMARK VINA RESULT:    -2.517     19.654     20.058
REMARK INTER + INTRA:          -2.517
REMARK INTER:                  -2.517
REMARK INTRA:                   0.000
REMARK UNBOUND:                 0.000
REMARK SMILES CC(=O)[O-]
REMARK SMILES IDX 1 1 2 2 3 3 4 4
REMARK H PARENT
REMARK Flexibility Score: inf
ROOT
ATOM      1  C   UNL     1      56.274  61.639  -6.367  1.00  0.00     0.063 C 
ATOM      2  C   UNL     1      55.754  62.907  -5.781  1.00  0.00     0.038 C 
ATOM      3  O   UNL     1      54.958  63.627  -6.439  1.00  0.00    -0.550 OA
ATOM      4  O   UNL     1      56.103  63.270  -4.487  1.00  0.00    -0.550 OA
ENDROOT
TORSDOF 0
ENDMDL
MODEL 4
REMARK VINA RESULT:    -2.491      9.690     10.297
REMARK INTER + INTRA:          -2.491
REMARK INTER:                  -2.491
REMARK INTRA:                   0.000
REMARK UNBOUND:                 0.000
REMARK SMILES CC(=O)[O-]
REMARK SMILES IDX 1 1 2 2 3 3 4 4
REMARK H PARENT
REMARK Flexibility Score: inf
ROOT
ATOM      1  C   UNL     1      52.064  55.511  12.743  1.00  0.00     0.063 C 
ATOM      2  C   UNL     1      50.674  55.531  12.205  1.00  0.00     0.038 C 
ATOM      3  O   UNL     1      50.435  55.080  11.055  1.00  0.00    -0.550 OA
ATOM      4  O   UNL     1      49.630  55.998  12.992  1.00  0.00    -0.550 OA
ENDROOT
TORSDOF 0
ENDMDL
MODEL 5
REMARK VINA RESULT:    -2.394      1.350      2.140
REMARK INTER + INTRA:          -2.394
REMARK INTER:                  -2.394
REMARK INTRA:                   0.000
REMARK UNBOUND:                 0.000
REMARK SMILES CC(=O)[O-]
REMARK SMILES IDX 1 1 2 2 3 3 4 4
REMARK H PARENT
REMARK Flexibility Score: inf
ROOT
ATOM      1  C   UNL     1      60.156  51.382   8.493  1.00  0.00     0.063 C 
ATOM      2  C   UNL     1      59.709  51.527   9.907  1.00  0.00     0.038 C 
ATOM      3  O   UNL     1      58.590  52.044  10.167  1.00  0.00    -0.550 OA
ATOM      4  O   UNL     1      60.500  51.042  10.941  1.00  0.00    -0.550 OA
ENDROOT
TORSDOF 0
ENDMDL
MODEL 6
REMARK VINA RESULT:    -2.272     23.528     23.899
REMARK INTER + INTRA:          -2.272
REMARK INTER:                  -2.272
REMARK INTRA:                   0.000
REMARK UNBOUND:                 0.000
REMARK SMILES CC(=O)[O-]
REMARK SMILES IDX 1 1 2 2 3 3 4 4
REMARK H PARENT
REMARK Flexibility Score: inf
ROOT
ATOM      1  C   UNL     1      44.002  67.892   3.269  1.00  0.00     0.063 C 
ATOM      2  C   UNL     1      44.560  68.730   4.368  1.00  0.00     0.038 C 
ATOM      3  O   UNL     1      45.803  68.908   4.458  1.00  0.00    -0.550 OA
ATOM      4  O   UNL     1      43.708  69.362   5.264  1.00  0.00    -0.550 OA
ENDROOT
TORSDOF 0
ENDMDL
MODEL 7
REMARK VINA RESULT:    -2.253      9.581     10.148
REMARK INTER + INTRA:          -2.253
REMARK INTER:                  -2.253
REMARK INTRA:                   0.000
REMARK UNBOUND:                 0.000
REMARK SMILES CC(=O)[O-]
REMARK SMILES IDX 1 1 2 2 3 3 4 4
REMARK H PARENT
REMARK Flexibility Score: inf
ROOT
ATOM      1  C   UNL     1      50.019  55.995  13.097  1.00  0.00     0.063 C 
ATOM      2  C   UNL     1      51.287  55.973  12.314  1.00  0.00     0.038 C 
ATOM      3  O   UNL     1      52.287  55.343  12.749  1.00  0.00    -0.550 OA
ATOM      4  O   UNL     1      51.354  56.601  11.078  1.00  0.00    -0.550 OA
ENDROOT
TORSDOF 0
ENDMDL
MODEL 8
REMARK VINA RESULT:    -2.253     23.444     23.805
REMARK INTER + INTRA:          -2.253
REMARK INTER:                  -2.253
REMARK INTRA:                   0.000
REMARK UNBOUND:                 0.000
REMARK SMILES CC(=O)[O-]
REMARK SMILES IDX 1 1 2 2 3 3 4 4
REMARK H PARENT
REMARK Flexibility Score: inf
ROOT
ATOM      1  C   UNL     1      45.982  68.316   4.156  1.00  0.00     0.063 C 
ATOM      2  C   UNL     1      44.511  68.505   4.012  1.00  0.00     0.038 C 
ATOM      3  O   UNL     1      43.864  69.126   4.895  1.00  0.00    -0.550 OA
ATOM      4  O   UNL     1      43.858  68.045   2.876  1.00  0.00    -0.550 OA
ENDROOT
TORSDOF 0
ENDMDL
MODEL 9
REMARK VINA RESULT:    -2.237     22.560     23.126
REMARK INTER + INTRA:          -2.237
REMARK INTER:                  -2.237
REMARK INTRA:                   0.000
REMARK UNBOUND:                 0.000
REMARK SMILES CC(=O)[O-]
REMARK SMILES IDX 1 1 2 2 3 3 4 4
REMARK H PARENT
REMARK Flexibility Score: inf
ROOT
ATOM      1  C   UNL     1      45.443  68.721   4.437  1.00  0.00     0.063 C 
ATOM      2  C   UNL     1      44.729  67.638   3.701  1.00  0.00     0.038 C 
ATOM      3  O   UNL     1      43.922  67.926   2.779  1.00  0.00    -0.550 OA
ATOM      4  O   UNL     1      44.994  66.307   3.994  1.00  0.00    -0.550 OA
ENDROOT
TORSDOF 0
ENDMDL
