MODEL 1
REMARK VINA RESULT:    -3.480      0.000      0.000
REMARK INTER + INTRA:          -8.227
REMARK INTER:                  -6.329
REMARK INTRA:                  -1.898
REMARK UNBOUND:                -1.898
REMARK SMILES CCCCCCCCCCCCCC[C@@H](C)C(=O)[O-]
REMARK SMILES IDX 9 1 10 2 11 3 12 4 13 5 14 6 15 7 16 8 17 9 18 10 19 11 8 12
REMARK SMILES IDX 7 13 6 14 5 15 4 16 3 17 2 18 1 19
REMARK H PARENT
REMARK Flexibility Score: inf
ROOT
ATOM      1  C   UNL     1     -18.598  45.066 -10.614  1.00  0.00     0.000 C 
ENDROOT
BRANCH   1   2
ATOM      2  C   UNL     1     -17.114  45.466 -10.657  1.00  0.00     0.000 C 
BRANCH   2   3
ATOM      3  C   UNL     1     -16.180  44.308 -10.270  1.00  0.00     0.000 C 
BRANCH   3   4
ATOM      4  C   UNL     1     -15.392  44.586  -8.976  1.00  0.00     0.000 C 
BRANCH   4   5
ATOM      5  C   UNL     1     -15.588  46.031  -8.474  1.00  0.00     0.001 C 
BRANCH   5   6
ATOM      6  C   UNL     1     -14.283  46.740  -8.059  1.00  0.00     0.009 C 
BRANCH   6   7
ATOM      7  C   UNL     1     -14.158  48.200  -8.569  1.00  0.00     0.032 C 
ATOM      8  C   UNL     1     -14.987  48.439  -9.839  1.00  0.00     0.014 C 
BRANCH   7   9
ATOM      9  C   UNL     1     -14.612  49.167  -7.507  1.00  0.00     0.044 C 
ATOM     10  O   UNL     1     -15.038  50.307  -7.831  1.00  0.00    -0.550 OA
ATOM     11  O   UNL     1     -14.580  48.801  -6.167  1.00  0.00    -0.550 OA
ENDBRANCH   7   9
ENDBRANCH   6   7
ENDBRANCH   5   6
ENDBRANCH   4   5
ENDBRANCH   3   4
ENDBRANCH   2   3
ENDBRANCH   1   2
BRANCH   1  12
ATOM     12  C   UNL     1     -18.891  43.999  -9.547  1.00  0.00     0.000 C 
BRANCH  12  13
ATOM     13  C   UNL     1     -19.673  44.557  -8.346  1.00  0.00    -0.000 C 
BRANCH  13  14
ATOM     14  C   UNL     1     -18.778  44.639  -7.100  1.00  0.00    -0.000 C 
BRANCH  14  15
ATOM     15  C   UNL     1     -17.973  43.351  -6.864  1.00  0.00    -0.000 C 
BRANCH  15  16
ATOM     16  C   UNL     1     -16.978  43.482  -5.698  1.00  0.00    -0.000 C 
BRANCH  16  17
ATOM     17  C   UNL     1     -17.404  42.674  -4.463  1.00  0.00    -0.000 C 
BRANCH  17  18
ATOM     18  C   UNL     1     -18.437  43.414  -3.600  1.00  0.00    -0.003 C 
ATOM     19  C   UNL     1     -19.446  42.442  -2.997  1.00  0.00     0.004 C 
ENDBRANCH  17  18
ENDBRANCH  16  17
ENDBRANCH  15  16
ENDBRANCH  14  15
ENDBRANCH  13  14
ENDBRANCH  12  13
ENDBRANCH   1  12
TORSDOF 14
ENDMDL
MODEL 2
REMARK VINA RESULT:    -3.256      1.522      2.178
REMARK INTER + INTRA:          -7.818
REMARK INTER:                  -5.942
REMARK INTRA:                  -1.876
REMARK UNBOUND:                -1.898
REMARK SMILES CCCCCCCCCCCCCC[C@@H](C)C(=O)[O-]
REMARK SMILES IDX 9 1 10 2 11 3 12 4 13 5 14 6 15 7 16 8 17 9 18 10 19 11 8 12
REMARK SMILES IDX 7 13 6 14 5 15 4 16 3 17 2 18 1 19
REMARK H PARENT
REMARK Flexibility Score: inf
ROOT
ATOM      1  C   UNL     1     -19.228  42.779  -9.751  1.00  0.00     0.000 C 
ENDROOT
BRANCH   1   2
ATOM      2  C   UNL     1     -18.459  42.942 -11.074  1.00  0.00     0.000 C 
BRANCH   2   3
ATOM      3  C   UNL     1     -16.937  42.984 -10.869  1.00  0.00     0.000 C 
BRANCH   3   4
ATOM      4  C   UNL     1     -16.341  44.383 -11.117  1.00  0.00     0.000 C 
BRANCH   4   5
ATOM      5  C   UNL     1     -14.849  44.457 -10.735  1.00  0.00     0.001 C 
BRANCH   5   6
ATOM      6  C   UNL     1     -14.309  45.892 -10.564  1.00  0.00     0.009 C 
BRANCH   6   7
ATOM      7  C   UNL     1     -15.089  46.751  -9.535  1.00  0.00     0.032 C 
ATOM      8  C   UNL     1     -14.410  46.758  -8.157  1.00  0.00     0.014 C 
BRANCH   7   9
ATOM      9  C   UNL     1     -15.209  48.171 -10.021  1.00  0.00     0.044 C 
ATOM     10  O   UNL     1     -15.769  48.417 -11.122  1.00  0.00    -0.550 OA
ATOM     11  O   UNL     1     -14.717  49.219  -9.252  1.00  0.00    -0.550 OA
ENDBRANCH   7   9
ENDBRANCH   6   7
ENDBRANCH   5   6
ENDBRANCH   4   5
ENDBRANCH   3   4
ENDBRANCH   2   3
ENDBRANCH   1   2
BRANCH   1  12
ATOM     12  C   UNL     1     -19.820  44.105  -9.245  1.00  0.00     0.000 C 
BRANCH  12  13
ATOM     13  C   UNL     1     -19.276  44.511  -7.867  1.00  0.00    -0.000 C 
BRANCH  13  14
ATOM     14  C   UNL     1     -17.821  44.994  -7.972  1.00  0.00    -0.000 C 
BRANCH  14  15
ATOM     15  C   UNL     1     -16.849  44.123  -7.160  1.00  0.00    -0.000 C 
BRANCH  15  16
ATOM     16  C   UNL     1     -17.574  43.179  -6.186  1.00  0.00    -0.000 C 
BRANCH  16  17
ATOM     17  C   UNL     1     -16.826  43.017  -4.854  1.00  0.00    -0.000 C 
BRANCH  17  18
ATOM     18  C   UNL     1     -17.776  42.837  -3.661  1.00  0.00    -0.003 C 
ATOM     19  C   UNL     1     -18.940  43.821  -3.731  1.00  0.00     0.004 C 
ENDBRANCH  17  18
ENDBRANCH  16  17
ENDBRANCH  15  16
ENDBRANCH  14  15
ENDBRANCH  13  14
ENDBRANCH  12  13
ENDBRANCH   1  12
TORSDOF 14
ENDMDL
MODEL 3
REMARK VINA RESULT:    -3.229      2.587      5.948
REMARK INTER + INTRA:          -7.769
REMARK INTER:                  -6.189
REMARK INTRA:                  -1.580
REMARK UNBOUND:                -1.898
REMARK SMILES CCCCCCCCCCCCCC[C@@H](C)C(=O)[O-]
REMARK SMILES IDX 9 1 10 2 11 3 12 4 13 5 14 6 15 7 16 8 17 9 18 10 19 11 8 12
REMARK SMILES IDX 7 13 6 14 5 15 4 16 3 17 2 18 1 19
REMARK H PARENT
REMARK Flexibility Score: inf
ROOT
ATOM      1  C   UNL     1     -17.946  44.551 -11.099  1.00  0.00     0.000 C 
ENDROOT
BRANCH   1   2
ATOM      2  C   UNL     1     -17.996  43.112 -10.557  1.00  0.00     0.000 C 
BRANCH   2   3
ATOM      3  C   UNL     1     -19.055  42.934  -9.457  1.00  0.00     0.000 C 
BRANCH   3   4
ATOM      4  C   UNL     1     -19.350  44.241  -8.698  1.00  0.00     0.000 C 
BRANCH   4   5
ATOM      5  C   UNL     1     -18.249  44.580  -7.673  1.00  0.00     0.001 C 
BRANCH   5   6
ATOM      6  C   UNL     1     -18.542  44.085  -6.241  1.00  0.00     0.009 C 
BRANCH   6   7
ATOM      7  C   UNL     1     -17.478  43.111  -5.671  1.00  0.00     0.032 C 
ATOM      8  C   UNL     1     -16.052  43.513  -6.078  1.00  0.00     0.014 C 
BRANCH   7   9
ATOM      9  C   UNL     1     -17.557  43.070  -4.168  1.00  0.00     0.044 C 
ATOM     10  O   UNL     1     -16.570  43.430  -3.473  1.00  0.00    -0.550 OA
ATOM     11  O   UNL     1     -18.723  42.651  -3.538  1.00  0.00    -0.550 OA
ENDBRANCH   7   9
ENDBRANCH   6   7
ENDBRANCH   5   6
ENDBRANCH   4   5
ENDBRANCH   3   4
ENDBRANCH   2   3
ENDBRANCH   1   2
BRANCH   1  12
ATOM     12  C   UNL     1     -16.553  45.187 -10.959  1.00  0.00     0.000 C 
BRANCH  12  13
ATOM     13  C   UNL     1     -15.613  44.368 -10.060  1.00  0.00    -0.000 C 
BRANCH  13  14
ATOM     14  C   UNL     1     -14.847  45.283  -9.092  1.00  0.00    -0.000 C 
BRANCH  14  15
ATOM     15  C   UNL     1     -15.452  46.693  -9.007  1.00  0.00    -0.000 C 
BRANCH  15  16
ATOM     16  C   UNL     1     -14.428  47.749  -8.554  1.00  0.00    -0.000 C 
BRANCH  16  17
ATOM     17  C   UNL     1     -14.664  48.219  -7.111  1.00  0.00    -0.000 C 
BRANCH  17  18
ATOM     18  C   UNL     1     -14.254  49.683  -6.892  1.00  0.00    -0.003 C 
ATOM     19  C   UNL     1     -14.900  50.596  -7.929  1.00  0.00     0.004 C 
ENDBRANCH  17  18
ENDBRANCH  16  17
ENDBRANCH  15  16
ENDBRANCH  14  15
ENDBRANCH  13  14
ENDBRANCH  12  13
ENDBRANCH   1  12
TORSDOF 14
ENDMDL
MODEL 4
REMARK VINA RESULT:    -3.211      2.792      6.236
REMARK INTER + INTRA:          -7.737
REMARK INTER:                  -5.878
REMARK INTRA:                  -1.859
REMARK UNBOUND:                -1.898
REMARK SMILES CCCCCCCCCCCCCC[C@@H](C)C(=O)[O-]
REMARK SMILES IDX 9 1 10 2 11 3 12 4 13 5 14 6 15 7 16 8 17 9 18 10 19 11 8 12
REMARK SMILES IDX 7 13 6 14 5 15 4 16 3 17 2 18 1 19
REMARK H PARENT
REMARK Flexibility Score: inf
ROOT
ATOM      1  C   UNL     1     -17.800  43.485 -10.048  1.00  0.00     0.000 C 
ENDROOT
BRANCH   1   2
ATOM      2  C   UNL     1     -18.811  44.127  -9.083  1.00  0.00     0.000 C 
BRANCH   2   3
ATOM      3  C   UNL     1     -18.298  44.169  -7.635  1.00  0.00     0.000 C 
BRANCH   3   4
ATOM      4  C   UNL     1     -16.763  44.089  -7.544  1.00  0.00     0.000 C 
BRANCH   4   5
ATOM      5  C   UNL     1     -16.288  43.496  -6.202  1.00  0.00     0.001 C 
BRANCH   5   6
ATOM      6  C   UNL     1     -17.299  42.535  -5.541  1.00  0.00     0.009 C 
BRANCH   6   7
ATOM      7  C   UNL     1     -17.371  42.647  -3.996  1.00  0.00     0.032 C 
ATOM      8  C   UNL     1     -16.298  43.592  -3.435  1.00  0.00     0.014 C 
BRANCH   7   9
ATOM      9  C   UNL     1     -18.726  43.149  -3.569  1.00  0.00     0.044 C 
ATOM     10  O   UNL     1     -19.136  44.273  -3.962  1.00  0.00    -0.550 OA
ATOM     11  O   UNL     1     -19.538  42.369  -2.754  1.00  0.00    -0.550 OA
ENDBRANCH   7   9
ENDBRANCH   6   7
ENDBRANCH   5   6
ENDBRANCH   4   5
ENDBRANCH   3   4
ENDBRANCH   2   3
ENDBRANCH   1   2
BRANCH   1  12
ATOM     12  C   UNL     1     -17.297  44.468 -11.117  1.00  0.00     0.000 C 
BRANCH  12  13
ATOM     13  C   UNL     1     -17.797  45.903 -10.889  1.00  0.00    -0.000 C 
BRANCH  13  14
ATOM     14  C   UNL     1     -16.628  46.899 -10.899  1.00  0.00    -0.000 C 
BRANCH  14  15
ATOM     15  C   UNL     1     -15.257  46.203 -10.916  1.00  0.00    -0.000 C 
BRANCH  15  16
ATOM     16  C   UNL     1     -14.546  46.265  -9.553  1.00  0.00    -0.000 C 
BRANCH  16  17
ATOM     17  C   UNL     1     -15.201  47.267  -8.591  1.00  0.00    -0.000 C 
BRANCH  17  18
ATOM     18  C   UNL     1     -14.339  48.517  -8.362  1.00  0.00    -0.003 C 
ATOM     19  C   UNL     1     -14.695  49.619  -9.355  1.00  0.00     0.004 C 
ENDBRANCH  17  18
ENDBRANCH  16  17
ENDBRANCH  15  16
ENDBRANCH  14  15
ENDBRANCH  13  14
ENDBRANCH  12  13
ENDBRANCH   1  12
TORSDOF 14
ENDMDL
MODEL 5
REMARK VINA RESULT:    -3.077      2.995      4.643
REMARK INTER + INTRA:          -7.494
REMARK INTER:                  -5.806
REMARK INTRA:                  -1.688
REMARK UNBOUND:                -1.898
REMARK SMILES CCCCCCCCCCCCCC[C@@H](C)C(=O)[O-]
REMARK SMILES IDX 9 1 10 2 11 3 12 4 13 5 14 6 15 7 16 8 17 9 18 10 19 11 8 12
REMARK SMILES IDX 7 13 6 14 5 15 4 16 3 17 2 18 1 19
REMARK H PARENT
REMARK Flexibility Score: inf
ROOT
ATOM      1  C   UNL     1     -14.525  46.262  -7.877  1.00  0.00     0.000 C 
ENDROOT
BRANCH   1   2
ATOM      2  C   UNL     1     -14.005  46.961  -9.145  1.00  0.00     0.000 C 
BRANCH   2   3
ATOM      3  C   UNL     1     -15.102  47.755  -9.873  1.00  0.00     0.000 C 
BRANCH   3   4
ATOM      4  C   UNL     1     -15.661  47.011 -11.099  1.00  0.00     0.000 C 
BRANCH   4   5
ATOM      5  C   UNL     1     -17.203  47.007 -11.125  1.00  0.00     0.001 C 
BRANCH   5   6
ATOM      6  C   UNL     1     -17.849  45.929 -10.230  1.00  0.00     0.009 C 
BRANCH   6   7
ATOM      7  C   UNL     1     -18.255  44.634 -10.980  1.00  0.00     0.032 C 
ATOM      8  C   UNL     1     -17.204  43.525 -10.827  1.00  0.00     0.014 C 
BRANCH   7   9
ATOM      9  C   UNL     1     -19.575  44.122 -10.465  1.00  0.00     0.044 C 
ATOM     10  O   UNL     1     -19.612  43.105  -9.723  1.00  0.00    -0.550 OA
ATOM     11  O   UNL     1     -20.756  44.776 -10.792  1.00  0.00    -0.550 OA
ENDBRANCH   7   9
ENDBRANCH   6   7
ENDBRANCH   5   6
ENDBRANCH   4   5
ENDBRANCH   3   4
ENDBRANCH   2   3
ENDBRANCH   1   2
BRANCH   1  12
ATOM     12  C   UNL     1     -14.986  44.820  -8.145  1.00  0.00     0.000 C 
BRANCH  12  13
ATOM     13  C   UNL     1     -15.730  44.202  -6.951  1.00  0.00    -0.000 C 
BRANCH  13  14
ATOM     14  C   UNL     1     -17.240  44.133  -7.222  1.00  0.00    -0.000 C 
BRANCH  14  15
ATOM     15  C   UNL     1     -17.952  43.091  -6.343  1.00  0.00    -0.000 C 
BRANCH  15  16
ATOM     16  C   UNL     1     -17.084  42.623  -5.162  1.00  0.00    -0.000 C 
BRANCH  16  17
ATOM     17  C   UNL     1     -17.596  43.146  -3.811  1.00  0.00    -0.000 C 
BRANCH  17  18
ATOM     18  C   UNL     1     -19.117  43.000  -3.658  1.00  0.00    -0.003 C 
ATOM     19  C   UNL     1     -19.472  42.294  -2.353  1.00  0.00     0.004 C 
ENDBRANCH  17  18
ENDBRANCH  16  17
ENDBRANCH  15  16
ENDBRANCH  14  15
ENDBRANCH  13  14
ENDBRANCH  12  13
ENDBRANCH   1  12
TORSDOF 14
ENDMDL
MODEL 6
REMARK VINA RESULT:    -3.065      2.589      6.388
REMARK INTER + INTRA:          -7.471
REMARK INTER:                  -5.943
REMARK INTRA:                  -1.528
REMARK UNBOUND:                -1.898
REMARK SMILES CCCCCCCCCCCCCC[C@@H](C)C(=O)[O-]
REMARK SMILES IDX 9 1 10 2 11 3 12 4 13 5 14 6 15 7 16 8 17 9 18 10 19 11 8 12
REMARK SMILES IDX 7 13 6 14 5 15 4 16 3 17 2 18 1 19
REMARK H PARENT
REMARK Flexibility Score: inf
ROOT
ATOM      1  C   UNL     1     -19.247  44.969 -10.931  1.00  0.00     0.000 C 
ENDROOT
BRANCH   1   2
ATOM      2  C   UNL     1     -19.325  43.983  -9.753  1.00  0.00     0.000 C 
BRANCH   2   3
ATOM      3  C   UNL     1     -20.004  44.595  -8.517  1.00  0.00     0.000 C 
BRANCH   3   4
ATOM      4  C   UNL     1     -19.059  44.687  -7.304  1.00  0.00     0.000 C 
BRANCH   4   5
ATOM      5  C   UNL     1     -17.771  43.863  -7.505  1.00  0.00     0.001 C 
BRANCH   5   6
ATOM      6  C   UNL     1     -17.092  43.418  -6.193  1.00  0.00     0.009 C 
BRANCH   6   7
ATOM      7  C   UNL     1     -18.065  42.836  -5.135  1.00  0.00     0.032 C 
ATOM      8  C   UNL     1     -18.018  41.302  -5.090  1.00  0.00     0.014 C 
BRANCH   7   9
ATOM      9  C   UNL     1     -17.730  43.369  -3.766  1.00  0.00     0.044 C 
ATOM     10  O   UNL     1     -16.529  43.456  -3.398  1.00  0.00    -0.550 OA
ATOM     11  O   UNL     1     -18.742  43.782  -2.908  1.00  0.00    -0.550 OA
ENDBRANCH   7   9
ENDBRANCH   6   7
ENDBRANCH   5   6
ENDBRANCH   4   5
ENDBRANCH   3   4
ENDBRANCH   2   3
ENDBRANCH   1   2
BRANCH   1  12
ATOM     12  C   UNL     1     -17.836  45.547 -11.125  1.00  0.00     0.000 C 
BRANCH  12  13
ATOM     13  C   UNL     1     -16.728  44.567 -10.707  1.00  0.00    -0.000 C 
BRANCH  13  14
ATOM     14  C   UNL     1     -15.487  45.322 -10.209  1.00  0.00    -0.000 C 
BRANCH  14  15
ATOM     15  C   UNL     1     -15.814  46.325  -9.091  1.00  0.00    -0.000 C 
BRANCH  15  16
ATOM     16  C   UNL     1     -14.812  47.490  -9.030  1.00  0.00    -0.000 C 
BRANCH  16  17
ATOM     17  C   UNL     1     -14.620  48.175 -10.392  1.00  0.00    -0.000 C 
BRANCH  17  18
ATOM     18  C   UNL     1     -14.929  49.679 -10.346  1.00  0.00    -0.003 C 
ATOM     19  C   UNL     1     -14.600  50.266  -8.976  1.00  0.00     0.004 C 
ENDBRANCH  17  18
ENDBRANCH  16  17
ENDBRANCH  15  16
ENDBRANCH  14  15
ENDBRANCH  13  14
ENDBRANCH  12  13
ENDBRANCH   1  12
TORSDOF 14
ENDMDL
MODEL 7
REMARK VINA RESULT:    -2.863      1.396      4.152
REMARK INTER + INTRA:          -7.105
REMARK INTER:                  -5.227
REMARK INTRA:                  -1.878
REMARK UNBOUND:                -1.898
REMARK SMILES CCCCCCCCCCCCCC[C@@H](C)C(=O)[O-]
REMARK SMILES IDX 9 1 10 2 11 3 12 4 13 5 14 6 15 7 16 8 17 9 18 10 19 11 8 12
REMARK SMILES IDX 7 13 6 14 5 15 4 16 3 17 2 18 1 19
REMARK H PARENT
REMARK Flexibility Score: inf
ROOT
ATOM      1  C   UNL     1     -17.224  42.371  -4.510  1.00  0.00     0.000 C 
ENDROOT
BRANCH   1   2
ATOM      2  C   UNL     1     -16.152  43.394  -4.922  1.00  0.00     0.000 C 
BRANCH   2   3
ATOM      3  C   UNL     1     -15.766  43.279  -6.405  1.00  0.00     0.000 C 
BRANCH   3   4
ATOM      4  C   UNL     1     -15.477  44.645  -7.052  1.00  0.00     0.000 C 
BRANCH   4   5
ATOM      5  C   UNL     1     -15.294  44.539  -8.580  1.00  0.00     0.001 C 
BRANCH   5   6
ATOM      6  C   UNL     1     -14.283  45.544  -9.169  1.00  0.00     0.009 C 
BRANCH   6   7
ATOM      7  C   UNL     1     -14.923  46.672 -10.020  1.00  0.00     0.032 C 
ATOM      8  C   UNL     1     -16.397  46.386 -10.341  1.00  0.00     0.014 C 
BRANCH   7   9
ATOM      9  C   UNL     1     -14.834  47.989  -9.295  1.00  0.00     0.044 C 
ATOM     10  O   UNL     1     -14.624  49.052  -9.938  1.00  0.00    -0.550 OA
ATOM     11  O   UNL     1     -15.000  48.043  -7.916  1.00  0.00    -0.550 OA
ENDBRANCH   7   9
ENDBRANCH   6   7
ENDBRANCH   5   6
ENDBRANCH   4   5
ENDBRANCH   3   4
ENDBRANCH   2   3
ENDBRANCH   1   2
BRANCH   1  12
ATOM     12  C   UNL     1     -18.308  42.981  -3.607  1.00  0.00     0.000 C 
BRANCH  12  13
ATOM     13  C   UNL     1     -19.088  44.113  -4.294  1.00  0.00    -0.000 C 
BRANCH  13  14
ATOM     14  C   UNL     1     -19.281  43.816  -5.788  1.00  0.00    -0.000 C 
BRANCH  14  15
ATOM     15  C   UNL     1     -19.434  45.093  -6.630  1.00  0.00    -0.000 C 
BRANCH  15  16
ATOM     16  C   UNL     1     -18.985  44.897  -8.088  1.00  0.00    -0.000 C 
BRANCH  16  17
ATOM     17  C   UNL     1     -18.776  43.417  -8.448  1.00  0.00    -0.000 C 
BRANCH  17  18
ATOM     18  C   UNL     1     -19.488  43.020  -9.749  1.00  0.00    -0.003 C 
ATOM     19  C   UNL     1     -19.775  44.243 -10.614  1.00  0.00     0.004 C 
ENDBRANCH  17  18
ENDBRANCH  16  17
ENDBRANCH  15  16
ENDBRANCH  14  15
ENDBRANCH  13  14
ENDBRANCH  12  13
ENDBRANCH   1  12
TORSDOF 14
ENDMDL
MODEL 8
REMARK VINA RESULT:    -2.786      1.790      2.625
REMARK INTER + INTRA:          -6.964
REMARK INTER:                  -5.698
REMARK INTRA:                  -1.266
REMARK UNBOUND:                -1.898
REMARK SMILES CCCCCCCCCCCCCC[C@@H](C)C(=O)[O-]
REMARK SMILES IDX 9 1 10 2 11 3 12 4 13 5 14 6 15 7 16 8 17 9 18 10 19 11 8 12
REMARK SMILES IDX 7 13 6 14 5 15 4 16 3 17 2 18 1 19
REMARK H PARENT
REMARK Flexibility Score: inf
ROOT
ATOM      1  C   UNL     1     -19.772  44.018  -9.259  1.00  0.00     0.000 C 
ENDROOT
BRANCH   1   2
ATOM      2  C   UNL     1     -19.361  43.983 -10.740  1.00  0.00     0.000 C 
BRANCH   2   3
ATOM      3  C   UNL     1     -18.469  42.777 -11.076  1.00  0.00     0.000 C 
BRANCH   3   4
ATOM      4  C   UNL     1     -17.003  42.985 -10.652  1.00  0.00     0.000 C 
BRANCH   4   5
ATOM      5  C   UNL     1     -16.447  44.345 -11.122  1.00  0.00     0.001 C 
BRANCH   5   6
ATOM      6  C   UNL     1     -14.938  44.535 -10.866  1.00  0.00     0.009 C 
BRANCH   6   7
ATOM      7  C   UNL     1     -14.574  45.856 -10.138  1.00  0.00     0.032 C 
ATOM      8  C   UNL     1     -15.614  46.958 -10.389  1.00  0.00     0.014 C 
BRANCH   7   9
ATOM      9  C   UNL     1     -14.466  45.623  -8.654  1.00  0.00     0.044 C 
ATOM     10  O   UNL     1     -14.891  44.551  -8.149  1.00  0.00    -0.550 OA
ATOM     11  O   UNL     1     -13.881  46.583  -7.835  1.00  0.00    -0.550 OA
ENDBRANCH   7   9
ENDBRANCH   6   7
ENDBRANCH   5   6
ENDBRANCH   4   5
ENDBRANCH   3   4
ENDBRANCH   2   3
ENDBRANCH   1   2
BRANCH   1  12
ATOM     12  C   UNL     1     -18.909  44.983  -8.429  1.00  0.00     0.000 C 
BRANCH  12  13
ATOM     13  C   UNL     1     -18.888  44.627  -6.934  1.00  0.00    -0.000 C 
BRANCH  13  14
ATOM     14  C   UNL     1     -17.642  43.800  -6.585  1.00  0.00    -0.000 C 
BRANCH  14  15
ATOM     15  C   UNL     1     -17.984  42.361  -6.167  1.00  0.00    -0.000 C 
BRANCH  15  16
ATOM     16  C   UNL     1     -17.476  42.018  -4.756  1.00  0.00    -0.000 C 
BRANCH  16  17
ATOM     17  C   UNL     1     -17.479  43.234  -3.817  1.00  0.00    -0.000 C 
BRANCH  17  18
ATOM     18  C   UNL     1     -18.888  43.602  -3.330  1.00  0.00    -0.003 C 
ATOM     19  C   UNL     1     -19.558  42.416  -2.642  1.00  0.00     0.004 C 
ENDBRANCH  17  18
ENDBRANCH  16  17
ENDBRANCH  15  16
ENDBRANCH  14  15
ENDBRANCH  13  14
ENDBRANCH  12  13
ENDBRANCH   1  12
TORSDOF 14
ENDMDL
MODEL 9
REMARK VINA RESULT:    -2.731      1.461      2.277
REMARK INTER + INTRA:          -6.864
REMARK INTER:                  -5.409
REMARK INTRA:                  -1.455
REMARK UNBOUND:                -1.898
REMARK SMILES CCCCCCCCCCCCCC[C@@H](C)C(=O)[O-]
REMARK SMILES IDX 9 1 10 2 11 3 12 4 13 5 14 6 15 7 16 8 17 9 18 10 19 11 8 12
REMARK SMILES IDX 7 13 6 14 5 15 4 16 3 17 2 18 1 19
REMARK H PARENT
REMARK Flexibility Score: inf
ROOT
ATOM      1  C   UNL     1     -16.604  44.115 -10.936  1.00  0.00     0.000 C 
ENDROOT
BRANCH   1   2
ATOM      2  C   UNL     1     -15.222  44.789 -10.978  1.00  0.00     0.000 C 
BRANCH   2   3
ATOM      3  C   UNL     1     -15.303  46.313 -10.796  1.00  0.00     0.000 C 
BRANCH   3   4
ATOM      4  C   UNL     1     -13.945  47.010 -11.002  1.00  0.00     0.000 C 
BRANCH   4   5
ATOM      5  C   UNL     1     -14.018  48.523 -10.713  1.00  0.00     0.001 C 
BRANCH   5   6
ATOM      6  C   UNL     1     -15.023  48.910  -9.608  1.00  0.00     0.009 C 
BRANCH   6   7
ATOM      7  C   UNL     1     -14.368  49.424  -8.300  1.00  0.00     0.032 C 
ATOM      8  C   UNL     1     -14.938  50.782  -7.864  1.00  0.00     0.014 C 
BRANCH   7   9
ATOM      9  C   UNL     1     -14.577  48.433  -7.185  1.00  0.00     0.044 C 
ATOM     10  O   UNL     1     -14.735  47.211  -7.446  1.00  0.00    -0.550 OA
ATOM     11  O   UNL     1     -14.580  48.857  -5.861  1.00  0.00    -0.550 OA
ENDBRANCH   7   9
ENDBRANCH   6   7
ENDBRANCH   5   6
ENDBRANCH   4   5
ENDBRANCH   3   4
ENDBRANCH   2   3
ENDBRANCH   1   2
BRANCH   1  12
ATOM     12  C   UNL     1     -17.754  45.132 -10.866  1.00  0.00     0.000 C 
BRANCH  12  13
ATOM     13  C   UNL     1     -18.900  44.673  -9.950  1.00  0.00    -0.000 C 
BRANCH  13  14
ATOM     14  C   UNL     1     -18.386  43.707  -8.872  1.00  0.00    -0.000 C 
BRANCH  14  15
ATOM     15  C   UNL     1     -17.917  44.433  -7.601  1.00  0.00    -0.000 C 
BRANCH  15  16
ATOM     16  C   UNL     1     -16.452  44.121  -7.249  1.00  0.00    -0.000 C 
BRANCH  16  17
ATOM     17  C   UNL     1     -16.314  43.371  -5.915  1.00  0.00    -0.000 C 
BRANCH  17  18
ATOM     18  C   UNL     1     -17.653  43.223  -5.178  1.00  0.00    -0.003 C 
ATOM     19  C   UNL     1     -17.887  41.778  -4.747  1.00  0.00     0.004 C 
ENDBRANCH  17  18
ENDBRANCH  16  17
ENDBRANCH  15  16
ENDBRANCH  14  15
ENDBRANCH  13  14
ENDBRANCH  12  13
ENDBRANCH   1  12
TORSDOF 14
ENDMDL
