MODEL 1
REMARK VINA RESULT:    -6.618      0.000      0.000
REMARK INTER + INTRA:         -11.587
REMARK INTER:                 -10.100
REMARK INTRA:                  -1.487
REMARK UNBOUND:                -1.487
REMARK SMILES OC[C@@H]1O[C@@H](O[C@]2(CO)O[C@@H](CO)[C@H](O)[C@H]2O)[C@@H](O)[C@@H](O)[C@@H]1O
REMARK SMILES IDX 6 1 5 2 3 3 22 4 4 5 20 6 18 7 2 8 1 9 23 11 21 13 19 15
REMARK SMILES IDX 7 17 16 18 10 19 14 20 11 21 8 22 9 23 17 25 15 27 12 29
REMARK SMILES IDX 13 30
REMARK H PARENT 1 10 23 12 21 14 19 16 9 24 17 26 15 28 13 31
REMARK Flexibility Score: inf
ROOT
ATOM      1  O   UNL     1     -16.871 -33.802  -9.125  1.00  0.00    -0.313 OA
ENDROOT
BRANCH   1   2
ATOM      2  C   UNL     1     -18.107 -33.887  -8.415  1.00  0.00     0.285 C 
ATOM      3  C   UNL     1     -17.140 -35.181  -6.707  1.00  0.00     0.178 C 
ATOM      4  C   UNL     1     -17.935 -36.454  -7.080  1.00  0.00     0.177 C 
ATOM      5  O   UNL     1     -17.887 -34.013  -7.017  1.00  0.00    -0.341 OA
ATOM      6  C   UNL     1     -18.284 -36.423  -8.576  1.00  0.00     0.179 C 
ATOM      7  C   UNL     1     -18.945 -35.074  -8.936  1.00  0.00     0.202 C 
BRANCH   3   8
ATOM      8  C   UNL     1     -16.787 -35.160  -5.216  1.00  0.00     0.191 C 
BRANCH   8   9
ATOM      9  O   UNL     1     -16.588 -36.471  -4.762  1.00  0.00    -0.394 OA
ATOM     10  H   UNL     1     -17.169 -36.576  -3.963  1.00  0.00     0.210 HD
ENDBRANCH   8   9
ENDBRANCH   3   8
BRANCH   4  11
ATOM     11  O   UNL     1     -19.125 -36.527  -6.333  1.00  0.00    -0.387 OA
ATOM     12  H   UNL     1     -18.964 -37.163  -5.587  1.00  0.00     0.211 HD
ENDBRANCH   4  11
BRANCH   6  13
ATOM     13  O   UNL     1     -17.115 -36.621  -9.332  1.00  0.00    -0.387 OA
ATOM     14  H   UNL     1     -16.474 -37.112  -8.754  1.00  0.00     0.211 HD
ENDBRANCH   6  13
BRANCH   7  15
ATOM     15  O   UNL     1     -19.123 -34.961 -10.323  1.00  0.00    -0.385 OA
ATOM     16  H   UNL     1     -19.771 -34.224 -10.470  1.00  0.00     0.211 HD
ENDBRANCH   7  15
ENDBRANCH   1   2
BRANCH   1  17
ATOM     17  C   UNL     1     -16.547 -32.504  -9.625  1.00  0.00     0.224 C 
ATOM     18  C   UNL     1     -17.634 -31.444  -9.316  1.00  0.00     0.208 C 
ATOM     19  O   UNL     1     -15.370 -32.091  -8.952  1.00  0.00    -0.337 OA
ATOM     20  C   UNL     1     -16.832 -30.200  -9.063  1.00  0.00     0.180 C 
ATOM     21  C   UNL     1     -15.554 -30.777  -8.465  1.00  0.00     0.179 C 
BRANCH  17  22
ATOM     22  C   UNL     1     -16.186 -32.573 -11.135  1.00  0.00     0.225 C 
BRANCH  22  23
ATOM     23  O   UNL     1     -16.886 -33.611 -11.766  1.00  0.00    -0.391 OA
ATOM     24  H   UNL     1     -16.734 -34.428 -11.226  1.00  0.00     0.210 HD
ENDBRANCH  22  23
ENDBRANCH  17  22
BRANCH  18  25
ATOM     25  O   UNL     1     -18.533 -31.266 -10.381  1.00  0.00    -0.385 OA
ATOM     26  H   UNL     1     -18.917 -30.356 -10.276  1.00  0.00     0.211 HD
ENDBRANCH  18  25
BRANCH  20  27
ATOM     27  O   UNL     1     -17.493 -29.358  -8.156  1.00  0.00    -0.387 OA
ATOM     28  H   UNL     1     -17.239 -29.669  -7.248  1.00  0.00     0.211 HD
ENDBRANCH  20  27
BRANCH  21  29
ATOM     29  C   UNL     1     -14.318 -29.919  -8.769  1.00  0.00     0.191 C 
BRANCH  29  30
ATOM     30  O   UNL     1     -13.373 -30.636  -9.517  1.00  0.00    -0.394 OA
ATOM     31  H   UNL     1     -13.151 -31.451  -8.994  1.00  0.00     0.210 HD
ENDBRANCH  29  30
ENDBRANCH  21  29
ENDBRANCH   1  17
TORSDOF 13
ENDMDL
MODEL 2
REMARK VINA RESULT:    -6.458      1.448      5.765
REMARK INTER + INTRA:         -11.343
REMARK INTER:                 -10.142
REMARK INTRA:                  -1.200
REMARK UNBOUND:                -1.487
REMARK SMILES OC[C@@H]1O[C@@H](O[C@]2(CO)O[C@@H](CO)[C@H](O)[C@H]2O)[C@@H](O)[C@@H](O)[C@@H]1O
REMARK SMILES IDX 6 1 5 2 3 3 22 4 4 5 20 6 18 7 2 8 1 9 23 11 21 13 19 15
REMARK SMILES IDX 7 17 16 18 10 19 14 20 11 21 8 22 9 23 17 25 15 27 12 29
REMARK SMILES IDX 13 30
REMARK H PARENT 1 10 23 12 21 14 19 16 9 24 17 26 15 28 13 31
REMARK Flexibility Score: inf
ROOT
ATOM      1  O   UNL     1     -17.148 -32.335  -8.547  1.00  0.00    -0.313 OA
ENDROOT
BRANCH   1   2
ATOM      2  C   UNL     1     -16.459 -31.957  -9.740  1.00  0.00     0.285 C 
ATOM      3  C   UNL     1     -14.663 -31.051  -8.524  1.00  0.00     0.178 C 
ATOM      4  C   UNL     1     -14.982 -29.596  -8.939  1.00  0.00     0.177 C 
ATOM      5  O   UNL     1     -15.052 -31.961  -9.542  1.00  0.00    -0.341 OA
ATOM      6  C   UNL     1     -16.484 -29.461  -9.233  1.00  0.00     0.179 C 
ATOM      7  C   UNL     1     -16.930 -30.567 -10.215  1.00  0.00     0.202 C 
BRANCH   3   8
ATOM      8  C   UNL     1     -13.168 -31.236  -8.239  1.00  0.00     0.191 C 
BRANCH   8   9
ATOM      9  O   UNL     1     -12.798 -32.558  -8.515  1.00  0.00    -0.394 OA
ATOM     10  H   UNL     1     -11.942 -32.506  -9.016  1.00  0.00     0.210 HD
ENDBRANCH   8   9
ENDBRANCH   3   8
BRANCH   4  11
ATOM     11  O   UNL     1     -14.256 -29.244 -10.092  1.00  0.00    -0.387 OA
ATOM     12  H   UNL     1     -14.765 -29.585 -10.874  1.00  0.00     0.211 HD
ENDBRANCH   4  11
BRANCH   6  13
ATOM     13  O   UNL     1     -17.204 -29.545  -8.028  1.00  0.00    -0.387 OA
ATOM     14  H   UNL     1     -16.957 -28.751  -7.485  1.00  0.00     0.211 HD
ENDBRANCH   6  13
BRANCH   7  15
ATOM     15  O   UNL     1     -18.325 -30.561 -10.369  1.00  0.00    -0.385 OA
ATOM     16  H   UNL     1     -18.621 -29.619 -10.265  1.00  0.00     0.211 HD
ENDBRANCH   7  15
ENDBRANCH   1   2
BRANCH   1  17
ATOM     17  C   UNL     1     -17.181 -33.738  -8.284  1.00  0.00     0.224 C 
ATOM     18  C   UNL     1     -16.025 -34.212  -7.369  1.00  0.00     0.208 C 
ATOM     19  O   UNL     1     -18.387 -33.992  -7.584  1.00  0.00    -0.337 OA
ATOM     20  C   UNL     1     -16.668 -35.287  -6.541  1.00  0.00     0.180 C 
ATOM     21  C   UNL     1     -18.103 -34.784  -6.449  1.00  0.00     0.179 C 
BRANCH  17  22
ATOM     22  C   UNL     1     -17.268 -34.543  -9.611  1.00  0.00     0.225 C 
BRANCH  22  23
ATOM     23  O   UNL     1     -17.193 -35.921  -9.361  1.00  0.00    -0.391 OA
ATOM     24  H   UNL     1     -16.263 -36.198  -9.562  1.00  0.00     0.210 HD
ENDBRANCH  22  23
ENDBRANCH  17  22
BRANCH  18  25
ATOM     25  O   UNL     1     -14.930 -34.711  -8.096  1.00  0.00    -0.385 OA
ATOM     26  H   UNL     1     -15.265 -35.493  -8.608  1.00  0.00     0.211 HD
ENDBRANCH  18  25
BRANCH  20  27
ATOM     27  O   UNL     1     -16.066 -35.367  -5.276  1.00  0.00    -0.387 OA
ATOM     28  H   UNL     1     -16.734 -35.028  -4.625  1.00  0.00     0.211 HD
ENDBRANCH  20  27
BRANCH  21  29
ATOM     29  C   UNL     1     -19.123 -35.925  -6.328  1.00  0.00     0.191 C 
BRANCH  29  30
ATOM     30  O   UNL     1     -18.722 -37.047  -7.069  1.00  0.00    -0.394 OA
ATOM     31  H   UNL     1     -17.903 -36.784  -7.567  1.00  0.00     0.210 HD
ENDBRANCH  29  30
ENDBRANCH  21  29
ENDBRANCH   1  17
TORSDOF 13
ENDMDL
MODEL 3
REMARK VINA RESULT:    -6.237      2.045      4.421
REMARK INTER + INTRA:         -11.005
REMARK INTER:                 -10.496
REMARK INTRA:                  -0.508
REMARK UNBOUND:                -1.487
REMARK SMILES OC[C@@H]1O[C@@H](O[C@]2(CO)O[C@@H](CO)[C@H](O)[C@H]2O)[C@@H](O)[C@@H](O)[C@@H]1O
REMARK SMILES IDX 6 1 5 2 3 3 22 4 4 5 20 6 18 7 2 8 1 9 23 11 21 13 19 15
REMARK SMILES IDX 7 17 16 18 10 19 14 20 11 21 8 22 9 23 17 25 15 27 12 29
REMARK SMILES IDX 13 30
REMARK H PARENT 1 10 23 12 21 14 19 16 9 24 17 26 15 28 13 31
REMARK Flexibility Score: inf
ROOT
ATOM      1  O   UNL     1     -15.713 -32.215  -8.512  1.00  0.00    -0.313 OA
ENDROOT
BRANCH   1   2
ATOM      2  C   UNL     1     -15.053 -33.477  -8.616  1.00  0.00     0.285 C 
ATOM      3  C   UNL     1     -15.734 -34.114  -6.459  1.00  0.00     0.178 C 
ATOM      4  C   UNL     1     -14.301 -34.066  -5.880  1.00  0.00     0.177 C 
ATOM      5  O   UNL     1     -15.710 -34.465  -7.834  1.00  0.00    -0.341 OA
ATOM      6  C   UNL     1     -13.458 -33.057  -6.675  1.00  0.00     0.179 C 
ATOM      7  C   UNL     1     -13.576 -33.348  -8.188  1.00  0.00     0.202 C 
BRANCH   3   8
ATOM      8  C   UNL     1     -16.607 -35.124  -5.705  1.00  0.00     0.191 C 
BRANCH   8   9
ATOM      9  O   UNL     1     -17.248 -35.966  -6.622  1.00  0.00    -0.394 OA
ATOM     10  H   UNL     1     -16.765 -35.856  -7.483  1.00  0.00     0.210 HD
ENDBRANCH   8   9
ENDBRANCH   3   8
BRANCH   4  11
ATOM     11  O   UNL     1     -13.696 -35.334  -5.961  1.00  0.00    -0.387 OA
ATOM     12  H   UNL     1     -14.271 -35.965  -5.454  1.00  0.00     0.211 HD
ENDBRANCH   4  11
BRANCH   6  13
ATOM     13  O   UNL     1     -13.894 -31.752  -6.384  1.00  0.00    -0.387 OA
ATOM     14  H   UNL     1     -14.423 -31.803  -5.545  1.00  0.00     0.211 HD
ENDBRANCH   6  13
BRANCH   7  15
ATOM     15  O   UNL     1     -12.946 -32.343  -8.938  1.00  0.00    -0.385 OA
ATOM     16  H   UNL     1     -12.072 -32.165  -8.502  1.00  0.00     0.211 HD
ENDBRANCH   7  15
ENDBRANCH   1   2
BRANCH   1  17
ATOM     17  C   UNL     1     -16.840 -32.047  -9.373  1.00  0.00     0.224 C 
ATOM     18  C   UNL     1     -16.489 -31.326 -10.699  1.00  0.00     0.208 C 
ATOM     19  O   UNL     1     -17.285 -33.347  -9.720  1.00  0.00    -0.337 OA
ATOM     20  C   UNL     1     -17.378 -32.007 -11.699  1.00  0.00     0.180 C 
ATOM     21  C   UNL     1     -17.469 -33.413 -11.119  1.00  0.00     0.179 C 
BRANCH  17  22
ATOM     22  C   UNL     1     -18.014 -31.371  -8.613  1.00  0.00     0.225 C 
BRANCH  22  23
ATOM     23  O   UNL     1     -17.586 -30.191  -7.986  1.00  0.00    -0.391 OA
ATOM     24  H   UNL     1     -18.391 -29.771  -7.588  1.00  0.00     0.210 HD
ENDBRANCH  22  23
ENDBRANCH  17  22
BRANCH  18  25
ATOM     25  O   UNL     1     -16.742 -29.945 -10.646  1.00  0.00    -0.385 OA
ATOM     26  H   UNL     1     -17.339 -29.738 -11.412  1.00  0.00     0.211 HD
ENDBRANCH  18  25
BRANCH  20  27
ATOM     27  O   UNL     1     -16.784 -32.010 -12.971  1.00  0.00    -0.387 OA
ATOM     28  H   UNL     1     -17.441 -31.596 -13.589  1.00  0.00     0.211 HD
ENDBRANCH  20  27
BRANCH  21  29
ATOM     29  C   UNL     1     -18.800 -34.104 -11.449  1.00  0.00     0.191 C 
BRANCH  29  30
ATOM     30  O   UNL     1     -18.736 -35.481 -11.188  1.00  0.00    -0.394 OA
ATOM     31  H   UNL     1     -17.779 -35.740 -11.246  1.00  0.00     0.210 HD
ENDBRANCH  29  30
ENDBRANCH  21  29
ENDBRANCH   1  17
TORSDOF 13
ENDMDL
MODEL 4
REMARK VINA RESULT:    -6.054      2.220      3.807
REMARK INTER + INTRA:         -10.726
REMARK INTER:                  -9.438
REMARK INTRA:                  -1.288
REMARK UNBOUND:                -1.487
REMARK SMILES OC[C@@H]1O[C@@H](O[C@]2(CO)O[C@@H](CO)[C@H](O)[C@H]2O)[C@@H](O)[C@@H](O)[C@@H]1O
REMARK SMILES IDX 6 1 5 2 3 3 22 4 4 5 20 6 18 7 2 8 1 9 23 11 21 13 19 15
REMARK SMILES IDX 7 17 16 18 10 19 14 20 11 21 8 22 9 23 17 25 15 27 12 29
REMARK SMILES IDX 13 30
REMARK H PARENT 1 10 23 12 21 14 19 16 9 24 17 26 15 28 13 31
REMARK Flexibility Score: inf
ROOT
ATOM      1  O   UNL     1     -16.617 -31.492 -10.195  1.00  0.00    -0.313 OA
ENDROOT
BRANCH   1   2
ATOM      2  C   UNL     1     -17.958 -31.876  -9.891  1.00  0.00     0.285 C 
ATOM      3  C   UNL     1     -17.243 -33.797  -8.740  1.00  0.00     0.178 C 
ATOM      4  C   UNL     1     -17.819 -34.770  -9.796  1.00  0.00     0.177 C 
ATOM      5  O   UNL     1     -18.018 -32.609  -8.675  1.00  0.00    -0.341 OA
ATOM      6  C   UNL     1     -17.856 -34.078 -11.167  1.00  0.00     0.179 C 
ATOM      7  C   UNL     1     -18.555 -32.705 -11.047  1.00  0.00     0.202 C 
BRANCH   3   8
ATOM      8  C   UNL     1     -17.205 -34.441  -7.350  1.00  0.00     0.191 C 
BRANCH   8   9
ATOM      9  O   UNL     1     -17.245 -35.835  -7.476  1.00  0.00    -0.394 OA
ATOM     10  H   UNL     1     -17.227 -36.024  -8.451  1.00  0.00     0.210 HD
ENDBRANCH   8   9
ENDBRANCH   3   8
BRANCH   4  11
ATOM     11  O   UNL     1     -19.125 -35.159  -9.443  1.00  0.00    -0.387 OA
ATOM     12  H   UNL     1     -19.707 -34.976 -10.227  1.00  0.00     0.211 HD
ENDBRANCH   4  11
BRANCH   6  13
ATOM     13  O   UNL     1     -16.544 -33.928 -11.650  1.00  0.00    -0.387 OA
ATOM     14  H   UNL     1     -15.958 -33.786 -10.860  1.00  0.00     0.211 HD
ENDBRANCH   6  13
BRANCH   7  15
ATOM     15  O   UNL     1     -18.456 -31.990 -12.250  1.00  0.00    -0.385 OA
ATOM     16  H   UNL     1     -18.715 -32.614 -12.977  1.00  0.00     0.211 HD
ENDBRANCH   7  15
ENDBRANCH   1   2
BRANCH   1  17
ATOM     17  C   UNL     1     -16.371 -30.085 -10.186  1.00  0.00     0.224 C 
ATOM     18  C   UNL     1     -14.870 -29.730 -10.318  1.00  0.00     0.208 C 
ATOM     19  O   UNL     1     -17.020 -29.551 -11.327  1.00  0.00    -0.337 OA
ATOM     20  C   UNL     1     -14.890 -28.478 -11.147  1.00  0.00     0.180 C 
ATOM     21  C   UNL     1     -16.121 -28.708 -12.016  1.00  0.00     0.179 C 
BRANCH  17  22
ATOM     22  C   UNL     1     -17.040 -29.420  -8.951  1.00  0.00     0.225 C 
BRANCH  22  23
ATOM     23  O   UNL     1     -16.566 -29.991  -7.761  1.00  0.00    -0.391 OA
ATOM     24  H   UNL     1     -16.358 -29.242  -7.147  1.00  0.00     0.210 HD
ENDBRANCH  22  23
ENDBRANCH  17  22
BRANCH  18  25
ATOM     25  O   UNL     1     -14.254 -29.510  -9.074  1.00  0.00    -0.385 OA
ATOM     26  H   UNL     1     -13.358 -29.933  -9.125  1.00  0.00     0.211 HD
ENDBRANCH  18  25
BRANCH  20  27
ATOM     27  O   UNL     1     -13.723 -28.375 -11.920  1.00  0.00    -0.387 OA
ATOM     28  H   UNL     1     -13.523 -29.289 -12.251  1.00  0.00     0.211 HD
ENDBRANCH  20  27
BRANCH  21  29
ATOM     29  C   UNL     1     -16.817 -27.399 -12.414  1.00  0.00     0.191 C 
BRANCH  29  30
ATOM     30  O   UNL     1     -18.187 -27.601 -12.642  1.00  0.00    -0.394 OA
ATOM     31  H   UNL     1     -18.403 -27.151 -13.502  1.00  0.00     0.210 HD
ENDBRANCH  29  30
ENDBRANCH  21  29
ENDBRANCH   1  17
TORSDOF 13
ENDMDL
MODEL 5
REMARK VINA RESULT:    -5.890      2.873      5.558
REMARK INTER + INTRA:         -10.476
REMARK INTER:                  -9.318
REMARK INTRA:                  -1.158
REMARK UNBOUND:                -1.487
REMARK SMILES OC[C@@H]1O[C@@H](O[C@]2(CO)O[C@@H](CO)[C@H](O)[C@H]2O)[C@@H](O)[C@@H](O)[C@@H]1O
REMARK SMILES IDX 6 1 5 2 3 3 22 4 4 5 20 6 18 7 2 8 1 9 23 11 21 13 19 15
REMARK SMILES IDX 7 17 16 18 10 19 14 20 11 21 8 22 9 23 17 25 15 27 12 29
REMARK SMILES IDX 13 30
REMARK H PARENT 1 10 23 12 21 14 19 16 9 24 17 26 15 28 13 31
REMARK Flexibility Score: inf
ROOT
ATOM      1  O   UNL     1     -14.782 -31.089  -9.231  1.00  0.00    -0.313 OA
ENDROOT
BRANCH   1   2
ATOM      2  C   UNL     1     -16.141 -31.441  -8.968  1.00  0.00     0.285 C 
ATOM      3  C   UNL     1     -16.476 -32.165 -11.179  1.00  0.00     0.178 C 
ATOM      4  C   UNL     1     -17.448 -31.011 -11.519  1.00  0.00     0.177 C 
ATOM      5  O   UNL     1     -16.564 -32.508  -9.804  1.00  0.00    -0.341 OA
ATOM      6  C   UNL     1     -17.127 -29.792 -10.640  1.00  0.00     0.179 C 
ATOM      7  C   UNL     1     -17.059 -30.215  -9.156  1.00  0.00     0.202 C 
BRANCH   3   8
ATOM      8  C   UNL     1     -16.773 -33.411 -12.020  1.00  0.00     0.191 C 
BRANCH   8   9
ATOM      9  O   UNL     1     -17.547 -34.309 -11.274  1.00  0.00    -0.394 OA
ATOM     10  H   UNL     1     -17.099 -34.392 -10.392  1.00  0.00     0.210 HD
ENDBRANCH   8   9
ENDBRANCH   3   8
BRANCH   4  11
ATOM     11  O   UNL     1     -18.779 -31.405 -11.287  1.00  0.00    -0.387 OA
ATOM     12  H   UNL     1     -19.046 -31.029 -10.407  1.00  0.00     0.211 HD
ENDBRANCH   4  11
BRANCH   6  13
ATOM     13  O   UNL     1     -15.907 -29.227 -11.053  1.00  0.00    -0.387 OA
ATOM     14  H   UNL     1     -15.261 -29.975 -11.158  1.00  0.00     0.211 HD
ENDBRANCH   6  13
BRANCH   7  15
ATOM     15  O   UNL     1     -16.609 -29.153  -8.356  1.00  0.00    -0.385 OA
ATOM     16  H   UNL     1     -15.768 -29.455  -7.924  1.00  0.00     0.211 HD
ENDBRANCH   7  15
ENDBRANCH   1   2
BRANCH   1  17
ATOM     17  C   UNL     1     -13.818 -31.716  -8.384  1.00  0.00     0.224 C 
ATOM     18  C   UNL     1     -14.235 -31.726  -6.892  1.00  0.00     0.208 C 
ATOM     19  O   UNL     1     -13.735 -33.070  -8.794  1.00  0.00    -0.337 OA
ATOM     20  C   UNL     1     -13.709 -33.045  -6.402  1.00  0.00     0.180 C 
ATOM     21  C   UNL     1     -13.822 -33.903  -7.657  1.00  0.00     0.179 C 
BRANCH  17  22
ATOM     22  C   UNL     1     -12.408 -31.102  -8.610  1.00  0.00     0.225 C 
BRANCH  22  23
ATOM     23  O   UNL     1     -11.574 -32.008  -9.282  1.00  0.00    -0.391 OA
ATOM     24  H   UNL     1     -11.897 -32.917  -9.055  1.00  0.00     0.210 HD
ENDBRANCH  22  23
ENDBRANCH  17  22
BRANCH  18  25
ATOM     25  O   UNL     1     -13.684 -30.655  -6.169  1.00  0.00    -0.385 OA
ATOM     26  H   UNL     1     -13.322 -31.039  -5.328  1.00  0.00     0.211 HD
ENDBRANCH  18  25
BRANCH  20  27
ATOM     27  O   UNL     1     -14.507 -33.543  -5.361  1.00  0.00    -0.387 OA
ATOM     28  H   UNL     1     -14.089 -34.395  -5.070  1.00  0.00     0.211 HD
ENDBRANCH  20  27
BRANCH  21  29
ATOM     29  C   UNL     1     -12.753 -35.003  -7.719  1.00  0.00     0.191 C 
BRANCH  29  30
ATOM     30  O   UNL     1     -12.718 -35.746  -6.529  1.00  0.00    -0.394 OA
ATOM     31  H   UNL     1     -13.607 -36.179  -6.435  1.00  0.00     0.210 HD
ENDBRANCH  29  30
ENDBRANCH  21  29
ENDBRANCH   1  17
TORSDOF 13
ENDMDL
MODEL 6
REMARK VINA RESULT:    -5.794      2.576      5.556
REMARK INTER + INTRA:         -10.330
REMARK INTER:                  -9.278
REMARK INTRA:                  -1.052
REMARK UNBOUND:                -1.487
REMARK SMILES OC[C@@H]1O[C@@H](O[C@]2(CO)O[C@@H](CO)[C@H](O)[C@H]2O)[C@@H](O)[C@@H](O)[C@@H]1O
REMARK SMILES IDX 6 1 5 2 3 3 22 4 4 5 20 6 18 7 2 8 1 9 23 11 21 13 19 15
REMARK SMILES IDX 7 17 16 18 10 19 14 20 11 21 8 22 9 23 17 25 15 27 12 29
REMARK SMILES IDX 13 30
REMARK H PARENT 1 10 23 12 21 14 19 16 9 24 17 26 15 28 13 31
REMARK Flexibility Score: inf
ROOT
ATOM      1  O   UNL     1     -15.181 -31.526  -8.839  1.00  0.00    -0.313 OA
ENDROOT
BRANCH   1   2
ATOM      2  C   UNL     1     -15.862 -32.461  -9.677  1.00  0.00     0.285 C 
ATOM      3  C   UNL     1     -16.799 -30.746 -10.983  1.00  0.00     0.178 C 
ATOM      4  C   UNL     1     -18.241 -31.019 -10.491  1.00  0.00     0.177 C 
ATOM      5  O   UNL     1     -16.035 -31.943 -10.988  1.00  0.00    -0.341 OA
ATOM      6  C   UNL     1     -18.197 -31.633  -9.084  1.00  0.00     0.179 C 
ATOM      7  C   UNL     1     -17.228 -32.836  -9.063  1.00  0.00     0.202 C 
BRANCH   3   8
ATOM      8  C   UNL     1     -16.794 -30.149 -12.394  1.00  0.00     0.191 C 
BRANCH   8   9
ATOM      9  O   UNL     1     -17.981 -29.436 -12.607  1.00  0.00    -0.394 OA
ATOM     10  H   UNL     1     -18.619 -30.079 -13.016  1.00  0.00     0.210 HD
ENDBRANCH   8   9
ENDBRANCH   3   8
BRANCH   4  11
ATOM     11  O   UNL     1     -18.895 -31.910 -11.361  1.00  0.00    -0.387 OA
ATOM     12  H   UNL     1     -19.670 -31.425 -11.749  1.00  0.00     0.211 HD
ENDBRANCH   4  11
BRANCH   6  13
ATOM     13  O   UNL     1     -17.794 -30.653  -8.159  1.00  0.00    -0.387 OA
ATOM     14  H   UNL     1     -18.388 -29.868  -8.290  1.00  0.00     0.211 HD
ENDBRANCH   6  13
BRANCH   7  15
ATOM     15  O   UNL     1     -17.051 -33.309  -7.754  1.00  0.00    -0.385 OA
ATOM     16  H   UNL     1     -16.073 -33.317  -7.582  1.00  0.00     0.211 HD
ENDBRANCH   7  15
ENDBRANCH   1   2
BRANCH   1  17
ATOM     17  C   UNL     1     -14.058 -32.052  -8.130  1.00  0.00     0.224 C 
ATOM     18  C   UNL     1     -14.267 -32.078  -6.596  1.00  0.00     0.208 C 
ATOM     19  O   UNL     1     -13.910 -33.399  -8.545  1.00  0.00    -0.337 OA
ATOM     20  C   UNL     1     -13.562 -33.337  -6.180  1.00  0.00     0.180 C 
ATOM     21  C   UNL     1     -13.767 -34.220  -7.405  1.00  0.00     0.179 C 
BRANCH  17  22
ATOM     22  C   UNL     1     -12.754 -31.319  -8.548  1.00  0.00     0.225 C 
BRANCH  22  23
ATOM     23  O   UNL     1     -11.812 -32.229  -9.053  1.00  0.00    -0.391 OA
ATOM     24  H   UNL     1     -12.270 -32.751  -9.759  1.00  0.00     0.210 HD
ENDBRANCH  22  23
ENDBRANCH  17  22
BRANCH  18  25
ATOM     25  O   UNL     1     -13.722 -30.951  -5.957  1.00  0.00    -0.385 OA
ATOM     26  H   UNL     1     -13.285 -31.281  -5.129  1.00  0.00     0.211 HD
ENDBRANCH  18  25
BRANCH  20  27
ATOM     27  O   UNL     1     -14.164 -33.889  -5.038  1.00  0.00    -0.387 OA
ATOM     28  H   UNL     1     -14.370 -34.835  -5.259  1.00  0.00     0.211 HD
ENDBRANCH  20  27
BRANCH  21  29
ATOM     29  C   UNL     1     -12.621 -35.222  -7.610  1.00  0.00     0.191 C 
BRANCH  29  30
ATOM     30  O   UNL     1     -12.258 -35.308  -8.962  1.00  0.00    -0.394 OA
ATOM     31  H   UNL     1     -12.938 -35.880  -9.406  1.00  0.00     0.210 HD
ENDBRANCH  29  30
ENDBRANCH  21  29
ENDBRANCH   1  17
TORSDOF 13
ENDMDL
MODEL 7
REMARK VINA RESULT:    -5.593      3.181      6.772
REMARK INTER + INTRA:         -10.023
REMARK INTER:                  -8.728
REMARK INTRA:                  -1.295
REMARK UNBOUND:                -1.487
REMARK SMILES OC[C@@H]1O[C@@H](O[C@]2(CO)O[C@@H](CO)[C@H](O)[C@H]2O)[C@@H](O)[C@@H](O)[C@@H]1O
REMARK SMILES IDX 6 1 5 2 3 3 22 4 4 5 20 6 18 7 2 8 1 9 23 11 21 13 19 15
REMARK SMILES IDX 7 17 16 18 10 19 14 20 11 21 8 22 9 23 17 25 15 27 12 29
REMARK SMILES IDX 13 30
REMARK H PARENT 1 10 23 12 21 14 19 16 9 24 17 26 15 28 13 31
REMARK Flexibility Score: inf
ROOT
ATOM      1  O   UNL     1     -16.114 -30.619 -11.153  1.00  0.00    -0.313 OA
ENDROOT
BRANCH   1   2
ATOM      2  C   UNL     1     -17.319 -29.887 -11.380  1.00  0.00     0.285 C 
ATOM      3  C   UNL     1     -17.330 -30.439 -13.665  1.00  0.00     0.178 C 
ATOM      4  C   UNL     1     -17.049 -28.988 -14.122  1.00  0.00     0.177 C 
ATOM      5  O   UNL     1     -18.065 -30.449 -12.450  1.00  0.00    -0.341 OA
ATOM      6  C   UNL     1     -16.277 -28.242 -13.023  1.00  0.00     0.179 C 
ATOM      7  C   UNL     1     -17.001 -28.405 -11.668  1.00  0.00     0.202 C 
BRANCH   3   8
ATOM      8  C   UNL     1     -18.117 -31.216 -14.727  1.00  0.00     0.191 C 
BRANCH   8   9
ATOM      9  O   UNL     1     -17.322 -31.390 -15.866  1.00  0.00    -0.394 OA
ATOM     10  H   UNL     1     -17.940 -31.353 -16.642  1.00  0.00     0.210 HD
ENDBRANCH   8   9
ENDBRANCH   3   8
BRANCH   4  11
ATOM     11  O   UNL     1     -18.256 -28.310 -14.376  1.00  0.00    -0.387 OA
ATOM     12  H   UNL     1     -18.994 -28.912 -14.093  1.00  0.00     0.211 HD
ENDBRANCH   4  11
BRANCH   6  13
ATOM     13  O   UNL     1     -14.966 -28.745 -12.949  1.00  0.00    -0.387 OA
ATOM     14  H   UNL     1     -15.029 -29.734 -13.020  1.00  0.00     0.211 HD
ENDBRANCH   6  13
BRANCH   7  15
ATOM     15  O   UNL     1     -16.230 -27.869 -10.625  1.00  0.00    -0.385 OA
ATOM     16  H   UNL     1     -15.300 -27.797 -10.964  1.00  0.00     0.211 HD
ENDBRANCH   7  15
ENDBRANCH   1   2
BRANCH   1  17
ATOM     17  C   UNL     1     -15.921 -31.070  -9.812  1.00  0.00     0.224 C 
ATOM     18  C   UNL     1     -15.506 -32.560  -9.727  1.00  0.00     0.208 C 
ATOM     19  O   UNL     1     -14.847 -30.315  -9.279  1.00  0.00    -0.337 OA
ATOM     20  C   UNL     1     -14.552 -32.580  -8.567  1.00  0.00     0.180 C 
ATOM     21  C   UNL     1     -13.927 -31.193  -8.662  1.00  0.00     0.179 C 
BRANCH  17  22
ATOM     22  C   UNL     1     -17.163 -30.741  -8.939  1.00  0.00     0.225 C 
BRANCH  22  23
ATOM     23  O   UNL     1     -16.914 -29.630  -8.120  1.00  0.00    -0.391 OA
ATOM     24  H   UNL     1     -15.962 -29.682  -7.849  1.00  0.00     0.210 HD
ENDBRANCH  22  23
ENDBRANCH  17  22
BRANCH  18  25
ATOM     25  O   UNL     1     -16.599 -33.414  -9.505  1.00  0.00    -0.385 OA
ATOM     26  H   UNL     1     -17.103 -33.454 -10.359  1.00  0.00     0.211 HD
ENDBRANCH  18  25
BRANCH  20  27
ATOM     27  O   UNL     1     -13.593 -33.591  -8.728  1.00  0.00    -0.387 OA
ATOM     28  H   UNL     1     -13.932 -34.382  -8.232  1.00  0.00     0.211 HD
ENDBRANCH  20  27
BRANCH  21  29
ATOM     29  C   UNL     1     -13.500 -30.641  -7.295  1.00  0.00     0.191 C 
BRANCH  29  30
ATOM     30  O   UNL     1     -14.500 -29.827  -6.740  1.00  0.00    -0.394 OA
ATOM     31  H   UNL     1     -14.311 -28.898  -7.036  1.00  0.00     0.210 HD
ENDBRANCH  29  30
ENDBRANCH  21  29
ENDBRANCH   1  17
TORSDOF 13
ENDMDL
MODEL 8
REMARK VINA RESULT:    -5.559      3.717      5.121
REMARK INTER + INTRA:          -9.971
REMARK INTER:                  -8.213
REMARK INTRA:                  -1.758
REMARK UNBOUND:                -1.487
REMARK SMILES OC[C@@H]1O[C@@H](O[C@]2(CO)O[C@@H](CO)[C@H](O)[C@H]2O)[C@@H](O)[C@@H](O)[C@@H]1O
REMARK SMILES IDX 6 1 5 2 3 3 22 4 4 5 20 6 18 7 2 8 1 9 23 11 21 13 19 15
REMARK SMILES IDX 7 17 16 18 10 19 14 20 11 21 8 22 9 23 17 25 15 27 12 29
REMARK SMILES IDX 13 30
REMARK H PARENT 1 10 23 12 21 14 19 16 9 24 17 26 15 28 13 31
REMARK Flexibility Score: inf
ROOT
ATOM      1  O   UNL     1     -16.449 -30.572 -12.240  1.00  0.00    -0.313 OA
ENDROOT
BRANCH   1   2
ATOM      2  C   UNL     1     -17.256 -30.519 -11.063  1.00  0.00     0.285 C 
ATOM      3  C   UNL     1     -15.439 -31.074  -9.681  1.00  0.00     0.178 C 
ATOM      4  C   UNL     1     -16.012 -32.461  -9.310  1.00  0.00     0.177 C 
ATOM      5  O   UNL     1     -16.486 -30.147  -9.929  1.00  0.00    -0.341 OA
ATOM      6  C   UNL     1     -16.915 -32.966 -10.446  1.00  0.00     0.179 C 
ATOM      7  C   UNL     1     -17.946 -31.878 -10.823  1.00  0.00     0.202 C 
BRANCH   3   8
ATOM      8  C   UNL     1     -14.545 -30.522  -8.565  1.00  0.00     0.191 C 
BRANCH   8   9
ATOM      9  O   UNL     1     -15.335 -29.875  -7.606  1.00  0.00    -0.394 OA
ATOM     10  H   UNL     1     -14.866 -29.992  -6.738  1.00  0.00     0.210 HD
ENDBRANCH   8   9
ENDBRANCH   3   8
BRANCH   4  11
ATOM     11  O   UNL     1     -16.767 -32.380  -8.125  1.00  0.00    -0.387 OA
ATOM     12  H   UNL     1     -17.595 -32.910  -8.268  1.00  0.00     0.211 HD
ENDBRANCH   4  11
BRANCH   6  13
ATOM     13  O   UNL     1     -16.123 -33.307 -11.556  1.00  0.00    -0.387 OA
ATOM     14  H   UNL     1     -16.585 -34.049 -12.027  1.00  0.00     0.211 HD
ENDBRANCH   6  13
BRANCH   7  15
ATOM     15  O   UNL     1     -18.672 -32.255 -11.962  1.00  0.00    -0.385 OA
ATOM     16  H   UNL     1     -19.596 -32.458 -11.660  1.00  0.00     0.211 HD
ENDBRANCH   7  15
ENDBRANCH   1   2
BRANCH   1  17
ATOM     17  C   UNL     1     -16.723 -29.560 -13.210  1.00  0.00     0.224 C 
ATOM     18  C   UNL     1     -17.916 -28.652 -12.822  1.00  0.00     0.208 C 
ATOM     19  O   UNL     1     -15.576 -28.729 -13.265  1.00  0.00    -0.337 OA
ATOM     20  C   UNL     1     -17.497 -27.305 -13.337  1.00  0.00     0.180 C 
ATOM     21  C   UNL     1     -15.982 -27.378 -13.187  1.00  0.00     0.179 C 
BRANCH  17  22
ATOM     22  C   UNL     1     -16.878 -30.185 -14.624  1.00  0.00     0.225 C 
BRANCH  22  23
ATOM     23  O   UNL     1     -17.620 -31.375 -14.563  1.00  0.00    -0.391 OA
ATOM     24  H   UNL     1     -16.996 -32.112 -14.786  1.00  0.00     0.210 HD
ENDBRANCH  22  23
ENDBRANCH  17  22
BRANCH  18  25
ATOM     25  O   UNL     1     -19.125 -29.069 -13.403  1.00  0.00    -0.385 OA
ATOM     26  H   UNL     1     -18.923 -29.899 -13.908  1.00  0.00     0.211 HD
ENDBRANCH  18  25
BRANCH  20  27
ATOM     27  O   UNL     1     -18.046 -26.280 -12.552  1.00  0.00    -0.387 OA
ATOM     28  H   UNL     1     -17.663 -25.429 -12.892  1.00  0.00     0.211 HD
ENDBRANCH  20  27
BRANCH  21  29
ATOM     29  C   UNL     1     -15.242 -26.538 -14.237  1.00  0.00     0.191 C 
BRANCH  29  30
ATOM     30  O   UNL     1     -15.874 -25.301 -14.436  1.00  0.00    -0.394 OA
ATOM     31  H   UNL     1     -15.647 -25.008 -15.358  1.00  0.00     0.210 HD
ENDBRANCH  29  30
ENDBRANCH  21  29
ENDBRANCH   1  17
TORSDOF 13
ENDMDL
