MODEL 1
REMARK VINA RESULT:    -3.259      0.000      0.000
REMARK INTER + INTRA:          -8.303
REMARK INTER:                  -5.927
REMARK INTRA:                  -2.376
REMARK UNBOUND:                -2.376
REMARK SMILES CCCCCCCCCCCCCC[C@H](C)C(=O)[O-]
REMARK SMILES IDX 9 1 10 2 11 3 12 4 13 5 14 6 15 7 16 8 17 9 18 10 19 11 8 12
REMARK SMILES IDX 7 13 6 14 5 15 4 16 3 17 2 18 1 19
REMARK H PARENT
REMARK Flexibility Score: inf
ROOT
ATOM      1  C   UNL     1      61.586  31.702  58.945  1.00  0.00     0.000 C 
ENDROOT
BRANCH   1   2
ATOM      2  C   UNL     1      60.791  31.512  60.250  1.00  0.00     0.000 C 
BRANCH   2   3
ATOM      3  C   UNL     1      61.559  30.791  61.374  1.00  0.00     0.000 C 
BRANCH   3   4
ATOM      4  C   UNL     1      61.935  29.324  61.076  1.00  0.00     0.000 C 
BRANCH   4   5
ATOM      5  C   UNL     1      63.423  29.076  60.770  1.00  0.00     0.001 C 
BRANCH   5   6
ATOM      6  C   UNL     1      64.299  30.321  61.015  1.00  0.00     0.009 C 
BRANCH   6   7
ATOM      7  C   UNL     1      65.500  30.452  60.051  1.00  0.00     0.032 C 
ATOM      8  C   UNL     1      65.112  31.056  58.693  1.00  0.00     0.014 C 
BRANCH   7   9
ATOM      9  C   UNL     1      66.236  29.146  59.897  1.00  0.00     0.044 C 
ATOM     10  O   UNL     1      66.226  28.523  58.802  1.00  0.00    -0.550 OA
ATOM     11  O   UNL     1      66.889  28.592  60.991  1.00  0.00    -0.550 OA
ENDBRANCH   7   9
ENDBRANCH   6   7
ENDBRANCH   5   6
ENDBRANCH   4   5
ENDBRANCH   3   4
ENDBRANCH   2   3
ENDBRANCH   1   2
BRANCH   1  12
ATOM     12  C   UNL     1      61.997  33.166  58.679  1.00  0.00     0.000 C 
BRANCH  12  13
ATOM     13  C   UNL     1      61.479  34.127  59.762  1.00  0.00    -0.000 C 
BRANCH  13  14
ATOM     14  C   UNL     1      62.606  34.936  60.423  1.00  0.00    -0.000 C 
BRANCH  14  15
ATOM     15  C   UNL     1      63.892  34.115  60.617  1.00  0.00    -0.000 C 
BRANCH  15  16
ATOM     16  C   UNL     1      65.127  34.993  60.880  1.00  0.00    -0.000 C 
BRANCH  16  17
ATOM     17  C   UNL     1      65.680  35.677  59.612  1.00  0.00    -0.000 C 
BRANCH  17  18
ATOM     18  C   UNL     1      65.538  34.793  58.365  1.00  0.00    -0.003 C 
ATOM     19  C   UNL     1      64.911  35.567  57.209  1.00  0.00     0.004 C 
ENDBRANCH  17  18
ENDBRANCH  16  17
ENDBRANCH  15  16
ENDBRANCH  14  15
ENDBRANCH  13  14
ENDBRANCH  12  13
ENDBRANCH   1  12
TORSDOF 14
ENDMDL
MODEL 2
REMARK VINA RESULT:    -3.250      2.878      5.779
REMARK INTER + INTRA:          -8.286
REMARK INTER:                  -5.669
REMARK INTRA:                  -2.617
REMARK UNBOUND:                -2.376
REMARK SMILES CCCCCCCCCCCCCC[C@H](C)C(=O)[O-]
REMARK SMILES IDX 9 1 10 2 11 3 12 4 13 5 14 6 15 7 16 8 17 9 18 10 19 11 8 12
REMARK SMILES IDX 7 13 6 14 5 15 4 16 3 17 2 18 1 19
REMARK H PARENT
REMARK Flexibility Score: inf
ROOT
ATOM      1  C   UNL     1      63.374  31.216  57.526  1.00  0.00     0.000 C 
ENDROOT
BRANCH   1   2
ATOM      2  C   UNL     1      63.001  32.680  57.827  1.00  0.00     0.000 C 
BRANCH   2   3
ATOM      3  C   UNL     1      61.601  32.877  58.437  1.00  0.00     0.000 C 
BRANCH   3   4
ATOM      4  C   UNL     1      61.582  33.474  59.860  1.00  0.00     0.000 C 
BRANCH   4   5
ATOM      5  C   UNL     1      61.381  34.999  59.930  1.00  0.00     0.001 C 
BRANCH   5   6
ATOM      6  C   UNL     1      62.553  35.725  60.621  1.00  0.00     0.009 C 
BRANCH   6   7
ATOM      7  C   UNL     1      63.949  35.185  60.239  1.00  0.00     0.032 C 
ATOM      8  C   UNL     1      64.894  35.065  61.444  1.00  0.00     0.014 C 
BRANCH   7   9
ATOM      9  C   UNL     1      64.566  35.979  59.117  1.00  0.00     0.044 C 
ATOM     10  O   UNL     1      63.978  36.101  58.009  1.00  0.00    -0.550 OA
ATOM     11  O   UNL     1      65.825  36.541  59.285  1.00  0.00    -0.550 OA
ENDBRANCH   7   9
ENDBRANCH   6   7
ENDBRANCH   5   6
ENDBRANCH   4   5
ENDBRANCH   3   4
ENDBRANCH   2   3
ENDBRANCH   1   2
BRANCH   1  12
ATOM     12  C   UNL     1      64.516  30.674  58.412  1.00  0.00     0.000 C 
BRANCH  12  13
ATOM     13  C   UNL     1      64.796  31.576  59.627  1.00  0.00    -0.000 C 
BRANCH  13  14
ATOM     14  C   UNL     1      64.224  31.003  60.933  1.00  0.00    -0.000 C 
BRANCH  14  15
ATOM     15  C   UNL     1      64.013  29.481  60.872  1.00  0.00    -0.000 C 
BRANCH  15  16
ATOM     16  C   UNL     1      62.601  29.056  61.312  1.00  0.00    -0.000 C 
BRANCH  16  17
ATOM     17  C   UNL     1      61.502  30.066  60.918  1.00  0.00    -0.000 C 
BRANCH  17  18
ATOM     18  C   UNL     1      60.308  29.388  60.230  1.00  0.00    -0.003 C 
ATOM     19  C   UNL     1      60.542  29.253  58.728  1.00  0.00     0.004 C 
ENDBRANCH  17  18
ENDBRANCH  16  17
ENDBRANCH  15  16
ENDBRANCH  14  15
ENDBRANCH  13  14
ENDBRANCH  12  13
ENDBRANCH   1  12
TORSDOF 14
ENDMDL
MODEL 3
REMARK VINA RESULT:    -3.217      3.323      5.024
REMARK INTER + INTRA:          -8.227
REMARK INTER:                  -6.110
REMARK INTRA:                  -2.117
REMARK UNBOUND:                -2.376
REMARK SMILES CCCCCCCCCCCCCC[C@H](C)C(=O)[O-]
REMARK SMILES IDX 9 1 10 2 11 3 12 4 13 5 14 6 15 7 16 8 17 9 18 10 19 11 8 12
REMARK SMILES IDX 7 13 6 14 5 15 4 16 3 17 2 18 1 19
REMARK H PARENT
REMARK Flexibility Score: inf
ROOT
ATOM      1  C   UNL     1      63.369  29.735  60.245  1.00  0.00     0.000 C 
ENDROOT
BRANCH   1   2
ATOM      2  C   UNL     1      64.731  29.222  60.747  1.00  0.00     0.000 C 
BRANCH   2   3
ATOM      3  C   UNL     1      65.061  27.772  60.350  1.00  0.00     0.000 C 
BRANCH   3   4
ATOM      4  C   UNL     1      63.865  26.947  59.827  1.00  0.00     0.000 C 
BRANCH   4   5
ATOM      5  C   UNL     1      63.274  25.937  60.827  1.00  0.00     0.001 C 
BRANCH   5   6
ATOM      6  C   UNL     1      62.088  26.513  61.627  1.00  0.00     0.009 C 
BRANCH   6   7
ATOM      7  C   UNL     1      60.709  26.295  60.964  1.00  0.00     0.032 C 
ATOM      8  C   UNL     1      60.142  27.574  60.330  1.00  0.00     0.014 C 
BRANCH   7   9
ATOM      9  C   UNL     1      59.729  25.656  61.914  1.00  0.00     0.044 C 
ATOM     10  O   UNL     1      58.487  25.767  61.735  1.00  0.00    -0.550 OA
ATOM     11  O   UNL     1      60.199  24.982  63.035  1.00  0.00    -0.550 OA
ENDBRANCH   7   9
ENDBRANCH   6   7
ENDBRANCH   5   6
ENDBRANCH   4   5
ENDBRANCH   3   4
ENDBRANCH   2   3
ENDBRANCH   1   2
BRANCH   1  12
ATOM     12  C   UNL     1      62.441  30.235  61.373  1.00  0.00     0.000 C 
BRANCH  12  13
ATOM     13  C   UNL     1      61.332  31.165  60.853  1.00  0.00    -0.000 C 
BRANCH  13  14
ATOM     14  C   UNL     1      61.254  31.193  59.319  1.00  0.00    -0.000 C 
BRANCH  14  15
ATOM     15  C   UNL     1      61.032  32.609  58.762  1.00  0.00    -0.000 C 
BRANCH  15  16
ATOM     16  C   UNL     1      61.333  33.711  59.793  1.00  0.00    -0.000 C 
BRANCH  16  17
ATOM     17  C   UNL     1      62.555  34.580  59.429  1.00  0.00    -0.000 C 
BRANCH  17  18
ATOM     18  C   UNL     1      63.635  34.551  60.521  1.00  0.00    -0.003 C 
ATOM     19  C   UNL     1      64.456  33.267  60.450  1.00  0.00     0.004 C 
ENDBRANCH  17  18
ENDBRANCH  16  17
ENDBRANCH  15  16
ENDBRANCH  14  15
ENDBRANCH  13  14
ENDBRANCH  12  13
ENDBRANCH   1  12
TORSDOF 14
ENDMDL
MODEL 4
REMARK VINA RESULT:    -3.148      1.453      2.604
REMARK INTER + INTRA:          -8.101
REMARK INTER:                  -5.872
REMARK INTRA:                  -2.229
REMARK UNBOUND:                -2.376
REMARK SMILES CCCCCCCCCCCCCC[C@H](C)C(=O)[O-]
REMARK SMILES IDX 9 1 10 2 11 3 12 4 13 5 14 6 15 7 16 8 17 9 18 10 19 11 8 12
REMARK SMILES IDX 7 13 6 14 5 15 4 16 3 17 2 18 1 19
REMARK H PARENT
REMARK Flexibility Score: inf
ROOT
ATOM      1  C   UNL     1      63.253  32.833  58.806  1.00  0.00     0.000 C 
ENDROOT
BRANCH   1   2
ATOM      2  C   UNL     1      62.724  32.694  60.246  1.00  0.00     0.000 C 
BRANCH   2   3
ATOM      3  C   UNL     1      61.348  32.014  60.365  1.00  0.00     0.000 C 
BRANCH   3   4
ATOM      4  C   UNL     1      61.321  30.735  61.230  1.00  0.00     0.000 C 
BRANCH   4   5
ATOM      5  C   UNL     1      62.026  29.511  60.617  1.00  0.00     0.001 C 
BRANCH   5   6
ATOM      6  C   UNL     1      63.455  29.311  61.161  1.00  0.00     0.009 C 
BRANCH   6   7
ATOM      7  C   UNL     1      64.549  29.267  60.071  1.00  0.00     0.032 C 
ATOM      8  C   UNL     1      63.974  29.157  58.651  1.00  0.00     0.014 C 
BRANCH   7   9
ATOM      9  C   UNL     1      65.570  28.193  60.349  1.00  0.00     0.044 C 
ATOM     10  O   UNL     1      65.341  26.990  60.056  1.00  0.00    -0.550 OA
ATOM     11  O   UNL     1      66.758  28.524  60.988  1.00  0.00    -0.550 OA
ENDBRANCH   7   9
ENDBRANCH   6   7
ENDBRANCH   5   6
ENDBRANCH   4   5
ENDBRANCH   3   4
ENDBRANCH   2   3
ENDBRANCH   1   2
BRANCH   1  12
ATOM     12  C   UNL     1      64.733  33.266  58.730  1.00  0.00     0.000 C 
BRANCH  12  13
ATOM     13  C   UNL     1      64.893  34.790  58.594  1.00  0.00    -0.000 C 
BRANCH  13  14
ATOM     14  C   UNL     1      65.455  35.441  59.867  1.00  0.00    -0.000 C 
BRANCH  14  15
ATOM     15  C   UNL     1      64.592  36.613  60.365  1.00  0.00    -0.000 C 
BRANCH  15  16
ATOM     16  C   UNL     1      63.304  36.149  61.068  1.00  0.00    -0.000 C 
BRANCH  16  17
ATOM     17  C   UNL     1      62.040  36.897  60.596  1.00  0.00    -0.000 C 
BRANCH  17  18
ATOM     18  C   UNL     1      60.994  35.949  59.992  1.00  0.00    -0.003 C 
ATOM     19  C   UNL     1      61.159  35.837  58.479  1.00  0.00     0.004 C 
ENDBRANCH  17  18
ENDBRANCH  16  17
ENDBRANCH  15  16
ENDBRANCH  14  15
ENDBRANCH  13  14
ENDBRANCH  12  13
ENDBRANCH   1  12
TORSDOF 14
ENDMDL
MODEL 5
REMARK VINA RESULT:    -3.147     11.342     13.425
REMARK INTER + INTRA:          -8.099
REMARK INTER:                  -5.868
REMARK INTRA:                  -2.232
REMARK UNBOUND:                -2.376
REMARK SMILES CCCCCCCCCCCCCC[C@H](C)C(=O)[O-]
REMARK SMILES IDX 9 1 10 2 11 3 12 4 13 5 14 6 15 7 16 8 17 9 18 10 19 11 8 12
REMARK SMILES IDX 7 13 6 14 5 15 4 16 3 17 2 18 1 19
REMARK H PARENT
REMARK Flexibility Score: inf
ROOT
ATOM      1  C   UNL     1      59.022  28.844  52.435  1.00  0.00     0.000 C 
ENDROOT
BRANCH   1   2
ATOM      2  C   UNL     1      57.650  28.218  52.122  1.00  0.00     0.000 C 
BRANCH   2   3
ATOM      3  C   UNL     1      57.567  26.697  52.351  1.00  0.00     0.000 C 
BRANCH   3   4
ATOM      4  C   UNL     1      57.116  25.873  51.126  1.00  0.00     0.000 C 
BRANCH   4   5
ATOM      5  C   UNL     1      56.621  26.697  49.924  1.00  0.00     0.001 C 
BRANCH   5   6
ATOM      6  C   UNL     1      55.407  26.058  49.220  1.00  0.00     0.009 C 
BRANCH   6   7
ATOM      7  C   UNL     1      54.044  26.419  49.852  1.00  0.00     0.032 C 
ATOM      8  C   UNL     1      52.875  26.293  48.862  1.00  0.00     0.014 C 
BRANCH   7   9
ATOM      9  C   UNL     1      54.078  27.772  50.513  1.00  0.00     0.044 C 
ATOM     10  O   UNL     1      54.088  27.880  51.768  1.00  0.00    -0.550 OA
ATOM     11  O   UNL     1      54.042  28.920  49.732  1.00  0.00    -0.550 OA
ENDBRANCH   7   9
ENDBRANCH   6   7
ENDBRANCH   5   6
ENDBRANCH   4   5
ENDBRANCH   3   4
ENDBRANCH   2   3
ENDBRANCH   1   2
BRANCH   1  12
ATOM     12  C   UNL     1      59.650  29.589  51.238  1.00  0.00     0.000 C 
BRANCH  12  13
ATOM     13  C   UNL     1      58.907  29.313  49.919  1.00  0.00    -0.000 C 
BRANCH  13  14
ATOM     14  C   UNL     1      59.832  28.759  48.825  1.00  0.00    -0.000 C 
BRANCH  14  15
ATOM     15  C   UNL     1      60.925  27.833  49.384  1.00  0.00    -0.000 C 
BRANCH  15  16
ATOM     16  C   UNL     1      60.449  26.380  49.552  1.00  0.00    -0.000 C 
BRANCH  16  17
ATOM     17  C   UNL     1      60.809  25.766  50.921  1.00  0.00    -0.000 C 
BRANCH  17  18
ATOM     18  C   UNL     1      60.716  24.233  50.914  1.00  0.00    -0.003 C 
ATOM     19  C   UNL     1      61.385  23.646  49.674  1.00  0.00     0.004 C 
ENDBRANCH  17  18
ENDBRANCH  16  17
ENDBRANCH  15  16
ENDBRANCH  14  15
ENDBRANCH  13  14
ENDBRANCH  12  13
ENDBRANCH   1  12
TORSDOF 14
ENDMDL
MODEL 6
REMARK VINA RESULT:    -3.146      2.890      5.813
REMARK INTER + INTRA:          -8.097
REMARK INTER:                  -5.995
REMARK INTRA:                  -2.103
REMARK UNBOUND:                -2.376
REMARK SMILES CCCCCCCCCCCCCC[C@H](C)C(=O)[O-]
REMARK SMILES IDX 9 1 10 2 11 3 12 4 13 5 14 6 15 7 16 8 17 9 18 10 19 11 8 12
REMARK SMILES IDX 7 13 6 14 5 15 4 16 3 17 2 18 1 19
REMARK H PARENT
REMARK Flexibility Score: inf
ROOT
ATOM      1  C   UNL     1      61.251  31.958  57.067  1.00  0.00     0.000 C 
ENDROOT
BRANCH   1   2
ATOM      2  C   UNL     1      61.569  33.464  57.123  1.00  0.00     0.000 C 
BRANCH   2   3
ATOM      3  C   UNL     1      60.430  34.344  57.671  1.00  0.00     0.000 C 
BRANCH   3   4
ATOM      4  C   UNL     1      60.856  35.383  58.730  1.00  0.00     0.000 C 
BRANCH   4   5
ATOM      5  C   UNL     1      61.441  34.798  60.028  1.00  0.00     0.001 C 
BRANCH   5   6
ATOM      6  C   UNL     1      62.558  35.676  60.628  1.00  0.00     0.009 C 
BRANCH   6   7
ATOM      7  C   UNL     1      63.989  35.170  60.337  1.00  0.00     0.032 C 
ATOM      8  C   UNL     1      64.136  33.652  60.523  1.00  0.00     0.014 C 
BRANCH   7   9
ATOM      9  C   UNL     1      65.021  35.935  61.125  1.00  0.00     0.044 C 
ATOM     10  O   UNL     1      64.677  36.775  61.999  1.00  0.00    -0.550 OA
ATOM     11  O   UNL     1      66.370  35.755  60.847  1.00  0.00    -0.550 OA
ENDBRANCH   7   9
ENDBRANCH   6   7
ENDBRANCH   5   6
ENDBRANCH   4   5
ENDBRANCH   3   4
ENDBRANCH   2   3
ENDBRANCH   1   2
BRANCH   1  12
ATOM     12  C   UNL     1      61.834  31.158  58.252  1.00  0.00     0.000 C 
BRANCH  12  13
ATOM     13  C   UNL     1      60.779  30.852  59.329  1.00  0.00    -0.000 C 
BRANCH  13  14
ATOM     14  C   UNL     1      61.234  31.266  60.737  1.00  0.00    -0.000 C 
BRANCH  14  15
ATOM     15  C   UNL     1      61.890  30.110  61.512  1.00  0.00    -0.000 C 
BRANCH  15  16
ATOM     16  C   UNL     1      63.418  30.065  61.334  1.00  0.00    -0.000 C 
BRANCH  16  17
ATOM     17  C   UNL     1      63.915  28.812  60.582  1.00  0.00    -0.000 C 
BRANCH  17  18
ATOM     18  C   UNL     1      62.825  27.736  60.460  1.00  0.00    -0.003 C 
ATOM     19  C   UNL     1      62.496  27.449  58.998  1.00  0.00     0.004 C 
ENDBRANCH  17  18
ENDBRANCH  16  17
ENDBRANCH  15  16
ENDBRANCH  14  15
ENDBRANCH  13  14
ENDBRANCH  12  13
ENDBRANCH   1  12
TORSDOF 14
ENDMDL
MODEL 7
REMARK VINA RESULT:    -3.119     10.853     12.685
REMARK INTER + INTRA:          -8.047
REMARK INTER:                  -5.704
REMARK INTRA:                  -2.344
REMARK UNBOUND:                -2.376
REMARK SMILES CCCCCCCCCCCCCC[C@H](C)C(=O)[O-]
REMARK SMILES IDX 9 1 10 2 11 3 12 4 13 5 14 6 15 7 16 8 17 9 18 10 19 11 8 12
REMARK SMILES IDX 7 13 6 14 5 15 4 16 3 17 2 18 1 19
REMARK H PARENT
REMARK Flexibility Score: inf
ROOT
ATOM      1  C   UNL     1      61.083  27.241  50.057  1.00  0.00     0.000 C 
ENDROOT
BRANCH   1   2
ATOM      2  C   UNL     1      60.607  25.806  50.350  1.00  0.00     0.000 C 
BRANCH   2   3
ATOM      3  C   UNL     1      59.096  25.577  50.164  1.00  0.00     0.000 C 
BRANCH   3   4
ATOM      4  C   UNL     1      58.236  25.822  51.422  1.00  0.00     0.000 C 
BRANCH   4   5
ATOM      5  C   UNL     1      56.730  26.010  51.163  1.00  0.00     0.001 C 
BRANCH   5   6
ATOM      6  C   UNL     1      56.401  26.215  49.670  1.00  0.00     0.009 C 
BRANCH   6   7
ATOM      7  C   UNL     1      55.013  26.839  49.405  1.00  0.00     0.032 C 
ATOM      8  C   UNL     1      54.828  28.200  50.094  1.00  0.00     0.014 C 
BRANCH   7   9
ATOM      9  C   UNL     1      53.899  25.882  49.742  1.00  0.00     0.044 C 
ATOM     10  O   UNL     1      52.875  26.272  50.364  1.00  0.00    -0.550 OA
ATOM     11  O   UNL     1      54.023  24.538  49.410  1.00  0.00    -0.550 OA
ENDBRANCH   7   9
ENDBRANCH   6   7
ENDBRANCH   5   6
ENDBRANCH   4   5
ENDBRANCH   3   4
ENDBRANCH   2   3
ENDBRANCH   1   2
BRANCH   1  12
ATOM     12  C   UNL     1      60.304  27.931  48.917  1.00  0.00     0.000 C 
BRANCH  12  13
ATOM     13  C   UNL     1      59.761  29.311  49.328  1.00  0.00    -0.000 C 
BRANCH  13  14
ATOM     14  C   UNL     1      58.374  29.230  49.982  1.00  0.00    -0.000 C 
BRANCH  14  15
ATOM     15  C   UNL     1      58.408  29.535  51.489  1.00  0.00    -0.000 C 
BRANCH  15  16
ATOM     16  C   UNL     1      59.693  30.263  51.921  1.00  0.00    -0.000 C 
BRANCH  16  17
ATOM     17  C   UNL     1      60.607  29.415  52.831  1.00  0.00    -0.000 C 
BRANCH  17  18
ATOM     18  C   UNL     1      62.093  29.754  52.640  1.00  0.00    -0.003 C 
ATOM     19  C   UNL     1      62.986  28.682  53.257  1.00  0.00     0.004 C 
ENDBRANCH  17  18
ENDBRANCH  16  17
ENDBRANCH  15  16
ENDBRANCH  14  15
ENDBRANCH  13  14
ENDBRANCH  12  13
ENDBRANCH   1  12
TORSDOF 14
ENDMDL
MODEL 8
REMARK VINA RESULT:    -3.103     10.003     12.185
REMARK INTER + INTRA:          -8.020
REMARK INTER:                  -5.612
REMARK INTRA:                  -2.408
REMARK UNBOUND:                -2.376
REMARK SMILES CCCCCCCCCCCCCC[C@H](C)C(=O)[O-]
REMARK SMILES IDX 9 1 10 2 11 3 12 4 13 5 14 6 15 7 16 8 17 9 18 10 19 11 8 12
REMARK SMILES IDX 7 13 6 14 5 15 4 16 3 17 2 18 1 19
REMARK H PARENT
REMARK Flexibility Score: inf
ROOT
ATOM      1  C   UNL     1      58.148  29.102  52.572  1.00  0.00     0.000 C 
ENDROOT
BRANCH   1   2
ATOM      2  C   UNL     1      58.463  29.904  51.295  1.00  0.00     0.000 C 
BRANCH   2   3
ATOM      3  C   UNL     1      59.808  29.557  50.631  1.00  0.00     0.000 C 
BRANCH   3   4
ATOM      4  C   UNL     1      59.704  28.960  49.211  1.00  0.00     0.000 C 
BRANCH   4   5
ATOM      5  C   UNL     1      60.367  27.583  49.026  1.00  0.00     0.001 C 
BRANCH   5   6
ATOM      6  C   UNL     1      61.492  27.320  50.047  1.00  0.00     0.009 C 
BRANCH   6   7
ATOM      7  C   UNL     1      62.917  27.386  49.454  1.00  0.00     0.032 C 
ATOM      8  C   UNL     1      63.817  26.235  49.929  1.00  0.00     0.014 C 
BRANCH   7   9
ATOM      9  C   UNL     1      63.555  28.731  49.686  1.00  0.00     0.044 C 
ATOM     10  O   UNL     1      63.360  29.365  50.757  1.00  0.00    -0.550 OA
ATOM     11  O   UNL     1      64.324  29.309  48.683  1.00  0.00    -0.550 OA
ENDBRANCH   7   9
ENDBRANCH   6   7
ENDBRANCH   5   6
ENDBRANCH   4   5
ENDBRANCH   3   4
ENDBRANCH   2   3
ENDBRANCH   1   2
BRANCH   1  12
ATOM     12  C   UNL     1      59.294  28.166  53.013  1.00  0.00     0.000 C 
BRANCH  12  13
ATOM     13  C   UNL     1      58.904  26.680  52.926  1.00  0.00    -0.000 C 
BRANCH  13  14
ATOM     14  C   UNL     1      57.597  26.456  52.150  1.00  0.00    -0.000 C 
BRANCH  14  15
ATOM     15  C   UNL     1      57.825  25.799  50.779  1.00  0.00    -0.000 C 
BRANCH  15  16
ATOM     16  C   UNL     1      56.921  26.384  49.679  1.00  0.00    -0.000 C 
BRANCH  16  17
ATOM     17  C   UNL     1      55.421  26.092  49.894  1.00  0.00    -0.000 C 
BRANCH  17  18
ATOM     18  C   UNL     1      54.542  27.315  49.596  1.00  0.00    -0.003 C 
ATOM     19  C   UNL     1      55.125  28.579  50.221  1.00  0.00     0.004 C 
ENDBRANCH  17  18
ENDBRANCH  16  17
ENDBRANCH  15  16
ENDBRANCH  14  15
ENDBRANCH  13  14
ENDBRANCH  12  13
ENDBRANCH   1  12
TORSDOF 14
ENDMDL
MODEL 9
REMARK VINA RESULT:    -3.063      2.617      3.914
REMARK INTER + INTRA:          -7.947
REMARK INTER:                  -5.670
REMARK INTRA:                  -2.277
REMARK UNBOUND:                -2.376
REMARK SMILES CCCCCCCCCCCCCC[C@H](C)C(=O)[O-]
REMARK SMILES IDX 9 1 10 2 11 3 12 4 13 5 14 6 15 7 16 8 17 9 18 10 19 11 8 12
REMARK SMILES IDX 7 13 6 14 5 15 4 16 3 17 2 18 1 19
REMARK H PARENT
REMARK Flexibility Score: inf
ROOT
ATOM      1  C   UNL     1      64.081  32.385  60.354  1.00  0.00     0.000 C 
ENDROOT
BRANCH   1   2
ATOM      2  C   UNL     1      64.417  30.882  60.329  1.00  0.00     0.000 C 
BRANCH   2   3
ATOM      3  C   UNL     1      63.448  29.991  61.127  1.00  0.00     0.000 C 
BRANCH   3   4
ATOM      4  C   UNL     1      62.120  30.666  61.534  1.00  0.00     0.000 C 
BRANCH   4   5
ATOM      5  C   UNL     1      60.862  30.117  60.837  1.00  0.00     0.001 C 
BRANCH   5   6
ATOM      6  C   UNL     1      60.756  30.558  59.363  1.00  0.00     0.009 C 
BRANCH   6   7
ATOM      7  C   UNL     1      61.123  29.458  58.343  1.00  0.00     0.032 C 
ATOM      8  C   UNL     1      61.071  29.950  56.888  1.00  0.00     0.014 C 
BRANCH   7   9
ATOM      9  C   UNL     1      60.298  28.213  58.545  1.00  0.00     0.044 C 
ATOM     10  O   UNL     1      59.041  28.253  58.492  1.00  0.00    -0.550 OA
ATOM     11  O   UNL     1      60.929  27.013  58.849  1.00  0.00    -0.550 OA
ENDBRANCH   7   9
ENDBRANCH   6   7
ENDBRANCH   5   6
ENDBRANCH   4   5
ENDBRANCH   3   4
ENDBRANCH   2   3
ENDBRANCH   1   2
BRANCH   1  12
ATOM     12  C   UNL     1      63.920  33.006  58.950  1.00  0.00     0.000 C 
BRANCH  12  13
ATOM     13  C   UNL     1      62.492  33.519  58.696  1.00  0.00    -0.000 C 
BRANCH  13  14
ATOM     14  C   UNL     1      61.826  34.071  59.966  1.00  0.00    -0.000 C 
BRANCH  14  15
ATOM     15  C   UNL     1      61.301  35.505  59.786  1.00  0.00    -0.000 C 
BRANCH  15  16
ATOM     16  C   UNL     1      62.055  36.529  60.651  1.00  0.00    -0.000 C 
BRANCH  16  17
ATOM     17  C   UNL     1      63.550  36.661  60.290  1.00  0.00    -0.000 C 
BRANCH  17  18
ATOM     18  C   UNL     1      64.467  36.324  61.476  1.00  0.00    -0.003 C 
ATOM     19  C   UNL     1      65.766  35.678  61.002  1.00  0.00     0.004 C 
ENDBRANCH  17  18
ENDBRANCH  16  17
ENDBRANCH  15  16
ENDBRANCH  14  15
ENDBRANCH  13  14
ENDBRANCH  12  13
ENDBRANCH   1  12
TORSDOF 14
ENDMDL
