MODEL 1
REMARK VINA RESULT:    -4.944      0.000      0.000
REMARK INTER + INTRA:          -5.377
REMARK INTER:                  -5.377
REMARK INTRA:                   0.000
REMARK UNBOUND:                 0.000
REMARK SMILES Cc1cc(O)c2c(c1)C(=O)c1cc(O)cc(O)c1C2=O
REMARK SMILES IDX 1 1 2 2 8 3 7 4 6 5 4 6 3 7 19 8 20 9 18 10 11 11 9 12 10 13
REMARK SMILES IDX 12 14 13 15 15 16 16 17 5 18 17 20 14 22
REMARK H PARENT 5 19 17 21 14 23
REMARK Flexibility Score: inf
ROOT
ATOM      1  C   UNL     1      -0.674 -19.054 -27.137  1.00  0.00     0.044 C 
ATOM      2  C   UNL     1      -0.286 -18.250 -25.931  1.00  0.00    -0.047 A 
ATOM      3  C   UNL     1      -1.132 -18.199 -24.817  1.00  0.00     0.016 A 
ATOM      4  C   UNL     1      -0.765 -17.474 -23.671  1.00  0.00     0.038 A 
ATOM      5  C   UNL     1       0.470 -16.789 -23.638  1.00  0.00     0.076 A 
ATOM      6  C   UNL     1       1.360 -16.914 -24.737  1.00  0.00     0.127 A 
ATOM      7  C   UNL     1       0.964 -17.625 -25.874  1.00  0.00     0.050 A 
ATOM      8  C   UNL     1       0.758 -15.913 -22.473  1.00  0.00     0.201 C 
ATOM      9  O   UNL     1       1.487 -14.895 -22.619  1.00  0.00    -0.288 OA
ATOM     10  C   UNL     1       0.038 -16.132 -21.191  1.00  0.00     0.076 A 
ATOM     11  C   UNL     1      -1.195 -16.820 -21.227  1.00  0.00     0.041 A 
ATOM     12  C   UNL     1      -1.664 -17.431 -22.493  1.00  0.00     0.194 C 
ATOM     13  O   UNL     1      -2.818 -17.935 -22.562  1.00  0.00    -0.289 OA
ATOM     14  C   UNL     1      -1.970 -16.926 -20.060  1.00  0.00     0.059 A 
ATOM     15  C   UNL     1      -1.523 -16.369 -18.858  1.00  0.00     0.120 A 
ATOM     16  C   UNL     1      -0.288 -15.725 -18.810  1.00  0.00     0.093 A 
ATOM     17  C   UNL     1       0.512 -15.623 -19.953  1.00  0.00     0.131 A 
ENDROOT
BRANCH   6  18
ATOM     18  O   UNL     1       2.652 -16.384 -24.725  1.00  0.00    -0.507 OA
ATOM     19  H   UNL     1       3.179 -16.176 -25.562  1.00  0.00     0.293 HD
ENDBRANCH   6  18
BRANCH  17  20
ATOM     20  O   UNL     1       1.775 -15.045 -19.807  1.00  0.00    -0.507 OA
ATOM     21  H   UNL     1       2.149 -14.738 -18.919  1.00  0.00     0.293 HD
ENDBRANCH  17  20
BRANCH  15  22
ATOM     22  O   UNL     1      -2.294 -16.463 -17.701  1.00  0.00    -0.508 OA
ATOM     23  H   UNL     1      -1.966 -16.964 -16.885  1.00  0.00     0.293 HD
ENDBRANCH  15  22
TORSDOF 3
ENDMDL
MODEL 2
REMARK VINA RESULT:    -4.801      2.144      6.193
REMARK INTER + INTRA:          -5.222
REMARK INTER:                  -5.222
REMARK INTRA:                   0.000
REMARK UNBOUND:                 0.000
REMARK SMILES Cc1cc(O)c2c(c1)C(=O)c1cc(O)cc(O)c1C2=O
REMARK SMILES IDX 1 1 2 2 8 3 7 4 6 5 4 6 3 7 19 8 20 9 18 10 11 11 9 12 10 13
REMARK SMILES IDX 12 14 13 15 15 16 16 17 5 18 17 20 14 22
REMARK H PARENT 5 19 17 21 14 23
REMARK Flexibility Score: inf
ROOT
ATOM      1  C   UNL     1      -3.757 -17.222 -18.410  1.00  0.00     0.044 C 
ATOM      2  C   UNL     1      -3.507 -16.976 -19.869  1.00  0.00    -0.047 A 
ATOM      3  C   UNL     1      -2.197 -16.910 -20.357  1.00  0.00     0.016 A 
ATOM      4  C   UNL     1      -1.952 -16.709 -21.725  1.00  0.00     0.038 A 
ATOM      5  C   UNL     1      -3.035 -16.573 -22.621  1.00  0.00     0.076 A 
ATOM      6  C   UNL     1      -4.360 -16.725 -22.134  1.00  0.00     0.127 A 
ATOM      7  C   UNL     1      -4.578 -16.905 -20.764  1.00  0.00     0.050 A 
ATOM      8  C   UNL     1      -2.741 -16.215 -24.033  1.00  0.00     0.201 C 
ATOM      9  O   UNL     1      -3.576 -15.546 -24.697  1.00  0.00    -0.288 OA
ATOM     10  C   UNL     1      -1.390 -16.481 -24.594  1.00  0.00     0.076 A 
ATOM     11  C   UNL     1      -0.309 -16.620 -23.695  1.00  0.00     0.041 A 
ATOM     12  C   UNL     1      -0.561 -16.648 -22.235  1.00  0.00     0.194 C 
ATOM     13  O   UNL     1       0.408 -16.644 -21.427  1.00  0.00    -0.289 OA
ATOM     14  C   UNL     1       1.001 -16.734 -24.190  1.00  0.00     0.059 A 
ATOM     15  C   UNL     1       1.242 -16.728 -25.567  1.00  0.00     0.120 A 
ATOM     16  C   UNL     1       0.174 -16.632 -26.458  1.00  0.00     0.093 A 
ATOM     17  C   UNL     1      -1.142 -16.537 -25.991  1.00  0.00     0.131 A 
ENDROOT
BRANCH   6  18
ATOM     18  O   UNL     1      -5.475 -16.742 -22.973  1.00  0.00    -0.507 OA
ATOM     19  H   UNL     1      -6.229 -17.409 -22.889  1.00  0.00     0.293 HD
ENDBRANCH   6  18
BRANCH  17  20
ATOM     20  O   UNL     1      -2.164 -16.537 -26.942  1.00  0.00    -0.507 OA
ATOM     21  H   UNL     1      -2.684 -17.363 -27.204  1.00  0.00     0.293 HD
ENDBRANCH  17  20
BRANCH  15  22
ATOM     22  O   UNL     1       2.541 -16.830 -26.061  1.00  0.00    -0.508 OA
ATOM     23  H   UNL     1       3.136 -16.017 -26.157  1.00  0.00     0.293 HD
ENDBRANCH  15  22
TORSDOF 3
ENDMDL
MODEL 3
REMARK VINA RESULT:    -4.522      1.546      6.303
REMARK INTER + INTRA:          -4.919
REMARK INTER:                  -4.919
REMARK INTRA:                   0.000
REMARK UNBOUND:                 0.000
REMARK SMILES Cc1cc(O)c2c(c1)C(=O)c1cc(O)cc(O)c1C2=O
REMARK SMILES IDX 1 1 2 2 8 3 7 4 6 5 4 6 3 7 19 8 20 9 18 10 11 11 9 12 10 13
REMARK SMILES IDX 12 14 13 15 15 16 16 17 5 18 17 20 14 22
REMARK H PARENT 5 19 17 21 14 23
REMARK Flexibility Score: inf
ROOT
ATOM      1  C   UNL     1       2.235 -15.062 -17.495  1.00  0.00     0.044 C 
ATOM      2  C   UNL     1       1.413 -15.342 -18.718  1.00  0.00    -0.047 A 
ATOM      3  C   UNL     1       2.027 -15.441 -19.972  1.00  0.00     0.016 A 
ATOM      4  C   UNL     1       1.270 -15.731 -21.120  1.00  0.00     0.038 A 
ATOM      5  C   UNL     1      -0.124 -15.926 -21.011  1.00  0.00     0.076 A 
ATOM      6  C   UNL     1      -0.728 -15.909 -19.727  1.00  0.00     0.127 A 
ATOM      7  C   UNL     1       0.043 -15.598 -18.602  1.00  0.00     0.050 A 
ATOM      8  C   UNL     1      -0.912 -16.083 -22.261  1.00  0.00     0.201 C 
ATOM      9  O   UNL     1      -2.111 -15.697 -22.300  1.00  0.00    -0.288 OA
ATOM     10  C   UNL     1      -0.233 -16.519 -23.510  1.00  0.00     0.076 A 
ATOM     11  C   UNL     1       1.162 -16.325 -23.614  1.00  0.00     0.041 A 
ATOM     12  C   UNL     1       1.930 -15.841 -22.442  1.00  0.00     0.194 C 
ATOM     13  O   UNL     1       3.151 -15.546 -22.565  1.00  0.00    -0.289 OA
ATOM     14  C   UNL     1       1.817 -16.595 -24.828  1.00  0.00     0.059 A 
ATOM     15  C   UNL     1       1.101 -17.070 -25.930  1.00  0.00     0.120 A 
ATOM     16  C   UNL     1      -0.270 -17.301 -25.818  1.00  0.00     0.093 A 
ATOM     17  C   UNL     1      -0.942 -17.059 -24.615  1.00  0.00     0.131 A 
ENDROOT
BRANCH   6  18
ATOM     18  O   UNL     1      -2.071 -16.228 -19.520  1.00  0.00    -0.507 OA
ATOM     19  H   UNL     1      -2.622 -16.777 -20.166  1.00  0.00     0.293 HD
ENDBRANCH   6  18
BRANCH  17  20
ATOM     20  O   UNL     1      -2.294 -17.401 -24.553  1.00  0.00    -0.507 OA
ATOM     21  H   UNL     1      -2.627 -18.352 -24.477  1.00  0.00     0.293 HD
ENDBRANCH  17  20
BRANCH  15  22
ATOM     22  O   UNL     1       1.745 -17.328 -27.138  1.00  0.00    -0.508 OA
ATOM     23  H   UNL     1       2.319 -18.152 -27.266  1.00  0.00     0.293 HD
ENDBRANCH  15  22
TORSDOF 3
ENDMDL
MODEL 4
REMARK VINA RESULT:    -4.458      5.114      7.340
REMARK INTER + INTRA:          -4.849
REMARK INTER:                  -4.849
REMARK INTRA:                   0.000
REMARK UNBOUND:                 0.000
REMARK SMILES Cc1cc(O)c2c(c1)C(=O)c1cc(O)cc(O)c1C2=O
REMARK SMILES IDX 1 1 2 2 8 3 7 4 6 5 4 6 3 7 19 8 20 9 18 10 11 11 9 12 10 13
REMARK SMILES IDX 12 14 13 15 15 16 16 17 5 18 17 20 14 22
REMARK H PARENT 5 19 17 21 14 23
REMARK Flexibility Score: inf
ROOT
ATOM      1  C   UNL     1      -0.986 -17.120 -22.533  1.00  0.00     0.044 C 
ATOM      2  C   UNL     1      -2.375 -17.547 -22.162  1.00  0.00    -0.047 A 
ATOM      3  C   UNL     1      -2.648 -18.891 -21.883  1.00  0.00     0.016 A 
ATOM      4  C   UNL     1      -3.940 -19.296 -21.506  1.00  0.00     0.038 A 
ATOM      5  C   UNL     1      -4.975 -18.340 -21.405  1.00  0.00     0.076 A 
ATOM      6  C   UNL     1      -4.672 -16.968 -21.607  1.00  0.00     0.127 A 
ATOM      7  C   UNL     1      -3.384 -16.592 -22.000  1.00  0.00     0.050 A 
ATOM      8  C   UNL     1      -6.357 -18.824 -21.151  1.00  0.00     0.201 C 
ATOM      9  O   UNL     1      -7.340 -18.176 -21.598  1.00  0.00    -0.288 OA
ATOM     10  C   UNL     1      -6.568 -20.160 -20.535  1.00  0.00     0.076 A 
ATOM     11  C   UNL     1      -5.529 -21.113 -20.635  1.00  0.00     0.041 A 
ATOM     12  C   UNL     1      -4.219 -20.720 -21.206  1.00  0.00     0.194 C 
ATOM     13  O   UNL     1      -3.333 -21.594 -21.414  1.00  0.00    -0.289 OA
ATOM     14  C   UNL     1      -5.742 -22.428 -20.189  1.00  0.00     0.059 A 
ATOM     15  C   UNL     1      -6.969 -22.799 -19.631  1.00  0.00     0.120 A 
ATOM     16  C   UNL     1      -7.982 -21.851 -19.494  1.00  0.00     0.093 A 
ATOM     17  C   UNL     1      -7.789 -20.530 -19.912  1.00  0.00     0.131 A 
ENDROOT
BRANCH   6  18
ATOM     18  O   UNL     1      -5.604 -15.951 -21.391  1.00  0.00    -0.507 OA
ATOM     19  H   UNL     1      -6.603 -16.101 -21.373  1.00  0.00     0.293 HD
ENDBRANCH   6  18
BRANCH  17  20
ATOM     20  O   UNL     1      -8.815 -19.617 -19.659  1.00  0.00    -0.507 OA
ATOM     21  H   UNL     1      -8.666 -18.713 -19.233  1.00  0.00     0.293 HD
ENDBRANCH  17  20
BRANCH  15  22
ATOM     22  O   UNL     1      -7.187 -24.105 -19.198  1.00  0.00    -0.508 OA
ATOM     23  H   UNL     1      -8.011 -24.355 -18.666  1.00  0.00     0.293 HD
ENDBRANCH  15  22
TORSDOF 3
ENDMDL
MODEL 5
REMARK VINA RESULT:    -4.447      6.984      9.227
REMARK INTER + INTRA:          -4.837
REMARK INTER:                  -4.837
REMARK INTRA:                   0.000
REMARK UNBOUND:                 0.000
REMARK SMILES Cc1cc(O)c2c(c1)C(=O)c1cc(O)cc(O)c1C2=O
REMARK SMILES IDX 1 1 2 2 8 3 7 4 6 5 4 6 3 7 19 8 20 9 18 10 11 11 9 12 10 13
REMARK SMILES IDX 12 14 13 15 15 16 16 17 5 18 17 20 14 22
REMARK H PARENT 5 19 17 21 14 23
REMARK Flexibility Score: inf
ROOT
ATOM      1  C   UNL     1      -8.142 -24.453 -17.292  1.00  0.00     0.044 C 
ATOM      2  C   UNL     1      -7.757 -23.347 -18.230  1.00  0.00    -0.047 A 
ATOM      3  C   UNL     1      -8.352 -22.086 -18.113  1.00  0.00     0.016 A 
ATOM      4  C   UNL     1      -7.977 -21.035 -18.967  1.00  0.00     0.038 A 
ATOM      5  C   UNL     1      -6.989 -21.249 -19.954  1.00  0.00     0.076 A 
ATOM      6  C   UNL     1      -6.329 -22.505 -20.011  1.00  0.00     0.127 A 
ATOM      7  C   UNL     1      -6.734 -23.540 -19.164  1.00  0.00     0.050 A 
ATOM      8  C   UNL     1      -6.725 -20.163 -20.932  1.00  0.00     0.201 C 
ATOM      9  O   UNL     1      -6.338 -20.449 -22.097  1.00  0.00    -0.288 OA
ATOM     10  C   UNL     1      -7.096 -18.763 -20.598  1.00  0.00     0.076 A 
ATOM     11  C   UNL     1      -8.082 -18.552 -19.608  1.00  0.00     0.041 A 
ATOM     12  C   UNL     1      -8.607 -19.700 -18.832  1.00  0.00     0.194 C 
ATOM     13  O   UNL     1      -9.575 -19.536 -18.040  1.00  0.00    -0.289 OA
ATOM     14  C   UNL     1      -8.558 -17.253 -19.362  1.00  0.00     0.059 A 
ATOM     15  C   UNL     1      -8.052 -16.164 -20.077  1.00  0.00     0.120 A 
ATOM     16  C   UNL     1      -7.049 -16.364 -21.025  1.00  0.00     0.093 A 
ATOM     17  C   UNL     1      -6.544 -17.644 -21.275  1.00  0.00     0.131 A 
ENDROOT
BRANCH   6  18
ATOM     18  O   UNL     1      -5.250 -22.751 -20.862  1.00  0.00    -0.507 OA
ATOM     19  H   UNL     1      -4.586 -23.499 -20.721  1.00  0.00     0.293 HD
ENDBRANCH   6  18
BRANCH  17  20
ATOM     20  O   UNL     1      -5.479 -17.753 -22.172  1.00  0.00    -0.507 OA
ATOM     21  H   UNL     1      -4.707 -18.392 -22.047  1.00  0.00     0.293 HD
ENDBRANCH  17  20
BRANCH  15  22
ATOM     22  O   UNL     1      -8.529 -14.876 -19.844  1.00  0.00    -0.508 OA
ATOM     23  H   UNL     1      -8.591 -14.497 -18.907  1.00  0.00     0.293 HD
ENDBRANCH  15  22
TORSDOF 3
ENDMDL
MODEL 6
REMARK VINA RESULT:    -4.379      1.261      1.672
REMARK INTER + INTRA:          -4.763
REMARK INTER:                  -4.763
REMARK INTRA:                   0.000
REMARK UNBOUND:                 0.000
REMARK SMILES Cc1cc(O)c2c(c1)C(=O)c1cc(O)cc(O)c1C2=O
REMARK SMILES IDX 1 1 2 2 8 3 7 4 6 5 4 6 3 7 19 8 20 9 18 10 11 11 9 12 10 13
REMARK SMILES IDX 12 14 13 15 15 16 16 17 5 18 17 20 14 22
REMARK H PARENT 5 19 17 21 14 23
REMARK Flexibility Score: inf
ROOT
ATOM      1  C   UNL     1      -0.591 -18.404 -26.311  1.00  0.00     0.044 C 
ATOM      2  C   UNL     1      -0.492 -17.791 -24.946  1.00  0.00    -0.047 A 
ATOM      3  C   UNL     1      -1.444 -18.095 -23.966  1.00  0.00     0.016 A 
ATOM      4  C   UNL     1      -1.344 -17.548 -22.676  1.00  0.00     0.038 A 
ATOM      5  C   UNL     1      -0.273 -16.684 -22.359  1.00  0.00     0.076 A 
ATOM      6  C   UNL     1       0.735 -16.447 -23.330  1.00  0.00     0.127 A 
ATOM      7  C   UNL     1       0.603 -16.986 -24.613  1.00  0.00     0.050 A 
ATOM      8  C   UNL     1      -0.280 -16.010 -21.035  1.00  0.00     0.201 C 
ATOM      9  O   UNL     1       0.253 -14.875 -20.907  1.00  0.00    -0.288 OA
ATOM     10  C   UNL     1      -1.076 -16.585 -19.919  1.00  0.00     0.076 A 
ATOM     11  C   UNL     1      -2.145 -17.452 -20.239  1.00  0.00     0.041 A 
ATOM     12  C   UNL     1      -2.353 -17.881 -21.642  1.00  0.00     0.194 C 
ATOM     13  O   UNL     1      -3.377 -18.550 -21.952  1.00  0.00    -0.289 OA
ATOM     14  C   UNL     1      -3.004 -17.906 -19.224  1.00  0.00     0.059 A 
ATOM     15  C   UNL     1      -2.800 -17.520 -17.896  1.00  0.00     0.120 A 
ATOM     16  C   UNL     1      -1.721 -16.698 -17.571  1.00  0.00     0.093 A 
ATOM     17  C   UNL     1      -0.840 -16.248 -18.560  1.00  0.00     0.131 A 
ENDROOT
BRANCH   6  18
ATOM     18  O   UNL     1       1.894 -15.719 -23.052  1.00  0.00    -0.507 OA
ATOM     19  H   UNL     1       2.283 -15.026 -23.676  1.00  0.00     0.293 HD
ENDBRANCH   6  18
BRANCH  17  20
ATOM     20  O   UNL     1       0.267 -15.504 -18.147  1.00  0.00    -0.507 OA
ATOM     21  H   UNL     1       0.226 -14.520 -17.923  1.00  0.00     0.293 HD
ENDBRANCH  17  20
BRANCH  15  22
ATOM     22  O   UNL     1      -3.656 -17.959 -16.889  1.00  0.00    -0.508 OA
ATOM     23  H   UNL     1      -4.390 -17.366 -16.522  1.00  0.00     0.293 HD
ENDBRANCH  15  22
TORSDOF 3
ENDMDL
MODEL 7
REMARK VINA RESULT:    -4.198      1.609      3.177
REMARK INTER + INTRA:          -4.566
REMARK INTER:                  -4.566
REMARK INTRA:                   0.000
REMARK UNBOUND:                 0.000
REMARK SMILES Cc1cc(O)c2c(c1)C(=O)c1cc(O)cc(O)c1C2=O
REMARK SMILES IDX 1 1 2 2 8 3 7 4 6 5 4 6 3 7 19 8 20 9 18 10 11 11 9 12 10 13
REMARK SMILES IDX 12 14 13 15 15 16 16 17 5 18 17 20 14 22
REMARK H PARENT 5 19 17 21 14 23
REMARK Flexibility Score: inf
ROOT
ATOM      1  C   UNL     1       1.719 -17.143 -26.750  1.00  0.00     0.044 C 
ATOM      2  C   UNL     1       0.707 -16.935 -25.662  1.00  0.00    -0.047 A 
ATOM      3  C   UNL     1       1.122 -16.773 -24.336  1.00  0.00     0.016 A 
ATOM      4  C   UNL     1       0.184 -16.550 -23.314  1.00  0.00     0.038 A 
ATOM      5  C   UNL     1      -1.193 -16.486 -23.625  1.00  0.00     0.076 A 
ATOM      6  C   UNL     1      -1.600 -16.566 -24.982  1.00  0.00     0.127 A 
ATOM      7  C   UNL     1      -0.650 -16.809 -25.978  1.00  0.00     0.050 A 
ATOM      8  C   UNL     1      -2.164 -16.397 -22.504  1.00  0.00     0.201 C 
ATOM      9  O   UNL     1      -3.315 -16.893 -22.631  1.00  0.00    -0.288 OA
ATOM     10  C   UNL     1      -1.716 -15.894 -21.179  1.00  0.00     0.076 A 
ATOM     11  C   UNL     1      -0.338 -15.957 -20.872  1.00  0.00     0.041 A 
ATOM     12  C   UNL     1       0.632 -16.372 -21.913  1.00  0.00     0.194 C 
ATOM     13  O   UNL     1       1.844 -16.551 -21.610  1.00  0.00    -0.289 OA
ATOM     14  C   UNL     1       0.107 -15.621 -19.582  1.00  0.00     0.059 A 
ATOM     15  C   UNL     1      -0.802 -15.209 -18.603  1.00  0.00     0.120 A 
ATOM     16  C   UNL     1      -2.157 -15.107 -18.914  1.00  0.00     0.093 A 
ATOM     17  C   UNL     1      -2.623 -15.417 -20.197  1.00  0.00     0.131 A 
ENDROOT
BRANCH   6  18
ATOM     18  O   UNL     1      -2.923 -16.374 -25.385  1.00  0.00    -0.507 OA
ATOM     19  H   UNL     1      -3.284 -16.672 -26.280  1.00  0.00     0.293 HD
ENDBRANCH   6  18
BRANCH  17  20
ATOM     20  O   UNL     1      -3.978 -15.203 -20.459  1.00  0.00    -0.507 OA
ATOM     21  H   UNL     1      -4.688 -15.912 -20.339  1.00  0.00     0.293 HD
ENDBRANCH  17  20
BRANCH  15  22
ATOM     22  O   UNL     1      -0.366 -14.886 -17.320  1.00  0.00    -0.508 OA
ATOM     23  H   UNL     1       0.191 -15.530 -16.772  1.00  0.00     0.293 HD
ENDBRANCH  15  22
TORSDOF 3
ENDMDL
MODEL 8
REMARK VINA RESULT:    -4.163      3.252      4.496
REMARK INTER + INTRA:          -4.529
REMARK INTER:                  -4.529
REMARK INTRA:                   0.000
REMARK UNBOUND:                 0.000
REMARK SMILES Cc1cc(O)c2c(c1)C(=O)c1cc(O)cc(O)c1C2=O
REMARK SMILES IDX 1 1 2 2 8 3 7 4 6 5 4 6 3 7 19 8 20 9 18 10 11 11 9 12 10 13
REMARK SMILES IDX 12 14 13 15 15 16 16 17 5 18 17 20 14 22
REMARK H PARENT 5 19 17 21 14 23
REMARK Flexibility Score: inf
ROOT
ATOM      1  C   UNL     1       1.715 -17.842 -26.986  1.00  0.00     0.044 C 
ATOM      2  C   UNL     1       0.772 -17.267 -25.972  1.00  0.00    -0.047 A 
ATOM      3  C   UNL     1      -0.522 -16.890 -26.348  1.00  0.00     0.016 A 
ATOM      4  C   UNL     1      -1.423 -16.377 -25.400  1.00  0.00     0.038 A 
ATOM      5  C   UNL     1      -1.024 -16.241 -24.051  1.00  0.00     0.076 A 
ATOM      6  C   UNL     1       0.260 -16.704 -23.660  1.00  0.00     0.127 A 
ATOM      7  C   UNL     1       1.146 -17.192 -24.626  1.00  0.00     0.050 A 
ATOM      8  C   UNL     1      -1.948 -15.560 -23.109  1.00  0.00     0.201 C 
ATOM      9  O   UNL     1      -1.483 -14.916 -22.130  1.00  0.00    -0.288 OA
ATOM     10  C   UNL     1      -3.398 -15.481 -23.426  1.00  0.00     0.076 A 
ATOM     11  C   UNL     1      -3.795 -15.621 -24.775  1.00  0.00     0.041 A 
ATOM     12  C   UNL     1      -2.794 -15.986 -25.805  1.00  0.00     0.194 C 
ATOM     13  O   UNL     1      -3.116 -15.988 -27.025  1.00  0.00    -0.289 OA
ATOM     14  C   UNL     1      -5.138 -15.416 -25.132  1.00  0.00     0.059 A 
ATOM     15  C   UNL     1      -6.089 -15.090 -24.162  1.00  0.00     0.120 A 
ATOM     16  C   UNL     1      -5.709 -14.992 -22.824  1.00  0.00     0.093 A 
ATOM     17  C   UNL     1      -4.382 -15.211 -22.439  1.00  0.00     0.131 A 
ENDROOT
BRANCH   6  18
ATOM     18  O   UNL     1       0.678 -16.733 -22.328  1.00  0.00    -0.507 OA
ATOM     19  H   UNL     1       1.108 -17.537 -21.894  1.00  0.00     0.293 HD
ENDBRANCH   6  18
BRANCH  17  20
ATOM     20  O   UNL     1      -4.095 -15.184 -21.072  1.00  0.00    -0.507 OA
ATOM     21  H   UNL     1      -3.161 -15.080 -20.700  1.00  0.00     0.293 HD
ENDBRANCH  17  20
BRANCH  15  22
ATOM     22  O   UNL     1      -7.420 -14.875 -24.514  1.00  0.00    -0.508 OA
ATOM     23  H   UNL     1      -7.790 -15.192 -25.402  1.00  0.00     0.293 HD
ENDBRANCH  15  22
TORSDOF 3
ENDMDL
MODEL 9
REMARK VINA RESULT:    -4.108      4.697      7.408
REMARK INTER + INTRA:          -4.469
REMARK INTER:                  -4.469
REMARK INTRA:                   0.000
REMARK UNBOUND:                 0.000
REMARK SMILES Cc1cc(O)c2c(c1)C(=O)c1cc(O)cc(O)c1C2=O
REMARK SMILES IDX 1 1 2 2 8 3 7 4 6 5 4 6 3 7 19 8 20 9 18 10 11 11 9 12 10 13
REMARK SMILES IDX 12 14 13 15 15 16 16 17 5 18 17 20 14 22
REMARK H PARENT 5 19 17 21 14 23
REMARK Flexibility Score: inf
ROOT
ATOM      1  C   UNL     1      -7.342 -23.527 -19.495  1.00  0.00     0.044 C 
ATOM      2  C   UNL     1      -6.907 -22.126 -19.809  1.00  0.00    -0.047 A 
ATOM      3  C   UNL     1      -5.619 -21.882 -20.300  1.00  0.00     0.016 A 
ATOM      4  C   UNL     1      -5.211 -20.578 -20.625  1.00  0.00     0.038 A 
ATOM      5  C   UNL     1      -6.107 -19.499 -20.457  1.00  0.00     0.076 A 
ATOM      6  C   UNL     1      -7.437 -19.763 -20.039  1.00  0.00     0.127 A 
ATOM      7  C   UNL     1      -7.813 -21.067 -19.703  1.00  0.00     0.050 A 
ATOM      8  C   UNL     1      -5.595 -18.120 -20.668  1.00  0.00     0.201 C 
ATOM      9  O   UNL     1      -6.095 -17.160 -20.023  1.00  0.00    -0.288 OA
ATOM     10  C   UNL     1      -4.377 -17.904 -21.493  1.00  0.00     0.076 A 
ATOM     11  C   UNL     1      -3.485 -18.987 -21.662  1.00  0.00     0.041 A 
ATOM     12  C   UNL     1      -3.848 -20.330 -21.151  1.00  0.00     0.194 C 
ATOM     13  O   UNL     1      -3.004 -21.267 -21.186  1.00  0.00    -0.289 OA
ATOM     14  C   UNL     1      -2.259 -18.785 -22.318  1.00  0.00     0.059 A 
ATOM     15  C   UNL     1      -1.921 -17.525 -22.819  1.00  0.00     0.120 A 
ATOM     16  C   UNL     1      -2.816 -16.465 -22.690  1.00  0.00     0.093 A 
ATOM     17  C   UNL     1      -4.052 -16.644 -22.060  1.00  0.00     0.131 A 
ENDROOT
BRANCH   6  18
ATOM     18  O   UNL     1      -8.420 -18.772 -19.982  1.00  0.00    -0.507 OA
ATOM     19  H   UNL     1      -9.215 -18.808 -19.359  1.00  0.00     0.293 HD
ENDBRANCH   6  18
BRANCH  17  20
ATOM     20  O   UNL     1      -4.933 -15.560 -22.049  1.00  0.00    -0.507 OA
ATOM     21  H   UNL     1      -4.906 -14.812 -22.728  1.00  0.00     0.293 HD
ENDBRANCH  17  20
BRANCH  15  22
ATOM     22  O   UNL     1      -0.700 -17.319 -23.460  1.00  0.00    -0.508 OA
ATOM     23  H   UNL     1      -0.434 -16.408 -23.810  1.00  0.00     0.293 HD
ENDBRANCH  15  22
TORSDOF 3
ENDMDL
