MODEL 1
REMARK VINA RESULT:    -4.030      0.000      0.000
REMARK INTER + INTRA:          -5.030
REMARK INTER:                  -6.151
REMARK INTRA:                   1.121
REMARK UNBOUND:                 1.121
REMARK SMILES CC1=CCC[C@H](C)C(=O)C[C@@H](C(C)C)C(=O)C1
REMARK SMILES IDX 8 1 9 2 6 3 7 4 5 5 4 6 3 7 2 8 1 9 10 11 11 12 15 13 16 14
REMARK SMILES IDX 17 15 12 17 13 18 14 19
REMARK H PARENT
REMARK Flexibility Score: 70.00
ROOT
ATOM      1  C   UNL     1      70.601  60.739  24.974  1.00  0.00     0.136 C 
ATOM      2  O   UNL     1      71.027  59.867  24.226  1.00  0.00    -0.299 OA
ENDROOT
BRANCH   1   3
ATOM      3  C   UNL     1      71.355  62.051  25.129  1.00  0.00     0.053 C 
ATOM      4  C   UNL     1      71.524  62.814  23.805  1.00  0.00     0.016 C 
BRANCH   3   5
ATOM      5  C   UNL     1      70.784  62.951  26.254  1.00  0.00     0.015 C 
BRANCH   5   6
ATOM      6  C   UNL     1      71.747  63.426  27.366  1.00  0.00     0.028 C 
BRANCH   6   7
ATOM      7  C   UNL     1      72.884  62.506  27.743  1.00  0.00    -0.028 C 
ATOM      8  C   UNL     1      72.787  61.351  28.444  1.00  0.00    -0.070 CG0
ATOM      9  C   UNL     1      74.009  60.464  28.478  1.00  0.00     0.039 C 
ATOM     10  G   UNL     1      71.514  60.890  29.132  1.00  0.00     0.000 G0
ENDBRANCH   6   7
ENDBRANCH   5   6
ENDBRANCH   3   5
ENDBRANCH   1   3
BRANCH   1  11
ATOM     11  C   UNL     1      69.388  60.459  25.832  1.00  0.00     0.087 C 
BRANCH  11  12
ATOM     12  C   UNL     1      69.513  60.924  27.308  1.00  0.00     0.066 C 
BRANCH  12  13
ATOM     13  C   UNL     1      70.570  60.203  28.146  1.00  0.00     0.140 C 
ATOM     14  O   UNL     1      70.667  58.992  28.016  1.00  0.00    -0.299 OA
BRANCH  13  15
ATOM     15  C   UNL     1      71.502  60.885  29.127  1.00  0.00     0.106 CG0
ATOM     16  G   UNL     1      72.777  61.346  28.441  1.00  0.00     0.000 G0
ENDBRANCH  13  15
ENDBRANCH  12  13
BRANCH  12  17
ATOM     17  C   UNL     1      68.111  60.912  27.999  1.00  0.00    -0.006 C 
ATOM     18  C   UNL     1      66.960  60.852  26.982  1.00  0.00     0.008 C 
ATOM     19  C   UNL     1      67.901  62.093  28.965  1.00  0.00     0.008 C 
ENDBRANCH  12  17
ENDBRANCH  11  12
ENDBRANCH   1  11
TORSDOF 1
ENDMDL
MODEL 2
REMARK VINA RESULT:    -3.781      1.325      3.684
REMARK INTER + INTRA:          -4.650
REMARK INTER:                  -6.464
REMARK INTRA:                   1.814
REMARK UNBOUND:                 1.121
REMARK SMILES CC1=CCC[C@H](C)C(=O)C[C@@H](C(C)C)C(=O)C1
REMARK SMILES IDX 8 1 9 2 6 3 7 4 5 5 4 6 3 7 2 8 1 9 10 11 11 12 15 13 16 14
REMARK SMILES IDX 17 15 12 17 13 18 14 19
REMARK H PARENT
REMARK Flexibility Score: 70.00
ROOT
ATOM      1  C   UNL     1      69.818  60.199  26.793  1.00  0.00     0.136 C 
ATOM      2  O   UNL     1      70.195  59.179  27.353  1.00  0.00    -0.299 OA
ENDROOT
BRANCH   1   3
ATOM      3  C   UNL     1      68.826  61.128  27.477  1.00  0.00     0.053 C 
ATOM      4  C   UNL     1      67.360  60.724  27.251  1.00  0.00     0.016 C 
BRANCH   3   5
ATOM      5  C   UNL     1      69.145  61.362  28.976  1.00  0.00     0.015 C 
BRANCH   5   6
ATOM      6  C   UNL     1      70.512  61.985  29.342  1.00  0.00     0.028 C 
BRANCH   6   7
ATOM      7  C   UNL     1      71.742  61.131  29.146  1.00  0.00    -0.028 C 
ATOM      8  C   UNL     1      72.783  61.396  28.321  1.00  0.00    -0.070 CG0
ATOM      9  C   UNL     1      74.019  60.543  28.480  1.00  0.00     0.039 C 
ATOM     10  G   UNL     1      72.785  62.526  27.306  1.00  0.00     0.000 G0
ENDBRANCH   6   7
ENDBRANCH   5   6
ENDBRANCH   3   5
ENDBRANCH   1   3
BRANCH   1  11
ATOM     11  C   UNL     1      70.249  60.472  25.369  1.00  0.00     0.087 C 
BRANCH  11  12
ATOM     12  C   UNL     1      71.404  61.499  25.224  1.00  0.00     0.066 C 
BRANCH  12  13
ATOM     13  C   UNL     1      71.576  62.476  26.387  1.00  0.00     0.140 C 
ATOM     14  O   UNL     1      70.675  63.275  26.594  1.00  0.00    -0.299 OA
BRANCH  13  15
ATOM     15  C   UNL     1      72.786  62.526  27.298  1.00  0.00     0.106 CG0
ATOM     16  G   UNL     1      72.765  61.383  28.298  1.00  0.00     0.000 G0
ENDBRANCH  13  15
ENDBRANCH  12  13
BRANCH  12  17
ATOM     17  C   UNL     1      71.302  62.238  23.850  1.00  0.00    -0.006 C 
ATOM     18  C   UNL     1      71.735  61.346  22.675  1.00  0.00     0.008 C 
ATOM     19  C   UNL     1      72.080  63.566  23.818  1.00  0.00     0.008 C 
ENDBRANCH  12  17
ENDBRANCH  11  12
ENDBRANCH   1  11
TORSDOF 1
ENDMDL
MODEL 3
REMARK VINA RESULT:    -3.614     10.952     12.577
REMARK INTER + INTRA:          -4.394
REMARK INTER:                  -4.273
REMARK INTRA:                  -0.121
REMARK UNBOUND:                 1.121
REMARK SMILES CC1=CCC[C@H](C)C(=O)C[C@@H](C(C)C)C(=O)C1
REMARK SMILES IDX 8 1 9 2 6 3 7 4 5 5 4 6 3 7 2 8 1 9 10 11 11 12 15 13 16 14
REMARK SMILES IDX 17 15 12 17 13 18 14 19
REMARK H PARENT
REMARK Flexibility Score: 70.00
ROOT
ATOM      1  C   UNL     1      73.433  73.113  21.562  1.00  0.00     0.136 C 
ATOM      2  O   UNL     1      72.399  73.731  21.341  1.00  0.00    -0.299 OA
ENDROOT
BRANCH   1   3
ATOM      3  C   UNL     1      74.624  73.251  20.626  1.00  0.00     0.053 C 
ATOM      4  C   UNL     1      75.136  74.696  20.505  1.00  0.00     0.016 C 
BRANCH   3   5
ATOM      5  C   UNL     1      75.764  72.250  20.940  1.00  0.00     0.015 C 
BRANCH   5   6
ATOM      6  C   UNL     1      76.872  72.692  21.924  1.00  0.00     0.028 C 
BRANCH   6   7
ATOM      7  C   UNL     1      77.153  71.796  23.107  1.00  0.00    -0.028 C 
ATOM      8  C   UNL     1      76.611  71.900  24.343  1.00  0.00    -0.070 CG0
ATOM      9  C   UNL     1      76.833  70.745  25.290  1.00  0.00     0.039 C 
ATOM     10  G   UNL     1      75.758  73.075  24.791  1.00  0.00     0.000 G0
ENDBRANCH   6   7
ENDBRANCH   5   6
ENDBRANCH   3   5
ENDBRANCH   1   3
BRANCH   1  11
ATOM     11  C   UNL     1      73.479  72.119  22.702  1.00  0.00     0.087 C 
BRANCH  11  12
ATOM     12  C   UNL     1      73.177  72.719  24.101  1.00  0.00     0.066 C 
BRANCH  12  13
ATOM     13  C   UNL     1      74.327  72.674  25.108  1.00  0.00     0.140 C 
ATOM     14  O   UNL     1      74.077  72.288  26.239  1.00  0.00    -0.299 OA
BRANCH  13  15
ATOM     15  C   UNL     1      75.755  73.078  24.800  1.00  0.00     0.106 CG0
ATOM     16  G   UNL     1      76.575  71.884  24.342  1.00  0.00     0.000 G0
ENDBRANCH  13  15
ENDBRANCH  12  13
BRANCH  12  17
ATOM     17  C   UNL     1      71.866  72.097  24.685  1.00  0.00    -0.006 C 
ATOM     18  C   UNL     1      71.425  70.842  23.915  1.00  0.00     0.008 C 
ATOM     19  C   UNL     1      70.703  73.102  24.766  1.00  0.00     0.008 C 
ENDBRANCH  12  17
ENDBRANCH  11  12
ENDBRANCH   1  11
TORSDOF 1
ENDMDL
MODEL 4
REMARK VINA RESULT:    -3.530     11.487     13.411
REMARK INTER + INTRA:          -4.266
REMARK INTER:                  -4.359
REMARK INTRA:                   0.094
REMARK UNBOUND:                 1.121
REMARK SMILES CC1=CCC[C@H](C)C(=O)C[C@@H](C(C)C)C(=O)C1
REMARK SMILES IDX 8 1 9 2 6 3 7 4 5 5 4 6 3 7 2 8 1 9 10 11 11 12 15 13 16 14
REMARK SMILES IDX 17 15 12 17 13 18 14 19
REMARK H PARENT
REMARK Flexibility Score: 70.00
ROOT
ATOM      1  C   UNL     1      71.453  73.920  22.666  1.00  0.00     0.136 C 
ATOM      2  O   UNL     1      70.541  73.750  21.867  1.00  0.00    -0.299 OA
ENDROOT
BRANCH   1   3
ATOM      3  C   UNL     1      71.211  73.738  24.156  1.00  0.00     0.053 C 
ATOM      4  C   UNL     1      69.963  74.479  24.663  1.00  0.00     0.016 C 
BRANCH   3   5
ATOM      5  C   UNL     1      71.230  72.253  24.599  1.00  0.00     0.015 C 
BRANCH   5   6
ATOM      6  C   UNL     1      72.590  71.517  24.623  1.00  0.00     0.028 C 
BRANCH   6   7
ATOM      7  C   UNL     1      73.627  72.002  25.609  1.00  0.00    -0.028 C 
ATOM      8  C   UNL     1      74.875  72.436  25.316  1.00  0.00    -0.070 CG0
ATOM      9  C   UNL     1      75.644  73.116  26.424  1.00  0.00     0.039 C 
ATOM     10  G   UNL     1      75.502  72.324  23.936  1.00  0.00     0.000 G0
ENDBRANCH   6   7
ENDBRANCH   5   6
ENDBRANCH   3   5
ENDBRANCH   1   3
BRANCH   1  11
ATOM     11  C   UNL     1      72.791  74.429  22.175  1.00  0.00     0.087 C 
BRANCH  11  12
ATOM     12  C   UNL     1      73.890  73.341  22.036  1.00  0.00     0.066 C 
BRANCH  12  13
ATOM     13  C   UNL     1      75.056  73.445  23.021  1.00  0.00     0.140 C 
ATOM     14  O   UNL     1      75.656  74.507  23.080  1.00  0.00    -0.299 OA
BRANCH  13  15
ATOM     15  C   UNL     1      75.520  72.321  23.925  1.00  0.00     0.106 CG0
ATOM     16  G   UNL     1      74.879  72.423  25.299  1.00  0.00     0.000 G0
ENDBRANCH  13  15
ENDBRANCH  12  13
BRANCH  12  17
ATOM     17  C   UNL     1      74.382  73.255  20.555  1.00  0.00    -0.006 C 
ATOM     18  C   UNL     1      75.610  72.343  20.402  1.00  0.00     0.008 C 
ATOM     19  C   UNL     1      74.668  74.633  19.931  1.00  0.00     0.008 C 
ENDBRANCH  12  17
ENDBRANCH  11  12
ENDBRANCH   1  11
TORSDOF 1
ENDMDL
MODEL 5
REMARK VINA RESULT:    -3.482     11.423     13.624
REMARK INTER + INTRA:          -4.194
REMARK INTER:                  -3.826
REMARK INTRA:                  -0.367
REMARK UNBOUND:                 1.121
REMARK SMILES CC1=CCC[C@H](C)C(=O)C[C@@H](C(C)C)C(=O)C1
REMARK SMILES IDX 8 1 9 2 6 3 7 4 5 5 4 6 3 7 2 8 1 9 10 11 11 12 15 13 16 14
REMARK SMILES IDX 17 15 12 17 13 18 14 19
REMARK H PARENT
REMARK Flexibility Score: 70.00
ROOT
ATOM      1  C   UNL     1      75.266  71.804  24.104  1.00  0.00     0.136 C 
ATOM      2  O   UNL     1      76.380  71.317  23.965  1.00  0.00    -0.299 OA
ENDROOT
BRANCH   1   3
ATOM      3  C   UNL     1      74.709  72.060  25.496  1.00  0.00     0.053 C 
ATOM      4  C   UNL     1      75.111  70.983  26.517  1.00  0.00     0.016 C 
BRANCH   3   5
ATOM      5  C   UNL     1      74.996  73.493  26.013  1.00  0.00     0.015 C 
BRANCH   5   6
ATOM      6  C   UNL     1      73.799  74.452  26.205  1.00  0.00     0.028 C 
BRANCH   6   7
ATOM      7  C   UNL     1      72.414  73.890  25.983  1.00  0.00    -0.028 C 
ATOM      8  C   UNL     1      71.682  73.978  24.847  1.00  0.00    -0.070 CG0
ATOM      9  C   UNL     1      70.440  73.122  24.762  1.00  0.00     0.039 C 
ATOM     10  G   UNL     1      72.077  74.834  23.656  1.00  0.00     0.000 G0
ENDBRANCH   6   7
ENDBRANCH   5   6
ENDBRANCH   3   5
ENDBRANCH   1   3
BRANCH   1  11
ATOM     11  C   UNL     1      74.397  72.040  22.888  1.00  0.00     0.087 C 
BRANCH  11  12
ATOM     12  C   UNL     1      74.164  73.534  22.535  1.00  0.00     0.066 C 
BRANCH  12  13
ATOM     13  C   UNL     1      72.707  73.999  22.540  1.00  0.00     0.140 C 
ATOM     14  O   UNL     1      72.005  73.676  21.593  1.00  0.00    -0.299 OA
BRANCH  13  15
ATOM     15  C   UNL     1      72.074  74.834  23.635  1.00  0.00     0.106 CG0
ATOM     16  G   UNL     1      71.685  73.973  24.824  1.00  0.00     0.000 G0
ENDBRANCH  13  15
ENDBRANCH  12  13
BRANCH  12  17
ATOM     17  C   UNL     1      74.886  73.892  21.196  1.00  0.00    -0.006 C 
ATOM     18  C   UNL     1      75.079  72.664  20.291  1.00  0.00     0.008 C 
ATOM     19  C   UNL     1      76.233  74.608  21.407  1.00  0.00     0.008 C 
ENDBRANCH  12  17
ENDBRANCH  11  12
ENDBRANCH   1  11
TORSDOF 1
ENDMDL
MODEL 6
REMARK VINA RESULT:    -3.476     12.184     13.688
REMARK INTER + INTRA:          -4.184
REMARK INTER:                  -3.928
REMARK INTRA:                  -0.256
REMARK UNBOUND:                 1.121
REMARK SMILES CC1=CCC[C@H](C)C(=O)C[C@@H](C(C)C)C(=O)C1
REMARK SMILES IDX 8 1 9 2 6 3 7 4 5 5 4 6 3 7 2 8 1 9 10 11 11 12 15 13 16 14
REMARK SMILES IDX 17 15 12 17 13 18 14 19
REMARK H PARENT
REMARK Flexibility Score: 70.00
ROOT
ATOM      1  C   UNL     1      73.236  74.182  20.736  1.00  0.00     0.136 C 
ATOM      2  O   UNL     1      73.460  73.182  20.067  1.00  0.00    -0.299 OA
ENDROOT
BRANCH   1   3
ATOM      3  C   UNL     1      74.018  75.463  20.486  1.00  0.00     0.053 C 
ATOM      4  C   UNL     1      73.521  76.651  21.326  1.00  0.00     0.016 C 
BRANCH   3   5
ATOM      5  C   UNL     1      75.552  75.271  20.594  1.00  0.00     0.015 C 
BRANCH   5   6
ATOM      6  C   UNL     1      76.115  74.608  21.873  1.00  0.00     0.028 C 
BRANCH   6   7
ATOM      7  C   UNL     1      76.476  73.143  21.797  1.00  0.00    -0.028 C 
ATOM      8  C   UNL     1      75.981  72.150  22.573  1.00  0.00    -0.070 CG0
ATOM      9  C   UNL     1      76.284  70.732  22.150  1.00  0.00     0.039 C 
ATOM     10  G   UNL     1      75.105  72.392  23.790  1.00  0.00     0.000 G0
ENDBRANCH   6   7
ENDBRANCH   5   6
ENDBRANCH   3   5
ENDBRANCH   1   3
BRANCH   1  11
ATOM     11  C   UNL     1      72.263  74.105  21.892  1.00  0.00     0.087 C 
BRANCH  11  12
ATOM     12  C   UNL     1      72.917  73.857  23.278  1.00  0.00     0.066 C 
BRANCH  12  13
ATOM     13  C   UNL     1      73.647  72.523  23.440  1.00  0.00     0.140 C 
ATOM     14  O   UNL     1      73.002  71.499  23.269  1.00  0.00    -0.299 OA
BRANCH  13  15
ATOM     15  C   UNL     1      75.112  72.382  23.801  1.00  0.00     0.106 CG0
ATOM     16  G   UNL     1      75.962  72.156  22.562  1.00  0.00     0.000 G0
ENDBRANCH  13  15
ENDBRANCH  12  13
BRANCH  12  17
ATOM     17  C   UNL     1      71.874  74.094  24.418  1.00  0.00    -0.006 C 
ATOM     18  C   UNL     1      71.330  75.532  24.420  1.00  0.00     0.008 C 
ATOM     19  C   UNL     1      72.410  73.731  25.815  1.00  0.00     0.008 C 
ENDBRANCH  12  17
ENDBRANCH  11  12
ENDBRANCH   1  11
TORSDOF 1
ENDMDL
MODEL 7
REMARK VINA RESULT:    -3.403     11.918     14.062
REMARK INTER + INTRA:          -4.073
REMARK INTER:                  -4.004
REMARK INTRA:                  -0.069
REMARK UNBOUND:                 1.121
REMARK SMILES CC1=CCC[C@H](C)C(=O)C[C@@H](C(C)C)C(=O)C1
REMARK SMILES IDX 8 1 9 2 6 3 7 4 5 5 4 6 3 7 2 8 1 9 10 11 11 12 15 13 16 14
REMARK SMILES IDX 17 15 12 17 13 18 14 19
REMARK H PARENT
REMARK Flexibility Score: 70.00
ROOT
ATOM      1  C   UNL     1      75.701  72.203  21.503  1.00  0.00     0.136 C 
ATOM      2  O   UNL     1      75.191  71.091  21.476  1.00  0.00    -0.299 OA
ENDROOT
BRANCH   1   3
ATOM      3  C   UNL     1      76.831  72.505  22.476  1.00  0.00     0.053 C 
ATOM      4  C   UNL     1      77.559  73.824  22.170  1.00  0.00     0.016 C 
BRANCH   3   5
ATOM      5  C   UNL     1      76.398  72.405  23.961  1.00  0.00     0.015 C 
BRANCH   5   6
ATOM      6  C   UNL     1      75.111  73.143  24.396  1.00  0.00     0.028 C 
BRANCH   6   7
ATOM      7  C   UNL     1      73.846  72.325  24.519  1.00  0.00    -0.028 C 
ATOM      8  C   UNL     1      72.648  72.607  23.957  1.00  0.00    -0.070 CG0
ATOM      9  C   UNL     1      71.599  71.521  23.996  1.00  0.00     0.039 C 
ATOM     10  G   UNL     1      72.336  73.916  23.253  1.00  0.00     0.000 G0
ENDBRANCH   6   7
ENDBRANCH   5   6
ENDBRANCH   3   5
ENDBRANCH   1   3
BRANCH   1  11
ATOM     11  C   UNL     1      75.125  73.311  20.648  1.00  0.00     0.087 C 
BRANCH  11  12
ATOM     12  C   UNL     1      74.270  74.351  21.420  1.00  0.00     0.066 C 
BRANCH  12  13
ATOM     13  C   UNL     1      72.866  73.894  21.818  1.00  0.00     0.140 C 
ATOM     14  O   UNL     1      72.129  73.487  20.932  1.00  0.00    -0.299 OA
BRANCH  13  15
ATOM     15  C   UNL     1      72.324  73.912  23.233  1.00  0.00     0.106 CG0
ATOM     16  G   UNL     1      72.647  72.618  23.960  1.00  0.00     0.000 G0
ENDBRANCH  13  15
ENDBRANCH  12  13
BRANCH  12  17
ATOM     17  C   UNL     1      74.244  75.710  20.648  1.00  0.00    -0.006 C 
ATOM     18  C   UNL     1      75.656  76.212  20.305  1.00  0.00     0.008 C 
ATOM     19  C   UNL     1      73.458  76.810  21.384  1.00  0.00     0.008 C 
ENDBRANCH  12  17
ENDBRANCH  11  12
ENDBRANCH   1  11
TORSDOF 1
ENDMDL
MODEL 8
REMARK VINA RESULT:    -3.337     11.015     13.033
REMARK INTER + INTRA:          -3.972
REMARK INTER:                  -3.964
REMARK INTRA:                  -0.009
REMARK UNBOUND:                 1.121
REMARK SMILES CC1=CCC[C@H](C)C(=O)C[C@@H](C(C)C)C(=O)C1
REMARK SMILES IDX 8 1 9 2 6 3 7 4 5 5 4 6 3 7 2 8 1 9 10 11 11 12 15 13 16 14
REMARK SMILES IDX 17 15 12 17 13 18 14 19
REMARK H PARENT
REMARK Flexibility Score: 70.00
ROOT
ATOM      1  C   UNL     1      72.169  72.102  23.577  1.00  0.00     0.136 C 
ATOM      2  O   UNL     1      71.489  71.138  23.248  1.00  0.00    -0.299 OA
ENDROOT
BRANCH   1   3
ATOM      3  C   UNL     1      72.311  72.474  25.045  1.00  0.00     0.053 C 
ATOM      4  C   UNL     1      70.984  72.904  25.693  1.00  0.00     0.016 C 
BRANCH   3   5
ATOM      5  C   UNL     1      73.045  71.393  25.879  1.00  0.00     0.015 C 
BRANCH   5   6
ATOM      6  C   UNL     1      74.450  71.729  26.431  1.00  0.00     0.028 C 
BRANCH   6   7
ATOM      7  C   UNL     1      75.627  71.541  25.503  1.00  0.00    -0.028 C 
ATOM      8  C   UNL     1      76.228  72.500  24.761  1.00  0.00    -0.070 CG0
ATOM      9  C   UNL     1      77.544  72.142  24.111  1.00  0.00     0.039 C 
ATOM     10  G   UNL     1      75.679  73.908  24.603  1.00  0.00     0.000 G0
ENDBRANCH   6   7
ENDBRANCH   5   6
ENDBRANCH   3   5
ENDBRANCH   1   3
BRANCH   1  11
ATOM     11  C   UNL     1      72.771  72.991  22.512  1.00  0.00     0.087 C 
BRANCH  11  12
ATOM     12  C   UNL     1      74.322  72.983  22.456  1.00  0.00     0.066 C 
BRANCH  12  13
ATOM     13  C   UNL     1      75.021  74.100  23.232  1.00  0.00     0.140 C 
ATOM     14  O   UNL     1      75.049  75.211  22.725  1.00  0.00    -0.299 OA
BRANCH  13  15
ATOM     15  C   UNL     1      75.685  73.923  24.583  1.00  0.00     0.106 CG0
ATOM     16  G   UNL     1      76.223  72.512  24.748  1.00  0.00     0.000 G0
ENDBRANCH  13  15
ENDBRANCH  12  13
BRANCH  12  17
ATOM     17  C   UNL     1      74.809  72.909  20.972  1.00  0.00    -0.006 C 
ATOM     18  C   UNL     1      73.647  73.014  19.972  1.00  0.00     0.008 C 
ATOM     19  C   UNL     1      75.651  71.655  20.673  1.00  0.00     0.008 C 
ENDBRANCH  12  17
ENDBRANCH  11  12
ENDBRANCH   1  11
TORSDOF 1
ENDMDL
MODEL 9
REMARK VINA RESULT:    -3.260     12.089     14.046
REMARK INTER + INTRA:          -3.855
REMARK INTER:                  -3.576
REMARK INTRA:                  -0.279
REMARK UNBOUND:                 1.121
REMARK SMILES CC1=CCC[C@H](C)C(=O)C[C@@H](C(C)C)C(=O)C1
REMARK SMILES IDX 8 1 9 2 6 3 7 4 5 5 4 6 3 7 2 8 1 9 10 11 11 12 15 13 16 14
REMARK SMILES IDX 17 15 12 17 13 18 14 19
REMARK H PARENT
REMARK Flexibility Score: 70.00
ROOT
ATOM      1  C   UNL     1      74.857  73.110  24.773  1.00  0.00     0.136 C 
ATOM      2  O   UNL     1      74.907  71.940  25.128  1.00  0.00    -0.299 OA
ENDROOT
BRANCH   1   3
ATOM      3  C   UNL     1      76.116  73.963  24.760  1.00  0.00     0.053 C 
ATOM      4  C   UNL     1      76.846  73.989  26.113  1.00  0.00     0.016 C 
BRANCH   3   5
ATOM      5  C   UNL     1      77.070  73.621  23.587  1.00  0.00     0.015 C 
BRANCH   5   6
ATOM      6  C   UNL     1      76.481  73.573  22.158  1.00  0.00     0.028 C 
BRANCH   6   7
ATOM      7  C   UNL     1      75.843  74.834  21.624  1.00  0.00    -0.028 C 
ATOM      8  C   UNL     1      74.572  74.967  21.180  1.00  0.00    -0.070 CG0
ATOM      9  C   UNL     1      74.072  76.372  20.939  1.00  0.00     0.039 C 
ATOM     10  G   UNL     1      73.626  73.796  20.973  1.00  0.00     0.000 G0
ENDBRANCH   6   7
ENDBRANCH   5   6
ENDBRANCH   3   5
ENDBRANCH   1   3
BRANCH   1  11
ATOM     11  C   UNL     1      73.516  73.739  24.461  1.00  0.00     0.087 C 
BRANCH  11  12
ATOM     12  C   UNL     1      72.692  73.008  23.368  1.00  0.00     0.066 C 
BRANCH  12  13
ATOM     13  C   UNL     1      72.548  73.748  22.037  1.00  0.00     0.140 C 
ATOM     14  O   UNL     1      71.500  74.340  21.828  1.00  0.00    -0.299 OA
BRANCH  13  15
ATOM     15  C   UNL     1      73.613  73.797  20.960  1.00  0.00     0.106 CG0
ATOM     16  G   UNL     1      74.560  74.964  21.178  1.00  0.00     0.000 G0
ENDBRANCH  13  15
ENDBRANCH  12  13
BRANCH  12  17
ATOM     17  C   UNL     1      71.308  72.562  23.941  1.00  0.00    -0.006 C 
ATOM     18  C   UNL     1      71.082  73.067  25.375  1.00  0.00     0.008 C 
ATOM     19  C   UNL     1      71.088  71.040  23.877  1.00  0.00     0.008 C 
ENDBRANCH  12  17
ENDBRANCH  11  12
ENDBRANCH   1  11
TORSDOF 1
ENDMDL
