MODEL 1
REMARK VINA RESULT:    -4.612      0.000      0.000
REMARK INTER + INTRA:          -6.277
REMARK INTER:                  -5.960
REMARK INTRA:                  -0.317
REMARK UNBOUND:                -0.317
REMARK SMILES C=CC(=O)CCCCC
REMARK SMILES IDX 6 1 7 2 8 3 9 4 5 5 3 6 4 7 2 8 1 9
REMARK H PARENT
REMARK Flexibility Score: inf
ROOT
ATOM      1  C   UNL     1      26.501  13.283  82.089  1.00  0.00     0.008 C 
ENDROOT
BRANCH   1   2
ATOM      2  C   UNL     1      27.902  13.451  82.701  1.00  0.00     0.000 C 
BRANCH   2   3
ATOM      3  C   UNL     1      27.925  13.160  84.209  1.00  0.00    -0.003 C 
ATOM      4  C   UNL     1      28.326  11.720  84.528  1.00  0.00     0.004 C 
ENDBRANCH   2   3
ENDBRANCH   1   2
BRANCH   1   5
ATOM      5  C   UNL     1      25.635  14.538  82.271  1.00  0.00     0.080 C 
BRANCH   5   6
ATOM      6  C   UNL     1      25.818  15.517  81.146  1.00  0.00     0.155 C 
ATOM      7  O   UNL     1      25.647  15.132  79.957  1.00  0.00    -0.295 OA
BRANCH   6   8
ATOM      8  C   UNL     1      26.171  16.920  81.438  1.00  0.00     0.039 C 
ATOM      9  C   UNL     1      27.365  17.272  81.912  1.00  0.00     0.012 C 
ENDBRANCH   6   8
ENDBRANCH   5   6
ENDBRANCH   1   5
TORSDOF 5
ENDMDL
MODEL 2
REMARK VINA RESULT:    -4.592      1.442      4.429
REMARK INTER + INTRA:          -6.251
REMARK INTER:                  -5.969
REMARK INTRA:                  -0.281
REMARK UNBOUND:                -0.317
REMARK SMILES C=CC(=O)CCCCC
REMARK SMILES IDX 6 1 7 2 8 3 9 4 5 5 3 6 4 7 2 8 1 9
REMARK H PARENT
REMARK Flexibility Score: inf
ROOT
ATOM      1  C   UNL     1      25.736  14.450  82.222  1.00  0.00     0.008 C 
ENDROOT
BRANCH   1   2
ATOM      2  C   UNL     1      25.695  15.334  80.964  1.00  0.00     0.000 C 
BRANCH   2   3
ATOM      3  C   UNL     1      25.883  16.824  81.284  1.00  0.00    -0.003 C 
ATOM      4  C   UNL     1      27.218  17.118  81.969  1.00  0.00     0.004 C 
ENDBRANCH   2   3
ENDBRANCH   1   2
BRANCH   1   5
ATOM      5  C   UNL     1      26.720  13.281  82.077  1.00  0.00     0.080 C 
BRANCH   5   6
ATOM      6  C   UNL     1      27.936  13.458  82.941  1.00  0.00     0.155 C 
ATOM      7  O   UNL     1      28.926  14.099  82.493  1.00  0.00    -0.295 OA
BRANCH   6   8
ATOM      8  C   UNL     1      27.956  12.907  84.311  1.00  0.00     0.039 C 
ATOM      9  C   UNL     1      28.355  11.665  84.575  1.00  0.00     0.012 C 
ENDBRANCH   6   8
ENDBRANCH   5   6
ENDBRANCH   1   5
TORSDOF 5
ENDMDL
MODEL 3
REMARK VINA RESULT:    -4.484      2.430      3.049
REMARK INTER + INTRA:          -6.112
REMARK INTER:                  -5.573
REMARK INTRA:                  -0.539
REMARK UNBOUND:                -0.317
REMARK SMILES C=CC(=O)CCCCC
REMARK SMILES IDX 6 1 7 2 8 3 9 4 5 5 3 6 4 7 2 8 1 9
REMARK H PARENT
REMARK Flexibility Score: inf
ROOT
ATOM      1  C   UNL     1      27.016  13.380  81.368  1.00  0.00     0.008 C 
ENDROOT
BRANCH   1   2
ATOM      2  C   UNL     1      26.062  14.123  82.318  1.00  0.00     0.000 C 
BRANCH   2   3
ATOM      3  C   UNL     1      26.728  14.496  83.651  1.00  0.00    -0.003 C 
ATOM      4  C   UNL     1      27.760  13.463  84.106  1.00  0.00     0.004 C 
ENDBRANCH   2   3
ENDBRANCH   1   2
BRANCH   1   5
ATOM      5  C   UNL     1      27.463  14.258  80.191  1.00  0.00     0.080 C 
BRANCH   5   6
ATOM      6  C   UNL     1      28.957  14.410  80.136  1.00  0.00     0.155 C 
ATOM      7  O   UNL     1      29.585  13.985  79.129  1.00  0.00    -0.295 OA
BRANCH   6   8
ATOM      8  C   UNL     1      29.673  15.073  81.244  1.00  0.00     0.039 C 
ATOM      9  C   UNL     1      30.691  14.499  81.881  1.00  0.00     0.012 C 
ENDBRANCH   6   8
ENDBRANCH   5   6
ENDBRANCH   1   5
TORSDOF 5
ENDMDL
MODEL 4
REMARK VINA RESULT:    -4.443      1.940      2.140
REMARK INTER + INTRA:          -6.059
REMARK INTER:                  -5.437
REMARK INTRA:                  -0.622
REMARK UNBOUND:                -0.317
REMARK SMILES C=CC(=O)CCCCC
REMARK SMILES IDX 6 1 7 2 8 3 9 4 5 5 3 6 4 7 2 8 1 9
REMARK H PARENT
REMARK Flexibility Score: inf
ROOT
ATOM      1  C   UNL     1      26.211  13.976  82.378  1.00  0.00     0.008 C 
ENDROOT
BRANCH   1   2
ATOM      2  C   UNL     1      26.753  14.389  83.757  1.00  0.00     0.000 C 
BRANCH   2   3
ATOM      3  C   UNL     1      27.879  13.466  84.248  1.00  0.00    -0.003 C 
ATOM      4  C   UNL     1      28.061  12.233  83.364  1.00  0.00     0.004 C 
ENDBRANCH   2   3
ENDBRANCH   1   2
BRANCH   1   5
ATOM      5  C   UNL     1      26.125  15.165  81.410  1.00  0.00     0.080 C 
BRANCH   5   6
ATOM      6  C   UNL     1      27.454  15.842  81.231  1.00  0.00     0.155 C 
ATOM      7  O   UNL     1      27.595  17.037  81.610  1.00  0.00    -0.295 OA
BRANCH   6   8
ATOM      8  C   UNL     1      28.586  15.102  80.638  1.00  0.00     0.039 C 
ATOM      9  C   UNL     1      29.770  15.008  81.240  1.00  0.00     0.012 C 
ENDBRANCH   6   8
ENDBRANCH   5   6
ENDBRANCH   1   5
TORSDOF 5
ENDMDL
MODEL 5
REMARK VINA RESULT:    -4.408      1.531      2.028
REMARK INTER + INTRA:          -6.013
REMARK INTER:                  -5.798
REMARK INTRA:                  -0.216
REMARK UNBOUND:                -0.317
REMARK SMILES C=CC(=O)CCCCC
REMARK SMILES IDX 6 1 7 2 8 3 9 4 5 5 3 6 4 7 2 8 1 9
REMARK H PARENT
REMARK Flexibility Score: inf
ROOT
ATOM      1  C   UNL     1      25.984  13.999  82.375  1.00  0.00     0.008 C 
ENDROOT
BRANCH   1   2
ATOM      2  C   UNL     1      26.911  14.364  83.546  1.00  0.00     0.000 C 
BRANCH   2   3
ATOM      3  C   UNL     1      28.210  13.544  83.547  1.00  0.00    -0.003 C 
ATOM      4  C   UNL     1      28.101  12.264  84.375  1.00  0.00     0.004 C 
ENDBRANCH   2   3
ENDBRANCH   1   2
BRANCH   1   5
ATOM      5  C   UNL     1      25.225  15.219  81.834  1.00  0.00     0.080 C 
BRANCH   5   6
ATOM      6  C   UNL     1      25.901  15.816  80.633  1.00  0.00     0.155 C 
ATOM      7  O   UNL     1      26.056  17.066  80.568  1.00  0.00    -0.295 OA
BRANCH   6   8
ATOM      8  C   UNL     1      26.400  14.939  79.554  1.00  0.00     0.039 C 
ATOM      9  C   UNL     1      26.053  15.107  78.280  1.00  0.00     0.012 C 
ENDBRANCH   6   8
ENDBRANCH   5   6
ENDBRANCH   1   5
TORSDOF 5
ENDMDL
MODEL 6
REMARK VINA RESULT:    -4.406      2.443      4.073
REMARK INTER + INTRA:          -6.011
REMARK INTER:                  -5.406
REMARK INTRA:                  -0.605
REMARK UNBOUND:                -0.317
REMARK SMILES C=CC(=O)CCCCC
REMARK SMILES IDX 6 1 7 2 8 3 9 4 5 5 3 6 4 7 2 8 1 9
REMARK H PARENT
REMARK Flexibility Score: inf
ROOT
ATOM      1  C   UNL     1      28.738  14.171  80.548  1.00  0.00     0.008 C 
ENDROOT
BRANCH   1   2
ATOM      2  C   UNL     1      28.403  14.377  79.061  1.00  0.00     0.000 C 
BRANCH   2   3
ATOM      3  C   UNL     1      26.966  13.957  78.717  1.00  0.00    -0.003 C 
ATOM      4  C   UNL     1      26.048  15.150  78.451  1.00  0.00     0.004 C 
ENDBRANCH   2   3
ENDBRANCH   1   2
BRANCH   1   5
ATOM      5  C   UNL     1      28.869  15.502  81.302  1.00  0.00     0.080 C 
BRANCH   5   6
ATOM      6  C   UNL     1      27.559  15.949  81.888  1.00  0.00     0.155 C 
ATOM      7  O   UNL     1      27.158  17.126  81.679  1.00  0.00    -0.295 OA
BRANCH   6   8
ATOM      8  C   UNL     1      26.743  15.005  82.677  1.00  0.00     0.039 C 
ATOM      9  C   UNL     1      25.489  14.698  82.350  1.00  0.00     0.012 C 
ENDBRANCH   6   8
ENDBRANCH   5   6
ENDBRANCH   1   5
TORSDOF 5
ENDMDL
MODEL 7
REMARK VINA RESULT:    -4.372      2.138      3.206
REMARK INTER + INTRA:          -5.967
REMARK INTER:                  -5.362
REMARK INTRA:                  -0.605
REMARK UNBOUND:                -0.317
REMARK SMILES C=CC(=O)CCCCC
REMARK SMILES IDX 6 1 7 2 8 3 9 4 5 5 3 6 4 7 2 8 1 9
REMARK H PARENT
REMARK Flexibility Score: inf
ROOT
ATOM      1  C   UNL     1      26.712  14.240  79.628  1.00  0.00     0.008 C 
ENDROOT
BRANCH   1   2
ATOM      2  C   UNL     1      28.128  14.727  79.277  1.00  0.00     0.000 C 
BRANCH   2   3
ATOM      3  C   UNL     1      29.194  14.178  80.236  1.00  0.00    -0.003 C 
ATOM      4  C   UNL     1      29.601  15.187  81.311  1.00  0.00     0.004 C 
ENDBRANCH   2   3
ENDBRANCH   1   2
BRANCH   1   5
ATOM      5  C   UNL     1      25.780  15.397  80.016  1.00  0.00     0.080 C 
BRANCH   5   6
ATOM      6  C   UNL     1      25.938  15.788  81.458  1.00  0.00     0.155 C 
ATOM      7  O   UNL     1      26.283  16.966  81.745  1.00  0.00    -0.295 OA
BRANCH   6   8
ATOM      8  C   UNL     1      25.664  14.803  82.524  1.00  0.00     0.039 C 
ATOM      9  C   UNL     1      26.565  14.487  83.452  1.00  0.00     0.012 C 
ENDBRANCH   6   8
ENDBRANCH   5   6
ENDBRANCH   1   5
TORSDOF 5
ENDMDL
MODEL 8
REMARK VINA RESULT:    -4.349      2.433      3.842
REMARK INTER + INTRA:          -5.937
REMARK INTER:                  -5.453
REMARK INTRA:                  -0.484
REMARK UNBOUND:                -0.317
REMARK SMILES C=CC(=O)CCCCC
REMARK SMILES IDX 6 1 7 2 8 3 9 4 5 5 3 6 4 7 2 8 1 9
REMARK H PARENT
REMARK Flexibility Score: inf
ROOT
ATOM      1  C   UNL     1      27.450  15.725  81.486  1.00  0.00     0.008 C 
ENDROOT
BRANCH   1   2
ATOM      2  C   UNL     1      26.741  15.000  82.642  1.00  0.00     0.000 C 
BRANCH   2   3
ATOM      3  C   UNL     1      25.243  14.788  82.375  1.00  0.00    -0.003 C 
ATOM      4  C   UNL     1      24.612  15.941  81.594  1.00  0.00     0.004 C 
ENDBRANCH   2   3
ENDBRANCH   1   2
BRANCH   1   5
ATOM      5  C   UNL     1      28.510  14.843  80.811  1.00  0.00     0.080 C 
BRANCH   5   6
ATOM      6  C   UNL     1      28.163  14.539  79.381  1.00  0.00     0.155 C 
ATOM      7  O   UNL     1      29.089  14.363  78.544  1.00  0.00    -0.295 OA
BRANCH   6   8
ATOM      8  C   UNL     1      26.748  14.424  78.973  1.00  0.00     0.039 C 
ATOM      9  C   UNL     1      26.232  15.142  77.977  1.00  0.00     0.012 C 
ENDBRANCH   6   8
ENDBRANCH   5   6
ENDBRANCH   1   5
TORSDOF 5
ENDMDL
MODEL 9
REMARK VINA RESULT:    -4.328      1.944      4.086
REMARK INTER + INTRA:          -5.911
REMARK INTER:                  -5.402
REMARK INTRA:                  -0.508
REMARK UNBOUND:                -0.317
REMARK SMILES C=CC(=O)CCCCC
REMARK SMILES IDX 6 1 7 2 8 3 9 4 5 5 3 6 4 7 2 8 1 9
REMARK H PARENT
REMARK Flexibility Score: inf
ROOT
ATOM      1  C   UNL     1      25.654  14.631  82.274  1.00  0.00     0.008 C 
ENDROOT
BRANCH   1   2
ATOM      2  C   UNL     1      25.602  15.454  80.976  1.00  0.00     0.000 C 
BRANCH   2   3
ATOM      3  C   UNL     1      25.784  16.959  81.225  1.00  0.00    -0.003 C 
ATOM      4  C   UNL     1      27.114  17.291  81.902  1.00  0.00     0.004 C 
ENDBRANCH   2   3
ENDBRANCH   1   2
BRANCH   1   5
ATOM      5  C   UNL     1      26.698  13.507  82.207  1.00  0.00     0.080 C 
BRANCH   5   6
ATOM      6  C   UNL     1      27.939  13.843  82.982  1.00  0.00     0.155 C 
ATOM      7  O   UNL     1      27.858  14.036  84.226  1.00  0.00    -0.295 OA
BRANCH   6   8
ATOM      8  C   UNL     1      29.243  13.921  82.293  1.00  0.00     0.039 C 
ATOM      9  C   UNL     1      29.423  14.638  81.185  1.00  0.00     0.012 C 
ENDBRANCH   6   8
ENDBRANCH   5   6
ENDBRANCH   1   5
TORSDOF 5
ENDMDL
