MODEL 1
REMARK VINA RESULT:    -4.585      0.000      0.000
REMARK INTER + INTRA:          -5.172
REMARK INTER:                  -4.987
REMARK INTRA:                  -0.185
REMARK UNBOUND:                -0.185
REMARK SMILES C=C(C)[C@@H]1CC[C@H](C)C[C@@H]1O
REMARK SMILES IDX 8 1 7 2 6 3 5 4 4 5 10 6 9 7 11 8 2 10 1 11 3 12
REMARK H PARENT 11 9
REMARK Flexibility Score: inf
ROOT
ATOM      1  C   UNL     1     148.407 142.259 130.535  1.00  0.00     0.008 C 
ATOM      2  C   UNL     1     149.826 142.821 130.360  1.00  0.00    -0.012 C 
ATOM      3  C   UNL     1     150.124 143.201 128.894  1.00  0.00     0.004 C 
ATOM      4  C   UNL     1     149.445 144.513 128.477  1.00  0.00     0.011 C 
ATOM      5  C   UNL     1     149.844 145.659 129.427  1.00  0.00     0.043 C 
ATOM      6  C   UNL     1     149.482 145.332 130.893  1.00  0.00     0.121 C 
ATOM      7  C   UNL     1     150.124 143.994 131.324  1.00  0.00     0.035 C 
ENDROOT
BRANCH   6   8
ATOM      8  O   UNL     1     148.090 145.288 131.070  1.00  0.00    -0.392 OA
ATOM      9  H   UNL     1     147.805 144.357 130.878  1.00  0.00     0.210 HD
ENDBRANCH   6   8
BRANCH   5  10
ATOM     10  C   UNL     1     149.267 147.002 128.986  1.00  0.00    -0.075 C 
ATOM     11  C   UNL     1     149.662 148.132 129.597  1.00  0.00     0.008 C 
ATOM     12  C   UNL     1     148.216 147.106 127.908  1.00  0.00     0.039 C 
ENDBRANCH   5  10
TORSDOF 2
ENDMDL
MODEL 2
REMARK VINA RESULT:    -4.515     20.174     21.153
REMARK INTER + INTRA:          -5.096
REMARK INTER:                  -4.930
REMARK INTRA:                  -0.166
REMARK UNBOUND:                -0.185
REMARK SMILES C=C(C)[C@@H]1CC[C@H](C)C[C@@H]1O
REMARK SMILES IDX 8 1 7 2 6 3 5 4 4 5 10 6 9 7 11 8 2 10 1 11 3 12
REMARK H PARENT 11 9
REMARK Flexibility Score: inf
ROOT
ATOM      1  C   UNL     1     136.999 138.498 144.353  1.00  0.00     0.008 C 
ATOM      2  C   UNL     1     135.532 138.427 144.807  1.00  0.00    -0.012 C 
ATOM      3  C   UNL     1     134.696 139.602 144.256  1.00  0.00     0.004 C 
ATOM      4  C   UNL     1     134.349 139.429 142.770  1.00  0.00     0.011 C 
ATOM      5  C   UNL     1     133.628 138.089 142.531  1.00  0.00     0.043 C 
ATOM      6  C   UNL     1     134.483 136.893 143.005  1.00  0.00     0.121 C 
ATOM      7  C   UNL     1     134.877 137.063 144.489  1.00  0.00     0.035 C 
ENDROOT
BRANCH   6   8
ATOM      8  O   UNL     1     135.628 136.745 142.207  1.00  0.00    -0.392 OA
ATOM      9  H   UNL     1     136.344 137.287 142.628  1.00  0.00     0.210 HD
ENDBRANCH   6   8
BRANCH   5  10
ATOM     10  C   UNL     1     133.177 137.925 141.081  1.00  0.00    -0.075 C 
ATOM     11  C   UNL     1     133.255 138.965 140.235  1.00  0.00     0.008 C 
ATOM     12  C   UNL     1     132.590 136.632 140.568  1.00  0.00     0.039 C 
ENDBRANCH   5  10
TORSDOF 2
ENDMDL
MODEL 3
REMARK VINA RESULT:    -4.300     10.896     12.566
REMARK INTER + INTRA:          -4.863
REMARK INTER:                  -4.670
REMARK INTRA:                  -0.192
REMARK UNBOUND:                -0.185
REMARK SMILES C=C(C)[C@@H]1CC[C@H](C)C[C@@H]1O
REMARK SMILES IDX 8 1 7 2 6 3 5 4 4 5 10 6 9 7 11 8 2 10 1 11 3 12
REMARK H PARENT 11 9
REMARK Flexibility Score: inf
ROOT
ATOM      1  C   UNL     1     147.508 142.927 141.000  1.00  0.00     0.008 C 
ATOM      2  C   UNL     1     148.950 142.537 141.363  1.00  0.00    -0.012 C 
ATOM      3  C   UNL     1     149.000 141.493 142.500  1.00  0.00     0.004 C 
ATOM      4  C   UNL     1     148.633 140.082 142.017  1.00  0.00     0.011 C 
ATOM      5  C   UNL     1     149.538 139.655 140.846  1.00  0.00     0.043 C 
ATOM      6  C   UNL     1     149.442 140.646 139.665  1.00  0.00     0.121 C 
ATOM      7  C   UNL     1     149.770 142.081 140.134  1.00  0.00     0.035 C 
ENDROOT
BRANCH   6   8
ATOM      8  O   UNL     1     148.170 140.602 139.073  1.00  0.00    -0.392 OA
ATOM      9  H   UNL     1     148.266 140.096 138.224  1.00  0.00     0.210 HD
ENDBRANCH   6   8
BRANCH   5  10
ATOM     10  C   UNL     1     149.271 138.218 140.404  1.00  0.00    -0.075 C 
ATOM     11  C   UNL     1     148.279 137.516 140.976  1.00  0.00     0.008 C 
ATOM     12  C   UNL     1     150.125 137.529 139.367  1.00  0.00     0.039 C 
ENDBRANCH   5  10
TORSDOF 2
ENDMDL
MODEL 4
REMARK VINA RESULT:    -4.279     19.950     20.969
REMARK INTER + INTRA:          -4.839
REMARK INTER:                  -4.663
REMARK INTRA:                  -0.176
REMARK UNBOUND:                -0.185
REMARK SMILES C=C(C)[C@@H]1CC[C@H](C)C[C@@H]1O
REMARK SMILES IDX 8 1 7 2 6 3 5 4 4 5 10 6 9 7 11 8 2 10 1 11 3 12
REMARK H PARENT 11 9
REMARK Flexibility Score: inf
ROOT
ATOM      1  C   UNL     1     136.011 137.452 145.515  1.00  0.00     0.008 C 
ATOM      2  C   UNL     1     136.149 138.618 144.524  1.00  0.00    -0.012 C 
ATOM      3  C   UNL     1     136.894 138.200 143.237  1.00  0.00     0.004 C 
ATOM      4  C   UNL     1     136.013 137.369 142.293  1.00  0.00     0.011 C 
ATOM      5  C   UNL     1     134.716 138.127 141.949  1.00  0.00     0.043 C 
ATOM      6  C   UNL     1     133.916 138.487 143.221  1.00  0.00     0.121 C 
ATOM      7  C   UNL     1     134.794 139.291 144.205  1.00  0.00     0.035 C 
ENDROOT
BRANCH   6   8
ATOM      8  O   UNL     1     133.414 137.332 143.842  1.00  0.00    -0.392 OA
ATOM      9  H   UNL     1     133.609 137.419 144.811  1.00  0.00     0.210 HD
ENDBRANCH   6   8
BRANCH   5  10
ATOM     10  C   UNL     1     133.859 137.376 140.932  1.00  0.00    -0.075 C 
ATOM     11  C   UNL     1     134.123 136.089 140.658  1.00  0.00     0.008 C 
ATOM     12  C   UNL     1     132.742 138.052 140.176  1.00  0.00     0.039 C 
ENDBRANCH   5  10
TORSDOF 2
ENDMDL
MODEL 5
REMARK VINA RESULT:    -4.209     18.904     20.548
REMARK INTER + INTRA:          -4.763
REMARK INTER:                  -4.576
REMARK INTRA:                  -0.187
REMARK UNBOUND:                -0.185
REMARK SMILES C=C(C)[C@@H]1CC[C@H](C)C[C@@H]1O
REMARK SMILES IDX 8 1 7 2 6 3 5 4 4 5 10 6 9 7 11 8 2 10 1 11 3 12
REMARK H PARENT 11 9
REMARK Flexibility Score: inf
ROOT
ATOM      1  C   UNL     1     133.253 138.700 140.428  1.00  0.00     0.008 C 
ATOM      2  C   UNL     1     133.383 137.456 141.321  1.00  0.00    -0.012 C 
ATOM      3  C   UNL     1     134.681 136.670 141.036  1.00  0.00     0.004 C 
ATOM      4  C   UNL     1     135.922 137.350 141.630  1.00  0.00     0.011 C 
ATOM      5  C   UNL     1     135.746 137.578 143.144  1.00  0.00     0.043 C 
ATOM      6  C   UNL     1     134.494 138.430 143.447  1.00  0.00     0.121 C 
ATOM      7  C   UNL     1     133.235 137.785 142.825  1.00  0.00     0.035 C 
ENDROOT
BRANCH   6   8
ATOM      8  O   UNL     1     134.655 139.744 142.979  1.00  0.00    -0.392 OA
ATOM      9  H   UNL     1     135.576 139.809 142.616  1.00  0.00     0.210 HD
ENDBRANCH   6   8
BRANCH   5  10
ATOM     10  C   UNL     1     137.000 138.161 143.791  1.00  0.00    -0.075 C 
ATOM     11  C   UNL     1     138.110 138.341 143.055  1.00  0.00     0.008 C 
ATOM     12  C   UNL     1     137.056 138.503 145.260  1.00  0.00     0.039 C 
ENDBRANCH   5  10
TORSDOF 2
ENDMDL
MODEL 6
REMARK VINA RESULT:    -4.140      9.621     11.354
REMARK INTER + INTRA:          -4.689
REMARK INTER:                  -4.524
REMARK INTRA:                  -0.165
REMARK UNBOUND:                -0.185
REMARK SMILES C=C(C)[C@@H]1CC[C@H](C)C[C@@H]1O
REMARK SMILES IDX 8 1 7 2 6 3 5 4 4 5 10 6 9 7 11 8 2 10 1 11 3 12
REMARK H PARENT 11 9
REMARK Flexibility Score: inf
ROOT
ATOM      1  C   UNL     1     148.356 138.525 137.658  1.00  0.00     0.008 C 
ATOM      2  C   UNL     1     147.157 139.387 138.082  1.00  0.00    -0.012 C 
ATOM      3  C   UNL     1     146.701 139.079 139.524  1.00  0.00     0.004 C 
ATOM      4  C   UNL     1     147.638 139.685 140.579  1.00  0.00     0.011 C 
ATOM      5  C   UNL     1     147.784 141.204 140.369  1.00  0.00     0.043 C 
ATOM      6  C   UNL     1     148.315 141.532 138.955  1.00  0.00     0.121 C 
ATOM      7  C   UNL     1     147.409 140.899 137.876  1.00  0.00     0.035 C 
ENDROOT
BRANCH   6   8
ATOM      8  O   UNL     1     149.640 141.095 138.802  1.00  0.00    -0.392 OA
ATOM      9  H   UNL     1     150.224 141.822 139.142  1.00  0.00     0.210 HD
ENDBRANCH   6   8
BRANCH   5  10
ATOM     10  C   UNL     1     148.629 141.860 141.459  1.00  0.00    -0.075 C 
ATOM     11  C   UNL     1     148.978 141.157 142.548  1.00  0.00     0.008 C 
ATOM     12  C   UNL     1     149.051 143.308 141.380  1.00  0.00     0.039 C 
ENDBRANCH   5  10
TORSDOF 2
ENDMDL
MODEL 7
REMARK VINA RESULT:    -4.105     10.209     11.289
REMARK INTER + INTRA:          -4.650
REMARK INTER:                  -4.481
REMARK INTRA:                  -0.169
REMARK UNBOUND:                -0.185
REMARK SMILES C=C(C)[C@@H]1CC[C@H](C)C[C@@H]1O
REMARK SMILES IDX 8 1 7 2 6 3 5 4 4 5 10 6 9 7 11 8 2 10 1 11 3 12
REMARK H PARENT 11 9
REMARK Flexibility Score: inf
ROOT
ATOM      1  C   UNL     1     148.795 137.777 138.260  1.00  0.00     0.008 C 
ATOM      2  C   UNL     1     148.882 139.210 137.712  1.00  0.00    -0.012 C 
ATOM      3  C   UNL     1     147.582 140.006 137.956  1.00  0.00     0.004 C 
ATOM      4  C   UNL     1     147.440 140.465 139.414  1.00  0.00     0.011 C 
ATOM      5  C   UNL     1     148.669 141.286 139.849  1.00  0.00     0.043 C 
ATOM      6  C   UNL     1     149.976 140.479 139.686  1.00  0.00     0.121 C 
ATOM      7  C   UNL     1     150.123 139.972 138.234  1.00  0.00     0.035 C 
ENDROOT
BRANCH   6   8
ATOM      8  O   UNL     1     150.019 139.403 140.588  1.00  0.00    -0.392 OA
ATOM      9  H   UNL     1     150.975 139.173 140.716  1.00  0.00     0.210 HD
ENDBRANCH   6   8
BRANCH   5  10
ATOM     10  C   UNL     1     148.520 141.846 141.262  1.00  0.00    -0.075 C 
ATOM     11  C   UNL     1     149.270 142.890 141.650  1.00  0.00     0.008 C 
ATOM     12  C   UNL     1     147.583 141.228 142.272  1.00  0.00     0.039 C 
ENDBRANCH   5  10
TORSDOF 2
ENDMDL
MODEL 8
REMARK VINA RESULT:    -4.049      9.183     11.036
REMARK INTER + INTRA:          -4.590
REMARK INTER:                  -4.414
REMARK INTRA:                  -0.176
REMARK UNBOUND:                -0.185
REMARK SMILES C=C(C)[C@@H]1CC[C@H](C)C[C@@H]1O
REMARK SMILES IDX 8 1 7 2 6 3 5 4 4 5 10 6 9 7 11 8 2 10 1 11 3 12
REMARK H PARENT 11 9
REMARK Flexibility Score: inf
ROOT
ATOM      1  C   UNL     1     149.013 140.985 142.201  1.00  0.00     0.008 C 
ATOM      2  C   UNL     1     149.151 139.653 141.447  1.00  0.00    -0.012 C 
ATOM      3  C   UNL     1     147.781 139.076 141.033  1.00  0.00     0.004 C 
ATOM      4  C   UNL     1     147.174 139.810 139.828  1.00  0.00     0.011 C 
ATOM      5  C   UNL     1     148.150 139.800 138.637  1.00  0.00     0.043 C 
ATOM      6  C   UNL     1     149.504 140.445 139.008  1.00  0.00     0.121 C 
ATOM      7  C   UNL     1     150.117 139.748 140.243  1.00  0.00     0.035 C 
ENDROOT
BRANCH   6   8
ATOM      8  O   UNL     1     149.357 141.822 139.244  1.00  0.00    -0.392 OA
ATOM      9  H   UNL     1     148.589 141.927 139.863  1.00  0.00     0.210 HD
ENDBRANCH   6   8
BRANCH   5  10
ATOM     10  C   UNL     1     147.543 140.434 137.387  1.00  0.00    -0.075 C 
ATOM     11  C   UNL     1     148.231 140.428 136.233  1.00  0.00     0.008 C 
ATOM     12  C   UNL     1     146.200 141.122 137.412  1.00  0.00     0.039 C 
ENDBRANCH   5  10
TORSDOF 2
ENDMDL
MODEL 9
REMARK VINA RESULT:    -4.014     10.733     12.638
REMARK INTER + INTRA:          -4.552
REMARK INTER:                  -4.364
REMARK INTRA:                  -0.188
REMARK UNBOUND:                -0.185
REMARK SMILES C=C(C)[C@@H]1CC[C@H](C)C[C@@H]1O
REMARK SMILES IDX 8 1 7 2 6 3 5 4 4 5 10 6 9 7 11 8 2 10 1 11 3 12
REMARK H PARENT 11 9
REMARK Flexibility Score: inf
ROOT
ATOM      1  C   UNL     1     149.432 143.349 141.402  1.00  0.00     0.008 C 
ATOM      2  C   UNL     1     148.112 142.785 140.852  1.00  0.00    -0.012 C 
ATOM      3  C   UNL     1     148.292 142.135 139.464  1.00  0.00     0.004 C 
ATOM      4  C   UNL     1     148.965 140.757 139.542  1.00  0.00     0.011 C 
ATOM      5  C   UNL     1     148.182 139.821 140.483  1.00  0.00     0.043 C 
ATOM      6  C   UNL     1     148.057 140.419 141.902  1.00  0.00     0.121 C 
ATOM      7  C   UNL     1     147.417 141.824 141.845  1.00  0.00     0.035 C 
ENDROOT
BRANCH   6   8
ATOM      8  O   UNL     1     149.309 140.475 142.535  1.00  0.00    -0.392 OA
ATOM      9  H   UNL     1     149.516 141.434 142.680  1.00  0.00     0.210 HD
ENDBRANCH   6   8
BRANCH   5  10
ATOM     10  C   UNL     1     148.763 138.409 140.510  1.00  0.00    -0.075 C 
ATOM     11  C   UNL     1     149.943 138.161 139.918  1.00  0.00     0.008 C 
ATOM     12  C   UNL     1     148.026 137.254 141.143  1.00  0.00     0.039 C 
ENDBRANCH   5  10
TORSDOF 2
ENDMDL
