MODEL 1
REMARK VINA RESULT:    -5.493      0.000      0.000
REMARK INTER + INTRA:          -6.200
REMARK INTER:                  -6.136
REMARK INTRA:                  -0.064
REMARK UNBOUND:                -0.064
REMARK SMILES COc1cc2ccc(=O)oc2c(O)c1O
REMARK SMILES IDX 3 1 14 2 12 3 11 4 5 5 4 6 6 7 7 8 8 9 9 10 10 11 2 12 1 13
REMARK SMILES IDX 15 14 13 16
REMARK H PARENT 15 15 13 17
REMARK Flexibility Score: inf
ROOT
ATOM      1  C   UNL     1      23.396 173.402 216.223  1.00  0.00     0.165 A 
ATOM      2  C   UNL     1      22.814 172.180 215.832  1.00  0.00     0.204 A 
ATOM      3  C   UNL     1      21.472 172.136 215.412  1.00  0.00     0.205 A 
ATOM      4  C   UNL     1      20.710 173.309 215.381  1.00  0.00     0.184 A 
ATOM      5  C   UNL     1      21.289 174.535 215.772  1.00  0.00     0.025 A 
ATOM      6  C   UNL     1      22.624 174.579 216.190  1.00  0.00     0.062 A 
ATOM      7  C   UNL     1      20.499 175.690 215.729  1.00  0.00     0.020 A 
ATOM      8  C   UNL     1      19.174 175.598 215.306  1.00  0.00     0.094 A 
ATOM      9  C   UNL     1      18.666 174.350 214.934  1.00  0.00     0.336 A 
ATOM     10  O   UNL     1      17.473 174.245 214.548  1.00  0.00    -0.246 OA
ATOM     11  O   UNL     1      19.440 173.268 214.983  1.00  0.00    -0.419 OA
ENDROOT
BRANCH   1  12
ATOM     12  O   UNL     1      24.738 173.409 216.637  1.00  0.00    -0.493 OA
ATOM     13  C   UNL     1      25.846 173.686 215.785  1.00  0.00     0.278 C 
ENDBRANCH   1  12
BRANCH   2  14
ATOM     14  O   UNL     1      23.560 171.000 215.857  1.00  0.00    -0.502 OA
ATOM     15  H   UNL     1      23.260 170.157 215.383  1.00  0.00     0.293 HD
ENDBRANCH   2  14
BRANCH   3  16
ATOM     16  O   UNL     1      20.882 170.933 215.022  1.00  0.00    -0.502 OA
ATOM     17  H   UNL     1      21.246 170.034 215.314  1.00  0.00     0.293 HD
ENDBRANCH   3  16
TORSDOF 3
ENDMDL
MODEL 2
REMARK VINA RESULT:    -5.153      1.506      4.853
REMARK INTER + INTRA:          -5.820
REMARK INTER:                  -5.767
REMARK INTRA:                  -0.052
REMARK UNBOUND:                -0.064
REMARK SMILES COc1cc2ccc(=O)oc2c(O)c1O
REMARK SMILES IDX 3 1 14 2 12 3 11 4 5 5 4 6 6 7 7 8 8 9 9 10 10 11 2 12 1 13
REMARK SMILES IDX 15 14 13 16
REMARK H PARENT 15 15 13 17
REMARK Flexibility Score: inf
ROOT
ATOM      1  C   UNL     1      18.948 175.498 214.872  1.00  0.00     0.165 A 
ATOM      2  C   UNL     1      19.070 174.240 214.251  1.00  0.00     0.204 A 
ATOM      3  C   UNL     1      20.107 173.364 214.622  1.00  0.00     0.205 A 
ATOM      4  C   UNL     1      21.022 173.742 215.610  1.00  0.00     0.184 A 
ATOM      5  C   UNL     1      20.903 175.002 216.235  1.00  0.00     0.025 A 
ATOM      6  C   UNL     1      19.872 175.873 215.867  1.00  0.00     0.062 A 
ATOM      7  C   UNL     1      21.835 175.349 217.220  1.00  0.00     0.020 A 
ATOM      8  C   UNL     1      22.846 174.449 217.554  1.00  0.00     0.094 A 
ATOM      9  C   UNL     1      22.903 173.218 216.894  1.00  0.00     0.336 A 
ATOM     10  O   UNL     1      23.807 172.390 217.180  1.00  0.00    -0.246 OA
ATOM     11  O   UNL     1      22.004 172.913 215.961  1.00  0.00    -0.419 OA
ENDROOT
BRANCH   1  12
ATOM     12  O   UNL     1      17.900 176.348 214.478  1.00  0.00    -0.493 OA
ATOM     13  C   UNL     1      17.996 177.766 214.396  1.00  0.00     0.278 C 
ENDBRANCH   1  12
BRANCH   2  14
ATOM     14  O   UNL     1      18.165 173.847 213.263  1.00  0.00    -0.502 OA
ATOM     15  H   UNL     1      18.420 173.218 212.512  1.00  0.00     0.293 HD
ENDBRANCH   2  14
BRANCH   3  16
ATOM     16  O   UNL     1      20.240 172.114 214.015  1.00  0.00    -0.502 OA
ATOM     17  H   UNL     1      21.138 171.752 213.718  1.00  0.00     0.293 HD
ENDBRANCH   3  16
TORSDOF 3
ENDMDL
MODEL 3
REMARK VINA RESULT:    -5.142      1.929      5.583
REMARK INTER + INTRA:          -5.808
REMARK INTER:                  -5.759
REMARK INTRA:                  -0.049
REMARK UNBOUND:                -0.064
REMARK SMILES COc1cc2ccc(=O)oc2c(O)c1O
REMARK SMILES IDX 3 1 14 2 12 3 11 4 5 5 4 6 6 7 7 8 8 9 9 10 10 11 2 12 1 13
REMARK SMILES IDX 15 14 13 16
REMARK H PARENT 15 15 13 17
REMARK Flexibility Score: inf
ROOT
ATOM      1  C   UNL     1      18.409 175.099 214.464  1.00  0.00     0.165 A 
ATOM      2  C   UNL     1      19.182 176.068 215.134  1.00  0.00     0.204 A 
ATOM      3  C   UNL     1      20.368 175.697 215.792  1.00  0.00     0.205 A 
ATOM      4  C   UNL     1      20.785 174.361 215.785  1.00  0.00     0.184 A 
ATOM      5  C   UNL     1      20.015 173.388 215.115  1.00  0.00     0.025 A 
ATOM      6  C   UNL     1      18.834 173.756 214.459  1.00  0.00     0.062 A 
ATOM      7  C   UNL     1      20.459 172.061 215.126  1.00  0.00     0.020 A 
ATOM      8  C   UNL     1      21.641 171.740 215.793  1.00  0.00     0.094 A 
ATOM      9  C   UNL     1      22.354 172.757 216.435  1.00  0.00     0.336 A 
ATOM     10  O   UNL     1      23.424 172.489 217.042  1.00  0.00    -0.246 OA
ATOM     11  O   UNL     1      21.908 174.010 216.408  1.00  0.00    -0.419 OA
ENDROOT
BRANCH   1  12
ATOM     12  O   UNL     1      17.231 175.504 213.816  1.00  0.00    -0.493 OA
ATOM     13  C   UNL     1      16.489 174.697 212.906  1.00  0.00     0.278 C 
ENDBRANCH   1  12
BRANCH   2  14
ATOM     14  O   UNL     1      18.780 177.405 215.151  1.00  0.00    -0.502 OA
ATOM     15  H   UNL     1      18.403 177.848 215.980  1.00  0.00     0.293 HD
ENDBRANCH   2  14
BRANCH   3  16
ATOM     16  O   UNL     1      21.144 176.647 216.460  1.00  0.00    -0.502 OA
ATOM     17  H   UNL     1      21.045 176.822 217.453  1.00  0.00     0.293 HD
ENDBRANCH   3  16
TORSDOF 3
ENDMDL
MODEL 4
REMARK VINA RESULT:    -5.102      2.617      4.940
REMARK INTER + INTRA:          -5.763
REMARK INTER:                  -5.712
REMARK INTRA:                  -0.051
REMARK UNBOUND:                -0.064
REMARK SMILES COc1cc2ccc(=O)oc2c(O)c1O
REMARK SMILES IDX 3 1 14 2 12 3 11 4 5 5 4 6 6 7 7 8 8 9 9 10 10 11 2 12 1 13
REMARK SMILES IDX 15 14 13 16
REMARK H PARENT 15 15 13 17
REMARK Flexibility Score: inf
ROOT
ATOM      1  C   UNL     1      20.607 173.022 218.483  1.00  0.00     0.165 A 
ATOM      2  C   UNL     1      20.672 172.089 217.430  1.00  0.00     0.204 A 
ATOM      3  C   UNL     1      21.829 171.994 216.636  1.00  0.00     0.205 A 
ATOM      4  C   UNL     1      22.922 172.830 216.891  1.00  0.00     0.184 A 
ATOM      5  C   UNL     1      22.862 173.766 217.945  1.00  0.00     0.025 A 
ATOM      6  C   UNL     1      21.711 173.859 218.735  1.00  0.00     0.062 A 
ATOM      7  C   UNL     1      23.973 174.586 218.173  1.00  0.00     0.020 A 
ATOM      8  C   UNL     1      25.098 174.458 217.360  1.00  0.00     0.094 A 
ATOM      9  C   UNL     1      25.088 173.508 216.334  1.00  0.00     0.336 A 
ATOM     10  O   UNL     1      26.093 173.375 215.589  1.00  0.00    -0.246 OA
ATOM     11  O   UNL     1      24.018 172.741 216.139  1.00  0.00    -0.419 OA
ENDROOT
BRANCH   1  12
ATOM     12  O   UNL     1      19.436 173.088 219.257  1.00  0.00    -0.493 OA
ATOM     13  C   UNL     1      18.969 174.260 219.917  1.00  0.00     0.278 C 
ENDBRANCH   1  12
BRANCH   2  14
ATOM     14  O   UNL     1      19.590 171.248 217.162  1.00  0.00    -0.502 OA
ATOM     15  H   UNL     1      18.646 171.596 217.050  1.00  0.00     0.293 HD
ENDBRANCH   2  14
BRANCH   3  16
ATOM     16  O   UNL     1      21.907 171.075 215.588  1.00  0.00    -0.502 OA
ATOM     17  H   UNL     1      21.127 170.898 214.967  1.00  0.00     0.293 HD
ENDBRANCH   3  16
TORSDOF 3
ENDMDL
MODEL 5
REMARK VINA RESULT:    -5.079      2.186      5.307
REMARK INTER + INTRA:          -5.737
REMARK INTER:                  -5.679
REMARK INTRA:                  -0.057
REMARK UNBOUND:                -0.064
REMARK SMILES COc1cc2ccc(=O)oc2c(O)c1O
REMARK SMILES IDX 3 1 14 2 12 3 11 4 5 5 4 6 6 7 7 8 8 9 9 10 10 11 2 12 1 13
REMARK SMILES IDX 15 14 13 16
REMARK H PARENT 15 15 13 17
REMARK Flexibility Score: inf
ROOT
ATOM      1  C   UNL     1      19.258 177.491 214.342  1.00  0.00     0.165 A 
ATOM      2  C   UNL     1      18.096 176.694 214.366  1.00  0.00     0.204 A 
ATOM      3  C   UNL     1      18.197 175.296 214.481  1.00  0.00     0.205 A 
ATOM      4  C   UNL     1      19.456 174.691 214.572  1.00  0.00     0.184 A 
ATOM      5  C   UNL     1      20.622 175.485 214.549  1.00  0.00     0.025 A 
ATOM      6  C   UNL     1      20.521 176.876 214.434  1.00  0.00     0.062 A 
ATOM      7  C   UNL     1      21.865 174.848 214.641  1.00  0.00     0.020 A 
ATOM      8  C   UNL     1      21.917 173.460 214.753  1.00  0.00     0.094 A 
ATOM      9  C   UNL     1      20.721 172.736 214.770  1.00  0.00     0.336 A 
ATOM     10  O   UNL     1      20.745 171.482 214.872  1.00  0.00    -0.246 OA
ATOM     11  O   UNL     1      19.552 173.367 214.681  1.00  0.00    -0.419 OA
ENDROOT
BRANCH   1  12
ATOM     12  O   UNL     1      19.120 178.884 214.227  1.00  0.00    -0.493 OA
ATOM     13  C   UNL     1      19.763 179.833 215.071  1.00  0.00     0.278 C 
ENDBRANCH   1  12
BRANCH   2  14
ATOM     14  O   UNL     1      16.833 177.282 214.277  1.00  0.00    -0.502 OA
ATOM     15  H   UNL     1      15.990 176.805 214.570  1.00  0.00     0.293 HD
ENDBRANCH   2  14
BRANCH   3  16
ATOM     16  O   UNL     1      17.055 174.494 214.506  1.00  0.00    -0.502 OA
ATOM     17  H   UNL     1      16.424 174.430 213.717  1.00  0.00     0.293 HD
ENDBRANCH   3  16
TORSDOF 3
ENDMDL
MODEL 6
REMARK VINA RESULT:    -5.062      1.822      2.354
REMARK INTER + INTRA:          -5.718
REMARK INTER:                  -5.652
REMARK INTRA:                  -0.066
REMARK UNBOUND:                -0.064
REMARK SMILES COc1cc2ccc(=O)oc2c(O)c1O
REMARK SMILES IDX 3 1 14 2 12 3 11 4 5 5 4 6 6 7 7 8 8 9 9 10 10 11 2 12 1 13
REMARK SMILES IDX 15 14 13 16
REMARK H PARENT 15 15 13 17
REMARK Flexibility Score: inf
ROOT
ATOM      1  C   UNL     1      21.695 175.031 215.780  1.00  0.00     0.165 A 
ATOM      2  C   UNL     1      21.560 173.736 215.242  1.00  0.00     0.204 A 
ATOM      3  C   UNL     1      20.396 173.378 214.538  1.00  0.00     0.205 A 
ATOM      4  C   UNL     1      19.365 174.310 214.371  1.00  0.00     0.184 A 
ATOM      5  C   UNL     1      19.496 175.608 214.908  1.00  0.00     0.025 A 
ATOM      6  C   UNL     1      20.655 175.964 215.608  1.00  0.00     0.062 A 
ATOM      7  C   UNL     1      18.448 176.516 214.723  1.00  0.00     0.020 A 
ATOM      8  C   UNL     1      17.312 176.117 214.019  1.00  0.00     0.094 A 
ATOM      9  C   UNL     1      17.251 174.815 213.515  1.00  0.00     0.336 A 
ATOM     10  O   UNL     1      16.235 174.434 212.875  1.00  0.00    -0.246 OA
ATOM     11  O   UNL     1      18.263 173.972 213.705  1.00  0.00    -0.419 OA
ENDROOT
BRANCH   1  12
ATOM     12  O   UNL     1      22.872 175.354 216.476  1.00  0.00    -0.493 OA
ATOM     13  C   UNL     1      22.936 175.631 217.872  1.00  0.00     0.278 C 
ENDBRANCH   1  12
BRANCH   2  14
ATOM     14  O   UNL     1      22.579 172.794 215.400  1.00  0.00    -0.502 OA
ATOM     15  H   UNL     1      23.547 173.000 215.186  1.00  0.00     0.293 HD
ENDBRANCH   2  14
BRANCH   3  16
ATOM     16  O   UNL     1      20.248 172.099 214.000  1.00  0.00    -0.502 OA
ATOM     17  H   UNL     1      20.151 171.276 214.583  1.00  0.00     0.293 HD
ENDBRANCH   3  16
TORSDOF 3
ENDMDL
MODEL 7
REMARK VINA RESULT:    -5.050      1.923      3.140
REMARK INTER + INTRA:          -5.705
REMARK INTER:                  -5.646
REMARK INTRA:                  -0.059
REMARK UNBOUND:                -0.064
REMARK SMILES COc1cc2ccc(=O)oc2c(O)c1O
REMARK SMILES IDX 3 1 14 2 12 3 11 4 5 5 4 6 6 7 7 8 8 9 9 10 10 11 2 12 1 13
REMARK SMILES IDX 15 14 13 16
REMARK H PARENT 15 15 13 17
REMARK Flexibility Score: inf
ROOT
ATOM      1  C   UNL     1      21.585 173.214 216.313  1.00  0.00     0.165 A 
ATOM      2  C   UNL     1      21.917 174.540 216.654  1.00  0.00     0.204 A 
ATOM      3  C   UNL     1      21.087 175.603 216.258  1.00  0.00     0.205 A 
ATOM      4  C   UNL     1      19.925 175.347 215.521  1.00  0.00     0.184 A 
ATOM      5  C   UNL     1      19.588 174.021 215.177  1.00  0.00     0.025 A 
ATOM      6  C   UNL     1      20.415 172.962 215.572  1.00  0.00     0.062 A 
ATOM      7  C   UNL     1      18.420 173.798 214.439  1.00  0.00     0.020 A 
ATOM      8  C   UNL     1      17.628 174.884 214.068  1.00  0.00     0.094 A 
ATOM      9  C   UNL     1      18.023 176.171 214.443  1.00  0.00     0.336 A 
ATOM     10  O   UNL     1      17.321 177.165 214.119  1.00  0.00    -0.246 OA
ATOM     11  O   UNL     1      19.139 176.354 215.145  1.00  0.00    -0.419 OA
ENDROOT
BRANCH   1  12
ATOM     12  O   UNL     1      22.437 172.176 216.726  1.00  0.00    -0.493 OA
ATOM     13  C   UNL     1      23.512 171.655 215.951  1.00  0.00     0.278 C 
ENDBRANCH   1  12
BRANCH   2  14
ATOM     14  O   UNL     1      23.072 174.813 217.389  1.00  0.00    -0.502 OA
ATOM     15  H   UNL     1      23.560 175.698 217.325  1.00  0.00     0.293 HD
ENDBRANCH   2  14
BRANCH   3  16
ATOM     16  O   UNL     1      21.403 176.922 216.588  1.00  0.00    -0.502 OA
ATOM     17  H   UNL     1      20.720 177.560 216.976  1.00  0.00     0.293 HD
ENDBRANCH   3  16
TORSDOF 3
ENDMDL
MODEL 8
REMARK VINA RESULT:    -5.045      2.642      3.512
REMARK INTER + INTRA:          -5.699
REMARK INTER:                  -5.635
REMARK INTRA:                  -0.064
REMARK UNBOUND:                -0.064
REMARK SMILES COc1cc2ccc(=O)oc2c(O)c1O
REMARK SMILES IDX 3 1 14 2 12 3 11 4 5 5 4 6 6 7 7 8 8 9 9 10 10 11 2 12 1 13
REMARK SMILES IDX 15 14 13 16
REMARK H PARENT 15 15 13 17
REMARK Flexibility Score: inf
ROOT
ATOM      1  C   UNL     1      24.364 174.685 216.322  1.00  0.00     0.165 A 
ATOM      2  C   UNL     1      24.160 174.389 217.685  1.00  0.00     0.204 A 
ATOM      3  C   UNL     1      23.143 173.498 218.072  1.00  0.00     0.205 A 
ATOM      4  C   UNL     1      22.329 172.901 217.103  1.00  0.00     0.184 A 
ATOM      5  C   UNL     1      22.530 173.194 215.738  1.00  0.00     0.025 A 
ATOM      6  C   UNL     1      23.542 174.081 215.352  1.00  0.00     0.062 A 
ATOM      7  C   UNL     1      21.698 172.580 214.794  1.00  0.00     0.020 A 
ATOM      8  C   UNL     1      20.704 171.704 215.225  1.00  0.00     0.094 A 
ATOM      9  C   UNL     1      20.562 171.460 216.594  1.00  0.00     0.336 A 
ATOM     10  O   UNL     1      19.670 170.671 217.004  1.00  0.00    -0.246 OA
ATOM     11  O   UNL     1      21.366 172.057 217.470  1.00  0.00    -0.419 OA
ENDROOT
BRANCH   1  12
ATOM     12  O   UNL     1      25.389 175.579 215.971  1.00  0.00    -0.493 OA
ATOM     13  C   UNL     1      25.182 176.839 215.340  1.00  0.00     0.278 C 
ENDBRANCH   1  12
BRANCH   2  14
ATOM     14  O   UNL     1      24.963 174.976 218.664  1.00  0.00    -0.502 OA
ATOM     15  H   UNL     1      25.964 175.084 218.553  1.00  0.00     0.293 HD
ENDBRANCH   2  14
BRANCH   3  16
ATOM     16  O   UNL     1      22.929 173.196 219.418  1.00  0.00    -0.502 OA
ATOM     17  H   UNL     1      23.150 172.288 219.809  1.00  0.00     0.293 HD
ENDBRANCH   3  16
TORSDOF 3
ENDMDL
MODEL 9
REMARK VINA RESULT:    -5.020      2.066      4.886
REMARK INTER + INTRA:          -5.671
REMARK INTER:                  -5.607
REMARK INTRA:                  -0.064
REMARK UNBOUND:                -0.064
REMARK SMILES COc1cc2ccc(=O)oc2c(O)c1O
REMARK SMILES IDX 3 1 14 2 12 3 11 4 5 5 4 6 6 7 7 8 8 9 9 10 10 11 2 12 1 13
REMARK SMILES IDX 15 14 13 16
REMARK H PARENT 15 15 13 17
REMARK Flexibility Score: inf
ROOT
ATOM      1  C   UNL     1      21.252 171.980 215.455  1.00  0.00     0.165 A 
ATOM      2  C   UNL     1      20.822 172.894 214.473  1.00  0.00     0.204 A 
ATOM      3  C   UNL     1      21.702 173.877 213.985  1.00  0.00     0.205 A 
ATOM      4  C   UNL     1      23.011 173.950 214.476  1.00  0.00     0.184 A 
ATOM      5  C   UNL     1      23.446 173.036 215.459  1.00  0.00     0.025 A 
ATOM      6  C   UNL     1      22.570 172.058 215.944  1.00  0.00     0.062 A 
ATOM      7  C   UNL     1      24.761 173.136 215.928  1.00  0.00     0.020 A 
ATOM      8  C   UNL     1      25.597 174.127 215.416  1.00  0.00     0.094 A 
ATOM      9  C   UNL     1      25.099 174.998 214.442  1.00  0.00     0.336 A 
ATOM     10  O   UNL     1      25.838 175.899 213.966  1.00  0.00    -0.246 OA
ATOM     11  O   UNL     1      23.845 174.880 214.014  1.00  0.00    -0.419 OA
ENDROOT
BRANCH   1  12
ATOM     12  O   UNL     1      20.347 171.011 215.919  1.00  0.00    -0.493 OA
ATOM     13  C   UNL     1      19.871 170.924 217.259  1.00  0.00     0.278 C 
ENDBRANCH   1  12
BRANCH   2  14
ATOM     14  O   UNL     1      19.520 172.835 213.973  1.00  0.00    -0.502 OA
ATOM     15  H   UNL     1      18.708 172.802 214.577  1.00  0.00     0.293 HD
ENDBRANCH   2  14
BRANCH   3  16
ATOM     16  O   UNL     1      21.290 174.790 213.013  1.00  0.00    -0.502 OA
ATOM     17  H   UNL     1      20.372 175.215 213.028  1.00  0.00     0.293 HD
ENDBRANCH   3  16
TORSDOF 3
ENDMDL
