MODEL 1
REMARK VINA RESULT:    -5.128      0.000      0.000
REMARK INTER + INTRA:          -7.749
REMARK INTER:                  -6.927
REMARK INTRA:                  -0.823
REMARK UNBOUND:                -0.823
REMARK SMILES O=c1c(-c2ccc(O)cc2)coc2c([C@H]3O[C@H](CO)[C@@H](O)[C@@H](O)[C@@H]3O)c(O)ccc12
REMARK SMILES IDX 3 1 11 2 12 3 13 4 30 5 2 6 1 7 29 8 28 9 26 10 14 11 4 12
REMARK SMILES IDX 5 13 6 14 7 15 10 16 9 17 8 18 15 20 24 21 16 22 22 23 17 24
REMARK SMILES IDX 20 25 25 26 23 28 18 30 19 31 21 33 27 35
REMARK H PARENT 8 19 25 27 23 29 19 32 21 34 27 36
REMARK Flexibility Score: inf
ROOT
ATOM      1  C   UNL     1      -3.069  -5.130 -28.181  1.00  0.00     0.065 A 
ATOM      2  C   UNL     1      -1.888  -5.682 -27.665  1.00  0.00     0.208 A 
ATOM      3  O   UNL     1      -1.685  -5.751 -26.355  1.00  0.00    -0.463 OA
ATOM      4  C   UNL     1      -2.562  -5.314 -25.454  1.00  0.00     0.147 A 
ATOM      5  C   UNL     1      -3.781  -4.742 -25.890  1.00  0.00     0.066 A 
ATOM      6  C   UNL     1      -4.033  -4.662 -27.272  1.00  0.00     0.200 A 
ATOM      7  O   UNL     1      -5.125  -4.189 -27.692  1.00  0.00    -0.288 OA
ATOM      8  C   UNL     1      -4.702  -4.275 -24.945  1.00  0.00     0.020 A 
ATOM      9  C   UNL     1      -4.409  -4.346 -23.586  1.00  0.00     0.047 A 
ATOM     10  C   UNL     1      -3.203  -4.890 -23.135  1.00  0.00     0.125 A 
ATOM     11  C   UNL     1      -2.272  -5.424 -24.069  1.00  0.00     0.069 A 
ENDROOT
BRANCH   1  12
ATOM     12  C   UNL     1      -3.272  -5.060 -29.650  1.00  0.00    -0.011 A 
ATOM     13  C   UNL     1      -3.444  -3.819 -30.291  1.00  0.00     0.013 A 
ATOM     14  C   UNL     1      -3.625  -3.758 -31.676  1.00  0.00     0.047 A 
ATOM     15  C   UNL     1      -3.632  -4.933 -32.438  1.00  0.00     0.115 A 
ATOM     16  C   UNL     1      -3.272  -6.234 -30.424  1.00  0.00     0.013 A 
ATOM     17  C   UNL     1      -3.454  -6.169 -31.809  1.00  0.00     0.047 A 
BRANCH  15  18
ATOM     18  O   UNL     1      -3.812  -4.884 -33.819  1.00  0.00    -0.508 OA
ATOM     19  H   UNL     1      -3.562  -4.062 -34.356  1.00  0.00     0.293 HD
ENDBRANCH  15  18
ENDBRANCH   1  12
BRANCH  11  20
ATOM     20  C   UNL     1      -0.964  -6.079 -23.627  1.00  0.00     0.188 C 
ATOM     21  C   UNL     1      -1.267  -7.392 -22.865  1.00  0.00     0.179 C 
ATOM     22  O   UNL     1      -0.241  -5.160 -22.818  1.00  0.00    -0.362 OA
ATOM     23  C   UNL     1       0.038  -8.022 -22.345  1.00  0.00     0.177 C 
ATOM     24  C   UNL     1       1.005  -5.672 -22.359  1.00  0.00     0.176 C 
ATOM     25  C   UNL     1       0.839  -6.979 -21.548  1.00  0.00     0.177 C 
BRANCH  21  26
ATOM     26  O   UNL     1      -1.969  -8.299 -23.680  1.00  0.00    -0.387 OA
ATOM     27  H   UNL     1      -2.383  -8.979 -23.088  1.00  0.00     0.211 HD
ENDBRANCH  21  26
BRANCH  23  28
ATOM     28  O   UNL     1      -0.248  -9.125 -21.523  1.00  0.00    -0.387 OA
ATOM     29  H   UNL     1      -0.625  -9.833 -22.108  1.00  0.00     0.211 HD
ENDBRANCH  23  28
BRANCH  24  30
ATOM     30  C   UNL     1       2.055  -5.764 -23.489  1.00  0.00     0.191 C 
BRANCH  30  31
ATOM     31  O   UNL     1       3.291  -6.192 -22.981  1.00  0.00    -0.394 OA
ATOM     32  H   UNL     1       3.993  -5.716 -23.498  1.00  0.00     0.210 HD
ENDBRANCH  30  31
ENDBRANCH  24  30
BRANCH  25  33
ATOM     33  O   UNL     1       0.177  -6.679 -20.344  1.00  0.00    -0.388 OA
ATOM     34  H   UNL     1      -0.759  -6.442 -20.576  1.00  0.00     0.211 HD
ENDBRANCH  25  33
ENDBRANCH  11  20
BRANCH  10  35
ATOM     35  O   UNL     1      -2.978  -4.860 -21.755  1.00  0.00    -0.507 OA
ATOM     36  H   UNL     1      -3.404  -4.209 -21.113  1.00  0.00     0.293 HD
ENDBRANCH  10  35
TORSDOF 9
ENDMDL
MODEL 2
REMARK VINA RESULT:    -4.833      1.120      2.231
REMARK INTER + INTRA:          -7.352
REMARK INTER:                  -7.038
REMARK INTRA:                  -0.314
REMARK UNBOUND:                -0.823
REMARK SMILES O=c1c(-c2ccc(O)cc2)coc2c([C@H]3O[C@H](CO)[C@@H](O)[C@@H](O)[C@@H]3O)c(O)ccc12
REMARK SMILES IDX 3 1 11 2 12 3 13 4 30 5 2 6 1 7 29 8 28 9 26 10 14 11 4 12
REMARK SMILES IDX 5 13 6 14 7 15 10 16 9 17 8 18 15 20 24 21 16 22 22 23 17 24
REMARK SMILES IDX 20 25 25 26 23 28 18 30 19 31 21 33 27 35
REMARK H PARENT 8 19 25 27 23 29 19 32 21 34 27 36
REMARK Flexibility Score: inf
ROOT
ATOM      1  C   UNL     1      -2.891  -5.616 -27.496  1.00  0.00     0.065 A 
ATOM      2  C   UNL     1      -1.769  -6.224 -26.916  1.00  0.00     0.208 A 
ATOM      3  O   UNL     1      -1.592  -6.210 -25.601  1.00  0.00    -0.463 OA
ATOM      4  C   UNL     1      -2.442  -5.635 -24.753  1.00  0.00     0.147 A 
ATOM      5  C   UNL     1      -3.600  -4.997 -25.256  1.00  0.00     0.066 A 
ATOM      6  C   UNL     1      -3.825  -5.001 -26.645  1.00  0.00     0.200 A 
ATOM      7  O   UNL     1      -4.866  -4.471 -27.122  1.00  0.00    -0.288 OA
ATOM      8  C   UNL     1      -4.493  -4.384 -24.368  1.00  0.00     0.020 A 
ATOM      9  C   UNL     1      -4.226  -4.376 -23.002  1.00  0.00     0.047 A 
ATOM     10  C   UNL     1      -3.078  -4.984 -22.486  1.00  0.00     0.125 A 
ATOM     11  C   UNL     1      -2.182  -5.664 -23.358  1.00  0.00     0.069 A 
ENDROOT
BRANCH   1  12
ATOM     12  C   UNL     1      -3.066  -5.640 -28.971  1.00  0.00    -0.011 A 
ATOM     13  C   UNL     1      -3.031  -4.447 -29.716  1.00  0.00     0.013 A 
ATOM     14  C   UNL     1      -3.187  -4.476 -31.106  1.00  0.00     0.047 A 
ATOM     15  C   UNL     1      -3.374  -5.696 -31.767  1.00  0.00     0.115 A 
ATOM     16  C   UNL     1      -3.245  -6.861 -29.645  1.00  0.00     0.013 A 
ATOM     17  C   UNL     1      -3.401  -6.887 -31.034  1.00  0.00     0.047 A 
BRANCH  15  18
ATOM     18  O   UNL     1      -3.529  -5.738 -33.151  1.00  0.00    -0.508 OA
ATOM     19  H   UNL     1      -4.388  -6.068 -33.577  1.00  0.00     0.293 HD
ENDBRANCH  15  18
ENDBRANCH   1  12
BRANCH  11  20
ATOM     20  C   UNL     1      -0.942  -6.391 -22.842  1.00  0.00     0.188 C 
ATOM     21  C   UNL     1       0.332  -5.746 -23.441  1.00  0.00     0.179 C 
ATOM     22  O   UNL     1      -1.041  -7.768 -23.185  1.00  0.00    -0.362 OA
ATOM     23  C   UNL     1       1.585  -6.519 -22.992  1.00  0.00     0.177 C 
ATOM     24  C   UNL     1       0.066  -8.541 -22.739  1.00  0.00     0.176 C 
ATOM     25  C   UNL     1       1.411  -8.017 -23.296  1.00  0.00     0.177 C 
BRANCH  21  26
ATOM     26  O   UNL     1       0.427  -4.389 -23.083  1.00  0.00    -0.387 OA
ATOM     27  H   UNL     1       1.212  -4.007 -23.554  1.00  0.00     0.211 HD
ENDBRANCH  21  26
BRANCH  23  28
ATOM     28  O   UNL     1       2.722  -6.032 -23.658  1.00  0.00    -0.387 OA
ATOM     29  H   UNL     1       2.399  -5.513 -24.440  1.00  0.00     0.211 HD
ENDBRANCH  23  28
BRANCH  24  30
ATOM     30  C   UNL     1       0.061  -8.749 -21.208  1.00  0.00     0.191 C 
BRANCH  30  31
ATOM     31  O   UNL     1       1.334  -9.125 -20.755  1.00  0.00    -0.394 OA
ATOM     32  H   UNL     1       1.282 -10.090 -20.525  1.00  0.00     0.210 HD
ENDBRANCH  30  31
ENDBRANCH  24  30
BRANCH  25  33
ATOM     33  O   UNL     1       1.435  -8.232 -24.686  1.00  0.00    -0.388 OA
ATOM     34  H   UNL     1       1.659  -9.189 -24.830  1.00  0.00     0.211 HD
ENDBRANCH  25  33
ENDBRANCH  11  20
BRANCH  10  35
ATOM     35  O   UNL     1      -2.872  -4.869 -21.108  1.00  0.00    -0.507 OA
ATOM     36  H   UNL     1      -3.600  -4.733 -20.423  1.00  0.00     0.293 HD
ENDBRANCH  10  35
TORSDOF 9
ENDMDL
MODEL 3
REMARK VINA RESULT:    -4.485      1.838      2.140
REMARK INTER + INTRA:          -6.880
REMARK INTER:                  -6.393
REMARK INTRA:                  -0.487
REMARK UNBOUND:                -0.823
REMARK SMILES O=c1c(-c2ccc(O)cc2)coc2c([C@H]3O[C@H](CO)[C@@H](O)[C@@H](O)[C@@H]3O)c(O)ccc12
REMARK SMILES IDX 3 1 11 2 12 3 13 4 30 5 2 6 1 7 29 8 28 9 26 10 14 11 4 12
REMARK SMILES IDX 5 13 6 14 7 15 10 16 9 17 8 18 15 20 24 21 16 22 22 23 17 24
REMARK SMILES IDX 20 25 25 26 23 28 18 30 19 31 21 33 27 35
REMARK H PARENT 8 19 25 27 23 29 19 32 21 34 27 36
REMARK Flexibility Score: inf
ROOT
ATOM      1  C   UNL     1      -3.091  -5.421 -28.957  1.00  0.00     0.065 A 
ATOM      2  C   UNL     1      -1.890  -5.200 -28.269  1.00  0.00     0.208 A 
ATOM      3  O   UNL     1      -1.667  -5.771 -27.091  1.00  0.00    -0.463 OA
ATOM      4  C   UNL     1      -2.540  -6.576 -26.490  1.00  0.00     0.147 A 
ATOM      5  C   UNL     1      -3.778  -6.851 -27.117  1.00  0.00     0.066 A 
ATOM      6  C   UNL     1      -4.044  -6.270 -28.370  1.00  0.00     0.200 A 
ATOM      7  O   UNL     1      -5.125  -6.523 -28.972  1.00  0.00    -0.288 OA
ATOM      8  C   UNL     1      -4.702  -7.691 -26.483  1.00  0.00     0.020 A 
ATOM      9  C   UNL     1      -4.417  -8.228 -25.231  1.00  0.00     0.047 A 
ATOM     10  C   UNL     1      -3.208  -7.954 -24.586  1.00  0.00     0.125 A 
ATOM     11  C   UNL     1      -2.226  -7.149 -25.230  1.00  0.00     0.069 A 
ENDROOT
BRANCH   1  12
ATOM     12  C   UNL     1      -3.321  -4.768 -30.271  1.00  0.00    -0.011 A 
ATOM     13  C   UNL     1      -3.438  -3.369 -30.366  1.00  0.00     0.013 A 
ATOM     14  C   UNL     1      -3.645  -2.758 -31.606  1.00  0.00     0.047 A 
ATOM     15  C   UNL     1      -3.732  -3.536 -32.767  1.00  0.00     0.115 A 
ATOM     16  C   UNL     1      -3.402  -5.540 -31.444  1.00  0.00     0.013 A 
ATOM     17  C   UNL     1      -3.609  -4.926 -32.683  1.00  0.00     0.047 A 
BRANCH  15  18
ATOM     18  O   UNL     1      -3.938  -2.939 -34.009  1.00  0.00    -0.508 OA
ATOM     19  H   UNL     1      -3.242  -2.331 -34.426  1.00  0.00     0.293 HD
ENDBRANCH  15  18
ENDBRANCH   1  12
BRANCH  11  20
ATOM     20  C   UNL     1      -0.867  -6.863 -24.594  1.00  0.00     0.188 C 
ATOM     21  C   UNL     1      -0.047  -8.173 -24.497  1.00  0.00     0.179 C 
ATOM     22  O   UNL     1      -1.073  -6.279 -23.313  1.00  0.00    -0.362 OA
ATOM     23  C   UNL     1       1.294  -7.913 -23.786  1.00  0.00     0.177 C 
ATOM     24  C   UNL     1       0.138  -5.963 -22.636  1.00  0.00     0.176 C 
ATOM     25  C   UNL     1       1.043  -7.203 -22.445  1.00  0.00     0.177 C 
BRANCH  21  26
ATOM     26  O   UNL     1       0.164  -8.732 -25.770  1.00  0.00    -0.387 OA
ATOM     27  H   UNL     1       1.103  -8.545 -26.030  1.00  0.00     0.211 HD
ENDBRANCH  21  26
BRANCH  23  28
ATOM     28  O   UNL     1       1.967  -9.125 -23.558  1.00  0.00    -0.387 OA
ATOM     29  H   UNL     1       2.149  -9.177 -22.584  1.00  0.00     0.211 HD
ENDBRANCH  23  28
BRANCH  24  30
ATOM     30  C   UNL     1       0.861  -4.749 -23.260  1.00  0.00     0.191 C 
BRANCH  30  31
ATOM     31  O   UNL     1       2.102  -5.131 -23.791  1.00  0.00    -0.394 OA
ATOM     32  H   UNL     1       2.797  -4.760 -23.187  1.00  0.00     0.210 HD
ENDBRANCH  30  31
ENDBRANCH  24  30
BRANCH  25  33
ATOM     33  O   UNL     1       0.416  -8.082 -21.543  1.00  0.00    -0.388 OA
ATOM     34  H   UNL     1       0.246  -8.929 -22.031  1.00  0.00     0.211 HD
ENDBRANCH  25  33
ENDBRANCH  11  20
BRANCH  10  35
ATOM     35  O   UNL     1      -3.043  -8.492 -23.306  1.00  0.00    -0.507 OA
ATOM     36  H   UNL     1      -2.226  -8.368 -22.728  1.00  0.00     0.293 HD
ENDBRANCH  10  35
TORSDOF 9
ENDMDL
MODEL 4
REMARK VINA RESULT:    -4.254      2.230      8.287
REMARK INTER + INTRA:          -6.569
REMARK INTER:                  -5.688
REMARK INTRA:                  -0.881
REMARK UNBOUND:                -0.823
REMARK SMILES O=c1c(-c2ccc(O)cc2)coc2c([C@H]3O[C@H](CO)[C@@H](O)[C@@H](O)[C@@H]3O)c(O)ccc12
REMARK SMILES IDX 3 1 11 2 12 3 13 4 30 5 2 6 1 7 29 8 28 9 26 10 14 11 4 12
REMARK SMILES IDX 5 13 6 14 7 15 10 16 9 17 8 18 15 20 24 21 16 22 22 23 17 24
REMARK SMILES IDX 20 25 25 26 23 28 18 30 19 31 21 33 27 35
REMARK H PARENT 8 19 25 27 23 29 19 32 21 34 27 36
REMARK Flexibility Score: inf
ROOT
ATOM      1  C   UNL     1       0.573  -6.768 -23.104  1.00  0.00     0.065 A 
ATOM      2  C   UNL     1       0.431  -7.293 -24.395  1.00  0.00     0.208 A 
ATOM      3  O   UNL     1      -0.623  -6.987 -25.142  1.00  0.00    -0.463 OA
ATOM      4  C   UNL     1      -1.599  -6.178 -24.735  1.00  0.00     0.147 A 
ATOM      5  C   UNL     1      -1.533  -5.605 -23.443  1.00  0.00     0.066 A 
ATOM      6  C   UNL     1      -0.426  -5.901 -22.628  1.00  0.00     0.200 A 
ATOM      7  O   UNL     1      -0.321  -5.378 -21.484  1.00  0.00    -0.288 OA
ATOM      8  C   UNL     1      -2.563  -4.760 -23.009  1.00  0.00     0.020 A 
ATOM      9  C   UNL     1      -3.657  -4.509 -23.832  1.00  0.00     0.047 A 
ATOM     10  C   UNL     1      -3.750  -5.080 -25.103  1.00  0.00     0.125 A 
ATOM     11  C   UNL     1      -2.693  -5.898 -25.594  1.00  0.00     0.069 A 
ENDROOT
BRANCH   1  12
ATOM     12  C   UNL     1       1.758  -7.129 -22.284  1.00  0.00    -0.011 A 
ATOM     13  C   UNL     1       1.711  -8.219 -21.396  1.00  0.00     0.013 A 
ATOM     14  C   UNL     1       2.832  -8.560 -20.635  1.00  0.00     0.047 A 
ATOM     15  C   UNL     1       4.015  -7.821 -20.753  1.00  0.00     0.115 A 
ATOM     16  C   UNL     1       2.953  -6.397 -22.403  1.00  0.00     0.013 A 
ATOM     17  C   UNL     1       4.073  -6.740 -21.640  1.00  0.00     0.047 A 
BRANCH  15  18
ATOM     18  O   UNL     1       5.139  -8.152 -20.000  1.00  0.00    -0.508 OA
ATOM     19  H   UNL     1       5.533  -7.506 -19.325  1.00  0.00     0.293 HD
ENDBRANCH  15  18
ENDBRANCH   1  12
BRANCH  11  20
ATOM     20  C   UNL     1      -2.719  -6.502 -26.997  1.00  0.00     0.188 C 
ATOM     21  C   UNL     1      -2.581  -5.379 -28.054  1.00  0.00     0.179 C 
ATOM     22  O   UNL     1      -3.930  -7.229 -27.162  1.00  0.00    -0.362 OA
ATOM     23  C   UNL     1      -2.685  -5.966 -29.474  1.00  0.00     0.177 C 
ATOM     24  C   UNL     1      -4.050  -7.844 -28.439  1.00  0.00     0.176 C 
ATOM     25  C   UNL     1      -3.959  -6.818 -29.594  1.00  0.00     0.177 C 
BRANCH  21  26
ATOM     26  O   UNL     1      -1.373  -4.678 -27.892  1.00  0.00    -0.387 OA
ATOM     27  H   UNL     1      -1.486  -3.782 -28.304  1.00  0.00     0.211 HD
ENDBRANCH  21  26
BRANCH  23  28
ATOM     28  O   UNL     1      -2.717  -4.934 -30.426  1.00  0.00    -0.387 OA
ATOM     29  H   UNL     1      -1.875  -4.418 -30.323  1.00  0.00     0.211 HD
ENDBRANCH  23  28
BRANCH  24  30
ATOM     30  C   UNL     1      -3.104  -9.055 -28.601  1.00  0.00     0.191 C 
BRANCH  30  31
ATOM     31  O   UNL     1      -2.532  -9.069 -29.882  1.00  0.00    -0.394 OA
ATOM     32  H   UNL     1      -3.223  -9.427 -30.499  1.00  0.00     0.210 HD
ENDBRANCH  30  31
ENDBRANCH  24  30
BRANCH  25  33
ATOM     33  O   UNL     1      -5.098  -5.993 -29.551  1.00  0.00    -0.388 OA
ATOM     34  H   UNL     1      -5.374  -5.826 -30.489  1.00  0.00     0.211 HD
ENDBRANCH  25  33
ENDBRANCH  11  20
BRANCH  10  35
ATOM     35  O   UNL     1      -4.917  -4.814 -25.827  1.00  0.00    -0.507 OA
ATOM     36  H   UNL     1      -5.646  -4.181 -25.537  1.00  0.00     0.293 HD
ENDBRANCH  10  35
TORSDOF 9
ENDMDL
MODEL 5
REMARK VINA RESULT:    -4.169      2.056      3.250
REMARK INTER + INTRA:          -6.454
REMARK INTER:                  -5.527
REMARK INTRA:                  -0.926
REMARK UNBOUND:                -0.823
REMARK SMILES O=c1c(-c2ccc(O)cc2)coc2c([C@H]3O[C@H](CO)[C@@H](O)[C@@H](O)[C@@H]3O)c(O)ccc12
REMARK SMILES IDX 3 1 11 2 12 3 13 4 30 5 2 6 1 7 29 8 28 9 26 10 14 11 4 12
REMARK SMILES IDX 5 13 6 14 7 15 10 16 9 17 8 18 15 20 24 21 16 22 22 23 17 24
REMARK SMILES IDX 20 25 25 26 23 28 18 30 19 31 21 33 27 35
REMARK H PARENT 8 19 25 27 23 29 19 32 21 34 27 36
REMARK Flexibility Score: inf
ROOT
ATOM      1  C   UNL     1      -2.602  -6.009 -26.178  1.00  0.00     0.065 A 
ATOM      2  C   UNL     1      -1.385  -5.580 -25.632  1.00  0.00     0.208 A 
ATOM      3  O   UNL     1      -0.912  -6.121 -24.515  1.00  0.00    -0.463 OA
ATOM      4  C   UNL     1      -1.538  -7.086 -23.847  1.00  0.00     0.147 A 
ATOM      5  C   UNL     1      -2.775  -7.576 -24.329  1.00  0.00     0.066 A 
ATOM      6  C   UNL     1      -3.301  -7.032 -25.514  1.00  0.00     0.200 A 
ATOM      7  O   UNL     1      -4.385  -7.471 -25.990  1.00  0.00    -0.288 OA
ATOM      8  C   UNL     1      -3.441  -8.585 -23.622  1.00  0.00     0.020 A 
ATOM      9  C   UNL     1      -2.905  -9.083 -22.438  1.00  0.00     0.047 A 
ATOM     10  C   UNL     1      -1.694  -8.599 -21.935  1.00  0.00     0.125 A 
ATOM     11  C   UNL     1      -0.967  -7.613 -22.659  1.00  0.00     0.069 A 
ENDROOT
BRANCH   1  12
ATOM     12  C   UNL     1      -3.114  -5.386 -27.425  1.00  0.00    -0.011 A 
ATOM     13  C   UNL     1      -4.357  -4.727 -27.440  1.00  0.00     0.013 A 
ATOM     14  C   UNL     1      -4.829  -4.133 -28.614  1.00  0.00     0.047 A 
ATOM     15  C   UNL     1      -4.066  -4.187 -29.787  1.00  0.00     0.115 A 
ATOM     16  C   UNL     1      -2.350  -5.428 -28.605  1.00  0.00     0.013 A 
ATOM     17  C   UNL     1      -2.825  -4.834 -29.778  1.00  0.00     0.047 A 
BRANCH  15  18
ATOM     18  O   UNL     1      -4.526  -3.600 -30.963  1.00  0.00    -0.508 OA
ATOM     19  H   UNL     1      -3.884  -3.245 -31.663  1.00  0.00     0.293 HD
ENDBRANCH  15  18
ENDBRANCH   1  12
BRANCH  11  20
ATOM     20  C   UNL     1       0.387  -7.090 -22.183  1.00  0.00     0.188 C 
ATOM     21  C   UNL     1       1.515  -8.030 -22.674  1.00  0.00     0.179 C 
ATOM     22  O   UNL     1       0.368  -6.993 -20.764  1.00  0.00    -0.362 OA
ATOM     23  C   UNL     1       2.877  -7.558 -22.134  1.00  0.00     0.177 C 
ATOM     24  C   UNL     1       1.586  -6.503 -20.216  1.00  0.00     0.176 C 
ATOM     25  C   UNL     1       2.800  -7.378 -20.608  1.00  0.00     0.177 C 
BRANCH  21  26
ATOM     26  O   UNL     1       1.534  -8.106 -24.078  1.00  0.00    -0.387 OA
ATOM     27  H   UNL     1       0.808  -8.721 -24.357  1.00  0.00     0.211 HD
ENDBRANCH  21  26
BRANCH  23  28
ATOM     28  O   UNL     1       3.876  -8.495 -22.447  1.00  0.00    -0.387 OA
ATOM     29  H   UNL     1       4.732  -7.995 -22.513  1.00  0.00     0.211 HD
ENDBRANCH  23  28
BRANCH  24  30
ATOM     30  C   UNL     1       1.787  -4.995 -20.485  1.00  0.00     0.191 C 
BRANCH  30  31
ATOM     31  O   UNL     1       0.865  -4.234 -19.751  1.00  0.00    -0.394 OA
ATOM     32  H   UNL     1       0.119  -4.016 -20.369  1.00  0.00     0.210 HD
ENDBRANCH  30  31
ENDBRANCH  24  30
BRANCH  25  33
ATOM     33  O   UNL     1       2.671  -8.630 -19.981  1.00  0.00    -0.388 OA
ATOM     34  H   UNL     1       3.587  -8.998 -19.871  1.00  0.00     0.211 HD
ENDBRANCH  25  33
ENDBRANCH  11  20
BRANCH  10  35
ATOM     35  O   UNL     1      -1.271  -9.121 -20.708  1.00  0.00    -0.507 OA
ATOM     36  H   UNL     1      -1.748  -8.991 -19.829  1.00  0.00     0.293 HD
ENDBRANCH  10  35
TORSDOF 9
ENDMDL
MODEL 6
REMARK VINA RESULT:    -4.144      8.763     13.926
REMARK INTER + INTRA:          -6.421
REMARK INTER:                  -5.363
REMARK INTRA:                  -1.057
REMARK UNBOUND:                -0.823
REMARK SMILES O=c1c(-c2ccc(O)cc2)coc2c([C@H]3O[C@H](CO)[C@@H](O)[C@@H](O)[C@@H]3O)c(O)ccc12
REMARK SMILES IDX 3 1 11 2 12 3 13 4 30 5 2 6 1 7 29 8 28 9 26 10 14 11 4 12
REMARK SMILES IDX 5 13 6 14 7 15 10 16 9 17 8 18 15 20 24 21 16 22 22 23 17 24
REMARK SMILES IDX 20 25 25 26 23 28 18 30 19 31 21 33 27 35
REMARK H PARENT 8 19 25 27 23 29 19 32 21 34 27 36
REMARK Flexibility Score: inf
ROOT
ATOM      1  C   UNL     1       6.603  -5.503 -19.749  1.00  0.00     0.065 A 
ATOM      2  C   UNL     1       7.135  -4.208 -19.702  1.00  0.00     0.208 A 
ATOM      3  O   UNL     1       8.446  -4.012 -19.635  1.00  0.00    -0.463 OA
ATOM      4  C   UNL     1       9.334  -5.004 -19.610  1.00  0.00     0.147 A 
ATOM      5  C   UNL     1       8.881  -6.344 -19.654  1.00  0.00     0.066 A 
ATOM      6  C   UNL     1       7.498  -6.587 -19.734  1.00  0.00     0.200 A 
ATOM      7  O   UNL     1       7.064  -7.770 -19.809  1.00  0.00    -0.288 OA
ATOM      8  C   UNL     1       9.812  -7.390 -19.620  1.00  0.00     0.020 A 
ATOM      9  C   UNL     1      11.172  -7.113 -19.514  1.00  0.00     0.047 A 
ATOM     10  C   UNL     1      11.639  -5.798 -19.450  1.00  0.00     0.125 A 
ATOM     11  C   UNL     1      10.722  -4.713 -19.539  1.00  0.00     0.069 A 
ENDROOT
BRANCH   1  12
ATOM     12  C   UNL     1       5.132  -5.697 -19.818  1.00  0.00    -0.011 A 
ATOM     13  C   UNL     1       4.369  -5.816 -18.643  1.00  0.00     0.013 A 
ATOM     14  C   UNL     1       2.983  -5.989 -18.713  1.00  0.00     0.047 A 
ATOM     15  C   UNL     1       2.343  -6.041 -19.958  1.00  0.00     0.115 A 
ATOM     16  C   UNL     1       4.480  -5.743 -21.063  1.00  0.00     0.013 A 
ATOM     17  C   UNL     1       3.095  -5.916 -21.131  1.00  0.00     0.047 A 
BRANCH  15  18
ATOM     18  O   UNL     1       0.963  -6.212 -20.041  1.00  0.00    -0.508 OA
ATOM     19  H   UNL     1       0.553  -6.927 -20.632  1.00  0.00     0.293 HD
ENDBRANCH  15  18
ENDBRANCH   1  12
BRANCH  11  20
ATOM     20  C   UNL     1      11.182  -3.257 -19.530  1.00  0.00     0.188 C 
ATOM     21  C   UNL     1      11.946  -2.940 -20.839  1.00  0.00     0.179 C 
ATOM     22  O   UNL     1      11.997  -3.040 -18.384  1.00  0.00    -0.362 OA
ATOM     23  C   UNL     1      12.485  -1.499 -20.809  1.00  0.00     0.177 C 
ATOM     24  C   UNL     1      12.473  -1.704 -18.275  1.00  0.00     0.176 C 
ATOM     25  C   UNL     1      13.287  -1.269 -19.516  1.00  0.00     0.177 C 
BRANCH  21  26
ATOM     26  O   UNL     1      11.127  -3.143 -21.964  1.00  0.00    -0.387 OA
ATOM     27  H   UNL     1      10.233  -2.764 -21.758  1.00  0.00     0.211 HD
ENDBRANCH  21  26
BRANCH  23  28
ATOM     28  O   UNL     1      13.308  -1.263 -21.922  1.00  0.00    -0.387 OA
ATOM     29  H   UNL     1      14.217  -1.065 -21.574  1.00  0.00     0.211 HD
ENDBRANCH  23  28
BRANCH  24  30
ATOM     30  C   UNL     1      11.357  -0.712 -17.878  1.00  0.00     0.191 C 
BRANCH  30  31
ATOM     31  O   UNL     1      11.798   0.612 -18.023  1.00  0.00    -0.394 OA
ATOM     32  H   UNL     1      12.004   0.740 -18.986  1.00  0.00     0.210 HD
ENDBRANCH  30  31
ENDBRANCH  24  30
BRANCH  25  33
ATOM     33  O   UNL     1      14.482  -2.011 -19.552  1.00  0.00    -0.388 OA
ATOM     34  H   UNL     1      14.243  -2.937 -19.819  1.00  0.00     0.211 HD
ENDBRANCH  25  33
ENDBRANCH  11  20
BRANCH  10  35
ATOM     35  O   UNL     1      13.017  -5.627 -19.284  1.00  0.00    -0.507 OA
ATOM     36  H   UNL     1      13.447  -4.955 -18.668  1.00  0.00     0.293 HD
ENDBRANCH  10  35
TORSDOF 9
ENDMDL
MODEL 7
REMARK VINA RESULT:    -4.061      2.106      3.199
REMARK INTER + INTRA:          -6.308
REMARK INTER:                  -5.443
REMARK INTRA:                  -0.865
REMARK UNBOUND:                -0.823
REMARK SMILES O=c1c(-c2ccc(O)cc2)coc2c([C@H]3O[C@H](CO)[C@@H](O)[C@@H](O)[C@@H]3O)c(O)ccc12
REMARK SMILES IDX 3 1 11 2 12 3 13 4 30 5 2 6 1 7 29 8 28 9 26 10 14 11 4 12
REMARK SMILES IDX 5 13 6 14 7 15 10 16 9 17 8 18 15 20 24 21 16 22 22 23 17 24
REMARK SMILES IDX 20 25 25 26 23 28 18 30 19 31 21 33 27 35
REMARK H PARENT 8 19 25 27 23 29 19 32 21 34 27 36
REMARK Flexibility Score: inf
ROOT
ATOM      1  C   UNL     1      -1.857  -6.058 -25.446  1.00  0.00     0.065 A 
ATOM      2  C   UNL     1      -0.555  -6.392 -25.049  1.00  0.00     0.208 A 
ATOM      3  O   UNL     1      -0.214  -6.389 -23.766  1.00  0.00    -0.463 OA
ATOM      4  C   UNL     1      -1.058  -6.080 -22.785  1.00  0.00     0.147 A 
ATOM      5  C   UNL     1      -2.392  -5.730 -23.099  1.00  0.00     0.066 A 
ATOM      6  C   UNL     1      -2.791  -5.731 -24.448  1.00  0.00     0.200 A 
ATOM      7  O   UNL     1      -3.983  -5.457 -24.759  1.00  0.00    -0.288 OA
ATOM      8  C   UNL     1      -3.280  -5.396 -22.069  1.00  0.00     0.020 A 
ATOM      9  C   UNL     1      -2.845  -5.380 -20.747  1.00  0.00     0.047 A 
ATOM     10  C   UNL     1      -1.526  -5.703 -20.416  1.00  0.00     0.125 A 
ATOM     11  C   UNL     1      -0.616  -6.101 -21.436  1.00  0.00     0.069 A 
ENDROOT
BRANCH   1  12
ATOM     12  C   UNL     1      -2.215  -6.063 -26.888  1.00  0.00    -0.011 A 
ATOM     13  C   UNL     1      -1.837  -4.996 -27.724  1.00  0.00     0.013 A 
ATOM     14  C   UNL     1      -2.168  -5.010 -29.082  1.00  0.00     0.047 A 
ATOM     15  C   UNL     1      -2.876  -6.091 -29.623  1.00  0.00     0.115 A 
ATOM     16  C   UNL     1      -2.918  -7.148 -27.441  1.00  0.00     0.013 A 
ATOM     17  C   UNL     1      -3.248  -7.159 -28.800  1.00  0.00     0.047 A 
BRANCH  15  18
ATOM     18  O   UNL     1      -3.211  -6.117 -30.975  1.00  0.00    -0.508 OA
ATOM     19  H   UNL     1      -2.744  -5.518 -31.647  1.00  0.00     0.293 HD
ENDBRANCH  15  18
ENDBRANCH   1  12
BRANCH  11  20
ATOM     20  C   UNL     1       0.820  -6.518 -21.124  1.00  0.00     0.188 C 
ATOM     21  C   UNL     1       0.817  -7.739 -20.173  1.00  0.00     0.179 C 
ATOM     22  O   UNL     1       1.505  -5.411 -20.551  1.00  0.00    -0.362 OA
ATOM     23  C   UNL     1       2.258  -8.121 -19.787  1.00  0.00     0.177 C 
ATOM     24  C   UNL     1       2.863  -5.692 -20.230  1.00  0.00     0.176 C 
ATOM     25  C   UNL     1       3.000  -6.884 -19.253  1.00  0.00     0.177 C 
BRANCH  21  26
ATOM     26  O   UNL     1       0.151  -8.832 -20.756  1.00  0.00    -0.387 OA
ATOM     27  H   UNL     1       0.749  -9.216 -21.448  1.00  0.00     0.211 HD
ENDBRANCH  21  26
BRANCH  23  28
ATOM     28  O   UNL     1       2.249  -9.125 -18.805  1.00  0.00    -0.387 OA
ATOM     29  H   UNL     1       2.285  -9.996 -19.280  1.00  0.00     0.211 HD
ENDBRANCH  23  28
BRANCH  24  30
ATOM     30  C   UNL     1       3.752  -5.808 -21.488  1.00  0.00     0.191 C 
BRANCH  30  31
ATOM     31  O   UNL     1       5.105  -5.913 -21.129  1.00  0.00    -0.394 OA
ATOM     32  H   UNL     1       5.470  -4.990 -21.117  1.00  0.00     0.210 HD
ENDBRANCH  30  31
ENDBRANCH  24  30
BRANCH  25  33
ATOM     33  O   UNL     1       2.470  -6.504 -18.006  1.00  0.00    -0.388 OA
ATOM     34  H   UNL     1       2.024  -5.626 -18.133  1.00  0.00     0.211 HD
ENDBRANCH  25  33
ENDBRANCH  11  20
BRANCH  10  35
ATOM     35  O   UNL     1      -1.173  -5.599 -19.067  1.00  0.00    -0.507 OA
ATOM     36  H   UNL     1      -0.227  -5.576 -18.717  1.00  0.00     0.293 HD
ENDBRANCH  10  35
TORSDOF 9
ENDMDL
MODEL 8
REMARK VINA RESULT:    -4.003      4.779      9.570
REMARK INTER + INTRA:          -6.229
REMARK INTER:                  -5.804
REMARK INTRA:                  -0.426
REMARK UNBOUND:                -0.823
REMARK SMILES O=c1c(-c2ccc(O)cc2)coc2c([C@H]3O[C@H](CO)[C@@H](O)[C@@H](O)[C@@H]3O)c(O)ccc12
REMARK SMILES IDX 3 1 11 2 12 3 13 4 30 5 2 6 1 7 29 8 28 9 26 10 14 11 4 12
REMARK SMILES IDX 5 13 6 14 7 15 10 16 9 17 8 18 15 20 24 21 16 22 22 23 17 24
REMARK SMILES IDX 20 25 25 26 23 28 18 30 19 31 21 33 27 35
REMARK H PARENT 8 19 25 27 23 29 19 32 21 34 27 36
REMARK Flexibility Score: inf
ROOT
ATOM      1  C   UNL     1       3.718  -6.585 -21.001  1.00  0.00     0.065 A 
ATOM      2  C   UNL     1       2.429  -6.191 -20.616  1.00  0.00     0.208 A 
ATOM      3  O   UNL     1       1.368  -6.546 -21.331  1.00  0.00    -0.463 OA
ATOM      4  C   UNL     1       1.443  -7.284 -22.436  1.00  0.00     0.147 A 
ATOM      5  C   UNL     1       2.708  -7.723 -22.895  1.00  0.00     0.066 A 
ATOM      6  C   UNL     1       3.853  -7.373 -22.156  1.00  0.00     0.200 A 
ATOM      7  O   UNL     1       4.992  -7.778 -22.520  1.00  0.00    -0.288 OA
ATOM      8  C   UNL     1       2.791  -8.493 -24.062  1.00  0.00     0.020 A 
ATOM      9  C   UNL     1       1.640  -8.800 -24.782  1.00  0.00     0.047 A 
ATOM     10  C   UNL     1       0.384  -8.360 -24.357  1.00  0.00     0.125 A 
ATOM     11  C   UNL     1       0.261  -7.624 -23.145  1.00  0.00     0.069 A 
ENDROOT
BRANCH   1  12
ATOM     12  C   UNL     1       4.891  -6.171 -20.188  1.00  0.00    -0.011 A 
ATOM     13  C   UNL     1       5.378  -6.999 -19.160  1.00  0.00     0.013 A 
ATOM     14  C   UNL     1       6.488  -6.610 -18.405  1.00  0.00     0.047 A 
ATOM     15  C   UNL     1       7.127  -5.392 -18.669  1.00  0.00     0.115 A 
ATOM     16  C   UNL     1       5.544  -4.955 -20.452  1.00  0.00     0.013 A 
ATOM     17  C   UNL     1       6.653  -4.567 -19.694  1.00  0.00     0.047 A 
BRANCH  15  18
ATOM     18  O   UNL     1       8.235  -4.993 -17.923  1.00  0.00    -0.508 OA
ATOM     19  H   UNL     1       9.146  -5.415 -18.063  1.00  0.00     0.293 HD
ENDBRANCH  15  18
ENDBRANCH   1  12
BRANCH  11  20
ATOM     20  C   UNL     1      -1.093  -7.166 -22.606  1.00  0.00     0.188 C 
ATOM     21  C   UNL     1      -1.373  -5.712 -23.059  1.00  0.00     0.179 C 
ATOM     22  O   UNL     1      -1.085  -7.279 -21.188  1.00  0.00    -0.362 OA
ATOM     23  C   UNL     1      -2.698  -5.210 -22.458  1.00  0.00     0.177 C 
ATOM     24  C   UNL     1      -2.311  -6.884 -20.584  1.00  0.00     0.176 C 
ATOM     25  C   UNL     1      -2.694  -5.427 -20.935  1.00  0.00     0.177 C 
BRANCH  21  26
ATOM     26  O   UNL     1      -1.395  -5.616 -24.462  1.00  0.00    -0.387 OA
ATOM     27  H   UNL     1      -0.539  -5.203 -24.750  1.00  0.00     0.211 HD
ENDBRANCH  21  26
BRANCH  23  28
ATOM     28  O   UNL     1      -2.875  -3.846 -22.739  1.00  0.00    -0.387 OA
ATOM     29  H   UNL     1      -2.711  -3.726 -23.711  1.00  0.00     0.211 HD
ENDBRANCH  23  28
BRANCH  24  30
ATOM     30  C   UNL     1      -3.443  -7.906 -20.828  1.00  0.00     0.191 C 
BRANCH  30  31
ATOM     31  O   UNL     1      -4.678  -7.385 -20.413  1.00  0.00    -0.394 OA
ATOM     32  H   UNL     1      -5.165  -7.115 -21.235  1.00  0.00     0.210 HD
ENDBRANCH  30  31
ENDBRANCH  24  30
BRANCH  25  33
ATOM     33  O   UNL     1      -1.767  -4.560 -20.327  1.00  0.00    -0.388 OA
ATOM     34  H   UNL     1      -1.876  -4.658 -19.345  1.00  0.00     0.211 HD
ENDBRANCH  25  33
ENDBRANCH  11  20
BRANCH  10  35
ATOM     35  O   UNL     1      -0.702  -8.669 -25.182  1.00  0.00    -0.507 OA
ATOM     36  H   UNL     1      -1.666  -8.456 -24.974  1.00  0.00     0.293 HD
ENDBRANCH  10  35
TORSDOF 9
ENDMDL
MODEL 9
REMARK VINA RESULT:    -3.986      5.134      9.434
REMARK INTER + INTRA:          -6.207
REMARK INTER:                  -5.108
REMARK INTRA:                  -1.099
REMARK UNBOUND:                -0.823
REMARK SMILES O=c1c(-c2ccc(O)cc2)coc2c([C@H]3O[C@H](CO)[C@@H](O)[C@@H](O)[C@@H]3O)c(O)ccc12
REMARK SMILES IDX 3 1 11 2 12 3 13 4 30 5 2 6 1 7 29 8 28 9 26 10 14 11 4 12
REMARK SMILES IDX 5 13 6 14 7 15 10 16 9 17 8 18 15 20 24 21 16 22 22 23 17 24
REMARK SMILES IDX 20 25 25 26 23 28 18 30 19 31 21 33 27 35
REMARK H PARENT 8 19 25 27 23 29 19 32 21 34 27 36
REMARK Flexibility Score: inf
ROOT
ATOM      1  C   UNL     1       3.811  -5.852 -20.538  1.00  0.00     0.065 A 
ATOM      2  C   UNL     1       2.866  -5.884 -19.504  1.00  0.00     0.208 A 
ATOM      3  O   UNL     1       1.565  -5.874 -19.771  1.00  0.00    -0.463 OA
ATOM      4  C   UNL     1       1.072  -5.836 -21.006  1.00  0.00     0.147 A 
ATOM      5  C   UNL     1       1.958  -5.801 -22.109  1.00  0.00     0.066 A 
ATOM      6  C   UNL     1       3.343  -5.819 -21.863  1.00  0.00     0.200 A 
ATOM      7  O   UNL     1       4.160  -5.824 -22.825  1.00  0.00    -0.288 OA
ATOM      8  C   UNL     1       1.442  -5.752 -23.410  1.00  0.00     0.020 A 
ATOM      9  C   UNL     1       0.066  -5.709 -23.616  1.00  0.00     0.047 A 
ATOM     10  C   UNL     1      -0.826  -5.723 -22.541  1.00  0.00     0.125 A 
ATOM     11  C   UNL     1      -0.333  -5.829 -21.210  1.00  0.00     0.069 A 
ENDROOT
BRANCH   1  12
ATOM     12  C   UNL     1       5.261  -5.858 -20.215  1.00  0.00    -0.011 A 
ATOM     13  C   UNL     1       5.967  -4.651 -20.063  1.00  0.00     0.013 A 
ATOM     14  C   UNL     1       7.330  -4.662 -19.749  1.00  0.00     0.047 A 
ATOM     15  C   UNL     1       8.002  -5.879 -19.580  1.00  0.00     0.115 A 
ATOM     16  C   UNL     1       5.943  -7.075 -20.035  1.00  0.00     0.013 A 
ATOM     17  C   UNL     1       7.305  -7.083 -19.722  1.00  0.00     0.047 A 
BRANCH  15  18
ATOM     18  O   UNL     1       9.360  -5.903 -19.267  1.00  0.00    -0.508 OA
ATOM     19  H   UNL     1      10.067  -5.695 -19.963  1.00  0.00     0.293 HD
ENDBRANCH  15  18
ENDBRANCH   1  12
BRANCH  11  20
ATOM     20  C   UNL     1      -1.265  -5.904 -20.002  1.00  0.00     0.188 C 
ATOM     21  C   UNL     1      -1.753  -7.361 -19.805  1.00  0.00     0.179 C 
ATOM     22  O   UNL     1      -2.354  -5.012 -20.206  1.00  0.00    -0.362 OA
ATOM     23  C   UNL     1      -2.755  -7.437 -18.640  1.00  0.00     0.177 C 
ATOM     24  C   UNL     1      -3.282  -4.999 -19.128  1.00  0.00     0.176 C 
ATOM     25  C   UNL     1      -3.873  -6.400 -18.845  1.00  0.00     0.177 C 
BRANCH  21  26
ATOM     26  O   UNL     1      -0.669  -8.231 -19.589  1.00  0.00    -0.387 OA
ATOM     27  H   UNL     1      -0.773  -9.003 -20.204  1.00  0.00     0.211 HD
ENDBRANCH  21  26
BRANCH  23  28
ATOM     28  O   UNL     1      -3.314  -8.723 -18.561  1.00  0.00    -0.387 OA
ATOM     29  H   UNL     1      -2.850  -9.283 -19.237  1.00  0.00     0.211 HD
ENDBRANCH  23  28
BRANCH  24  30
ATOM     30  C   UNL     1      -2.718  -4.292 -17.875  1.00  0.00     0.191 C 
BRANCH  30  31
ATOM     31  O   UNL     1      -2.023  -3.128 -18.235  1.00  0.00    -0.394 OA
ATOM     32  H   UNL     1      -2.276  -2.922 -19.173  1.00  0.00     0.210 HD
ENDBRANCH  30  31
ENDBRANCH  24  30
BRANCH  25  33
ATOM     33  O   UNL     1      -4.683  -6.773 -19.933  1.00  0.00    -0.388 OA
ATOM     34  H   UNL     1      -5.311  -6.023 -20.101  1.00  0.00     0.211 HD
ENDBRANCH  25  33
ENDBRANCH  11  20
BRANCH  10  35
ATOM     35  O   UNL     1      -2.186  -5.616 -22.851  1.00  0.00    -0.507 OA
ATOM     36  H   UNL     1      -2.651  -6.116 -23.593  1.00  0.00     0.293 HD
ENDBRANCH  10  35
TORSDOF 9
ENDMDL
