MODEL 1
REMARK VINA RESULT:    -4.383      0.000      0.000
REMARK INTER + INTRA:          -9.833
REMARK INTER:                  -7.714
REMARK INTRA:                  -2.119
REMARK UNBOUND:                -2.119
REMARK SMILES CCCCCCCCCCCCCCC(=O)[O-]
REMARK SMILES IDX 9 1 10 2 11 3 12 4 13 5 14 6 15 7 16 8 17 9 8 10 7 11 6 12
REMARK SMILES IDX 5 13 4 14 3 15 2 16 1 17
REMARK H PARENT
REMARK Flexibility Score: inf
ROOT
ATOM      1  C   UNL     1      54.536  39.163  47.258  1.00  0.00     0.000 C 
ENDROOT
BRANCH   1   2
ATOM      2  C   UNL     1      55.095  39.563  48.635  1.00  0.00     0.000 C 
BRANCH   2   3
ATOM      3  C   UNL     1      55.132  38.393  49.630  1.00  0.00     0.000 C 
BRANCH   3   4
ATOM      4  C   UNL     1      54.138  38.622  50.780  1.00  0.00     0.000 C 
BRANCH   4   5
ATOM      5  C   UNL     1      53.856  40.112  51.030  1.00  0.00     0.006 C 
BRANCH   5   6
ATOM      6  C   UNL     1      52.424  40.368  51.521  1.00  0.00     0.053 C 
BRANCH   6   7
ATOM      7  C   UNL     1      52.403  41.498  52.501  1.00  0.00     0.041 C 
ATOM      8  O   UNL     1      51.777  42.556  52.232  1.00  0.00    -0.550 OA
ATOM      9  O   UNL     1      53.031  41.363  53.732  1.00  0.00    -0.550 OA
ENDBRANCH   6   7
ENDBRANCH   5   6
ENDBRANCH   4   5
ENDBRANCH   3   4
ENDBRANCH   2   3
ENDBRANCH   1   2
BRANCH   1  10
ATOM     10  C   UNL     1      53.420  40.078  46.712  1.00  0.00     0.000 C 
BRANCH  10  11
ATOM     11  C   UNL     1      52.185  40.216  47.622  1.00  0.00    -0.000 C 
BRANCH  11  12
ATOM     12  C   UNL     1      51.959  41.628  48.197  1.00  0.00    -0.000 C 
BRANCH  12  13
ATOM     13  C   UNL     1      52.241  42.762  47.187  1.00  0.00    -0.000 C 
BRANCH  13  14
ATOM     14  C   UNL     1      53.043  43.918  47.810  1.00  0.00    -0.000 C 
BRANCH  14  15
ATOM     15  C   UNL     1      53.058  43.867  49.346  1.00  0.00    -0.000 C 
BRANCH  15  16
ATOM     16  C   UNL     1      54.467  43.639  49.913  1.00  0.00    -0.003 C 
ATOM     17  C   UNL     1      55.440  43.223  48.815  1.00  0.00     0.004 C 
ENDBRANCH  15  16
ENDBRANCH  14  15
ENDBRANCH  13  14
ENDBRANCH  12  13
ENDBRANCH  11  12
ENDBRANCH  10  11
ENDBRANCH   1  10
TORSDOF 13
ENDMDL
MODEL 2
REMARK VINA RESULT:    -4.285      1.813      4.632
REMARK INTER + INTRA:          -9.661
REMARK INTER:                  -7.819
REMARK INTRA:                  -1.842
REMARK UNBOUND:                -2.119
REMARK SMILES CCCCCCCCCCCCCCC(=O)[O-]
REMARK SMILES IDX 9 1 10 2 11 3 12 4 13 5 14 6 15 7 16 8 17 9 8 10 7 11 6 12
REMARK SMILES IDX 5 13 4 14 3 15 2 16 1 17
REMARK H PARENT
REMARK Flexibility Score: inf
ROOT
ATOM      1  C   UNL     1      53.290  39.894  46.933  1.00  0.00     0.000 C 
ENDROOT
BRANCH   1   2
ATOM      2  C   UNL     1      52.151  40.244  47.906  1.00  0.00     0.000 C 
BRANCH   2   3
ATOM      3  C   UNL     1      52.174  41.714  48.351  1.00  0.00     0.000 C 
BRANCH   3   4
ATOM      4  C   UNL     1      52.152  42.653  47.136  1.00  0.00     0.000 C 
BRANCH   4   5
ATOM      5  C   UNL     1      52.904  43.969  47.392  1.00  0.00     0.006 C 
BRANCH   5   6
ATOM      6  C   UNL     1      53.052  44.284  48.887  1.00  0.00     0.053 C 
BRANCH   6   7
ATOM      7  C   UNL     1      54.498  44.365  49.263  1.00  0.00     0.041 C 
ATOM      8  O   UNL     1      55.012  43.479  49.994  1.00  0.00    -0.550 OA
ATOM      9  O   UNL     1      55.289  45.392  48.765  1.00  0.00    -0.550 OA
ENDBRANCH   6   7
ENDBRANCH   5   6
ENDBRANCH   4   5
ENDBRANCH   3   4
ENDBRANCH   2   3
ENDBRANCH   1   2
BRANCH   1  10
ATOM     10  C   UNL     1      54.516  39.211  47.576  1.00  0.00     0.000 C 
BRANCH  10  11
ATOM     11  C   UNL     1      55.311  40.089  48.560  1.00  0.00    -0.000 C 
BRANCH  11  12
ATOM     12  C   UNL     1      55.537  39.464  49.950  1.00  0.00    -0.000 C 
BRANCH  12  13
ATOM     13  C   UNL     1      54.530  38.347  50.299  1.00  0.00    -0.000 C 
BRANCH  13  14
ATOM     14  C   UNL     1      53.294  38.881  51.044  1.00  0.00    -0.000 C 
BRANCH  14  15
ATOM     15  C   UNL     1      53.522  40.280  51.640  1.00  0.00    -0.000 C 
BRANCH  15  16
ATOM     16  C   UNL     1      52.224  40.918  52.158  1.00  0.00    -0.003 C 
ATOM     17  C   UNL     1      52.248  42.433  51.977  1.00  0.00     0.004 C 
ENDBRANCH  15  16
ENDBRANCH  14  15
ENDBRANCH  13  14
ENDBRANCH  12  13
ENDBRANCH  11  12
ENDBRANCH  10  11
ENDBRANCH   1  10
TORSDOF 13
ENDMDL
MODEL 3
REMARK VINA RESULT:    -4.265      1.119      2.133
REMARK INTER + INTRA:          -9.626
REMARK INTER:                  -7.339
REMARK INTRA:                  -2.287
REMARK UNBOUND:                -2.119
REMARK SMILES CCCCCCCCCCCCCCC(=O)[O-]
REMARK SMILES IDX 9 1 10 2 11 3 12 4 13 5 14 6 15 7 16 8 17 9 8 10 7 11 6 12
REMARK SMILES IDX 5 13 4 14 3 15 2 16 1 17
REMARK H PARENT
REMARK Flexibility Score: inf
ROOT
ATOM      1  C   UNL     1      55.116  40.027  49.937  1.00  0.00     0.000 C 
ENDROOT
BRANCH   1   2
ATOM      2  C   UNL     1      54.521  38.683  50.392  1.00  0.00     0.000 C 
BRANCH   2   3
ATOM      3  C   UNL     1      53.169  38.838  51.106  1.00  0.00     0.000 C 
BRANCH   3   4
ATOM      4  C   UNL     1      52.425  40.084  50.602  1.00  0.00     0.000 C 
BRANCH   4   5
ATOM      5  C   UNL     1      51.718  40.848  51.734  1.00  0.00     0.006 C 
BRANCH   5   6
ATOM      6  C   UNL     1      52.280  42.262  51.934  1.00  0.00     0.053 C 
BRANCH   6   7
ATOM      7  C   UNL     1      53.294  42.270  53.033  1.00  0.00     0.041 C 
ATOM      8  O   UNL     1      54.097  43.233  53.146  1.00  0.00    -0.550 OA
ATOM      9  O   UNL     1      53.321  41.239  53.962  1.00  0.00    -0.550 OA
ENDBRANCH   6   7
ENDBRANCH   5   6
ENDBRANCH   4   5
ENDBRANCH   3   4
ENDBRANCH   2   3
ENDBRANCH   1   2
BRANCH   1  10
ATOM     10  C   UNL     1      55.326  40.169  48.414  1.00  0.00     0.000 C 
BRANCH  10  11
ATOM     11  C   UNL     1      54.530  39.172  47.551  1.00  0.00    -0.000 C 
BRANCH  11  12
ATOM     12  C   UNL     1      53.422  39.804  46.687  1.00  0.00    -0.000 C 
BRANCH  12  13
ATOM     13  C   UNL     1      53.466  41.347  46.652  1.00  0.00    -0.000 C 
BRANCH  13  14
ATOM     14  C   UNL     1      52.225  41.986  47.300  1.00  0.00    -0.000 C 
BRANCH  14  15
ATOM     15  C   UNL     1      52.585  42.978  48.418  1.00  0.00    -0.000 C 
BRANCH  15  16
ATOM     16  C   UNL     1      53.963  43.624  48.210  1.00  0.00    -0.003 C 
ATOM     17  C   UNL     1      54.716  43.747  49.531  1.00  0.00     0.004 C 
ENDBRANCH  15  16
ENDBRANCH  14  15
ENDBRANCH  13  14
ENDBRANCH  12  13
ENDBRANCH  11  12
ENDBRANCH  10  11
ENDBRANCH   1  10
TORSDOF 13
ENDMDL
MODEL 4
REMARK VINA RESULT:    -4.255      2.711      5.228
REMARK INTER + INTRA:          -9.608
REMARK INTER:                  -8.008
REMARK INTRA:                  -1.599
REMARK UNBOUND:                -2.119
REMARK SMILES CCCCCCCCCCCCCCC(=O)[O-]
REMARK SMILES IDX 9 1 10 2 11 3 12 4 13 5 14 6 15 7 16 8 17 9 8 10 7 11 6 12
REMARK SMILES IDX 5 13 4 14 3 15 2 16 1 17
REMARK H PARENT
REMARK Flexibility Score: inf
ROOT
ATOM      1  C   UNL     1      53.287  39.951  46.758  1.00  0.00     0.000 C 
ENDROOT
BRANCH   1   2
ATOM      2  C   UNL     1      52.323  40.367  47.882  1.00  0.00     0.000 C 
BRANCH   2   3
ATOM      3  C   UNL     1      51.804  41.804  47.724  1.00  0.00     0.000 C 
BRANCH   3   4
ATOM      4  C   UNL     1      52.928  42.822  47.969  1.00  0.00     0.000 C 
BRANCH   4   5
ATOM      5  C   UNL     1      53.111  43.795  46.794  1.00  0.00     0.006 C 
BRANCH   5   6
ATOM      6  C   UNL     1      51.775  44.311  46.240  1.00  0.00     0.053 C 
BRANCH   6   7
ATOM      7  C   UNL     1      51.641  45.781  46.486  1.00  0.00     0.041 C 
ATOM      8  O   UNL     1      50.726  46.435  45.922  1.00  0.00    -0.550 OA
ATOM      9  O   UNL     1      52.496  46.418  47.376  1.00  0.00    -0.550 OA
ENDBRANCH   6   7
ENDBRANCH   5   6
ENDBRANCH   4   5
ENDBRANCH   3   4
ENDBRANCH   2   3
ENDBRANCH   1   2
BRANCH   1  10
ATOM     10  C   UNL     1      54.567  39.226  47.226  1.00  0.00     0.000 C 
BRANCH  10  11
ATOM     11  C   UNL     1      55.033  39.581  48.651  1.00  0.00    -0.000 C 
BRANCH  11  12
ATOM     12  C   UNL     1      55.073  38.395  49.634  1.00  0.00    -0.000 C 
BRANCH  12  13
ATOM     13  C   UNL     1      54.215  38.609  50.900  1.00  0.00    -0.000 C 
BRANCH  13  14
ATOM     14  C   UNL     1      53.917  40.096  51.164  1.00  0.00    -0.000 C 
BRANCH  14  15
ATOM     15  C   UNL     1      52.440  40.351  51.503  1.00  0.00    -0.000 C 
BRANCH  15  16
ATOM     16  C   UNL     1      52.250  41.550  52.443  1.00  0.00    -0.003 C 
ATOM     17  C   UNL     1      52.312  42.866  51.674  1.00  0.00     0.004 C 
ENDBRANCH  15  16
ENDBRANCH  14  15
ENDBRANCH  13  14
ENDBRANCH  12  13
ENDBRANCH  11  12
ENDBRANCH  10  11
ENDBRANCH   1  10
TORSDOF 13
ENDMDL
MODEL 5
REMARK VINA RESULT:    -4.216      1.769      2.663
REMARK INTER + INTRA:          -9.540
REMARK INTER:                  -7.482
REMARK INTRA:                  -2.058
REMARK UNBOUND:                -2.119
REMARK SMILES CCCCCCCCCCCCCCC(=O)[O-]
REMARK SMILES IDX 9 1 10 2 11 3 12 4 13 5 14 6 15 7 16 8 17 9 8 10 7 11 6 12
REMARK SMILES IDX 5 13 4 14 3 15 2 16 1 17
REMARK H PARENT
REMARK Flexibility Score: inf
ROOT
ATOM      1  C   UNL     1      54.492  40.113  46.984  1.00  0.00     0.000 C 
ENDROOT
BRANCH   1   2
ATOM      2  C   UNL     1      55.248  39.875  48.303  1.00  0.00     0.000 C 
BRANCH   2   3
ATOM      3  C   UNL     1      54.919  38.520  48.946  1.00  0.00     0.000 C 
BRANCH   3   4
ATOM      4  C   UNL     1      54.542  38.693  50.425  1.00  0.00     0.000 C 
BRANCH   4   5
ATOM      5  C   UNL     1      55.724  39.168  51.285  1.00  0.00     0.006 C 
BRANCH   5   6
ATOM      6  C   UNL     1      55.274  39.924  52.543  1.00  0.00     0.053 C 
BRANCH   6   7
ATOM      7  C   UNL     1      55.898  41.282  52.587  1.00  0.00     0.041 C 
ATOM      8  O   UNL     1      56.163  41.822  53.693  1.00  0.00    -0.550 OA
ATOM      9  O   UNL     1      56.234  41.932  51.406  1.00  0.00    -0.550 OA
ENDBRANCH   6   7
ENDBRANCH   5   6
ENDBRANCH   4   5
ENDBRANCH   3   4
ENDBRANCH   2   3
ENDBRANCH   1   2
BRANCH   1  10
ATOM     10  C   UNL     1      52.986  39.780  47.022  1.00  0.00     0.000 C 
BRANCH  10  11
ATOM     11  C   UNL     1      52.133  40.717  47.898  1.00  0.00    -0.000 C 
BRANCH  11  12
ATOM     12  C   UNL     1      52.162  42.199  47.480  1.00  0.00    -0.000 C 
BRANCH  12  13
ATOM     13  C   UNL     1      52.774  43.133  48.547  1.00  0.00    -0.000 C 
BRANCH  13  14
ATOM     14  C   UNL     1      53.124  42.390  49.849  1.00  0.00    -0.000 C 
BRANCH  14  15
ATOM     15  C   UNL     1      52.566  43.091  51.098  1.00  0.00    -0.000 C 
BRANCH  15  16
ATOM     16  C   UNL     1      52.193  42.102  52.211  1.00  0.00    -0.003 C 
ATOM     17  C   UNL     1      51.779  40.753  51.631  1.00  0.00     0.004 C 
ENDBRANCH  15  16
ENDBRANCH  14  15
ENDBRANCH  13  14
ENDBRANCH  12  13
ENDBRANCH  11  12
ENDBRANCH  10  11
ENDBRANCH   1  10
TORSDOF 13
ENDMDL
MODEL 6
REMARK VINA RESULT:    -4.212      1.373      3.807
REMARK INTER + INTRA:          -9.533
REMARK INTER:                  -7.569
REMARK INTRA:                  -1.964
REMARK UNBOUND:                -2.119
REMARK SMILES CCCCCCCCCCCCCCC(=O)[O-]
REMARK SMILES IDX 9 1 10 2 11 3 12 4 13 5 14 6 15 7 16 8 17 9 8 10 7 11 6 12
REMARK SMILES IDX 5 13 4 14 3 15 2 16 1 17
REMARK H PARENT
REMARK Flexibility Score: inf
ROOT
ATOM      1  C   UNL     1      53.002  43.766  48.968  1.00  0.00     0.000 C 
ENDROOT
BRANCH   1   2
ATOM      2  C   UNL     1      54.337  43.407  49.645  1.00  0.00     0.000 C 
BRANCH   2   3
ATOM      3  C   UNL     1      54.152  42.651  50.969  1.00  0.00     0.000 C 
BRANCH   3   4
ATOM      4  C   UNL     1      52.676  42.288  51.190  1.00  0.00     0.000 C 
BRANCH   4   5
ATOM      5  C   UNL     1      52.387  41.842  52.633  1.00  0.00     0.006 C 
BRANCH   5   6
ATOM      6  C   UNL     1      53.505  42.234  53.609  1.00  0.00     0.053 C 
BRANCH   6   7
ATOM      7  C   UNL     1      53.972  41.038  54.375  1.00  0.00     0.041 C 
ATOM      8  O   UNL     1      54.703  40.177  53.820  1.00  0.00    -0.550 OA
ATOM      9  O   UNL     1      53.641  40.900  55.717  1.00  0.00    -0.550 OA
ENDBRANCH   6   7
ENDBRANCH   5   6
ENDBRANCH   4   5
ENDBRANCH   3   4
ENDBRANCH   2   3
ENDBRANCH   1   2
BRANCH   1  10
ATOM     10  C   UNL     1      52.831  43.230  47.531  1.00  0.00     0.000 C 
BRANCH  10  11
ATOM     11  C   UNL     1      51.875  42.031  47.392  1.00  0.00    -0.000 C 
BRANCH  11  12
ATOM     12  C   UNL     1      52.434  40.693  47.912  1.00  0.00    -0.000 C 
BRANCH  12  13
ATOM     13  C   UNL     1      53.210  39.888  46.847  1.00  0.00    -0.000 C 
BRANCH  13  14
ATOM     14  C   UNL     1      54.515  39.287  47.398  1.00  0.00    -0.000 C 
BRANCH  14  15
ATOM     15  C   UNL     1      54.813  39.739  48.836  1.00  0.00    -0.000 C 
BRANCH  15  16
ATOM     16  C   UNL     1      54.831  38.569  49.830  1.00  0.00    -0.003 C 
ATOM     17  C   UNL     1      53.672  38.669  50.817  1.00  0.00     0.004 C 
ENDBRANCH  15  16
ENDBRANCH  14  15
ENDBRANCH  13  14
ENDBRANCH  12  13
ENDBRANCH  11  12
ENDBRANCH  10  11
ENDBRANCH   1  10
TORSDOF 13
ENDMDL
MODEL 7
REMARK VINA RESULT:    -4.188      1.702      3.615
REMARK INTER + INTRA:          -9.491
REMARK INTER:                  -7.543
REMARK INTRA:                  -1.948
REMARK UNBOUND:                -2.119
REMARK SMILES CCCCCCCCCCCCCCC(=O)[O-]
REMARK SMILES IDX 9 1 10 2 11 3 12 4 13 5 14 6 15 7 16 8 17 9 8 10 7 11 6 12
REMARK SMILES IDX 5 13 4 14 3 15 2 16 1 17
REMARK H PARENT
REMARK Flexibility Score: inf
ROOT
ATOM      1  C   UNL     1      51.811  41.784  47.414  1.00  0.00     0.000 C 
ENDROOT
BRANCH   1   2
ATOM      2  C   UNL     1      52.425  40.428  47.805  1.00  0.00     0.000 C 
BRANCH   2   3
ATOM      3  C   UNL     1      53.653  40.061  46.959  1.00  0.00     0.000 C 
BRANCH   3   4
ATOM      4  C   UNL     1      54.575  39.097  47.722  1.00  0.00     0.000 C 
BRANCH   4   5
ATOM      5  C   UNL     1      54.897  39.587  49.143  1.00  0.00     0.006 C 
BRANCH   5   6
ATOM      6  C   UNL     1      55.060  38.434  50.143  1.00  0.00     0.053 C 
BRANCH   6   7
ATOM      7  C   UNL     1      55.697  38.923  51.405  1.00  0.00     0.041 C 
ATOM      8  O   UNL     1      55.278  39.973  51.959  1.00  0.00    -0.550 OA
ATOM      9  O   UNL     1      56.720  38.193  51.996  1.00  0.00    -0.550 OA
ENDBRANCH   6   7
ENDBRANCH   5   6
ENDBRANCH   4   5
ENDBRANCH   3   4
ENDBRANCH   2   3
ENDBRANCH   1   2
BRANCH   1  10
ATOM     10  C   UNL     1      52.819  42.843  46.920  1.00  0.00     0.000 C 
BRANCH  10  11
ATOM     11  C   UNL     1      52.528  44.284  47.378  1.00  0.00    -0.000 C 
BRANCH  11  12
ATOM     12  C   UNL     1      53.253  44.715  48.667  1.00  0.00    -0.000 C 
BRANCH  12  13
ATOM     13  C   UNL     1      54.342  43.721  49.127  1.00  0.00    -0.000 C 
BRANCH  13  14
ATOM     14  C   UNL     1      54.088  43.185  50.547  1.00  0.00    -0.000 C 
BRANCH  14  15
ATOM     15  C   UNL     1      52.591  43.014  50.855  1.00  0.00    -0.000 C 
BRANCH  15  16
ATOM     16  C   UNL     1      52.332  41.986  51.965  1.00  0.00    -0.003 C 
ATOM     17  C   UNL     1      51.797  40.678  51.387  1.00  0.00     0.004 C 
ENDBRANCH  15  16
ENDBRANCH  14  15
ENDBRANCH  13  14
ENDBRANCH  12  13
ENDBRANCH  11  12
ENDBRANCH  10  11
ENDBRANCH   1  10
TORSDOF 13
ENDMDL
MODEL 8
REMARK VINA RESULT:    -4.121      1.367      3.774
REMARK INTER + INTRA:          -9.372
REMARK INTER:                  -7.217
REMARK INTRA:                  -2.155
REMARK UNBOUND:                -2.119
REMARK SMILES CCCCCCCCCCCCCCC(=O)[O-]
REMARK SMILES IDX 9 1 10 2 11 3 12 4 13 5 14 6 15 7 16 8 17 9 8 10 7 11 6 12
REMARK SMILES IDX 5 13 4 14 3 15 2 16 1 17
REMARK H PARENT
REMARK Flexibility Score: inf
ROOT
ATOM      1  C   UNL     1      55.177  44.100  48.228  1.00  0.00     0.000 C 
ENDROOT
BRANCH   1   2
ATOM      2  C   UNL     1      54.160  44.494  49.314  1.00  0.00     0.000 C 
BRANCH   2   3
ATOM      3  C   UNL     1      54.014  43.429  50.411  1.00  0.00     0.000 C 
BRANCH   3   4
ATOM      4  C   UNL     1      52.576  43.393  50.950  1.00  0.00     0.000 C 
BRANCH   4   5
ATOM      5  C   UNL     1      52.377  42.321  52.034  1.00  0.00     0.006 C 
BRANCH   5   6
ATOM      6  C   UNL     1      52.013  40.949  51.448  1.00  0.00     0.053 C 
BRANCH   6   7
ATOM      7  C   UNL     1      53.129  39.978  51.662  1.00  0.00     0.041 C 
ATOM      8  O   UNL     1      54.061  40.251  52.462  1.00  0.00    -0.550 OA
ATOM      9  O   UNL     1      53.115  38.749  51.015  1.00  0.00    -0.550 OA
ENDBRANCH   6   7
ENDBRANCH   5   6
ENDBRANCH   4   5
ENDBRANCH   3   4
ENDBRANCH   2   3
ENDBRANCH   1   2
BRANCH   1  10
ATOM     10  C   UNL     1      54.562  43.559  46.919  1.00  0.00     0.000 C 
BRANCH  10  11
ATOM     11  C   UNL     1      53.063  43.855  46.732  1.00  0.00    -0.000 C 
BRANCH  11  12
ATOM     12  C   UNL     1      52.171  42.609  46.572  1.00  0.00    -0.000 C 
BRANCH  12  13
ATOM     13  C   UNL     1      51.954  41.828  47.886  1.00  0.00    -0.000 C 
BRANCH  13  14
ATOM     14  C   UNL     1      52.192  40.317  47.720  1.00  0.00    -0.000 C 
BRANCH  14  15
ATOM     15  C   UNL     1      53.415  40.005  46.843  1.00  0.00    -0.000 C 
BRANCH  15  16
ATOM     16  C   UNL     1      54.532  39.296  47.622  1.00  0.00    -0.003 C 
ATOM     17  C   UNL     1      55.234  40.260  48.575  1.00  0.00     0.004 C 
ENDBRANCH  15  16
ENDBRANCH  14  15
ENDBRANCH  13  14
ENDBRANCH  12  13
ENDBRANCH  11  12
ENDBRANCH  10  11
ENDBRANCH   1  10
TORSDOF 13
ENDMDL
MODEL 9
REMARK VINA RESULT:    -4.075      2.418      4.586
REMARK INTER + INTRA:          -9.291
REMARK INTER:                  -7.178
REMARK INTRA:                  -2.113
REMARK UNBOUND:                -2.119
REMARK SMILES CCCCCCCCCCCCCCC(=O)[O-]
REMARK SMILES IDX 9 1 10 2 11 3 12 4 13 5 14 6 15 7 16 8 17 9 8 10 7 11 6 12
REMARK SMILES IDX 5 13 4 14 3 15 2 16 1 17
REMARK H PARENT
REMARK Flexibility Score: inf
ROOT
ATOM      1  C   UNL     1      52.476  40.071  50.606  1.00  0.00     0.000 C 
ENDROOT
BRANCH   1   2
ATOM      2  C   UNL     1      51.895  41.054  51.637  1.00  0.00     0.000 C 
BRANCH   2   3
ATOM      3  C   UNL     1      52.426  42.485  51.465  1.00  0.00     0.000 C 
BRANCH   3   4
ATOM      4  C   UNL     1      53.877  42.473  50.960  1.00  0.00     0.000 C 
BRANCH   4   5
ATOM      5  C   UNL     1      54.213  43.701  50.099  1.00  0.00     0.006 C 
BRANCH   5   6
ATOM      6  C   UNL     1      53.022  44.176  49.255  1.00  0.00     0.053 C 
BRANCH   6   7
ATOM      7  C   UNL     1      53.384  44.195  47.804  1.00  0.00     0.041 C 
ATOM      8  O   UNL     1      52.533  44.541  46.944  1.00  0.00    -0.550 OA
ATOM      9  O   UNL     1      54.677  43.879  47.406  1.00  0.00    -0.550 OA
ENDBRANCH   6   7
ENDBRANCH   5   6
ENDBRANCH   4   5
ENDBRANCH   3   4
ENDBRANCH   2   3
ENDBRANCH   1   2
BRANCH   1  10
ATOM     10  C   UNL     1      51.686  39.964  49.284  1.00  0.00     0.000 C 
BRANCH  10  11
ATOM     11  C   UNL     1      52.258  40.786  48.114  1.00  0.00    -0.000 C 
BRANCH  11  12
ATOM     12  C   UNL     1      52.931  39.954  47.005  1.00  0.00    -0.000 C 
BRANCH  12  13
ATOM     13  C   UNL     1      54.310  39.387  47.406  1.00  0.00    -0.000 C 
BRANCH  13  14
ATOM     14  C   UNL     1      55.210  40.442  48.074  1.00  0.00    -0.000 C 
BRANCH  14  15
ATOM     15  C   UNL     1      55.995  39.878  49.269  1.00  0.00    -0.000 C 
BRANCH  15  16
ATOM     16  C   UNL     1      55.521  38.476  49.675  1.00  0.00    -0.003 C 
ATOM     17  C   UNL     1      55.962  38.138  51.097  1.00  0.00     0.004 C 
ENDBRANCH  15  16
ENDBRANCH  14  15
ENDBRANCH  13  14
ENDBRANCH  12  13
ENDBRANCH  11  12
ENDBRANCH  10  11
ENDBRANCH   1  10
TORSDOF 13
ENDMDL
