MODEL 1
REMARK VINA RESULT:    -4.043      0.000      0.000
REMARK INTER + INTRA:          -6.789
REMARK INTER:                  -6.170
REMARK INTRA:                  -0.619
REMARK UNBOUND:                -0.619
REMARK SMILES O=C([O-])CCCCCCCCC(=O)[O-]
REMARK SMILES IDX 7 1 6 2 5 3 4 4 2 5 1 6 3 7 8 8 9 9 10 10 11 11 12 12 13 13
REMARK SMILES IDX 14 14
REMARK H PARENT
REMARK Flexibility Score: inf
ROOT
ATOM      1  C   UNL     1      -5.890  36.148   1.994  1.00  0.00     0.000 C 
ENDROOT
BRANCH   1   2
ATOM      2  C   UNL     1      -4.751  35.598   1.121  1.00  0.00     0.000 C 
BRANCH   2   3
ATOM      3  C   UNL     1      -5.085  34.227   0.509  1.00  0.00     0.006 C 
BRANCH   3   4
ATOM      4  C   UNL     1      -5.771  33.295   1.515  1.00  0.00     0.053 C 
BRANCH   4   5
ATOM      5  C   UNL     1      -7.083  32.788   0.998  1.00  0.00     0.041 C 
ATOM      6  O   UNL     1      -7.838  33.545   0.333  1.00  0.00    -0.550 OA
ATOM      7  O   UNL     1      -7.458  31.470   1.227  1.00  0.00    -0.550 OA
ENDBRANCH   4   5
ENDBRANCH   3   4
ENDBRANCH   2   3
ENDBRANCH   1   2
BRANCH   1   8
ATOM      8  C   UNL     1      -6.238  37.610   1.662  1.00  0.00     0.000 C 
BRANCH   8   9
ATOM      9  C   UNL     1      -5.553  38.102   0.377  1.00  0.00     0.000 C 
BRANCH   9  10
ATOM     10  C   UNL     1      -6.505  38.125  -0.828  1.00  0.00     0.006 C 
BRANCH  10  11
ATOM     11  C   UNL     1      -7.967  38.079  -0.372  1.00  0.00     0.053 C 
BRANCH  11  12
ATOM     12  C   UNL     1      -8.849  37.604  -1.482  1.00  0.00     0.041 C 
ATOM     13  O   UNL     1      -9.921  36.996  -1.225  1.00  0.00    -0.550 OA
ATOM     14  O   UNL     1      -8.513  37.876  -2.803  1.00  0.00    -0.550 OA
ENDBRANCH  11  12
ENDBRANCH  10  11
ENDBRANCH   9  10
ENDBRANCH   8   9
ENDBRANCH   1   8
TORSDOF 9
ENDMDL
MODEL 2
REMARK VINA RESULT:    -4.036      1.173      1.862
REMARK INTER + INTRA:          -6.778
REMARK INTER:                  -6.113
REMARK INTRA:                  -0.665
REMARK UNBOUND:                -0.619
REMARK SMILES O=C([O-])CCCCCCCCC(=O)[O-]
REMARK SMILES IDX 7 1 6 2 5 3 4 4 2 5 1 6 3 7 8 8 9 9 10 10 11 11 12 12 13 13
REMARK SMILES IDX 14 14
REMARK H PARENT
REMARK Flexibility Score: inf
ROOT
ATOM      1  C   UNL     1      -4.222  34.720  -0.501  1.00  0.00     0.000 C 
ENDROOT
BRANCH   1   2
ATOM      2  C   UNL     1      -4.005  34.400   0.986  1.00  0.00     0.000 C 
BRANCH   2   3
ATOM      3  C   UNL     1      -5.240  33.754   1.638  1.00  0.00     0.006 C 
BRANCH   3   4
ATOM      4  C   UNL     1      -6.526  34.537   1.346  1.00  0.00     0.053 C 
BRANCH   4   5
ATOM      5  C   UNL     1      -7.659  33.628   0.976  1.00  0.00     0.041 C 
ATOM      6  O   UNL     1      -8.707  34.098   0.461  1.00  0.00    -0.550 OA
ATOM      7  O   UNL     1      -7.543  32.258   1.172  1.00  0.00    -0.550 OA
ENDBRANCH   4   5
ENDBRANCH   3   4
ENDBRANCH   2   3
ENDBRANCH   1   2
BRANCH   1   8
ATOM      8  C   UNL     1      -3.875  36.180  -0.849  1.00  0.00     0.000 C 
BRANCH   8   9
ATOM      9  C   UNL     1      -4.680  37.191  -0.018  1.00  0.00     0.000 C 
BRANCH   9  10
ATOM     10  C   UNL     1      -5.701  37.969  -0.862  1.00  0.00     0.006 C 
BRANCH  10  11
ATOM     11  C   UNL     1      -7.113  37.818  -0.289  1.00  0.00     0.053 C 
BRANCH  11  12
ATOM     12  C   UNL     1      -8.121  37.737  -1.392  1.00  0.00     0.041 C 
ATOM     13  O   UNL     1      -7.798  38.043  -2.570  1.00  0.00    -0.550 OA
ATOM     14  O   UNL     1      -9.404  37.274  -1.129  1.00  0.00    -0.550 OA
ENDBRANCH  11  12
ENDBRANCH  10  11
ENDBRANCH   9  10
ENDBRANCH   8   9
ENDBRANCH   1   8
TORSDOF 9
ENDMDL
MODEL 3
REMARK VINA RESULT:    -4.004     13.003     15.590
REMARK INTER + INTRA:          -6.730
REMARK INTER:                  -6.449
REMARK INTRA:                  -0.281
REMARK UNBOUND:                -0.619
REMARK SMILES O=C([O-])CCCCCCCCC(=O)[O-]
REMARK SMILES IDX 7 1 6 2 5 3 4 4 2 5 1 6 3 7 8 8 9 9 10 10 11 11 12 12 13 13
REMARK SMILES IDX 14 14
REMARK H PARENT
REMARK Flexibility Score: inf
ROOT
ATOM      1  C   UNL     1     -17.845  33.989 -11.006  1.00  0.00     0.000 C 
ENDROOT
BRANCH   1   2
ATOM      2  C   UNL     1     -16.730  33.229 -11.739  1.00  0.00     0.000 C 
BRANCH   2   3
ATOM      3  C   UNL     1     -15.327  33.753 -11.387  1.00  0.00     0.006 C 
BRANCH   3   4
ATOM      4  C   UNL     1     -15.154  33.978  -9.880  1.00  0.00     0.053 C 
BRANCH   4   5
ATOM      5  C   UNL     1     -14.018  34.909  -9.583  1.00  0.00     0.041 C 
ATOM      6  O   UNL     1     -13.742  35.214  -8.393  1.00  0.00    -0.550 OA
ATOM      7  O   UNL     1     -13.246  35.417 -10.621  1.00  0.00    -0.550 OA
ENDBRANCH   4   5
ENDBRANCH   3   4
ENDBRANCH   2   3
ENDBRANCH   1   2
BRANCH   1   8
ATOM      8  C   UNL     1     -18.605  33.102 -10.002  1.00  0.00     0.000 C 
BRANCH   8   9
ATOM      9  C   UNL     1     -19.106  33.890  -8.781  1.00  0.00     0.000 C 
BRANCH   9  10
ATOM     10  C   UNL     1     -20.364  33.269  -8.154  1.00  0.00     0.006 C 
BRANCH  10  11
ATOM     11  C   UNL     1     -21.305  34.356  -7.626  1.00  0.00     0.053 C 
BRANCH  11  12
ATOM     12  C   UNL     1     -22.692  33.818  -7.468  1.00  0.00     0.041 C 
ATOM     13  O   UNL     1     -22.889  32.750  -6.833  1.00  0.00    -0.550 OA
ATOM     14  O   UNL     1     -23.774  34.524  -7.980  1.00  0.00    -0.550 OA
ENDBRANCH  11  12
ENDBRANCH  10  11
ENDBRANCH   9  10
ENDBRANCH   8   9
ENDBRANCH   1   8
TORSDOF 9
ENDMDL
MODEL 4
REMARK VINA RESULT:    -3.991     13.261     15.914
REMARK INTER + INTRA:          -6.709
REMARK INTER:                  -6.292
REMARK INTRA:                  -0.418
REMARK UNBOUND:                -0.619
REMARK SMILES O=C([O-])CCCCCCCCC(=O)[O-]
REMARK SMILES IDX 7 1 6 2 5 3 4 4 2 5 1 6 3 7 8 8 9 9 10 10 11 11 12 12 13 13
REMARK SMILES IDX 14 14
REMARK H PARENT
REMARK Flexibility Score: inf
ROOT
ATOM      1  C   UNL     1     -18.369  33.227 -10.116  1.00  0.00     0.000 C 
ENDROOT
BRANCH   1   2
ATOM      2  C   UNL     1     -18.984  34.027  -8.957  1.00  0.00     0.000 C 
BRANCH   2   3
ATOM      3  C   UNL     1     -20.221  33.340  -8.356  1.00  0.00     0.006 C 
BRANCH   3   4
ATOM      4  C   UNL     1     -21.151  34.335  -7.650  1.00  0.00     0.053 C 
BRANCH   4   5
ATOM      5  C   UNL     1     -22.513  33.755  -7.418  1.00  0.00     0.041 C 
ATOM      6  O   UNL     1     -22.665  32.791  -6.623  1.00  0.00    -0.550 OA
ATOM      7  O   UNL     1     -23.619  34.301  -8.056  1.00  0.00    -0.550 OA
ENDBRANCH   4   5
ENDBRANCH   3   4
ENDBRANCH   2   3
ENDBRANCH   1   2
BRANCH   1   8
ATOM      8  C   UNL     1     -18.364  34.012 -11.440  1.00  0.00     0.000 C 
BRANCH   8   9
ATOM      9  C   UNL     1     -17.143  33.685 -12.316  1.00  0.00     0.000 C 
BRANCH   9  10
ATOM     10  C   UNL     1     -15.962  33.137 -11.500  1.00  0.00     0.006 C 
BRANCH  10  11
ATOM     11  C   UNL     1     -14.724  34.024 -11.667  1.00  0.00     0.053 C 
BRANCH  11  12
ATOM     12  C   UNL     1     -14.321  34.616 -10.354  1.00  0.00     0.041 C 
ATOM     13  O   UNL     1     -14.933  34.298  -9.300  1.00  0.00    -0.550 OA
ATOM     14  O   UNL     1     -13.237  35.481 -10.285  1.00  0.00    -0.550 OA
ENDBRANCH  11  12
ENDBRANCH  10  11
ENDBRANCH   9  10
ENDBRANCH   8   9
ENDBRANCH   1   8
TORSDOF 9
ENDMDL
MODEL 5
REMARK VINA RESULT:    -3.908      2.038      3.072
REMARK INTER + INTRA:          -6.583
REMARK INTER:                  -5.954
REMARK INTRA:                  -0.629
REMARK UNBOUND:                -0.619
REMARK SMILES O=C([O-])CCCCCCCCC(=O)[O-]
REMARK SMILES IDX 7 1 6 2 5 3 4 4 2 5 1 6 3 7 8 8 9 9 10 10 11 11 12 12 13 13
REMARK SMILES IDX 14 14
REMARK H PARENT
REMARK Flexibility Score: inf
ROOT
ATOM      1  C   UNL     1      -5.487  34.108   1.311  1.00  0.00     0.000 C 
ENDROOT
BRANCH   1   2
ATOM      2  C   UNL     1      -6.992  34.167   1.005  1.00  0.00     0.000 C 
BRANCH   2   3
ATOM      3  C   UNL     1      -7.633  32.772   0.919  1.00  0.00     0.006 C 
BRANCH   3   4
ATOM      4  C   UNL     1      -6.719  31.678   1.486  1.00  0.00     0.053 C 
BRANCH   4   5
ATOM      5  C   UNL     1      -7.427  30.362   1.595  1.00  0.00     0.041 C 
ATOM      6  O   UNL     1      -7.771  29.739   0.556  1.00  0.00    -0.550 OA
ATOM      7  O   UNL     1      -7.680  29.810   2.844  1.00  0.00    -0.550 OA
ENDBRANCH   4   5
ENDBRANCH   3   4
ENDBRANCH   2   3
ENDBRANCH   1   2
BRANCH   1   8
ATOM      8  C   UNL     1      -4.619  34.377   0.068  1.00  0.00     0.000 C 
BRANCH   8   9
ATOM      9  C   UNL     1      -3.895  35.731   0.136  1.00  0.00     0.000 C 
BRANCH   9  10
ATOM     10  C   UNL     1      -4.387  36.717  -0.934  1.00  0.00     0.006 C 
BRANCH  10  11
ATOM     11  C   UNL     1      -4.949  37.988  -0.290  1.00  0.00     0.053 C 
BRANCH  11  12
ATOM     12  C   UNL     1      -6.297  37.724   0.302  1.00  0.00     0.041 C 
ATOM     13  O   UNL     1      -7.304  37.599  -0.444  1.00  0.00    -0.550 OA
ATOM     14  O   UNL     1      -6.434  37.565   1.675  1.00  0.00    -0.550 OA
ENDBRANCH  11  12
ENDBRANCH  10  11
ENDBRANCH   9  10
ENDBRANCH   8   9
ENDBRANCH   1   8
TORSDOF 9
ENDMDL
MODEL 6
REMARK VINA RESULT:    -3.848      0.888      4.935
REMARK INTER + INTRA:          -6.491
REMARK INTER:                  -5.866
REMARK INTRA:                  -0.624
REMARK UNBOUND:                -0.619
REMARK SMILES O=C([O-])CCCCCCCCC(=O)[O-]
REMARK SMILES IDX 7 1 6 2 5 3 4 4 2 5 1 6 3 7 8 8 9 9 10 10 11 11 12 12 13 13
REMARK SMILES IDX 14 14
REMARK H PARENT
REMARK Flexibility Score: inf
ROOT
ATOM      1  C   UNL     1      -4.046  37.077   0.962  1.00  0.00     0.000 C 
ENDROOT
BRANCH   1   2
ATOM      2  C   UNL     1      -5.178  38.114   0.902  1.00  0.00     0.000 C 
BRANCH   2   3
ATOM      3  C   UNL     1      -5.995  38.023  -0.399  1.00  0.00     0.006 C 
BRANCH   3   4
ATOM      4  C   UNL     1      -7.412  37.489  -0.157  1.00  0.00     0.053 C 
BRANCH   4   5
ATOM      5  C   UNL     1      -8.298  37.704  -1.346  1.00  0.00     0.041 C 
ATOM      6  O   UNL     1      -9.548  37.605  -1.231  1.00  0.00    -0.550 OA
ATOM      7  O   UNL     1      -7.744  38.043  -2.573  1.00  0.00    -0.550 OA
ENDBRANCH   4   5
ENDBRANCH   3   4
ENDBRANCH   2   3
ENDBRANCH   1   2
BRANCH   1   8
ATOM      8  C   UNL     1      -4.033  36.143  -0.262  1.00  0.00     0.000 C 
BRANCH   8   9
ATOM      9  C   UNL     1      -4.302  34.677   0.111  1.00  0.00     0.000 C 
BRANCH   9  10
ATOM     10  C   UNL     1      -5.438  34.528   1.135  1.00  0.00     0.006 C 
BRANCH  10  11
ATOM     11  C   UNL     1      -5.727  33.051   1.420  1.00  0.00     0.053 C 
BRANCH  11  12
ATOM     12  C   UNL     1      -7.140  32.714   1.061  1.00  0.00     0.041 C 
ATOM     13  O   UNL     1      -7.581  31.550   1.251  1.00  0.00    -0.550 OA
ATOM     14  O   UNL     1      -7.984  33.698   0.564  1.00  0.00    -0.550 OA
ENDBRANCH  11  12
ENDBRANCH  10  11
ENDBRANCH   9  10
ENDBRANCH   8   9
ENDBRANCH   1   8
TORSDOF 9
ENDMDL
MODEL 7
REMARK VINA RESULT:    -3.716      1.518      2.253
REMARK INTER + INTRA:          -6.291
REMARK INTER:                  -5.766
REMARK INTRA:                  -0.525
REMARK UNBOUND:                -0.619
REMARK SMILES O=C([O-])CCCCCCCCC(=O)[O-]
REMARK SMILES IDX 7 1 6 2 5 3 4 4 2 5 1 6 3 7 8 8 9 9 10 10 11 11 12 12 13 13
REMARK SMILES IDX 14 14
REMARK H PARENT
REMARK Flexibility Score: inf
ROOT
ATOM      1  C   UNL     1      -5.786  34.280   0.610  1.00  0.00     0.000 C 
ENDROOT
BRANCH   1   2
ATOM      2  C   UNL     1      -7.298  34.251   0.880  1.00  0.00     0.000 C 
BRANCH   2   3
ATOM      3  C   UNL     1      -7.858  32.820   0.955  1.00  0.00     0.006 C 
BRANCH   3   4
ATOM      4  C   UNL     1      -6.859  31.839   1.582  1.00  0.00     0.053 C 
BRANCH   4   5
ATOM      5  C   UNL     1      -7.411  30.448   1.647  1.00  0.00     0.041 C 
ATOM      6  O   UNL     1      -7.638  29.805   0.588  1.00  0.00    -0.550 OA
ATOM      7  O   UNL     1      -7.645  29.850   2.878  1.00  0.00    -0.550 OA
ENDBRANCH   4   5
ENDBRANCH   3   4
ENDBRANCH   2   3
ENDBRANCH   1   2
BRANCH   1   8
ATOM      8  C   UNL     1      -5.129  35.598   1.059  1.00  0.00     0.000 C 
BRANCH   8   9
ATOM      9  C   UNL     1      -4.789  36.520  -0.122  1.00  0.00     0.000 C 
BRANCH   9  10
ATOM     10  C   UNL     1      -5.361  37.935   0.050  1.00  0.00     0.006 C 
BRANCH  10  11
ATOM     11  C   UNL     1      -6.864  37.886   0.339  1.00  0.00     0.053 C 
BRANCH  11  12
ATOM     12  C   UNL     1      -7.640  37.751  -0.933  1.00  0.00     0.041 C 
ATOM     13  O   UNL     1      -8.830  37.342  -0.910  1.00  0.00    -0.550 OA
ATOM     14  O   UNL     1      -7.064  38.125  -2.141  1.00  0.00    -0.550 OA
ENDBRANCH  11  12
ENDBRANCH  10  11
ENDBRANCH   9  10
ENDBRANCH   8   9
ENDBRANCH   1   8
TORSDOF 9
ENDMDL
MODEL 8
REMARK VINA RESULT:    -3.562      1.380      4.834
REMARK INTER + INTRA:          -6.054
REMARK INTER:                  -5.444
REMARK INTRA:                  -0.611
REMARK UNBOUND:                -0.619
REMARK SMILES O=C([O-])CCCCCCCCC(=O)[O-]
REMARK SMILES IDX 7 1 6 2 5 3 4 4 2 5 1 6 3 7 8 8 9 9 10 10 11 11 12 12 13 13
REMARK SMILES IDX 14 14
REMARK H PARENT
REMARK Flexibility Score: inf
ROOT
ATOM      1  C   UNL     1      -7.057  37.950   0.045  1.00  0.00     0.000 C 
ENDROOT
BRANCH   1   2
ATOM      2  C   UNL     1      -6.965  38.121  -1.479  1.00  0.00     0.000 C 
BRANCH   2   3
ATOM      3  C   UNL     1      -8.287  37.788  -2.192  1.00  0.00     0.006 C 
BRANCH   3   4
ATOM      4  C   UNL     1      -9.485  37.818  -1.235  1.00  0.00     0.053 C 
BRANCH   4   5
ATOM      5  C   UNL     1     -10.116  36.467  -1.092  1.00  0.00     0.041 C 
ATOM      6  O   UNL     1      -9.477  35.520  -0.562  1.00  0.00    -0.550 OA
ATOM      7  O   UNL     1     -11.423  36.262  -1.517  1.00  0.00    -0.550 OA
ENDBRANCH   4   5
ENDBRANCH   3   4
ENDBRANCH   2   3
ENDBRANCH   1   2
BRANCH   1   8
ATOM      8  C   UNL     1      -5.687  38.067   0.738  1.00  0.00     0.000 C 
BRANCH   8   9
ATOM      9  C   UNL     1      -5.251  36.754   1.408  1.00  0.00     0.000 C 
BRANCH   9  10
ATOM     10  C   UNL     1      -6.382  35.716   1.464  1.00  0.00     0.006 C 
BRANCH  10  11
ATOM     11  C   UNL     1      -6.015  34.462   0.666  1.00  0.00     0.053 C 
BRANCH  11  12
ATOM     12  C   UNL     1      -6.711  33.261   1.225  1.00  0.00     0.041 C 
ATOM     13  O   UNL     1      -6.046  32.327   1.744  1.00  0.00    -0.550 OA
ATOM     14  O   UNL     1      -8.099  33.197   1.220  1.00  0.00    -0.550 OA
ENDBRANCH  11  12
ENDBRANCH  10  11
ENDBRANCH   9  10
ENDBRANCH   8   9
ENDBRANCH   1   8
TORSDOF 9
ENDMDL
MODEL 9
REMARK VINA RESULT:    -3.439      1.344      2.087
REMARK INTER + INTRA:          -5.867
REMARK INTER:                  -5.518
REMARK INTRA:                  -0.350
REMARK UNBOUND:                -0.619
REMARK SMILES O=C([O-])CCCCCCCCC(=O)[O-]
REMARK SMILES IDX 7 1 6 2 5 3 4 4 2 5 1 6 3 7 8 8 9 9 10 10 11 11 12 12 13 13
REMARK SMILES IDX 14 14
REMARK H PARENT
REMARK Flexibility Score: inf
ROOT
ATOM      1  C   UNL     1      -6.151  37.379   0.917  1.00  0.00     0.000 C 
ENDROOT
BRANCH   1   2
ATOM      2  C   UNL     1      -5.327  36.114   1.206  1.00  0.00     0.000 C 
BRANCH   2   3
ATOM      3  C   UNL     1      -6.163  35.000   1.860  1.00  0.00     0.006 C 
BRANCH   3   4
ATOM      4  C   UNL     1      -5.750  33.605   1.374  1.00  0.00     0.053 C 
BRANCH   4   5
ATOM      5  C   UNL     1      -6.939  32.762   1.029  1.00  0.00     0.041 C 
ATOM      6  O   UNL     1      -7.019  31.576   1.445  1.00  0.00    -0.550 OA
ATOM      7  O   UNL     1      -7.973  33.296   0.271  1.00  0.00    -0.550 OA
ENDBRANCH   4   5
ENDBRANCH   3   4
ENDBRANCH   2   3
ENDBRANCH   1   2
BRANCH   1   8
ATOM      8  C   UNL     1      -5.919  37.924  -0.504  1.00  0.00     0.000 C 
BRANCH   8   9
ATOM      9  C   UNL     1      -7.222  38.039  -1.311  1.00  0.00     0.000 C 
BRANCH   9  10
ATOM     10  C   UNL     1      -8.393  37.295  -0.650  1.00  0.00     0.006 C 
BRANCH  10  11
ATOM     11  C   UNL     1      -9.671  37.436  -1.483  1.00  0.00     0.053 C 
BRANCH  11  12
ATOM     12  C   UNL     1     -10.596  36.289  -1.223  1.00  0.00     0.041 C 
ATOM     13  O   UNL     1     -11.753  36.283  -1.718  1.00  0.00    -0.550 OA
ATOM     14  O   UNL     1     -10.163  35.203  -0.473  1.00  0.00    -0.550 OA
ENDBRANCH  11  12
ENDBRANCH  10  11
ENDBRANCH   9  10
ENDBRANCH   8   9
ENDBRANCH   1   8
TORSDOF 9
ENDMDL
