MODEL 1
REMARK VINA RESULT:    -3.175      0.000      0.000
REMARK INTER + INTRA:          -4.802
REMARK INTER:                  -4.475
REMARK INTRA:                  -0.327
REMARK UNBOUND:                -0.327
REMARK SMILES CCCCCCCCC(=O)[O-]
REMARK SMILES IDX 6 1 7 2 8 3 9 4 10 5 11 6 5 7 4 8 3 9 2 10 1 11
REMARK H PARENT
REMARK Flexibility Score: inf
ROOT
ATOM      1  C   UNL     1       5.557   0.205  -4.461  1.00  0.00     0.000 C 
ENDROOT
BRANCH   1   2
ATOM      2  C   UNL     1       4.869  -0.994  -5.125  1.00  0.00     0.006 C 
BRANCH   2   3
ATOM      3  C   UNL     1       4.707  -2.151  -4.134  1.00  0.00     0.053 C 
BRANCH   3   4
ATOM      4  C   UNL     1       3.449  -1.988  -3.341  1.00  0.00     0.041 C 
ATOM      5  O   UNL     1       3.503  -1.638  -2.133  1.00  0.00    -0.550 OA
ATOM      6  O   UNL     1       2.219  -2.270  -3.922  1.00  0.00    -0.550 OA
ENDBRANCH   3   4
ENDBRANCH   2   3
ENDBRANCH   1   2
BRANCH   1   7
ATOM      7  C   UNL     1       7.081   0.036  -4.463  1.00  0.00     0.000 C 
BRANCH   7   8
ATOM      8  C   UNL     1       7.784   1.396  -4.598  1.00  0.00    -0.000 C 
BRANCH   8   9
ATOM      9  C   UNL     1       6.810   2.579  -4.498  1.00  0.00    -0.000 C 
BRANCH   9  10
ATOM     10  C   UNL     1       7.344   3.713  -3.611  1.00  0.00    -0.003 C 
ATOM     11  C   UNL     1       6.272   4.771  -3.367  1.00  0.00     0.004 C 
ENDBRANCH   9  10
ENDBRANCH   8   9
ENDBRANCH   7   8
ENDBRANCH   1   7
TORSDOF 7
ENDMDL
MODEL 2
REMARK VINA RESULT:    -3.174      6.823      7.349
REMARK INTER + INTRA:          -4.799
REMARK INTER:                  -4.536
REMARK INTRA:                  -0.263
REMARK UNBOUND:                -0.327
REMARK SMILES CCCCCCCCC(=O)[O-]
REMARK SMILES IDX 6 1 7 2 8 3 9 4 10 5 11 6 5 7 4 8 3 9 2 10 1 11
REMARK H PARENT
REMARK Flexibility Score: inf
ROOT
ATOM      1  C   UNL     1       0.368   1.798  -9.061  1.00  0.00     0.000 C 
ENDROOT
BRANCH   1   2
ATOM      2  C   UNL     1       0.348   0.329  -8.620  1.00  0.00     0.006 C 
BRANCH   2   3
ATOM      3  C   UNL     1      -1.056  -0.091  -8.173  1.00  0.00     0.053 C 
BRANCH   3   4
ATOM      4  C   UNL     1      -0.993  -0.813  -6.864  1.00  0.00     0.041 C 
ATOM      5  O   UNL     1       0.119  -1.141  -6.374  1.00  0.00    -0.550 OA
ATOM      6  O   UNL     1      -2.166  -1.167  -6.208  1.00  0.00    -0.550 OA
ENDBRANCH   3   4
ENDBRANCH   2   3
ENDBRANCH   1   2
BRANCH   1   7
ATOM      7  C   UNL     1       1.801   2.277  -9.318  1.00  0.00     0.000 C 
BRANCH   7   8
ATOM      8  C   UNL     1       1.832   3.783  -9.618  1.00  0.00    -0.000 C 
BRANCH   8   9
ATOM      9  C   UNL     1       0.428   4.401  -9.691  1.00  0.00    -0.000 C 
BRANCH   9  10
ATOM     10  C   UNL     1       0.447   5.932  -9.575  1.00  0.00    -0.003 C 
ATOM     11  C   UNL     1      -0.842   6.453  -8.946  1.00  0.00     0.004 C 
ENDBRANCH   9  10
ENDBRANCH   8   9
ENDBRANCH   7   8
ENDBRANCH   1   7
TORSDOF 7
ENDMDL
MODEL 3
REMARK VINA RESULT:    -3.078      8.697     11.071
REMARK INTER + INTRA:          -4.664
REMARK INTER:                  -4.011
REMARK INTRA:                  -0.653
REMARK UNBOUND:                -0.327
REMARK SMILES CCCCCCCCC(=O)[O-]
REMARK SMILES IDX 6 1 7 2 8 3 9 4 10 5 11 6 5 7 4 8 3 9 2 10 1 11
REMARK H PARENT
REMARK Flexibility Score: inf
ROOT
ATOM      1  C   UNL     1      -4.687  -1.454  -4.563  1.00  0.00     0.000 C 
ENDROOT
BRANCH   1   2
ATOM      2  C   UNL     1      -4.458  -1.935  -6.001  1.00  0.00     0.006 C 
BRANCH   2   3
ATOM      3  C   UNL     1      -2.987  -2.290  -6.233  1.00  0.00     0.053 C 
BRANCH   3   4
ATOM      4  C   UNL     1      -2.250  -1.119  -6.803  1.00  0.00     0.041 C 
ATOM      5  O   UNL     1      -2.687  -0.534  -7.828  1.00  0.00    -0.550 OA
ATOM      6  O   UNL     1      -1.053  -0.705  -6.231  1.00  0.00    -0.550 OA
ENDBRANCH   3   4
ENDBRANCH   2   3
ENDBRANCH   1   2
BRANCH   1   7
ATOM      7  C   UNL     1      -6.109  -1.781  -4.092  1.00  0.00     0.000 C 
BRANCH   7   8
ATOM      8  C   UNL     1      -6.088  -2.832  -2.971  1.00  0.00    -0.000 C 
BRANCH   8   9
ATOM      9  C   UNL     1      -4.669  -3.128  -2.463  1.00  0.00    -0.000 C 
BRANCH   9  10
ATOM     10  C   UNL     1      -4.325  -4.624  -2.507  1.00  0.00    -0.003 C 
ATOM     11  C   UNL     1      -3.348  -4.931  -3.639  1.00  0.00     0.004 C 
ENDBRANCH   9  10
ENDBRANCH   8   9
ENDBRANCH   7   8
ENDBRANCH   1   7
TORSDOF 7
ENDMDL
MODEL 4
REMARK VINA RESULT:    -3.065      0.968      1.449
REMARK INTER + INTRA:          -4.646
REMARK INTER:                  -4.286
REMARK INTRA:                  -0.360
REMARK UNBOUND:                -0.327
REMARK SMILES CCCCCCCCC(=O)[O-]
REMARK SMILES IDX 6 1 7 2 8 3 9 4 10 5 11 6 5 7 4 8 3 9 2 10 1 11
REMARK H PARENT
REMARK Flexibility Score: inf
ROOT
ATOM      1  C   UNL     1       6.765  -2.034  -4.423  1.00  0.00     0.000 C 
ENDROOT
BRANCH   1   2
ATOM      2  C   UNL     1       5.875  -2.483  -3.257  1.00  0.00     0.006 C 
BRANCH   2   3
ATOM      3  C   UNL     1       4.554  -3.066  -3.767  1.00  0.00     0.053 C 
BRANCH   3   4
ATOM      4  C   UNL     1       3.406  -2.202  -3.351  1.00  0.00     0.041 C 
ATOM      5  O   UNL     1       3.523  -1.423  -2.370  1.00  0.00    -0.550 OA
ATOM      6  O   UNL     1       2.190  -2.293  -4.018  1.00  0.00    -0.550 OA
ENDBRANCH   3   4
ENDBRANCH   2   3
ENDBRANCH   1   2
BRANCH   1   7
ATOM      7  C   UNL     1       7.182  -0.567  -4.265  1.00  0.00     0.000 C 
BRANCH   7   8
ATOM      8  C   UNL     1       5.974   0.369  -4.432  1.00  0.00    -0.000 C 
BRANCH   8   9
ATOM      9  C   UNL     1       6.365   1.744  -4.994  1.00  0.00    -0.000 C 
BRANCH   9  10
ATOM     10  C   UNL     1       7.318   2.513  -4.069  1.00  0.00    -0.003 C 
ATOM     11  C   UNL     1       6.807   3.926  -3.804  1.00  0.00     0.004 C 
ENDBRANCH   9  10
ENDBRANCH   8   9
ENDBRANCH   7   8
ENDBRANCH   1   7
TORSDOF 7
ENDMDL
MODEL 5
REMARK VINA RESULT:    -3.059      1.673      3.125
REMARK INTER + INTRA:          -4.637
REMARK INTER:                  -3.948
REMARK INTRA:                  -0.689
REMARK UNBOUND:                -0.327
REMARK SMILES CCCCCCCCC(=O)[O-]
REMARK SMILES IDX 6 1 7 2 8 3 9 4 10 5 11 6 5 7 4 8 3 9 2 10 1 11
REMARK H PARENT
REMARK Flexibility Score: inf
ROOT
ATOM      1  C   UNL     1       6.603  -0.605  -4.377  1.00  0.00     0.000 C 
ENDROOT
BRANCH   1   2
ATOM      2  C   UNL     1       5.741  -1.801  -3.955  1.00  0.00     0.006 C 
BRANCH   2   3
ATOM      3  C   UNL     1       4.352  -1.730  -4.596  1.00  0.00     0.053 C 
BRANCH   3   4
ATOM      4  C   UNL     1       3.289  -1.954  -3.566  1.00  0.00     0.041 C 
ATOM      5  O   UNL     1       2.142  -2.337  -3.914  1.00  0.00    -0.550 OA
ATOM      6  O   UNL     1       3.552  -1.692  -2.227  1.00  0.00    -0.550 OA
ENDBRANCH   3   4
ENDBRANCH   2   3
ENDBRANCH   1   2
BRANCH   1   7
ATOM      7  C   UNL     1       5.748   0.656  -4.549  1.00  0.00     0.000 C 
BRANCH   7   8
ATOM      8  C   UNL     1       6.436   1.664  -5.483  1.00  0.00    -0.000 C 
BRANCH   8   9
ATOM      9  C   UNL     1       6.604   1.127  -6.912  1.00  0.00    -0.000 C 
BRANCH   9  10
ATOM     10  C   UNL     1       5.266   0.985  -7.653  1.00  0.00    -0.003 C 
ATOM     11  C   UNL     1       5.003  -0.467  -8.041  1.00  0.00     0.004 C 
ENDBRANCH   9  10
ENDBRANCH   8   9
ENDBRANCH   7   8
ENDBRANCH   1   7
TORSDOF 7
ENDMDL
MODEL 6
REMARK VINA RESULT:    -3.054      1.460      1.901
REMARK INTER + INTRA:          -4.631
REMARK INTER:                  -4.211
REMARK INTRA:                  -0.420
REMARK UNBOUND:                -0.327
REMARK SMILES CCCCCCCCC(=O)[O-]
REMARK SMILES IDX 6 1 7 2 8 3 9 4 10 5 11 6 5 7 4 8 3 9 2 10 1 11
REMARK H PARENT
REMARK Flexibility Score: inf
ROOT
ATOM      1  C   UNL     1       5.481  -0.039  -4.115  1.00  0.00     0.000 C 
ENDROOT
BRANCH   1   2
ATOM      2  C   UNL     1       5.075  -1.502  -3.899  1.00  0.00     0.006 C 
BRANCH   2   3
ATOM      3  C   UNL     1       4.131  -1.978  -5.007  1.00  0.00     0.053 C 
BRANCH   3   4
ATOM      4  C   UNL     1       2.998  -2.765  -4.427  1.00  0.00     0.041 C 
ATOM      5  O   UNL     1       2.148  -2.202  -3.690  1.00  0.00    -0.550 OA
ATOM      6  O   UNL     1       2.908  -4.132  -4.663  1.00  0.00    -0.550 OA
ENDBRANCH   3   4
ENDBRANCH   2   3
ENDBRANCH   1   2
BRANCH   1   7
ATOM      7  C   UNL     1       5.792   0.235  -5.591  1.00  0.00     0.000 C 
BRANCH   7   8
ATOM      8  C   UNL     1       6.447   1.613  -5.769  1.00  0.00    -0.000 C 
BRANCH   8   9
ATOM      9  C   UNL     1       6.765   2.294  -4.429  1.00  0.00    -0.000 C 
BRANCH   9  10
ATOM     10  C   UNL     1       8.243   2.690  -4.302  1.00  0.00    -0.003 C 
ATOM     11  C   UNL     1       9.007   1.690  -3.439  1.00  0.00     0.004 C 
ENDBRANCH   9  10
ENDBRANCH   8   9
ENDBRANCH   7   8
ENDBRANCH   1   7
TORSDOF 7
ENDMDL
MODEL 7
REMARK VINA RESULT:    -3.035      2.063      2.906
REMARK INTER + INTRA:          -4.603
REMARK INTER:                  -3.809
REMARK INTRA:                  -0.794
REMARK UNBOUND:                -0.327
REMARK SMILES CCCCCCCCC(=O)[O-]
REMARK SMILES IDX 6 1 7 2 8 3 9 4 10 5 11 6 5 7 4 8 3 9 2 10 1 11
REMARK H PARENT
REMARK Flexibility Score: inf
ROOT
ATOM      1  C   UNL     1       6.909  -2.806  -3.840  1.00  0.00     0.000 C 
ENDROOT
BRANCH   1   2
ATOM      2  C   UNL     1       5.675  -3.110  -2.981  1.00  0.00     0.006 C 
BRANCH   2   3
ATOM      3  C   UNL     1       4.420  -3.236  -3.850  1.00  0.00     0.053 C 
BRANCH   3   4
ATOM      4  C   UNL     1       3.388  -2.238  -3.425  1.00  0.00     0.041 C 
ATOM      5  O   UNL     1       3.642  -1.418  -2.505  1.00  0.00    -0.550 OA
ATOM      6  O   UNL     1       2.129  -2.247  -4.013  1.00  0.00    -0.550 OA
ENDBRANCH   3   4
ENDBRANCH   2   3
ENDBRANCH   1   2
BRANCH   1   7
ATOM      7  C   UNL     1       7.613  -1.531  -3.361  1.00  0.00     0.000 C 
BRANCH   7   8
ATOM      8  C   UNL     1       7.513  -0.418  -4.415  1.00  0.00    -0.000 C 
BRANCH   8   9
ATOM      9  C   UNL     1       6.183   0.348  -4.342  1.00  0.00    -0.000 C 
BRANCH   9  10
ATOM     10  C   UNL     1       5.576   0.614  -5.727  1.00  0.00    -0.003 C 
ATOM     11  C   UNL     1       5.189  -0.691  -6.418  1.00  0.00     0.004 C 
ENDBRANCH   9  10
ENDBRANCH   8   9
ENDBRANCH   7   8
ENDBRANCH   1   7
TORSDOF 7
ENDMDL
MODEL 8
REMARK VINA RESULT:    -3.016      2.626      3.790
REMARK INTER + INTRA:          -4.576
REMARK INTER:                  -3.739
REMARK INTRA:                  -0.837
REMARK UNBOUND:                -0.327
REMARK SMILES CCCCCCCCC(=O)[O-]
REMARK SMILES IDX 6 1 7 2 8 3 9 4 10 5 11 6 5 7 4 8 3 9 2 10 1 11
REMARK H PARENT
REMARK Flexibility Score: inf
ROOT
ATOM      1  C   UNL     1       4.749  -1.184  -7.211  1.00  0.00     0.000 C 
ENDROOT
BRANCH   1   2
ATOM      2  C   UNL     1       4.051  -2.495  -6.829  1.00  0.00     0.006 C 
BRANCH   2   3
ATOM      3  C   UNL     1       2.694  -2.223  -6.173  1.00  0.00     0.053 C 
BRANCH   3   4
ATOM      4  C   UNL     1       2.624  -2.873  -4.827  1.00  0.00     0.041 C 
ATOM      5  O   UNL     1       2.893  -4.095  -4.701  1.00  0.00    -0.550 OA
ATOM      6  O   UNL     1       2.213  -2.139  -3.721  1.00  0.00    -0.550 OA
ENDBRANCH   3   4
ENDBRANCH   2   3
ENDBRANCH   1   2
BRANCH   1   7
ATOM      7  C   UNL     1       5.916  -0.884  -6.263  1.00  0.00     0.000 C 
BRANCH   7   8
ATOM      8  C   UNL     1       5.485   0.082  -5.149  1.00  0.00    -0.000 C 
BRANCH   8   9
ATOM      9  C   UNL     1       5.352  -0.609  -3.784  1.00  0.00    -0.000 C 
BRANCH   9  10
ATOM     10  C   UNL     1       6.089  -1.955  -3.727  1.00  0.00    -0.003 C 
ATOM     11  C   UNL     1       5.670  -2.761  -2.501  1.00  0.00     0.004 C 
ENDBRANCH   9  10
ENDBRANCH   8   9
ENDBRANCH   7   8
ENDBRANCH   1   7
TORSDOF 7
ENDMDL
MODEL 9
REMARK VINA RESULT:    -2.965      1.609      2.628
REMARK INTER + INTRA:          -4.505
REMARK INTER:                  -3.961
REMARK INTRA:                  -0.544
REMARK UNBOUND:                -0.327
REMARK SMILES CCCCCCCCC(=O)[O-]
REMARK SMILES IDX 6 1 7 2 8 3 9 4 10 5 11 6 5 7 4 8 3 9 2 10 1 11
REMARK H PARENT
REMARK Flexibility Score: inf
ROOT
ATOM      1  C   UNL     1       5.795  -2.135  -5.361  1.00  0.00     0.000 C 
ENDROOT
BRANCH   1   2
ATOM      2  C   UNL     1       4.604  -3.056  -5.654  1.00  0.00     0.006 C 
BRANCH   2   3
ATOM      3  C   UNL     1       3.468  -2.285  -6.332  1.00  0.00     0.053 C 
BRANCH   3   4
ATOM      4  C   UNL     1       2.260  -2.250  -5.450  1.00  0.00     0.041 C 
ATOM      5  O   UNL     1       1.151  -1.871  -5.909  1.00  0.00    -0.550 OA
ATOM      6  O   UNL     1       2.369  -2.591  -4.107  1.00  0.00    -0.550 OA
ENDBRANCH   3   4
ENDBRANCH   2   3
ENDBRANCH   1   2
BRANCH   1   7
ATOM      7  C   UNL     1       5.692  -1.531  -3.955  1.00  0.00     0.000 C 
BRANCH   7   8
ATOM      8  C   UNL     1       5.570  -0.001  -4.022  1.00  0.00    -0.000 C 
BRANCH   8   9
ATOM      9  C   UNL     1       5.726   0.543  -5.450  1.00  0.00    -0.000 C 
BRANCH   9  10
ATOM     10  C   UNL     1       6.823   1.612  -5.560  1.00  0.00    -0.003 C 
ATOM     11  C   UNL     1       6.795   2.554  -4.360  1.00  0.00     0.004 C 
ENDBRANCH   9  10
ENDBRANCH   8   9
ENDBRANCH   7   8
ENDBRANCH   1   7
TORSDOF 7
ENDMDL
