MODEL 1
REMARK VINA RESULT:    -4.857      0.000      0.000
REMARK INTER + INTRA:          -7.399
REMARK INTER:                  -7.129
REMARK INTRA:                  -0.270
REMARK UNBOUND:                -0.270
REMARK SMILES O=C([O-])CCCCCCCC(=O)[O-]
REMARK SMILES IDX 7 1 6 2 5 3 4 4 2 5 1 6 3 7 8 8 9 9 10 10 11 11 12 12 13 13
REMARK H PARENT
REMARK Flexibility Score: inf
ROOT
ATOM      1  C   UNL     1     -10.485  23.263 -25.755  1.00  0.00     0.000 C 
ENDROOT
BRANCH   1   2
ATOM      2  C   UNL     1     -10.132  22.226 -24.674  1.00  0.00     0.000 C 
BRANCH   2   3
ATOM      3  C   UNL     1      -9.281  22.822 -23.541  1.00  0.00     0.006 C 
BRANCH   3   4
ATOM      4  C   UNL     1     -10.128  23.274 -22.345  1.00  0.00     0.053 C 
BRANCH   4   5
ATOM      5  C   UNL     1      -9.528  22.781 -21.066  1.00  0.00     0.041 C 
ATOM      6  O   UNL     1      -8.359  23.118 -20.743  1.00  0.00    -0.550 OA
ATOM      7  O   UNL     1     -10.278  21.989 -20.206  1.00  0.00    -0.550 OA
ENDBRANCH   4   5
ENDBRANCH   3   4
ENDBRANCH   2   3
ENDBRANCH   1   2
BRANCH   1   8
ATOM      8  C   UNL     1      -9.241  23.857 -26.440  1.00  0.00     0.000 C 
BRANCH   8   9
ATOM      9  C   UNL     1      -9.487  25.173 -27.206  1.00  0.00     0.006 C 
BRANCH   9  10
ATOM     10  C   UNL     1      -8.264  25.705 -27.969  1.00  0.00     0.053 C 
BRANCH  10  11
ATOM     11  C   UNL     1      -7.831  27.047 -27.468  1.00  0.00     0.041 C 
ATOM     12  O   UNL     1      -8.089  27.395 -26.285  1.00  0.00    -0.550 OA
ATOM     13  O   UNL     1      -7.114  27.902 -28.295  1.00  0.00    -0.550 OA
ENDBRANCH  10  11
ENDBRANCH   9  10
ENDBRANCH   8   9
ENDBRANCH   1   8
TORSDOF 8
ENDMDL
MODEL 2
REMARK VINA RESULT:    -4.817      0.228      6.660
REMARK INTER + INTRA:          -7.340
REMARK INTER:                  -7.078
REMARK INTRA:                  -0.262
REMARK UNBOUND:                -0.270
REMARK SMILES O=C([O-])CCCCCCCC(=O)[O-]
REMARK SMILES IDX 7 1 6 2 5 3 4 4 2 5 1 6 3 7 8 8 9 9 10 10 11 11 12 12 13 13
REMARK H PARENT
REMARK Flexibility Score: inf
ROOT
ATOM      1  C   UNL     1     -10.482  23.270 -25.774  1.00  0.00     0.000 C 
ENDROOT
BRANCH   1   2
ATOM      2  C   UNL     1      -9.283  23.844 -26.550  1.00  0.00     0.000 C 
BRANCH   2   3
ATOM      3  C   UNL     1      -9.579  25.227 -27.153  1.00  0.00     0.006 C 
BRANCH   3   4
ATOM      4  C   UNL     1      -8.421  25.755 -28.010  1.00  0.00     0.053 C 
BRANCH   4   5
ATOM      5  C   UNL     1      -7.876  27.021 -27.428  1.00  0.00     0.041 C 
ATOM      6  O   UNL     1      -8.439  27.558 -26.439  1.00  0.00    -0.550 OA
ATOM      7  O   UNL     1      -6.717  27.582 -27.948  1.00  0.00    -0.550 OA
ENDBRANCH   4   5
ENDBRANCH   3   4
ENDBRANCH   2   3
ENDBRANCH   1   2
BRANCH   1   8
ATOM      8  C   UNL     1     -10.066  22.237 -24.712  1.00  0.00     0.000 C 
BRANCH   8   9
ATOM      9  C   UNL     1      -9.265  22.810 -23.526  1.00  0.00     0.006 C 
BRANCH   9  10
ATOM     10  C   UNL     1     -10.122  23.226 -22.320  1.00  0.00     0.053 C 
BRANCH  10  11
ATOM     11  C   UNL     1      -9.553  22.722 -21.030  1.00  0.00     0.041 C 
ATOM     12  O   UNL     1      -8.347  22.940 -20.740  1.00  0.00    -0.550 OA
ATOM     13  O   UNL     1     -10.364  22.039 -20.131  1.00  0.00    -0.550 OA
ENDBRANCH  10  11
ENDBRANCH   9  10
ENDBRANCH   8   9
ENDBRANCH   1   8
TORSDOF 8
ENDMDL
MODEL 3
REMARK VINA RESULT:    -4.676      7.941      9.043
REMARK INTER + INTRA:          -7.134
REMARK INTER:                  -6.524
REMARK INTRA:                  -0.610
REMARK UNBOUND:                -0.270
REMARK SMILES O=C([O-])CCCCCCCC(=O)[O-]
REMARK SMILES IDX 7 1 6 2 5 3 4 4 2 5 1 6 3 7 8 8 9 9 10 10 11 11 12 12 13 13
REMARK H PARENT
REMARK Flexibility Score: inf
ROOT
ATOM      1  C   UNL     1      -5.898  28.571 -21.479  1.00  0.00     0.000 C 
ENDROOT
BRANCH   1   2
ATOM      2  C   UNL     1      -6.502  29.897 -20.984  1.00  0.00     0.000 C 
BRANCH   2   3
ATOM      3  C   UNL     1      -5.804  30.427 -19.720  1.00  0.00     0.006 C 
BRANCH   3   4
ATOM      4  C   UNL     1      -6.755  31.216 -18.811  1.00  0.00     0.053 C 
BRANCH   4   5
ATOM      5  C   UNL     1      -7.010  30.463 -17.544  1.00  0.00     0.041 C 
ATOM      6  O   UNL     1      -7.146  31.080 -16.456  1.00  0.00    -0.550 OA
ATOM      7  O   UNL     1      -7.146  29.081 -17.572  1.00  0.00    -0.550 OA
ENDBRANCH   4   5
ENDBRANCH   3   4
ENDBRANCH   2   3
ENDBRANCH   1   2
BRANCH   1   8
ATOM      8  C   UNL     1      -5.872  27.483 -20.389  1.00  0.00     0.000 C 
BRANCH   8   9
ATOM      9  C   UNL     1      -4.521  26.756 -20.230  1.00  0.00     0.006 C 
BRANCH   9  10
ATOM     10  C   UNL     1      -3.291  27.613 -20.565  1.00  0.00     0.053 C 
BRANCH  10  11
ATOM     11  C   UNL     1      -2.770  28.338 -19.364  1.00  0.00     0.041 C 
ATOM     12  O   UNL     1      -2.754  27.772 -18.239  1.00  0.00    -0.550 OA
ATOM     13  O   UNL     1      -2.270  29.628 -19.491  1.00  0.00    -0.550 OA
ENDBRANCH  10  11
ENDBRANCH   9  10
ENDBRANCH   8   9
ENDBRANCH   1   8
TORSDOF 8
ENDMDL
MODEL 4
REMARK VINA RESULT:    -4.527      8.383      9.834
REMARK INTER + INTRA:          -6.914
REMARK INTER:                  -6.335
REMARK INTRA:                  -0.579
REMARK UNBOUND:                -0.270
REMARK SMILES O=C([O-])CCCCCCCC(=O)[O-]
REMARK SMILES IDX 7 1 6 2 5 3 4 4 2 5 1 6 3 7 8 8 9 9 10 10 11 11 12 12 13 13
REMARK H PARENT
REMARK Flexibility Score: inf
ROOT
ATOM      1  C   UNL     1      -6.384  28.031 -18.627  1.00  0.00     0.000 C 
ENDROOT
BRANCH   1   2
ATOM      2  C   UNL     1      -6.770  29.464 -18.222  1.00  0.00     0.000 C 
BRANCH   2   3
ATOM      3  C   UNL     1      -6.012  30.530 -19.030  1.00  0.00     0.006 C 
BRANCH   3   4
ATOM      4  C   UNL     1      -6.951  31.560 -19.671  1.00  0.00     0.053 C 
BRANCH   4   5
ATOM      5  C   UNL     1      -6.489  32.950 -19.361  1.00  0.00     0.041 C 
ATOM      6  O   UNL     1      -5.843  33.608 -20.218  1.00  0.00    -0.550 OA
ATOM      7  O   UNL     1      -6.816  33.536 -18.146  1.00  0.00    -0.550 OA
ENDBRANCH   4   5
ENDBRANCH   3   4
ENDBRANCH   2   3
ENDBRANCH   1   2
BRANCH   1   8
ATOM      8  C   UNL     1      -5.976  27.919 -20.107  1.00  0.00     0.000 C 
BRANCH   8   9
ATOM      9  C   UNL     1      -4.739  27.038 -20.376  1.00  0.00     0.006 C 
BRANCH   9  10
ATOM     10  C   UNL     1      -3.458  27.821 -20.703  1.00  0.00     0.053 C 
BRANCH  10  11
ATOM     11  C   UNL     1      -2.864  28.457 -19.485  1.00  0.00     0.041 C 
ATOM     12  O   UNL     1      -2.799  27.816 -18.403  1.00  0.00    -0.550 OA
ATOM     13  O   UNL     1      -2.351  29.746 -19.552  1.00  0.00    -0.550 OA
ENDBRANCH  10  11
ENDBRANCH   9  10
ENDBRANCH   8   9
ENDBRANCH   1   8
TORSDOF 8
ENDMDL
MODEL 5
REMARK VINA RESULT:    -4.435      7.962      9.051
REMARK INTER + INTRA:          -6.779
REMARK INTER:                  -6.006
REMARK INTRA:                  -0.774
REMARK UNBOUND:                -0.270
REMARK SMILES O=C([O-])CCCCCCCC(=O)[O-]
REMARK SMILES IDX 7 1 6 2 5 3 4 4 2 5 1 6 3 7 8 8 9 9 10 10 11 11 12 12 13 13
REMARK H PARENT
REMARK Flexibility Score: inf
ROOT
ATOM      1  C   UNL     1      -4.226  31.111 -21.220  1.00  0.00     0.000 C 
ENDROOT
BRANCH   1   2
ATOM      2  C   UNL     1      -5.394  31.740 -20.439  1.00  0.00     0.000 C 
BRANCH   2   3
ATOM      3  C   UNL     1      -6.488  30.717 -20.090  1.00  0.00     0.006 C 
BRANCH   3   4
ATOM      4  C   UNL     1      -6.522  30.379 -18.594  1.00  0.00     0.053 C 
BRANCH   4   5
ATOM      5  C   UNL     1      -6.589  28.897 -18.395  1.00  0.00     0.041 C 
ATOM      6  O   UNL     1      -6.545  28.123 -19.386  1.00  0.00    -0.550 OA
ATOM      7  O   UNL     1      -6.650  28.370 -17.112  1.00  0.00    -0.550 OA
ENDBRANCH   4   5
ENDBRANCH   3   4
ENDBRANCH   2   3
ENDBRANCH   1   2
BRANCH   1   8
ATOM      8  C   UNL     1      -4.651  29.878 -22.037  1.00  0.00     0.000 C 
BRANCH   8   9
ATOM      9  C   UNL     1      -3.966  28.558 -21.625  1.00  0.00     0.006 C 
BRANCH   9  10
ATOM     10  C   UNL     1      -2.996  28.686 -20.440  1.00  0.00     0.053 C 
BRANCH  10  11
ATOM     11  C   UNL     1      -3.151  27.559 -19.467  1.00  0.00     0.041 C 
ATOM     12  O   UNL     1      -2.852  27.722 -18.255  1.00  0.00    -0.550 OA
ATOM     13  O   UNL     1      -3.658  26.337 -19.891  1.00  0.00    -0.550 OA
ENDBRANCH  10  11
ENDBRANCH   9  10
ENDBRANCH   8   9
ENDBRANCH   1   8
TORSDOF 8
ENDMDL
MODEL 6
REMARK VINA RESULT:    -4.431      8.130      9.252
REMARK INTER + INTRA:          -6.773
REMARK INTER:                  -6.138
REMARK INTRA:                  -0.635
REMARK UNBOUND:                -0.270
REMARK SMILES O=C([O-])CCCCCCCC(=O)[O-]
REMARK SMILES IDX 7 1 6 2 5 3 4 4 2 5 1 6 3 7 8 8 9 9 10 10 11 11 12 12 13 13
REMARK H PARENT
REMARK Flexibility Score: inf
ROOT
ATOM      1  C   UNL     1      -2.718  30.097 -19.759  1.00  0.00     0.000 C 
ENDROOT
BRANCH   1   2
ATOM      2  C   UNL     1      -2.738  28.594 -19.430  1.00  0.00     0.000 C 
BRANCH   2   3
ATOM      3  C   UNL     1      -3.257  27.741 -20.599  1.00  0.00     0.006 C 
BRANCH   3   4
ATOM      4  C   UNL     1      -4.317  26.723 -20.160  1.00  0.00     0.053 C 
BRANCH   4   5
ATOM      5  C   UNL     1      -5.675  27.351 -20.161  1.00  0.00     0.041 C 
ATOM      6  O   UNL     1      -6.196  27.733 -21.241  1.00  0.00    -0.550 OA
ATOM      7  O   UNL     1      -6.387  27.469 -18.975  1.00  0.00    -0.550 OA
ENDBRANCH   4   5
ENDBRANCH   3   4
ENDBRANCH   2   3
ENDBRANCH   1   2
BRANCH   1   8
ATOM      8  C   UNL     1      -3.766  30.491 -20.815  1.00  0.00     0.000 C 
BRANCH   8   9
ATOM      9  C   UNL     1      -4.802  31.531 -20.346  1.00  0.00     0.006 C 
BRANCH   9  10
ATOM     10  C   UNL     1      -6.142  30.935 -19.887  1.00  0.00     0.053 C 
BRANCH  10  11
ATOM     11  C   UNL     1      -6.705  31.666 -18.708  1.00  0.00     0.041 C 
ATOM     12  O   UNL     1      -7.147  31.027 -17.717  1.00  0.00    -0.550 OA
ATOM     13  O   UNL     1      -6.713  33.056 -18.689  1.00  0.00    -0.550 OA
ENDBRANCH  10  11
ENDBRANCH   9  10
ENDBRANCH   8   9
ENDBRANCH   1   8
TORSDOF 8
ENDMDL
MODEL 7
REMARK VINA RESULT:    -4.413      8.368      9.608
REMARK INTER + INTRA:          -6.747
REMARK INTER:                  -6.090
REMARK INTRA:                  -0.657
REMARK UNBOUND:                -0.270
REMARK SMILES O=C([O-])CCCCCCCC(=O)[O-]
REMARK SMILES IDX 7 1 6 2 5 3 4 4 2 5 1 6 3 7 8 8 9 9 10 10 11 11 12 12 13 13
REMARK H PARENT
REMARK Flexibility Score: inf
ROOT
ATOM      1  C   UNL     1      -5.700  27.596 -20.334  1.00  0.00     0.000 C 
ENDROOT
BRANCH   1   2
ATOM      2  C   UNL     1      -4.402  26.786 -20.161  1.00  0.00     0.000 C 
BRANCH   2   3
ATOM      3  C   UNL     1      -3.145  27.614 -20.472  1.00  0.00     0.006 C 
BRANCH   3   4
ATOM      4  C   UNL     1      -2.789  28.589 -19.342  1.00  0.00     0.053 C 
BRANCH   4   5
ATOM      5  C   UNL     1      -2.574  29.965 -19.889  1.00  0.00     0.041 C 
ATOM      6  O   UNL     1      -3.428  30.482 -20.656  1.00  0.00    -0.550 OA
ATOM      7  O   UNL     1      -1.456  30.697 -19.511  1.00  0.00    -0.550 OA
ENDBRANCH   4   5
ENDBRANCH   3   4
ENDBRANCH   2   3
ENDBRANCH   1   2
BRANCH   1   8
ATOM      8  C   UNL     1      -6.391  27.907 -18.994  1.00  0.00     0.000 C 
BRANCH   8   9
ATOM      9  C   UNL     1      -6.301  29.379 -18.543  1.00  0.00     0.006 C 
BRANCH   9  10
ATOM     10  C   UNL     1      -6.688  30.402 -19.622  1.00  0.00     0.053 C 
BRANCH  10  11
ATOM     11  C   UNL     1      -6.704  31.800 -19.088  1.00  0.00     0.041 C 
ATOM     12  O   UNL     1      -7.026  32.018 -17.890  1.00  0.00    -0.550 OA
ATOM     13  O   UNL     1      -6.331  32.862 -19.903  1.00  0.00    -0.550 OA
ENDBRANCH  10  11
ENDBRANCH   9  10
ENDBRANCH   8   9
ENDBRANCH   1   8
TORSDOF 8
ENDMDL
MODEL 8
REMARK VINA RESULT:    -4.363      5.475      8.197
REMARK INTER + INTRA:          -6.674
REMARK INTER:                  -6.450
REMARK INTRA:                  -0.224
REMARK UNBOUND:                -0.270
REMARK SMILES O=C([O-])CCCCCCCC(=O)[O-]
REMARK SMILES IDX 7 1 6 2 5 3 4 4 2 5 1 6 3 7 8 8 9 9 10 10 11 11 12 12 13 13
REMARK H PARENT
REMARK Flexibility Score: inf
ROOT
ATOM      1  C   UNL     1      -6.039  28.871 -22.796  1.00  0.00     0.000 C 
ENDROOT
BRANCH   1   2
ATOM      2  C   UNL     1      -7.337  28.488 -23.529  1.00  0.00     0.000 C 
BRANCH   2   3
ATOM      3  C   UNL     1      -7.093  28.102 -24.997  1.00  0.00     0.006 C 
BRANCH   3   4
ATOM      4  C   UNL     1      -8.373  27.635 -25.703  1.00  0.00     0.053 C 
BRANCH   4   5
ATOM      5  C   UNL     1      -8.064  27.177 -27.093  1.00  0.00     0.041 C 
ATOM      6  O   UNL     1      -8.757  26.274 -27.632  1.00  0.00    -0.550 OA
ATOM      7  O   UNL     1      -7.042  27.781 -27.813  1.00  0.00    -0.550 OA
ENDBRANCH   4   5
ENDBRANCH   3   4
ENDBRANCH   2   3
ENDBRANCH   1   2
BRANCH   1   8
ATOM      8  C   UNL     1      -5.850  28.101 -21.477  1.00  0.00     0.000 C 
BRANCH   8   9
ATOM      9  C   UNL     1      -6.131  28.920 -20.201  1.00  0.00     0.006 C 
BRANCH   9  10
ATOM     10  C   UNL     1      -5.342  28.464 -18.963  1.00  0.00     0.053 C 
BRANCH  10  11
ATOM     11  C   UNL     1      -3.870  28.407 -19.228  1.00  0.00     0.041 C 
ATOM     12  O   UNL     1      -3.264  27.303 -19.204  1.00  0.00    -0.550 OA
ATOM     13  O   UNL     1      -3.172  29.568 -19.534  1.00  0.00    -0.550 OA
ENDBRANCH  10  11
ENDBRANCH   9  10
ENDBRANCH   8   9
ENDBRANCH   1   8
TORSDOF 8
ENDMDL
MODEL 9
REMARK VINA RESULT:    -4.339      8.438      9.441
REMARK INTER + INTRA:          -6.638
REMARK INTER:                  -6.039
REMARK INTRA:                  -0.599
REMARK UNBOUND:                -0.270
REMARK SMILES O=C([O-])CCCCCCCC(=O)[O-]
REMARK SMILES IDX 7 1 6 2 5 3 4 4 2 5 1 6 3 7 8 8 9 9 10 10 11 11 12 12 13 13
REMARK H PARENT
REMARK Flexibility Score: inf
ROOT
ATOM      1  C   UNL     1      -6.378  28.766 -18.714  1.00  0.00     0.000 C 
ENDROOT
BRANCH   1   2
ATOM      2  C   UNL     1      -6.114  28.279 -20.150  1.00  0.00     0.000 C 
BRANCH   2   3
ATOM      3  C   UNL     1      -4.918  27.316 -20.235  1.00  0.00     0.006 C 
BRANCH   3   4
ATOM      4  C   UNL     1      -3.637  28.009 -20.717  1.00  0.00     0.053 C 
BRANCH   4   5
ATOM      5  C   UNL     1      -2.872  28.558 -19.554  1.00  0.00     0.041 C 
ATOM      6  O   UNL     1      -2.310  29.681 -19.639  1.00  0.00    -0.550 OA
ATOM      7  O   UNL     1      -2.821  27.851 -18.360  1.00  0.00    -0.550 OA
ENDBRANCH   4   5
ENDBRANCH   3   4
ENDBRANCH   2   3
ENDBRANCH   1   2
BRANCH   1   8
ATOM      8  C   UNL     1      -6.670  30.276 -18.642  1.00  0.00     0.000 C 
BRANCH   8   9
ATOM      9  C   UNL     1      -6.570  31.023 -19.987  1.00  0.00     0.006 C 
BRANCH   9  10
ATOM     10  C   UNL     1      -5.382  31.992 -20.092  1.00  0.00     0.053 C 
BRANCH  10  11
ATOM     11  C   UNL     1      -5.820  33.422 -20.033  1.00  0.00     0.041 C 
ATOM     12  O   UNL     1      -5.358  34.261 -20.850  1.00  0.00    -0.550 OA
ATOM     13  O   UNL     1      -6.765  33.824 -19.097  1.00  0.00    -0.550 OA
ENDBRANCH  10  11
ENDBRANCH   9  10
ENDBRANCH   8   9
ENDBRANCH   1   8
TORSDOF 8
ENDMDL
