MODEL 1
REMARK VINA RESULT:    -5.379      0.000      0.000
REMARK INTER + INTRA:          -9.481
REMARK INTER:                  -7.894
REMARK INTRA:                  -1.587
REMARK UNBOUND:                -1.587
REMARK SMILES Cc1cc2c(C(C)C)c(O)c(O)c(C=O)c2c(O)c1-c1c(C)cc2c(C(C)C)c(O)c(O)c(C=O)c2c1O
REMARK SMILES IDX 1 1 2 2 3 3 4 4 16 5 13 6 11 7 9 8 5 9 17 10 19 11 20 12
REMARK SMILES IDX 37 13 21 14 36 15 23 16 22 17 24 18 33 19 25 20 31 21 29 22
REMARK SMILES IDX 38 23 34 25 35 26 26 27 27 28 28 29 32 30 30 32 18 34 6 36
REMARK SMILES IDX 7 37 8 38 14 39 15 40 10 41 12 43
REMARK H PARENT 38 24 32 31 30 33 18 35 10 42 12 44
REMARK Flexibility Score: inf
ROOT
ATOM      1  C   UNL     1      61.169  22.030  49.242  1.00  0.00     0.045 C 
ATOM      2  C   UNL     1      60.466  21.814  50.559  1.00  0.00    -0.039 A 
ATOM      3  C   UNL     1      59.723  20.648  50.756  1.00  0.00     0.013 A 
ATOM      4  C   UNL     1      59.070  20.378  51.979  1.00  0.00    -0.006 A 
ATOM      5  C   UNL     1      59.306  21.247  53.084  1.00  0.00     0.039 A 
ATOM      6  C   UNL     1      58.844  20.859  54.375  1.00  0.00     0.072 A 
ATOM      7  C   UNL     1      58.123  19.661  54.538  1.00  0.00     0.169 A 
ATOM      8  C   UNL     1      57.842  18.840  53.428  1.00  0.00     0.162 A 
ATOM      9  C   UNL     1      58.219  19.244  52.127  1.00  0.00     0.008 A 
ATOM     10  C   UNL     1      59.972  22.487  52.852  1.00  0.00     0.132 A 
ATOM     11  C   UNL     1      60.560  22.757  51.596  1.00  0.00     0.031 A 
ENDROOT
BRANCH  11  12
ATOM     12  C   UNL     1      61.288  24.032  51.373  1.00  0.00     0.031 A 
ATOM     13  C   UNL     1      60.591  25.184  50.953  1.00  0.00     0.132 A 
ATOM     14  C   UNL     1      62.670  24.095  51.611  1.00  0.00    -0.039 A 
ATOM     15  C   UNL     1      61.292  26.402  50.704  1.00  0.00     0.039 A 
ATOM     16  C   UNL     1      63.341  25.308  51.452  1.00  0.00     0.013 A 
ATOM     17  C   UNL     1      63.434  22.884  52.087  1.00  0.00     0.045 C 
ATOM     18  C   UNL     1      62.695  26.465  50.973  1.00  0.00    -0.006 A 
ATOM     19  C   UNL     1      60.627  27.575  50.236  1.00  0.00     0.072 A 
ATOM     20  C   UNL     1      63.409  27.692  50.784  1.00  0.00     0.008 A 
ATOM     21  C   UNL     1      61.305  28.808  50.242  1.00  0.00     0.169 A 
ATOM     22  C   UNL     1      62.658  28.873  50.561  1.00  0.00     0.162 A 
BRANCH  13  23
ATOM     23  O   UNL     1      59.198  25.131  50.825  1.00  0.00    -0.507 OA
ATOM     24  H   UNL     1      58.719  24.739  50.025  1.00  0.00     0.293 HD
ENDBRANCH  13  23
BRANCH  19  25
ATOM     25  C   UNL     1      59.252  27.546  49.698  1.00  0.00     0.264 C 
ATOM     26  O   UNL     1      58.304  28.067  50.345  1.00  0.00    -0.298 OA
ENDBRANCH  19  25
BRANCH  20  27
ATOM     27  C   UNL     1      64.946  27.789  50.740  1.00  0.00     0.017 C 
ATOM     28  C   UNL     1      65.592  27.456  52.093  1.00  0.00     0.012 C 
ATOM     29  C   UNL     1      65.602  27.039  49.561  1.00  0.00     0.012 C 
ENDBRANCH  20  27
BRANCH  21  30
ATOM     30  O   UNL     1      60.662  30.006  49.909  1.00  0.00    -0.504 OA
ATOM     31  H   UNL     1      61.129  30.901  49.847  1.00  0.00     0.293 HD
ENDBRANCH  21  30
BRANCH  22  32
ATOM     32  O   UNL     1      63.231  30.148  50.639  1.00  0.00    -0.504 OA
ATOM     33  H   UNL     1      63.975  30.472  50.036  1.00  0.00     0.293 HD
ENDBRANCH  22  32
ENDBRANCH  11  12
BRANCH  10  34
ATOM     34  O   UNL     1      60.018  23.464  53.852  1.00  0.00    -0.507 OA
ATOM     35  H   UNL     1      59.760  23.298  54.816  1.00  0.00     0.293 HD
ENDBRANCH  10  34
BRANCH   9  36
ATOM     36  C   UNL     1      57.716  18.452  50.906  1.00  0.00     0.017 C 
ATOM     37  C   UNL     1      58.374  17.071  50.835  1.00  0.00     0.012 C 
ATOM     38  C   UNL     1      56.181  18.347  50.825  1.00  0.00     0.012 C 
ENDBRANCH   9  36
BRANCH   6  39
ATOM     39  C   UNL     1      59.205  21.611  55.601  1.00  0.00     0.264 C 
ATOM     40  O   UNL     1      58.367  22.358  56.174  1.00  0.00    -0.298 OA
ENDBRANCH   6  39
BRANCH   8  41
ATOM     41  O   UNL     1      57.224  17.597  53.594  1.00  0.00    -0.504 OA
ATOM     42  H   UNL     1      57.002  16.959  52.845  1.00  0.00     0.293 HD
ENDBRANCH   8  41
BRANCH   7  43
ATOM     43  O   UNL     1      57.700  19.309  55.827  1.00  0.00    -0.504 OA
ATOM     44  H   UNL     1      58.265  18.815  56.502  1.00  0.00     0.293 HD
ENDBRANCH   7  43
TORSDOF 11
ENDMDL
MODEL 2
REMARK VINA RESULT:    -5.068      0.729      8.980
REMARK INTER + INTRA:          -9.026
REMARK INTER:                  -7.700
REMARK INTRA:                  -1.325
REMARK UNBOUND:                -1.587
REMARK SMILES Cc1cc2c(C(C)C)c(O)c(O)c(C=O)c2c(O)c1-c1c(C)cc2c(C(C)C)c(O)c(O)c(C=O)c2c1O
REMARK SMILES IDX 1 1 2 2 3 3 4 4 16 5 13 6 11 7 9 8 5 9 17 10 19 11 20 12
REMARK SMILES IDX 37 13 21 14 36 15 23 16 22 17 24 18 33 19 25 20 31 21 29 22
REMARK SMILES IDX 38 23 34 25 35 26 26 27 27 28 28 29 32 30 30 32 18 34 6 36
REMARK SMILES IDX 7 37 8 38 14 39 15 40 10 41 12 43
REMARK H PARENT 38 24 32 31 30 33 18 35 10 42 12 44
REMARK Flexibility Score: inf
ROOT
ATOM      1  C   UNL     1      63.235  22.600  51.794  1.00  0.00     0.045 C 
ATOM      2  C   UNL     1      62.395  23.828  51.542  1.00  0.00    -0.039 A 
ATOM      3  C   UNL     1      63.025  25.050  51.298  1.00  0.00     0.013 A 
ATOM      4  C   UNL     1      62.290  26.225  51.025  1.00  0.00    -0.006 A 
ATOM      5  C   UNL     1      60.880  26.122  50.845  1.00  0.00     0.039 A 
ATOM      6  C   UNL     1      60.166  27.248  50.343  1.00  0.00     0.072 A 
ATOM      7  C   UNL     1      60.842  28.455  50.082  1.00  0.00     0.169 A 
ATOM      8  C   UNL     1      62.226  28.565  50.321  1.00  0.00     0.162 A 
ATOM      9  C   UNL     1      62.940  27.488  50.895  1.00  0.00     0.008 A 
ATOM     10  C   UNL     1      60.231  24.902  51.200  1.00  0.00     0.132 A 
ATOM     11  C   UNL     1      60.992  23.760  51.533  1.00  0.00     0.031 A 
ENDROOT
BRANCH  11  12
ATOM     12  C   UNL     1      60.312  22.481  51.862  1.00  0.00     0.031 A 
ATOM     13  C   UNL     1      59.725  22.294  53.130  1.00  0.00     0.132 A 
ATOM     14  C   UNL     1      60.227  21.468  50.893  1.00  0.00    -0.039 A 
ATOM     15  C   UNL     1      59.100  21.054  53.463  1.00  0.00     0.039 A 
ATOM     16  C   UNL     1      59.540  20.290  51.187  1.00  0.00     0.013 A 
ATOM     17  C   UNL     1      60.823  21.654  49.518  1.00  0.00     0.045 C 
ATOM     18  C   UNL     1      58.997  20.038  52.462  1.00  0.00    -0.006 A 
ATOM     19  C   UNL     1      58.535  20.813  54.751  1.00  0.00     0.072 A 
ATOM     20  C   UNL     1      58.325  18.807  52.754  1.00  0.00     0.008 A 
ATOM     21  C   UNL     1      57.720  19.685  54.952  1.00  0.00     0.169 A 
ATOM     22  C   UNL     1      57.575  18.726  53.954  1.00  0.00     0.162 A 
BRANCH  13  23
ATOM     23  O   UNL     1      59.724  23.353  54.045  1.00  0.00    -0.507 OA
ATOM     24  H   UNL     1      60.514  23.596  54.630  1.00  0.00     0.293 HD
ENDBRANCH  13  23
BRANCH  19  25
ATOM     25  C   UNL     1      58.806  21.685  55.911  1.00  0.00     0.264 C 
ATOM     26  O   UNL     1      57.915  22.466  56.343  1.00  0.00    -0.298 OA
ENDBRANCH  19  25
BRANCH  20  27
ATOM     27  C   UNL     1      58.428  17.546  51.875  1.00  0.00     0.017 C 
ATOM     28  C   UNL     1      57.673  17.697  50.547  1.00  0.00     0.012 C 
ATOM     29  C   UNL     1      59.864  17.009  51.692  1.00  0.00     0.012 C 
ENDBRANCH  20  27
BRANCH  21  30
ATOM     30  O   UNL     1      57.045  19.467  56.159  1.00  0.00    -0.504 OA
ATOM     31  H   UNL     1      56.204  18.912  56.246  1.00  0.00     0.293 HD
ENDBRANCH  21  30
BRANCH  22  32
ATOM     32  O   UNL     1      56.669  17.686  54.200  1.00  0.00    -0.504 OA
ATOM     33  H   UNL     1      56.680  16.800  53.713  1.00  0.00     0.293 HD
ENDBRANCH  22  32
ENDBRANCH  11  12
BRANCH  10  34
ATOM     34  O   UNL     1      58.835  24.835  51.259  1.00  0.00    -0.507 OA
ATOM     35  H   UNL     1      58.224  25.085  50.493  1.00  0.00     0.293 HD
ENDBRANCH  10  34
BRANCH   9  36
ATOM     36  C   UNL     1      64.395  27.695  51.354  1.00  0.00     0.017 C 
ATOM     37  C   UNL     1      65.341  27.808  50.155  1.00  0.00     0.012 C 
ATOM     38  C   UNL     1      64.575  28.877  52.326  1.00  0.00     0.012 C 
ENDBRANCH   9  36
BRANCH   6  39
ATOM     39  C   UNL     1      58.737  27.168  49.956  1.00  0.00     0.264 C 
ATOM     40  O   UNL     1      57.838  27.663  50.687  1.00  0.00    -0.298 OA
ENDBRANCH   6  39
BRANCH   8  41
ATOM     41  O   UNL     1      62.926  29.721  49.962  1.00  0.00    -0.504 OA
ATOM     42  H   UNL     1      63.812  30.003  50.353  1.00  0.00     0.293 HD
ENDBRANCH   8  41
BRANCH   7  43
ATOM     43  O   UNL     1      60.105  29.533  49.574  1.00  0.00    -0.504 OA
ATOM     44  H   UNL     1      60.461  30.219  48.924  1.00  0.00     0.293 HD
ENDBRANCH   7  43
TORSDOF 11
ENDMDL
MODEL 3
REMARK VINA RESULT:    -5.062      9.035     13.395
REMARK INTER + INTRA:          -9.016
REMARK INTER:                  -7.586
REMARK INTRA:                  -1.430
REMARK UNBOUND:                -1.587
REMARK SMILES Cc1cc2c(C(C)C)c(O)c(O)c(C=O)c2c(O)c1-c1c(C)cc2c(C(C)C)c(O)c(O)c(C=O)c2c1O
REMARK SMILES IDX 1 1 2 2 3 3 4 4 16 5 13 6 11 7 9 8 5 9 17 10 19 11 20 12
REMARK SMILES IDX 37 13 21 14 36 15 23 16 22 17 24 18 33 19 25 20 31 21 29 22
REMARK SMILES IDX 38 23 34 25 35 26 26 27 27 28 28 29 32 30 30 32 18 34 6 36
REMARK SMILES IDX 7 37 8 38 14 39 15 40 10 41 12 43
REMARK H PARENT 38 24 32 31 30 33 18 35 10 42 12 44
REMARK Flexibility Score: inf
ROOT
ATOM      1  C   UNL     1      62.679  23.290  59.520  1.00  0.00     0.045 C 
ATOM      2  C   UNL     1      62.960  24.695  59.991  1.00  0.00    -0.039 A 
ATOM      3  C   UNL     1      64.136  25.331  59.586  1.00  0.00     0.013 A 
ATOM      4  C   UNL     1      64.436  26.657  59.971  1.00  0.00    -0.006 A 
ATOM      5  C   UNL     1      63.441  27.409  60.662  1.00  0.00     0.039 A 
ATOM      6  C   UNL     1      63.641  28.808  60.846  1.00  0.00     0.072 A 
ATOM      7  C   UNL     1      64.827  29.418  60.398  1.00  0.00     0.169 A 
ATOM      8  C   UNL     1      65.831  28.654  59.771  1.00  0.00     0.162 A 
ATOM      9  C   UNL     1      65.691  27.252  59.650  1.00  0.00     0.008 A 
ATOM     10  C   UNL     1      62.293  26.728  61.165  1.00  0.00     0.132 A 
ATOM     11  C   UNL     1      62.053  25.380  60.816  1.00  0.00     0.031 A 
ENDROOT
BRANCH  11  12
ATOM     12  C   UNL     1      60.835  24.688  61.311  1.00  0.00     0.031 A 
ATOM     13  C   UNL     1      60.904  23.852  62.444  1.00  0.00     0.132 A 
ATOM     14  C   UNL     1      59.606  24.895  60.664  1.00  0.00    -0.039 A 
ATOM     15  C   UNL     1      59.744  23.158  62.902  1.00  0.00     0.039 A 
ATOM     16  C   UNL     1      58.455  24.286  61.164  1.00  0.00     0.013 A 
ATOM     17  C   UNL     1      59.501  25.807  59.466  1.00  0.00     0.045 C 
ATOM     18  C   UNL     1      58.492  23.393  62.253  1.00  0.00    -0.006 A 
ATOM     19  C   UNL     1      59.785  22.269  64.018  1.00  0.00     0.072 A 
ATOM     20  C   UNL     1      57.303  22.751  62.730  1.00  0.00     0.008 A 
ATOM     21  C   UNL     1      58.583  21.805  64.582  1.00  0.00     0.169 A 
ATOM     22  C   UNL     1      57.360  22.085  63.979  1.00  0.00     0.162 A 
BRANCH  13  23
ATOM     23  O   UNL     1      62.114  23.743  63.140  1.00  0.00    -0.507 OA
ATOM     24  H   UNL     1      62.957  23.343  62.749  1.00  0.00     0.293 HD
ENDBRANCH  13  23
BRANCH  19  25
ATOM     25  C   UNL     1      61.053  21.772  64.590  1.00  0.00     0.264 C 
ATOM     26  O   UNL     1      61.470  22.216  65.694  1.00  0.00    -0.298 OA
ENDBRANCH  19  25
BRANCH  20  27
ATOM     27  C   UNL     1      55.987  22.685  61.931  1.00  0.00     0.017 C 
ATOM     28  C   UNL     1      55.549  21.241  61.646  1.00  0.00     0.012 C 
ATOM     29  C   UNL     1      54.848  23.557  62.500  1.00  0.00     0.012 C 
ENDBRANCH  20  27
BRANCH  21  30
ATOM     30  O   UNL     1      58.565  21.031  65.749  1.00  0.00    -0.504 OA
ATOM     31  H   UNL     1      59.372  20.549  66.122  1.00  0.00     0.293 HD
ENDBRANCH  21  30
BRANCH  22  32
ATOM     32  O   UNL     1      56.208  21.670  64.658  1.00  0.00    -0.504 OA
ATOM     33  H   UNL     1      55.642  22.277  65.234  1.00  0.00     0.293 HD
ENDBRANCH  22  32
ENDBRANCH  11  12
BRANCH  10  34
ATOM     34  O   UNL     1      61.414  27.374  62.041  1.00  0.00    -0.507 OA
ATOM     35  H   UNL     1      60.969  26.924  62.829  1.00  0.00     0.293 HD
ENDBRANCH  10  34
BRANCH   9  36
ATOM     36  C   UNL     1      66.882  26.405  59.167  1.00  0.00     0.017 C 
ATOM     37  C   UNL     1      67.154  26.633  57.676  1.00  0.00     0.012 C 
ATOM     38  C   UNL     1      68.160  26.598  60.006  1.00  0.00     0.012 C 
ENDBRANCH   9  36
BRANCH   6  39
ATOM     39  C   UNL     1      62.580  29.691  61.387  1.00  0.00     0.264 C 
ATOM     40  O   UNL     1      61.763  30.268  60.621  1.00  0.00    -0.298 OA
ENDBRANCH   6  39
BRANCH   8  41
ATOM     41  O   UNL     1      66.963  29.267  59.224  1.00  0.00    -0.504 OA
ATOM     42  H   UNL     1      67.088  29.476  58.246  1.00  0.00     0.293 HD
ENDBRANCH   8  41
BRANCH   7  43
ATOM     43  O   UNL     1      64.977  30.798  60.586  1.00  0.00    -0.504 OA
ATOM     44  H   UNL     1      64.404  31.504  60.147  1.00  0.00     0.293 HD
ENDBRANCH   7  43
TORSDOF 11
ENDMDL
MODEL 4
REMARK VINA RESULT:    -5.047      9.112     13.603
REMARK INTER + INTRA:          -8.994
REMARK INTER:                  -7.385
REMARK INTRA:                  -1.610
REMARK UNBOUND:                -1.587
REMARK SMILES Cc1cc2c(C(C)C)c(O)c(O)c(C=O)c2c(O)c1-c1c(C)cc2c(C(C)C)c(O)c(O)c(C=O)c2c1O
REMARK SMILES IDX 1 1 2 2 3 3 4 4 16 5 13 6 11 7 9 8 5 9 17 10 19 11 20 12
REMARK SMILES IDX 37 13 21 14 36 15 23 16 22 17 24 18 33 19 25 20 31 21 29 22
REMARK SMILES IDX 38 23 34 25 35 26 26 27 27 28 28 29 32 30 30 32 18 34 6 36
REMARK SMILES IDX 7 37 8 38 14 39 15 40 10 41 12 43
REMARK H PARENT 38 24 32 31 30 33 18 35 10 42 12 44
REMARK Flexibility Score: inf
ROOT
ATOM      1  C   UNL     1      67.812  28.147  61.876  1.00  0.00     0.045 C 
ATOM      2  C   UNL     1      68.158  28.470  60.443  1.00  0.00    -0.039 A 
ATOM      3  C   UNL     1      69.488  28.724  60.100  1.00  0.00     0.013 A 
ATOM      4  C   UNL     1      69.874  29.001  58.770  1.00  0.00    -0.006 A 
ATOM      5  C   UNL     1      68.902  28.866  57.736  1.00  0.00     0.039 A 
ATOM      6  C   UNL     1      69.332  28.914  56.378  1.00  0.00     0.072 A 
ATOM      7  C   UNL     1      70.687  29.143  56.072  1.00  0.00     0.169 A 
ATOM      8  C   UNL     1      71.628  29.337  57.101  1.00  0.00     0.162 A 
ATOM      9  C   UNL     1      71.213  29.374  58.452  1.00  0.00     0.008 A 
ATOM     10  C   UNL     1      67.531  28.714  58.098  1.00  0.00     0.132 A 
ATOM     11  C   UNL     1      67.169  28.504  59.447  1.00  0.00     0.031 A 
ENDROOT
BRANCH  11  12
ATOM     12  C   UNL     1      65.743  28.306  59.814  1.00  0.00     0.031 A 
ATOM     13  C   UNL     1      64.933  29.413  60.141  1.00  0.00     0.132 A 
ATOM     14  C   UNL     1      65.194  27.014  59.803  1.00  0.00    -0.039 A 
ATOM     15  C   UNL     1      63.572  29.225  60.527  1.00  0.00     0.039 A 
ATOM     16  C   UNL     1      63.841  26.838  60.095  1.00  0.00     0.013 A 
ATOM     17  C   UNL     1      66.033  25.815  59.430  1.00  0.00     0.045 C 
ATOM     18  C   UNL     1      63.015  27.908  60.489  1.00  0.00    -0.006 A 
ATOM     19  C   UNL     1      62.735  30.316  60.907  1.00  0.00     0.072 A 
ATOM     20  C   UNL     1      61.636  27.701  60.819  1.00  0.00     0.008 A 
ATOM     21  C   UNL     1      61.349  30.117  61.038  1.00  0.00     0.169 A 
ATOM     22  C   UNL     1      60.802  28.840  60.943  1.00  0.00     0.162 A 
BRANCH  13  23
ATOM     23  O   UNL     1      65.467  30.703  60.040  1.00  0.00    -0.507 OA
ATOM     24  H   UNL     1      65.571  31.206  59.168  1.00  0.00     0.293 HD
ENDBRANCH  13  23
BRANCH  19  25
ATOM     25  C   UNL     1      63.272  31.658  61.215  1.00  0.00     0.264 C 
ATOM     26  O   UNL     1      63.077  32.619  60.423  1.00  0.00    -0.298 OA
ENDBRANCH  19  25
BRANCH  20  27
ATOM     27  C   UNL     1      61.025  26.318  61.113  1.00  0.00     0.017 C 
ATOM     28  C   UNL     1      60.939  25.438  59.858  1.00  0.00     0.012 C 
ATOM     29  C   UNL     1      61.651  25.584  62.318  1.00  0.00     0.012 C 
ENDBRANCH  20  27
BRANCH  21  30
ATOM     30  O   UNL     1      60.470  31.178  61.289  1.00  0.00    -0.504 OA
ATOM     31  H   UNL     1      60.610  31.871  62.012  1.00  0.00     0.293 HD
ENDBRANCH  21  30
BRANCH  22  32
ATOM     32  O   UNL     1      59.406  28.743  60.987  1.00  0.00    -0.504 OA
ATOM     33  H   UNL     1      58.797  29.490  61.291  1.00  0.00     0.293 HD
ENDBRANCH  22  32
ENDBRANCH  11  12
BRANCH  10  34
ATOM     34  O   UNL     1      66.527  28.811  57.128  1.00  0.00    -0.507 OA
ATOM     35  H   UNL     1      65.661  28.290  57.157  1.00  0.00     0.293 HD
ENDBRANCH  10  34
BRANCH   9  36
ATOM     36  C   UNL     1      72.208  29.804  59.546  1.00  0.00     0.017 C 
ATOM     37  C   UNL     1      71.679  31.008  60.331  1.00  0.00     0.012 C 
ATOM     38  C   UNL     1      72.624  28.658  60.488  1.00  0.00     0.012 C 
ENDBRANCH   9  36
BRANCH   6  39
ATOM     39  C   UNL     1      68.421  28.601  55.250  1.00  0.00     0.264 C 
ATOM     40  O   UNL     1      67.978  29.513  54.502  1.00  0.00    -0.298 OA
ENDBRANCH   6  39
BRANCH   8  41
ATOM     41  O   UNL     1      72.991  29.455  56.813  1.00  0.00    -0.504 OA
ATOM     42  H   UNL     1      73.623  30.096  57.268  1.00  0.00     0.293 HD
ENDBRANCH   8  41
BRANCH   7  43
ATOM     43  O   UNL     1      71.069  29.167  54.724  1.00  0.00    -0.504 OA
ATOM     44  H   UNL     1      71.233  30.006  54.188  1.00  0.00     0.293 HD
ENDBRANCH   7  43
TORSDOF 11
ENDMDL
MODEL 5
REMARK VINA RESULT:    -5.026      3.941     11.297
REMARK INTER + INTRA:          -8.963
REMARK INTER:                  -7.534
REMARK INTRA:                  -1.429
REMARK UNBOUND:                -1.587
REMARK SMILES Cc1cc2c(C(C)C)c(O)c(O)c(C=O)c2c(O)c1-c1c(C)cc2c(C(C)C)c(O)c(O)c(C=O)c2c1O
REMARK SMILES IDX 1 1 2 2 3 3 4 4 16 5 13 6 11 7 9 8 5 9 17 10 19 11 20 12
REMARK SMILES IDX 37 13 21 14 36 15 23 16 22 17 24 18 33 19 25 20 31 21 29 22
REMARK SMILES IDX 38 23 34 25 35 26 26 27 27 28 28 29 32 30 30 32 18 34 6 36
REMARK SMILES IDX 7 37 8 38 14 39 15 40 10 41 12 43
REMARK H PARENT 38 24 32 31 30 33 18 35 10 42 12 44
REMARK Flexibility Score: inf
ROOT
ATOM      1  C   UNL     1      64.568  30.157  52.667  1.00  0.00     0.045 C 
ATOM      2  C   UNL     1      65.145  30.420  51.298  1.00  0.00    -0.039 A 
ATOM      3  C   UNL     1      65.828  31.614  51.059  1.00  0.00     0.013 A 
ATOM      4  C   UNL     1      66.414  31.899  49.807  1.00  0.00    -0.006 A 
ATOM      5  C   UNL     1      66.439  30.875  48.816  1.00  0.00     0.039 A 
ATOM      6  C   UNL     1      67.228  31.069  47.645  1.00  0.00     0.072 A 
ATOM      7  C   UNL     1      67.925  32.277  47.454  1.00  0.00     0.169 A 
ATOM      8  C   UNL     1      67.844  33.307  48.411  1.00  0.00     0.162 A 
ATOM      9  C   UNL     1      67.005  33.170  49.540  1.00  0.00     0.008 A 
ATOM     10  C   UNL     1      65.652  29.703  49.021  1.00  0.00     0.132 A 
ATOM     11  C   UNL     1      65.021  29.476  50.265  1.00  0.00     0.031 A 
ENDROOT
BRANCH  11  12
ATOM     12  C   UNL     1      64.236  28.235  50.487  1.00  0.00     0.031 A 
ATOM     13  C   UNL     1      62.840  28.233  50.291  1.00  0.00     0.132 A 
ATOM     14  C   UNL     1      64.894  27.053  50.862  1.00  0.00    -0.039 A 
ATOM     15  C   UNL     1      62.077  27.051  50.536  1.00  0.00     0.039 A 
ATOM     16  C   UNL     1      64.161  25.876  51.017  1.00  0.00     0.013 A 
ATOM     17  C   UNL     1      66.392  27.022  51.052  1.00  0.00     0.045 C 
ATOM     18  C   UNL     1      62.758  25.846  50.894  1.00  0.00    -0.006 A 
ATOM     19  C   UNL     1      60.658  27.024  50.391  1.00  0.00     0.072 A 
ATOM     20  C   UNL     1      62.020  24.635  51.091  1.00  0.00     0.008 A 
ATOM     21  C   UNL     1      59.981  25.791  50.401  1.00  0.00     0.169 A 
ATOM     22  C   UNL     1      60.660  24.611  50.694  1.00  0.00     0.162 A 
BRANCH  13  23
ATOM     23  O   UNL     1      62.216  29.391  49.812  1.00  0.00    -0.507 OA
ATOM     24  H   UNL     1      61.360  29.772  50.196  1.00  0.00     0.293 HD
ENDBRANCH  13  23
BRANCH  19  25
ATOM     25  C   UNL     1      59.848  28.254  50.272  1.00  0.00     0.264 C 
ATOM     26  O   UNL     1      59.364  28.592  49.159  1.00  0.00    -0.298 OA
ENDBRANCH  19  25
BRANCH  20  27
ATOM     27  C   UNL     1      62.599  23.381  51.773  1.00  0.00     0.017 C 
ATOM     28  C   UNL     1      62.048  23.179  53.192  1.00  0.00     0.012 C 
ATOM     29  C   UNL     1      62.535  22.098  50.917  1.00  0.00     0.012 C 
ENDBRANCH  20  27
BRANCH  21  30
ATOM     30  O   UNL     1      58.608  25.698  50.142  1.00  0.00    -0.504 OA
ATOM     31  H   UNL     1      58.215  25.533  49.226  1.00  0.00     0.293 HD
ENDBRANCH  21  30
BRANCH  22  32
ATOM     32  O   UNL     1      59.934  23.418  50.585  1.00  0.00    -0.504 OA
ATOM     33  H   UNL     1      58.979  23.307  50.897  1.00  0.00     0.293 HD
ENDBRANCH  22  32
ENDBRANCH  11  12
BRANCH  10  34
ATOM     34  O   UNL     1      65.464  28.786  47.982  1.00  0.00    -0.507 OA
ATOM     35  H   UNL     1      64.774  28.046  47.999  1.00  0.00     0.293 HD
ENDBRANCH  10  34
BRANCH   9  36
ATOM     36  C   UNL     1      66.755  34.380  50.458  1.00  0.00     0.017 C 
ATOM     37  C   UNL     1      67.992  34.693  51.307  1.00  0.00     0.012 C 
ATOM     38  C   UNL     1      66.256  35.631  49.710  1.00  0.00     0.012 C 
ENDBRANCH   9  36
BRANCH   6  39
ATOM     39  C   UNL     1      67.453  29.986  46.657  1.00  0.00     0.264 C 
ATOM     40  O   UNL     1      68.437  29.206  46.764  1.00  0.00    -0.298 OA
ENDBRANCH   6  39
BRANCH   8  41
ATOM     41  O   UNL     1      68.619  34.464  48.285  1.00  0.00    -0.504 OA
ATOM     42  H   UNL     1      69.583  34.483  47.990  1.00  0.00     0.293 HD
ENDBRANCH   8  41
BRANCH   7  43
ATOM     43  O   UNL     1      68.701  32.421  46.296  1.00  0.00    -0.504 OA
ATOM     44  H   UNL     1      69.643  32.782  46.275  1.00  0.00     0.293 HD
ENDBRANCH   7  43
TORSDOF 11
ENDMDL
MODEL 6
REMARK VINA RESULT:    -4.906      7.587     10.565
REMARK INTER + INTRA:          -8.788
REMARK INTER:                  -7.221
REMARK INTRA:                  -1.567
REMARK UNBOUND:                -1.587
REMARK SMILES Cc1cc2c(C(C)C)c(O)c(O)c(C=O)c2c(O)c1-c1c(C)cc2c(C(C)C)c(O)c(O)c(C=O)c2c1O
REMARK SMILES IDX 1 1 2 2 3 3 4 4 16 5 13 6 11 7 9 8 5 9 17 10 19 11 20 12
REMARK SMILES IDX 37 13 21 14 36 15 23 16 22 17 24 18 33 19 25 20 31 21 29 22
REMARK SMILES IDX 38 23 34 25 35 26 26 27 27 28 28 29 32 30 30 32 18 34 6 36
REMARK SMILES IDX 7 37 8 38 14 39 15 40 10 41 12 43
REMARK H PARENT 38 24 32 31 30 33 18 35 10 42 12 44
REMARK Flexibility Score: inf
ROOT
ATOM      1  C   UNL     1      56.478  32.050  57.494  1.00  0.00     0.045 C 
ATOM      2  C   UNL     1      56.850  31.225  56.286  1.00  0.00    -0.039 A 
ATOM      3  C   UNL     1      55.885  30.963  55.312  1.00  0.00     0.013 A 
ATOM      4  C   UNL     1      56.184  30.223  54.147  1.00  0.00    -0.006 A 
ATOM      5  C   UNL     1      57.542  29.872  53.892  1.00  0.00     0.039 A 
ATOM      6  C   UNL     1      57.887  29.336  52.617  1.00  0.00     0.072 A 
ATOM      7  C   UNL     1      56.888  29.113  51.650  1.00  0.00     0.169 A 
ATOM      8  C   UNL     1      55.540  29.406  51.935  1.00  0.00     0.162 A 
ATOM      9  C   UNL     1      55.163  29.862  53.219  1.00  0.00     0.008 A 
ATOM     10  C   UNL     1      58.502  30.045  54.933  1.00  0.00     0.132 A 
ATOM     11  C   UNL     1      58.154  30.732  56.117  1.00  0.00     0.031 A 
ENDROOT
BRANCH  11  12
ATOM     12  C   UNL     1      59.169  30.945  57.181  1.00  0.00     0.031 A 
ATOM     13  C   UNL     1      59.376  29.963  58.172  1.00  0.00     0.132 A 
ATOM     14  C   UNL     1      59.946  32.114  57.178  1.00  0.00    -0.039 A 
ATOM     15  C   UNL     1      60.326  30.178  59.216  1.00  0.00     0.039 A 
ATOM     16  C   UNL     1      60.935  32.286  58.147  1.00  0.00     0.013 A 
ATOM     17  C   UNL     1      59.763  33.168  56.112  1.00  0.00     0.045 C 
ATOM     18  C   UNL     1      61.129  31.361  59.191  1.00  0.00    -0.006 A 
ATOM     19  C   UNL     1      60.530  29.228  60.260  1.00  0.00     0.072 A 
ATOM     20  C   UNL     1      62.128  31.572  60.196  1.00  0.00     0.008 A 
ATOM     21  C   UNL     1      61.637  29.364  61.117  1.00  0.00     0.169 A 
ATOM     22  C   UNL     1      62.452  30.490  61.052  1.00  0.00     0.162 A 
BRANCH  13  23
ATOM     23  O   UNL     1      58.670  28.757  58.097  1.00  0.00    -0.507 OA
ATOM     24  H   UNL     1      58.130  28.467  57.291  1.00  0.00     0.293 HD
ENDBRANCH  13  23
BRANCH  19  25
ATOM     25  C   UNL     1      59.594  28.113  60.513  1.00  0.00     0.264 C 
ATOM     26  O   UNL     1      59.931  26.927  60.253  1.00  0.00    -0.298 OA
ENDBRANCH  19  25
BRANCH  20  27
ATOM     27  C   UNL     1      62.818  32.927  60.445  1.00  0.00     0.017 C 
ATOM     28  C   UNL     1      64.026  33.146  59.523  1.00  0.00     0.012 C 
ATOM     29  C   UNL     1      61.860  34.138  60.475  1.00  0.00     0.012 C 
ENDBRANCH  20  27
BRANCH  21  30
ATOM     30  O   UNL     1      61.951  28.395  62.078  1.00  0.00    -0.504 OA
ATOM     31  H   UNL     1      62.877  28.256  62.461  1.00  0.00     0.293 HD
ENDBRANCH  21  30
BRANCH  22  32
ATOM     32  O   UNL     1      63.588  30.500  61.871  1.00  0.00    -0.504 OA
ATOM     33  H   UNL     1      64.394  31.089  61.713  1.00  0.00     0.293 HD
ENDBRANCH  22  32
ENDBRANCH  11  12
BRANCH  10  34
ATOM     34  O   UNL     1      59.786  29.503  54.809  1.00  0.00    -0.507 OA
ATOM     35  H   UNL     1      60.244  29.333  53.924  1.00  0.00     0.293 HD
ENDBRANCH  10  34
BRANCH   9  36
ATOM     36  C   UNL     1      53.672  29.968  53.584  1.00  0.00     0.017 C 
ATOM     37  C   UNL     1      52.987  31.086  52.791  1.00  0.00     0.012 C 
ATOM     38  C   UNL     1      52.906  28.637  53.453  1.00  0.00     0.012 C 
ENDBRANCH   9  36
BRANCH   6  39
ATOM     39  C   UNL     1      59.295  29.117  52.208  1.00  0.00     0.264 C 
ATOM     40  O   UNL     1      59.772  27.954  52.125  1.00  0.00    -0.298 OA
ENDBRANCH   6  39
BRANCH   8  41
ATOM     41  O   UNL     1      54.558  29.292  50.946  1.00  0.00    -0.504 OA
ATOM     42  H   UNL     1      54.105  30.071  50.492  1.00  0.00     0.293 HD
ENDBRANCH   8  41
BRANCH   7  43
ATOM     43  O   UNL     1      57.272  28.599  50.405  1.00  0.00    -0.504 OA
ATOM     44  H   UNL     1      56.641  28.412  49.640  1.00  0.00     0.293 HD
ENDBRANCH   7  43
TORSDOF 11
ENDMDL
MODEL 7
REMARK VINA RESULT:    -4.899      3.638      7.079
REMARK INTER + INTRA:          -8.777
REMARK INTER:                  -7.542
REMARK INTRA:                  -1.235
REMARK UNBOUND:                -1.587
REMARK SMILES Cc1cc2c(C(C)C)c(O)c(O)c(C=O)c2c(O)c1-c1c(C)cc2c(C(C)C)c(O)c(O)c(C=O)c2c1O
REMARK SMILES IDX 1 1 2 2 3 3 4 4 16 5 13 6 11 7 9 8 5 9 17 10 19 11 20 12
REMARK SMILES IDX 37 13 21 14 36 15 23 16 22 17 24 18 33 19 25 20 31 21 29 22
REMARK SMILES IDX 38 23 34 25 35 26 26 27 27 28 28 29 32 30 30 32 18 34 6 36
REMARK SMILES IDX 7 37 8 38 14 39 15 40 10 41 12 43
REMARK H PARENT 38 24 32 31 30 33 18 35 10 42 12 44
REMARK Flexibility Score: inf
ROOT
ATOM      1  C   UNL     1      65.874  26.758  51.621  1.00  0.00     0.045 C 
ATOM      2  C   UNL     1      64.445  26.676  51.144  1.00  0.00    -0.039 A 
ATOM      3  C   UNL     1      63.697  25.529  51.417  1.00  0.00     0.013 A 
ATOM      4  C   UNL     1      62.347  25.409  51.021  1.00  0.00    -0.006 A 
ATOM      5  C   UNL     1      61.695  26.549  50.467  1.00  0.00     0.039 A 
ATOM      6  C   UNL     1      60.282  26.512  50.284  1.00  0.00     0.072 A 
ATOM      7  C   UNL     1      59.558  25.346  50.597  1.00  0.00     0.169 A 
ATOM      8  C   UNL     1      60.221  24.203  51.086  1.00  0.00     0.162 A 
ATOM      9  C   UNL     1      61.630  24.189  51.200  1.00  0.00     0.008 A 
ATOM     10  C   UNL     1      62.484  27.676  50.093  1.00  0.00     0.132 A 
ATOM     11  C   UNL     1      63.851  27.739  50.445  1.00  0.00     0.031 A 
ENDROOT
BRANCH  11  12
ATOM     12  C   UNL     1      64.658  28.933  50.087  1.00  0.00     0.031 A 
ATOM     13  C   UNL     1      65.471  28.923  48.935  1.00  0.00     0.132 A 
ATOM     14  C   UNL     1      64.586  30.086  50.885  1.00  0.00    -0.039 A 
ATOM     15  C   UNL     1      66.275  30.055  48.606  1.00  0.00     0.039 A 
ATOM     16  C   UNL     1      65.304  31.224  50.516  1.00  0.00     0.013 A 
ATOM     17  C   UNL     1      63.703  30.133  52.108  1.00  0.00     0.045 C 
ATOM     18  C   UNL     1      66.177  31.234  49.410  1.00  0.00    -0.006 A 
ATOM     19  C   UNL     1      67.142  30.065  47.473  1.00  0.00     0.072 A 
ATOM     20  C   UNL     1      66.931  32.402  49.068  1.00  0.00     0.008 A 
ATOM     21  C   UNL     1      67.721  31.274  47.050  1.00  0.00     0.169 A 
ATOM     22  C   UNL     1      67.575  32.434  47.806  1.00  0.00     0.162 A 
BRANCH  13  23
ATOM     23  O   UNL     1      65.447  27.805  48.093  1.00  0.00    -0.507 OA
ATOM     24  H   UNL     1      64.600  27.397  47.718  1.00  0.00     0.293 HD
ENDBRANCH  13  23
BRANCH  19  25
ATOM     25  C   UNL     1      67.500  28.834  46.738  1.00  0.00     0.264 C 
ATOM     26  O   UNL     1      68.364  28.044  47.202  1.00  0.00    -0.298 OA
ENDBRANCH  19  25
BRANCH  20  27
ATOM     27  C   UNL     1      67.141  33.595  50.021  1.00  0.00     0.017 C 
ATOM     28  C   UNL     1      68.627  33.872  50.292  1.00  0.00     0.012 C 
ATOM     29  C   UNL     1      66.353  34.866  49.639  1.00  0.00     0.012 C 
ENDBRANCH  20  27
BRANCH  21  30
ATOM     30  O   UNL     1      68.480  31.361  45.877  1.00  0.00    -0.504 OA
ATOM     31  H   UNL     1      69.422  31.005  45.784  1.00  0.00     0.293 HD
ENDBRANCH  21  30
BRANCH  22  32
ATOM     32  O   UNL     1      68.098  33.615  47.264  1.00  0.00    -0.504 OA
ATOM     33  H   UNL     1      68.370  33.720  46.296  1.00  0.00     0.293 HD
ENDBRANCH  22  32
ENDBRANCH  11  12
BRANCH  10  34
ATOM     34  O   UNL     1      61.924  28.713  49.339  1.00  0.00    -0.507 OA
ATOM     35  H   UNL     1      61.126  29.260  49.635  1.00  0.00     0.293 HD
ENDBRANCH  10  34
BRANCH   9  36
ATOM     36  C   UNL     1      62.357  22.871  51.523  1.00  0.00     0.017 C 
ATOM     37  C   UNL     1      62.057  22.411  52.954  1.00  0.00     0.012 C 
ATOM     38  C   UNL     1      62.084  21.748  50.504  1.00  0.00     0.012 C 
ENDBRANCH   9  36
BRANCH   6  39
ATOM     39  C   UNL     1      59.506  27.711  49.888  1.00  0.00     0.264 C 
ATOM     40  O   UNL     1      59.132  28.554  50.746  1.00  0.00    -0.298 OA
ENDBRANCH   6  39
BRANCH   8  41
ATOM     41  O   UNL     1      59.501  23.080  51.505  1.00  0.00    -0.504 OA
ATOM     42  H   UNL     1      58.857  23.065  52.281  1.00  0.00     0.293 HD
ENDBRANCH   8  41
BRANCH   7  43
ATOM     43  O   UNL     1      58.169  25.357  50.416  1.00  0.00    -0.504 OA
ATOM     44  H   UNL     1      57.500  25.657  51.110  1.00  0.00     0.293 HD
ENDBRANCH   7  43
TORSDOF 11
ENDMDL
MODEL 8
REMARK VINA RESULT:    -4.875      5.058      9.765
REMARK INTER + INTRA:          -8.742
REMARK INTER:                  -7.297
REMARK INTRA:                  -1.445
REMARK UNBOUND:                -1.587
REMARK SMILES Cc1cc2c(C(C)C)c(O)c(O)c(C=O)c2c(O)c1-c1c(C)cc2c(C(C)C)c(O)c(O)c(C=O)c2c1O
REMARK SMILES IDX 1 1 2 2 3 3 4 4 16 5 13 6 11 7 9 8 5 9 17 10 19 11 20 12
REMARK SMILES IDX 37 13 21 14 36 15 23 16 22 17 24 18 33 19 25 20 31 21 29 22
REMARK SMILES IDX 38 23 34 25 35 26 26 27 27 28 28 29 32 30 30 32 18 34 6 36
REMARK SMILES IDX 7 37 8 38 14 39 15 40 10 41 12 43
REMARK H PARENT 38 24 32 31 30 33 18 35 10 42 12 44
REMARK Flexibility Score: inf
ROOT
ATOM      1  C   UNL     1      60.860  26.081  50.298  1.00  0.00     0.045 C 
ATOM      2  C   UNL     1      61.626  27.374  50.429  1.00  0.00    -0.039 A 
ATOM      3  C   UNL     1      62.977  27.409  50.075  1.00  0.00     0.013 A 
ATOM      4  C   UNL     1      63.735  28.598  50.147  1.00  0.00    -0.006 A 
ATOM      5  C   UNL     1      63.062  29.819  50.443  1.00  0.00     0.039 A 
ATOM      6  C   UNL     1      63.768  31.048  50.289  1.00  0.00     0.072 A 
ATOM      7  C   UNL     1      65.122  31.043  49.902  1.00  0.00     0.169 A 
ATOM      8  C   UNL     1      65.794  29.827  49.673  1.00  0.00     0.162 A 
ATOM      9  C   UNL     1      65.139  28.594  49.897  1.00  0.00     0.008 A 
ATOM     10  C   UNL     1      61.715  29.765  50.907  1.00  0.00     0.132 A 
ATOM     11  C   UNL     1      61.001  28.546  50.884  1.00  0.00     0.031 A 
ENDROOT
BRANCH  11  12
ATOM     12  C   UNL     1      59.585  28.504  51.331  1.00  0.00     0.031 A 
ATOM     13  C   UNL     1      59.266  28.106  52.645  1.00  0.00     0.132 A 
ATOM     14  C   UNL     1      58.565  28.893  50.448  1.00  0.00    -0.039 A 
ATOM     15  C   UNL     1      57.905  28.030  53.068  1.00  0.00     0.039 A 
ATOM     16  C   UNL     1      57.241  28.903  50.888  1.00  0.00     0.013 A 
ATOM     17  C   UNL     1      58.882  29.349  49.044  1.00  0.00     0.045 C 
ATOM     18  C   UNL     1      56.874  28.451  52.171  1.00  0.00    -0.006 A 
ATOM     19  C   UNL     1      57.542  27.590  54.376  1.00  0.00     0.072 A 
ATOM     20  C   UNL     1      55.505  28.438  52.592  1.00  0.00     0.008 A 
ATOM     21  C   UNL     1      56.222  27.766  54.828  1.00  0.00     0.169 A 
ATOM     22  C   UNL     1      55.232  28.231  53.967  1.00  0.00     0.162 A 
BRANCH  13  23
ATOM     23  O   UNL     1      60.302  27.826  53.545  1.00  0.00    -0.507 OA
ATOM     24  H   UNL     1      60.206  27.215  54.346  1.00  0.00     0.293 HD
ENDBRANCH  13  23
BRANCH  19  25
ATOM     25  C   UNL     1      58.494  26.907  55.276  1.00  0.00     0.264 C 
ATOM     26  O   UNL     1      58.966  27.509  56.278  1.00  0.00    -0.298 OA
ENDBRANCH  19  25
BRANCH  20  27
ATOM     27  C   UNL     1      54.311  28.565  51.625  1.00  0.00     0.017 C 
ATOM     28  C   UNL     1      54.043  30.021  51.218  1.00  0.00     0.012 C 
ATOM     29  C   UNL     1      54.359  27.603  50.419  1.00  0.00     0.012 C 
ENDBRANCH  20  27
BRANCH  21  30
ATOM     30  O   UNL     1      55.843  27.463  56.142  1.00  0.00    -0.504 OA
ATOM     31  H   UNL     1      54.891  27.278  56.429  1.00  0.00     0.293 HD
ENDBRANCH  21  30
BRANCH  22  32
ATOM     32  O   UNL     1      53.969  28.471  54.522  1.00  0.00    -0.504 OA
ATOM     33  H   UNL     1      53.211  28.923  54.029  1.00  0.00     0.293 HD
ENDBRANCH  22  32
ENDBRANCH  11  12
BRANCH  10  34
ATOM     34  O   UNL     1      61.098  30.909  51.425  1.00  0.00    -0.507 OA
ATOM     35  H   UNL     1      60.408  31.455  50.926  1.00  0.00     0.293 HD
ENDBRANCH  10  34
BRANCH   9  36
ATOM     36  C   UNL     1      65.945  27.283  49.856  1.00  0.00     0.017 C 
ATOM     37  C   UNL     1      66.451  26.990  48.440  1.00  0.00     0.012 C 
ATOM     38  C   UNL     1      67.090  27.228  50.885  1.00  0.00     0.012 C 
ENDBRANCH   9  36
BRANCH   6  39
ATOM     39  C   UNL     1      63.094  32.364  50.397  1.00  0.00     0.264 C 
ATOM     40  O   UNL     1      62.609  32.930  49.381  1.00  0.00    -0.298 OA
ENDBRANCH   6  39
BRANCH   8  41
ATOM     41  O   UNL     1      67.104  29.813  49.182  1.00  0.00    -0.504 OA
ATOM     42  H   UNL     1      67.730  30.604  49.191  1.00  0.00     0.293 HD
ENDBRANCH   8  41
BRANCH   7  43
ATOM     43  O   UNL     1      65.773  32.274  49.748  1.00  0.00    -0.504 OA
ATOM     44  H   UNL     1      66.390  32.687  50.431  1.00  0.00     0.293 HD
ENDBRANCH   7  43
TORSDOF 11
ENDMDL
MODEL 9
REMARK VINA RESULT:    -4.874      6.833     11.262
REMARK INTER + INTRA:          -8.740
REMARK INTER:                  -7.182
REMARK INTRA:                  -1.558
REMARK UNBOUND:                -1.587
REMARK SMILES Cc1cc2c(C(C)C)c(O)c(O)c(C=O)c2c(O)c1-c1c(C)cc2c(C(C)C)c(O)c(O)c(C=O)c2c1O
REMARK SMILES IDX 1 1 2 2 3 3 4 4 16 5 13 6 11 7 9 8 5 9 17 10 19 11 20 12
REMARK SMILES IDX 37 13 21 14 36 15 23 16 22 17 24 18 33 19 25 20 31 21 29 22
REMARK SMILES IDX 38 23 34 25 35 26 26 27 27 28 28 29 32 30 30 32 18 34 6 36
REMARK SMILES IDX 7 37 8 38 14 39 15 40 10 41 12 43
REMARK H PARENT 38 24 32 31 30 33 18 35 10 42 12 44
REMARK Flexibility Score: inf
ROOT
ATOM      1  C   UNL     1      58.140  33.581  53.870  1.00  0.00     0.045 C 
ATOM      2  C   UNL     1      58.961  33.150  55.061  1.00  0.00    -0.039 A 
ATOM      3  C   UNL     1      59.274  34.084  56.051  1.00  0.00     0.013 A 
ATOM      4  C   UNL     1      60.012  33.730  57.202  1.00  0.00    -0.006 A 
ATOM      5  C   UNL     1      60.310  32.354  57.425  1.00  0.00     0.039 A 
ATOM      6  C   UNL     1      60.844  31.961  58.687  1.00  0.00     0.072 A 
ATOM      7  C   UNL     1      61.119  32.929  59.671  1.00  0.00     0.169 A 
ATOM      8  C   UNL     1      60.879  34.294  59.417  1.00  0.00     0.162 A 
ATOM      9  C   UNL     1      60.426  34.716  58.146  1.00  0.00     0.008 A 
ATOM     10  C   UNL     1      60.086  31.423  56.367  1.00  0.00     0.132 A 
ATOM     11  C   UNL     1      59.402  31.824  55.198  1.00  0.00     0.031 A 
ENDROOT
BRANCH  11  12
ATOM     12  C   UNL     1      59.136  30.840  54.117  1.00  0.00     0.031 A 
ATOM     13  C   UNL     1      60.103  30.603  53.118  1.00  0.00     0.132 A 
ATOM     14  C   UNL     1      57.929  30.123  54.110  1.00  0.00    -0.039 A 
ATOM     15  C   UNL     1      59.838  29.685  52.058  1.00  0.00     0.039 A 
ATOM     16  C   UNL     1      57.706  29.162  53.123  1.00  0.00     0.013 A 
ATOM     17  C   UNL     1      56.889  30.338  55.182  1.00  0.00     0.045 C 
ATOM     18  C   UNL     1      58.618  28.941  52.072  1.00  0.00    -0.006 A 
ATOM     19  C   UNL     1      60.775  29.453  51.007  1.00  0.00     0.072 A 
ATOM     20  C   UNL     1      58.354  27.973  51.050  1.00  0.00     0.008 A 
ATOM     21  C   UNL     1      60.581  28.370  50.130  1.00  0.00     0.169 A 
ATOM     22  C   UNL     1      59.416  27.611  50.185  1.00  0.00     0.162 A 
BRANCH  13  23
ATOM     23  O   UNL     1      61.343  31.247  53.203  1.00  0.00    -0.507 OA
ATOM     24  H   UNL     1      62.118  31.066  52.577  1.00  0.00     0.293 HD
ENDBRANCH  13  23
BRANCH  19  25
ATOM     25  C   UNL     1      61.933  30.337  50.767  1.00  0.00     0.264 C 
ATOM     26  O   UNL     1      63.102  29.937  51.018  1.00  0.00    -0.298 OA
ENDBRANCH  19  25
BRANCH  20  27
ATOM     27  C   UNL     1      56.965  27.356  50.793  1.00  0.00     0.017 C 
ATOM     28  C   UNL     1      56.685  26.151  51.702  1.00  0.00     0.012 C 
ATOM     29  C   UNL     1      55.806  28.375  50.772  1.00  0.00     0.012 C 
ENDBRANCH  20  27
BRANCH  21  30
ATOM     30  O   UNL     1      61.531  28.026  49.160  1.00  0.00    -0.504 OA
ATOM     31  H   UNL     1      61.653  28.521  48.286  1.00  0.00     0.293 HD
ENDBRANCH  21  30
BRANCH  22  32
ATOM     32  O   UNL     1      59.347  26.493  49.344  1.00  0.00    -0.504 OA
ATOM     33  H   UNL     1      59.322  25.538  49.675  1.00  0.00     0.293 HD
ENDBRANCH  22  32
ENDBRANCH  11  12
BRANCH  10  34
ATOM     34  O   UNL     1      60.576  30.116  56.459  1.00  0.00    -0.507 OA
ATOM     35  H   UNL     1      61.426  29.798  56.012  1.00  0.00     0.293 HD
ENDBRANCH  10  34
BRANCH   9  36
ATOM     36  C   UNL     1      60.378  36.218  57.812  1.00  0.00     0.017 C 
ATOM     37  C   UNL     1      59.266  36.922  58.596  1.00  0.00     0.012 C 
ATOM     38  C   UNL     1      61.730  36.934  57.989  1.00  0.00     0.012 C 
ENDBRANCH   9  36
BRANCH   6  39
ATOM     39  C   UNL     1      61.009  30.537  59.065  1.00  0.00     0.264 C 
ATOM     40  O   UNL     1      62.151  30.007  59.115  1.00  0.00    -0.298 OA
ENDBRANCH   6  39
BRANCH   8  41
ATOM     41  O   UNL     1      61.044  35.250  60.424  1.00  0.00    -0.504 OA
ATOM     42  H   UNL     1      61.932  35.612  60.734  1.00  0.00     0.293 HD
ENDBRANCH   8  41
BRANCH   7  43
ATOM     43  O   UNL     1      61.629  32.499  60.903  1.00  0.00    -0.504 OA
ATOM     44  H   UNL     1      62.611  32.409  61.119  1.00  0.00     0.293 HD
ENDBRANCH   7  43
TORSDOF 11
ENDMDL
