MODEL 1
REMARK VINA RESULT:    -4.918      0.000      0.000
REMARK INTER + INTRA:          -5.380
REMARK INTER:                  -5.349
REMARK INTRA:                  -0.031
REMARK UNBOUND:                -0.031
REMARK SMILES O=C([O-])c1ccc(O)cc1
REMARK SMILES IDX 4 1 5 2 10 3 6 4 9 5 7 6 2 7 1 8 3 9 8 10
REMARK H PARENT 8 11
REMARK Flexibility Score: inf
ROOT
ATOM      1  C   UNL     1     -24.732 -25.052 -17.909  1.00  0.00    -0.003 A 
ATOM      2  C   UNL     1     -25.671 -25.922 -18.490  1.00  0.00     0.014 A 
ATOM      3  C   UNL     1     -25.191 -23.906 -17.231  1.00  0.00     0.014 A 
ATOM      4  C   UNL     1     -27.039 -25.653 -18.395  1.00  0.00     0.047 A 
ATOM      5  C   UNL     1     -26.560 -23.641 -17.140  1.00  0.00     0.047 A 
ATOM      6  C   UNL     1     -27.489 -24.513 -17.721  1.00  0.00     0.115 A 
ENDROOT
BRANCH   1   7
ATOM      7  C   UNL     1     -23.284 -25.338 -18.011  1.00  0.00     0.071 C 
ATOM      8  O   UNL     1     -22.547 -25.287 -16.990  1.00  0.00    -0.545 OA
ATOM      9  O   UNL     1     -22.716 -25.672 -19.235  1.00  0.00    -0.545 OA
ENDBRANCH   1   7
BRANCH   6  10
ATOM     10  O   UNL     1     -28.856 -24.258 -17.635  1.00  0.00    -0.508 OA
ATOM     11  H   UNL     1     -29.230 -23.327 -17.774  1.00  0.00     0.293 HD
ENDBRANCH   6  10
TORSDOF 2
ENDMDL
MODEL 2
REMARK VINA RESULT:    -4.909      0.096      1.534
REMARK INTER + INTRA:          -5.370
REMARK INTER:                  -5.338
REMARK INTRA:                  -0.032
REMARK UNBOUND:                -0.031
REMARK SMILES O=C([O-])c1ccc(O)cc1
REMARK SMILES IDX 4 1 5 2 10 3 6 4 9 5 7 6 2 7 1 8 3 9 8 10
REMARK H PARENT 8 11
REMARK Flexibility Score: inf
ROOT
ATOM      1  C   UNL     1     -24.721 -24.991 -17.911  1.00  0.00    -0.003 A 
ATOM      2  C   UNL     1     -25.214 -23.853 -17.248  1.00  0.00     0.014 A 
ATOM      3  C   UNL     1     -25.634 -25.894 -18.487  1.00  0.00     0.014 A 
ATOM      4  C   UNL     1     -26.590 -23.624 -17.162  1.00  0.00     0.047 A 
ATOM      5  C   UNL     1     -27.010 -25.661 -18.399  1.00  0.00     0.047 A 
ATOM      6  C   UNL     1     -27.492 -24.526 -17.736  1.00  0.00     0.115 A 
ENDROOT
BRANCH   1   7
ATOM      7  C   UNL     1     -23.264 -25.232 -18.000  1.00  0.00     0.071 C 
ATOM      8  O   UNL     1     -22.519 -25.034 -17.003  1.00  0.00    -0.545 OA
ATOM      9  O   UNL     1     -22.696 -25.683 -19.186  1.00  0.00    -0.545 OA
ENDBRANCH   1   7
BRANCH   6  10
ATOM     10  O   UNL     1     -28.861 -24.284 -17.643  1.00  0.00    -0.508 OA
ATOM     11  H   UNL     1     -29.426 -24.120 -18.467  1.00  0.00     0.293 HD
ENDBRANCH   6  10
TORSDOF 2
ENDMDL
MODEL 3
REMARK VINA RESULT:    -4.434     10.148     12.885
REMARK INTER + INTRA:          -4.854
REMARK INTER:                  -4.818
REMARK INTRA:                  -0.036
REMARK UNBOUND:                -0.031
REMARK SMILES O=C([O-])c1ccc(O)cc1
REMARK SMILES IDX 4 1 5 2 10 3 6 4 9 5 7 6 2 7 1 8 3 9 8 10
REMARK H PARENT 8 11
REMARK Flexibility Score: inf
ROOT
ATOM      1  C   UNL     1     -14.187 -27.314 -17.812  1.00  0.00    -0.003 A 
ATOM      2  C   UNL     1     -13.322 -26.402 -18.439  1.00  0.00     0.014 A 
ATOM      3  C   UNL     1     -13.657 -28.233 -16.887  1.00  0.00     0.014 A 
ATOM      4  C   UNL     1     -11.954 -26.408 -18.149  1.00  0.00     0.047 A 
ATOM      5  C   UNL     1     -12.289 -28.236 -16.600  1.00  0.00     0.047 A 
ATOM      6  C   UNL     1     -11.433 -27.324 -17.230  1.00  0.00     0.115 A 
ENDROOT
BRANCH   1   7
ATOM      7  C   UNL     1     -15.634 -27.305 -18.121  1.00  0.00     0.071 C 
ATOM      8  O   UNL     1     -16.105 -26.501 -18.969  1.00  0.00    -0.545 OA
ATOM      9  O   UNL     1     -16.497 -28.189 -17.480  1.00  0.00    -0.545 OA
ENDBRANCH   1   7
BRANCH   6  10
ATOM     10  O   UNL     1     -10.069 -27.319 -16.951  1.00  0.00    -0.508 OA
ATOM     11  H   UNL     1      -9.386 -27.061 -17.653  1.00  0.00     0.293 HD
ENDBRANCH   6  10
TORSDOF 2
ENDMDL
MODEL 4
REMARK VINA RESULT:    -4.188     10.316     12.427
REMARK INTER + INTRA:          -4.586
REMARK INTER:                  -4.555
REMARK INTRA:                  -0.031
REMARK UNBOUND:                -0.031
REMARK SMILES O=C([O-])c1ccc(O)cc1
REMARK SMILES IDX 4 1 5 2 10 3 6 4 9 5 7 6 2 7 1 8 3 9 8 10
REMARK H PARENT 8 11
REMARK Flexibility Score: inf
ROOT
ATOM      1  C   UNL     1     -12.731 -27.390 -17.533  1.00  0.00    -0.003 A 
ATOM      2  C   UNL     1     -13.469 -26.528 -18.361  1.00  0.00     0.014 A 
ATOM      3  C   UNL     1     -13.374 -28.505 -16.961  1.00  0.00     0.014 A 
ATOM      4  C   UNL     1     -14.822 -26.773 -18.612  1.00  0.00     0.047 A 
ATOM      5  C   UNL     1     -14.727 -28.747 -17.215  1.00  0.00     0.047 A 
ATOM      6  C   UNL     1     -15.456 -27.882 -18.041  1.00  0.00     0.115 A 
ENDROOT
BRANCH   1   7
ATOM      7  C   UNL     1     -11.299 -27.128 -17.268  1.00  0.00     0.071 C 
ATOM      8  O   UNL     1     -10.526 -26.782 -18.202  1.00  0.00    -0.545 OA
ATOM      9  O   UNL     1     -10.785 -27.258 -15.983  1.00  0.00    -0.545 OA
ENDBRANCH   1   7
BRANCH   6  10
ATOM     10  O   UNL     1     -16.804 -28.114 -18.300  1.00  0.00    -0.508 OA
ATOM     11  H   UNL     1     -17.225 -27.856 -19.185  1.00  0.00     0.293 HD
ENDBRANCH   6  10
TORSDOF 2
ENDMDL
MODEL 5
REMARK VINA RESULT:    -4.115      9.921     12.390
REMARK INTER + INTRA:          -4.506
REMARK INTER:                  -4.470
REMARK INTRA:                  -0.036
REMARK UNBOUND:                -0.031
REMARK SMILES O=C([O-])c1ccc(O)cc1
REMARK SMILES IDX 4 1 5 2 10 3 6 4 9 5 7 6 2 7 1 8 3 9 8 10
REMARK H PARENT 8 11
REMARK Flexibility Score: inf
ROOT
ATOM      1  C   UNL     1     -14.690 -27.750 -17.239  1.00  0.00    -0.003 A 
ATOM      2  C   UNL     1     -14.515 -26.766 -18.227  1.00  0.00     0.014 A 
ATOM      3  C   UNL     1     -13.559 -28.262 -16.577  1.00  0.00     0.014 A 
ATOM      4  C   UNL     1     -13.235 -26.304 -18.547  1.00  0.00     0.047 A 
ATOM      5  C   UNL     1     -12.280 -27.798 -16.900  1.00  0.00     0.047 A 
ATOM      6  C   UNL     1     -12.114 -26.817 -17.886  1.00  0.00     0.115 A 
ENDROOT
BRANCH   1   7
ATOM      7  C   UNL     1     -16.046 -28.238 -16.902  1.00  0.00     0.071 C 
ATOM      8  O   UNL     1     -17.068 -27.653 -17.351  1.00  0.00    -0.545 OA
ATOM      9  O   UNL     1     -16.212 -29.352 -16.087  1.00  0.00    -0.545 OA
ENDBRANCH   1   7
BRANCH   6  10
ATOM     10  O   UNL     1     -10.845 -26.347 -18.215  1.00  0.00    -0.508 OA
ATOM     11  H   UNL     1     -10.503 -26.370 -19.169  1.00  0.00     0.293 HD
ENDBRANCH   6  10
TORSDOF 2
ENDMDL
MODEL 6
REMARK VINA RESULT:    -4.107      8.617     11.130
REMARK INTER + INTRA:          -4.497
REMARK INTER:                  -4.462
REMARK INTRA:                  -0.035
REMARK UNBOUND:                -0.031
REMARK SMILES O=C([O-])c1ccc(O)cc1
REMARK SMILES IDX 4 1 5 2 10 3 6 4 9 5 7 6 2 7 1 8 3 9 8 10
REMARK H PARENT 8 11
REMARK Flexibility Score: inf
ROOT
ATOM      1  C   UNL     1     -15.778 -26.394 -17.275  1.00  0.00    -0.003 A 
ATOM      2  C   UNL     1     -15.629 -27.040 -18.514  1.00  0.00     0.014 A 
ATOM      3  C   UNL     1     -14.876 -26.690 -16.236  1.00  0.00     0.014 A 
ATOM      4  C   UNL     1     -14.599 -27.965 -18.710  1.00  0.00     0.047 A 
ATOM      5  C   UNL     1     -13.848 -27.616 -16.436  1.00  0.00     0.047 A 
ATOM      6  C   UNL     1     -13.706 -28.256 -17.674  1.00  0.00     0.115 A 
ENDROOT
BRANCH   1   7
ATOM      7  C   UNL     1     -16.869 -25.416 -17.069  1.00  0.00     0.071 C 
ATOM      8  O   UNL     1     -17.866 -25.395 -17.840  1.00  0.00    -0.545 OA
ATOM      9  O   UNL     1     -16.811 -24.506 -16.020  1.00  0.00    -0.545 OA
ENDBRANCH   1   7
BRANCH   6  10
ATOM     10  O   UNL     1     -12.684 -29.180 -17.884  1.00  0.00    -0.508 OA
ATOM     11  H   UNL     1     -12.486 -29.912 -17.212  1.00  0.00     0.293 HD
ENDBRANCH   6  10
TORSDOF 2
ENDMDL
MODEL 7
REMARK VINA RESULT:    -4.085      8.761     10.959
REMARK INTER + INTRA:          -4.474
REMARK INTER:                  -4.445
REMARK INTRA:                  -0.028
REMARK UNBOUND:                -0.031
REMARK SMILES O=C([O-])c1ccc(O)cc1
REMARK SMILES IDX 4 1 5 2 10 3 6 4 9 5 7 6 2 7 1 8 3 9 8 10
REMARK H PARENT 8 11
REMARK Flexibility Score: inf
ROOT
ATOM      1  C   UNL     1     -14.049 -26.878 -17.553  1.00  0.00    -0.003 A 
ATOM      2  C   UNL     1     -14.743 -26.373 -16.440  1.00  0.00     0.014 A 
ATOM      3  C   UNL     1     -14.724 -27.001 -18.781  1.00  0.00     0.014 A 
ATOM      4  C   UNL     1     -16.085 -25.998 -16.554  1.00  0.00     0.047 A 
ATOM      5  C   UNL     1     -16.066 -26.626 -18.891  1.00  0.00     0.047 A 
ATOM      6  C   UNL     1     -16.751 -26.123 -17.777  1.00  0.00     0.115 A 
ENDROOT
BRANCH   1   7
ATOM      7  C   UNL     1     -12.628 -27.275 -17.430  1.00  0.00     0.071 C 
ATOM      8  O   UNL     1     -12.293 -28.244 -16.697  1.00  0.00    -0.545 OA
ATOM      9  O   UNL     1     -11.642 -26.584 -18.126  1.00  0.00    -0.545 OA
ENDBRANCH   1   7
BRANCH   6  10
ATOM     10  O   UNL     1     -18.088 -25.746 -17.875  1.00  0.00    -0.508 OA
ATOM     11  H   UNL     1     -18.371 -24.934 -18.411  1.00  0.00     0.293 HD
ENDBRANCH   6  10
TORSDOF 2
ENDMDL
MODEL 8
REMARK VINA RESULT:    -4.002     17.464     19.299
REMARK INTER + INTRA:          -4.384
REMARK INTER:                  -4.348
REMARK INTRA:                  -0.036
REMARK UNBOUND:                -0.031
REMARK SMILES O=C([O-])c1ccc(O)cc1
REMARK SMILES IDX 4 1 5 2 10 3 6 4 9 5 7 6 2 7 1 8 3 9 8 10
REMARK H PARENT 8 11
REMARK Flexibility Score: inf
ROOT
ATOM      1  C   UNL     1     -14.145 -35.141 -29.910  1.00  0.00    -0.003 A 
ATOM      2  C   UNL     1     -15.078 -34.903 -28.887  1.00  0.00     0.014 A 
ATOM      3  C   UNL     1     -12.788 -34.850 -29.678  1.00  0.00     0.014 A 
ATOM      4  C   UNL     1     -14.663 -34.384 -27.657  1.00  0.00     0.047 A 
ATOM      5  C   UNL     1     -12.377 -34.331 -28.447  1.00  0.00     0.047 A 
ATOM      6  C   UNL     1     -13.313 -34.096 -27.432  1.00  0.00     0.115 A 
ENDROOT
BRANCH   1   7
ATOM      7  C   UNL     1     -14.587 -35.690 -31.211  1.00  0.00     0.071 C 
ATOM      8  O   UNL     1     -13.746 -36.128 -32.042  1.00  0.00    -0.545 OA
ATOM      9  O   UNL     1     -15.938 -35.734 -31.536  1.00  0.00    -0.545 OA
ENDBRANCH   1   7
BRANCH   6  10
ATOM     10  O   UNL     1     -12.915 -33.579 -26.202  1.00  0.00    -0.508 OA
ATOM     11  H   UNL     1     -13.502 -33.658 -25.380  1.00  0.00     0.293 HD
ENDBRANCH   6  10
TORSDOF 2
ENDMDL
MODEL 9
REMARK VINA RESULT:    -3.944     18.651     18.991
REMARK INTER + INTRA:          -4.320
REMARK INTER:                  -4.293
REMARK INTRA:                  -0.027
REMARK UNBOUND:                -0.031
REMARK SMILES O=C([O-])c1ccc(O)cc1
REMARK SMILES IDX 4 1 5 2 10 3 6 4 9 5 7 6 2 7 1 8 3 9 8 10
REMARK H PARENT 8 11
REMARK Flexibility Score: inf
ROOT
ATOM      1  C   UNL     1     -11.903 -35.842 -25.117  1.00  0.00    -0.003 A 
ATOM      2  C   UNL     1     -12.777 -36.942 -25.106  1.00  0.00     0.014 A 
ATOM      3  C   UNL     1     -11.205 -35.512 -23.940  1.00  0.00     0.014 A 
ATOM      4  C   UNL     1     -12.951 -37.697 -23.941  1.00  0.00     0.047 A 
ATOM      5  C   UNL     1     -11.381 -36.269 -22.778  1.00  0.00     0.047 A 
ATOM      6  C   UNL     1     -12.255 -37.364 -22.775  1.00  0.00     0.115 A 
ENDROOT
BRANCH   1   7
ATOM      7  C   UNL     1     -11.721 -35.045 -26.350  1.00  0.00     0.071 C 
ATOM      8  O   UNL     1     -12.400 -34.001 -26.545  1.00  0.00    -0.545 OA
ATOM      9  O   UNL     1     -10.795 -35.434 -27.312  1.00  0.00    -0.545 OA
ENDBRANCH   1   7
BRANCH   6  10
ATOM     10  O   UNL     1     -12.438 -38.125 -21.623  1.00  0.00    -0.508 OA
ATOM     11  H   UNL     1     -12.313 -37.726 -20.700  1.00  0.00     0.293 HD
ENDBRANCH   6  10
TORSDOF 2
ENDMDL
