MODEL 1
REMARK VINA RESULT:    -7.301      0.000      0.000
REMARK INTER + INTRA:          -7.942
REMARK INTER:                  -7.942
REMARK INTRA:                   0.000
REMARK UNBOUND:                 0.000
REMARK SMILES Cc1cc(O)c2c(c1)C(=O)c1cc(O)cc(O)c1C2=O
REMARK SMILES IDX 1 1 2 2 8 3 7 4 6 5 4 6 3 7 19 8 20 9 18 10 11 11 9 12 10 13
REMARK SMILES IDX 12 14 13 15 15 16 16 17 5 18 17 20 14 22
REMARK H PARENT 5 19 17 21 14 23
REMARK Flexibility Score: inf
ROOT
ATOM      1  C   UNL     1      33.110  17.057 -17.565  1.00  0.00     0.044 C 
ATOM      2  C   UNL     1      32.930  18.537 -17.399  1.00  0.00    -0.047 A 
ATOM      3  C   UNL     1      32.931  19.108 -16.121  1.00  0.00     0.016 A 
ATOM      4  C   UNL     1      32.726  20.489 -15.952  1.00  0.00     0.038 A 
ATOM      5  C   UNL     1      32.510  21.309 -17.080  1.00  0.00     0.076 A 
ATOM      6  C   UNL     1      32.483  20.724 -18.366  1.00  0.00     0.127 A 
ATOM      7  C   UNL     1      32.689  19.346 -18.515  1.00  0.00     0.050 A 
ATOM      8  C   UNL     1      32.336  22.773 -16.887  1.00  0.00     0.201 C 
ATOM      9  O   UNL     1      32.507  23.550 -17.863  1.00  0.00    -0.288 OA
ATOM     10  C   UNL     1      32.076  23.323 -15.528  1.00  0.00     0.076 A 
ATOM     11  C   UNL     1      32.355  22.505 -14.407  1.00  0.00     0.041 A 
ATOM     12  C   UNL     1      32.734  21.086 -14.597  1.00  0.00     0.194 C 
ATOM     13  O   UNL     1      33.049  20.377 -13.601  1.00  0.00    -0.289 OA
ATOM     14  C   UNL     1      32.261  23.039 -13.110  1.00  0.00     0.059 A 
ATOM     15  C   UNL     1      31.879  24.368 -12.915  1.00  0.00     0.120 A 
ATOM     16  C   UNL     1      31.558  25.164 -14.013  1.00  0.00     0.093 A 
ATOM     17  C   UNL     1      31.616  24.651 -15.312  1.00  0.00     0.131 A 
ENDROOT
BRANCH   6  18
ATOM     18  O   UNL     1      32.242  21.504 -19.497  1.00  0.00    -0.507 OA
ATOM     19  H   UNL     1      32.903  22.203 -19.815  1.00  0.00     0.293 HD
ENDBRANCH   6  18
BRANCH  17  20
ATOM     20  O   UNL     1      31.176  25.481 -16.345  1.00  0.00    -0.507 OA
ATOM     21  H   UNL     1      30.365  25.286 -16.915  1.00  0.00     0.293 HD
ENDBRANCH  17  20
BRANCH  15  22
ATOM     22  O   UNL     1      31.802  24.905 -11.632  1.00  0.00    -0.508 OA
ATOM     23  H   UNL     1      30.999  24.738 -11.035  1.00  0.00     0.293 HD
ENDBRANCH  15  22
TORSDOF 3
ENDMDL
MODEL 2
REMARK VINA RESULT:    -7.201      2.320      3.215
REMARK INTER + INTRA:          -7.832
REMARK INTER:                  -7.832
REMARK INTRA:                   0.000
REMARK UNBOUND:                 0.000
REMARK SMILES Cc1cc(O)c2c(c1)C(=O)c1cc(O)cc(O)c1C2=O
REMARK SMILES IDX 1 1 2 2 8 3 7 4 6 5 4 6 3 7 19 8 20 9 18 10 11 11 9 12 10 13
REMARK SMILES IDX 12 14 13 15 15 16 16 17 5 18 17 20 14 22
REMARK H PARENT 5 19 17 21 14 23
REMARK Flexibility Score: inf
ROOT
ATOM      1  C   UNL     1      31.192  16.351 -13.791  1.00  0.00     0.044 C 
ATOM      2  C   UNL     1      31.937  17.384 -14.585  1.00  0.00    -0.047 A 
ATOM      3  C   UNL     1      32.121  18.671 -14.069  1.00  0.00     0.016 A 
ATOM      4  C   UNL     1      32.784  19.658 -14.820  1.00  0.00     0.038 A 
ATOM      5  C   UNL     1      33.264  19.351 -16.111  1.00  0.00     0.076 A 
ATOM      6  C   UNL     1      33.052  18.058 -16.639  1.00  0.00     0.127 A 
ATOM      7  C   UNL     1      32.388  17.088 -15.876  1.00  0.00     0.050 A 
ATOM      8  C   UNL     1      33.999  20.393 -16.876  1.00  0.00     0.201 C 
ATOM      9  O   UNL     1      34.736  20.050 -17.838  1.00  0.00    -0.288 OA
ATOM     10  C   UNL     1      33.957  21.815 -16.434  1.00  0.00     0.076 A 
ATOM     11  C   UNL     1      33.528  22.097 -15.115  1.00  0.00     0.041 A 
ATOM     12  C   UNL     1      32.980  21.016 -14.264  1.00  0.00     0.194 C 
ATOM     13  O   UNL     1      32.663  21.255 -13.065  1.00  0.00    -0.289 OA
ATOM     14  C   UNL     1      33.614  23.408 -14.617  1.00  0.00     0.059 A 
ATOM     15  C   UNL     1      34.104  24.442 -15.417  1.00  0.00     0.120 A 
ATOM     16  C   UNL     1      34.483  24.178 -16.732  1.00  0.00     0.093 A 
ATOM     17  C   UNL     1      34.384  22.889 -17.263  1.00  0.00     0.131 A 
ENDROOT
BRANCH   6  18
ATOM     18  O   UNL     1      33.488  17.734 -17.925  1.00  0.00    -0.507 OA
ATOM     19  H   UNL     1      34.109  18.342 -18.447  1.00  0.00     0.293 HD
ENDBRANCH   6  18
BRANCH  17  20
ATOM     20  O   UNL     1      34.682  22.733 -18.618  1.00  0.00    -0.507 OA
ATOM     21  H   UNL     1      34.108  23.097 -19.365  1.00  0.00     0.293 HD
ENDBRANCH  17  20
BRANCH  15  22
ATOM     22  O   UNL     1      34.206  25.740 -14.921  1.00  0.00    -0.508 OA
ATOM     23  H   UNL     1      33.862  25.982 -13.998  1.00  0.00     0.293 HD
ENDBRANCH  15  22
TORSDOF 3
ENDMDL
MODEL 3
REMARK VINA RESULT:    -7.130      1.215      5.493
REMARK INTER + INTRA:          -7.756
REMARK INTER:                  -7.756
REMARK INTRA:                   0.000
REMARK UNBOUND:                 0.000
REMARK SMILES Cc1cc(O)c2c(c1)C(=O)c1cc(O)cc(O)c1C2=O
REMARK SMILES IDX 1 1 2 2 8 3 7 4 6 5 4 6 3 7 19 8 20 9 18 10 11 11 9 12 10 13
REMARK SMILES IDX 12 14 13 15 15 16 16 17 5 18 17 20 14 22
REMARK H PARENT 5 19 17 21 14 23
REMARK Flexibility Score: inf
ROOT
ATOM      1  C   UNL     1      32.655  24.888 -11.465  1.00  0.00     0.044 C 
ATOM      2  C   UNL     1      32.378  24.298 -12.817  1.00  0.00    -0.047 A 
ATOM      3  C   UNL     1      32.668  22.953 -13.071  1.00  0.00     0.016 A 
ATOM      4  C   UNL     1      32.448  22.399 -14.345  1.00  0.00     0.038 A 
ATOM      5  C   UNL     1      31.935  23.208 -15.381  1.00  0.00     0.076 A 
ATOM      6  C   UNL     1      31.670  24.572 -15.127  1.00  0.00     0.127 A 
ATOM      7  C   UNL     1      31.897  25.106 -13.852  1.00  0.00     0.050 A 
ATOM      8  C   UNL     1      31.669  22.598 -16.711  1.00  0.00     0.201 C 
ATOM      9  O   UNL     1      30.894  23.179 -17.515  1.00  0.00    -0.288 OA
ATOM     10  C   UNL     1      32.221  21.255 -17.042  1.00  0.00     0.076 A 
ATOM     11  C   UNL     1      32.676  20.435 -15.982  1.00  0.00     0.041 A 
ATOM     12  C   UNL     1      32.751  20.973 -14.604  1.00  0.00     0.194 C 
ATOM     13  O   UNL     1      33.090  20.220 -13.649  1.00  0.00    -0.289 OA
ATOM     14  C   UNL     1      33.067  19.110 -16.240  1.00  0.00     0.059 A 
ATOM     15  C   UNL     1      33.026  18.597 -17.538  1.00  0.00     0.120 A 
ATOM     16  C   UNL     1      32.624  19.415 -18.593  1.00  0.00     0.093 A 
ATOM     17  C   UNL     1      32.256  20.744 -18.369  1.00  0.00     0.131 A 
ENDROOT
BRANCH   6  18
ATOM     18  O   UNL     1      31.192  25.404 -16.141  1.00  0.00    -0.507 OA
ATOM     19  H   UNL     1      30.873  26.348 -15.951  1.00  0.00     0.293 HD
ENDBRANCH   6  18
BRANCH  17  20
ATOM     20  O   UNL     1      31.970  21.524 -19.492  1.00  0.00    -0.507 OA
ATOM     21  H   UNL     1      31.349  22.321 -19.479  1.00  0.00     0.293 HD
ENDBRANCH  17  20
BRANCH  15  22
ATOM     22  O   UNL     1      33.396  17.279 -17.795  1.00  0.00    -0.508 OA
ATOM     23  H   UNL     1      33.035  16.510 -17.241  1.00  0.00     0.293 HD
ENDBRANCH  15  22
TORSDOF 3
ENDMDL
MODEL 4
REMARK VINA RESULT:    -7.046      2.632      5.490
REMARK INTER + INTRA:          -7.663
REMARK INTER:                  -7.663
REMARK INTRA:                   0.000
REMARK UNBOUND:                 0.000
REMARK SMILES Cc1cc(O)c2c(c1)C(=O)c1cc(O)cc(O)c1C2=O
REMARK SMILES IDX 1 1 2 2 8 3 7 4 6 5 4 6 3 7 19 8 20 9 18 10 11 11 9 12 10 13
REMARK SMILES IDX 12 14 13 15 15 16 16 17 5 18 17 20 14 22
REMARK H PARENT 5 19 17 21 14 23
REMARK Flexibility Score: inf
ROOT
ATOM      1  C   UNL     1      35.028  24.699 -15.786  1.00  0.00     0.044 C 
ATOM      2  C   UNL     1      34.525  23.341 -16.178  1.00  0.00    -0.047 A 
ATOM      3  C   UNL     1      33.920  22.512 -15.226  1.00  0.00     0.016 A 
ATOM      4  C   UNL     1      33.478  21.223 -15.574  1.00  0.00     0.038 A 
ATOM      5  C   UNL     1      33.652  20.755 -16.894  1.00  0.00     0.076 A 
ATOM      6  C   UNL     1      34.288  21.585 -17.845  1.00  0.00     0.127 A 
ATOM      7  C   UNL     1      34.722  22.867 -17.479  1.00  0.00     0.050 A 
ATOM      8  C   UNL     1      33.143  19.406 -17.256  1.00  0.00     0.201 C 
ATOM      9  O   UNL     1      32.955  19.120 -18.469  1.00  0.00    -0.288 OA
ATOM     10  C   UNL     1      32.747  18.445 -16.190  1.00  0.00     0.076 A 
ATOM     11  C   UNL     1      32.520  18.943 -14.885  1.00  0.00     0.041 A 
ATOM     12  C   UNL     1      32.834  20.355 -14.563  1.00  0.00     0.194 C 
ATOM     13  O   UNL     1      32.566  20.816 -13.419  1.00  0.00    -0.289 OA
ATOM     14  C   UNL     1      32.006  18.094 -13.891  1.00  0.00     0.059 A 
ATOM     15  C   UNL     1      31.731  16.754 -14.173  1.00  0.00     0.120 A 
ATOM     16  C   UNL     1      31.997  16.246 -15.444  1.00  0.00     0.093 A 
ATOM     17  C   UNL     1      32.534  17.062 -16.444  1.00  0.00     0.131 A 
ENDROOT
BRANCH   6  18
ATOM     18  O   UNL     1      34.501  21.139 -19.149  1.00  0.00    -0.507 OA
ATOM     19  H   UNL     1      34.612  21.784 -19.924  1.00  0.00     0.293 HD
ENDBRANCH   6  18
BRANCH  17  20
ATOM     20  O   UNL     1      32.870  16.449 -17.653  1.00  0.00    -0.507 OA
ATOM     21  H   UNL     1      32.659  16.842 -18.560  1.00  0.00     0.293 HD
ENDBRANCH  17  20
BRANCH  15  22
ATOM     22  O   UNL     1      31.206  15.913 -13.194  1.00  0.00    -0.508 OA
ATOM     23  H   UNL     1      30.957  14.952 -13.400  1.00  0.00     0.293 HD
ENDBRANCH  15  22
TORSDOF 3
ENDMDL
MODEL 5
REMARK VINA RESULT:    -7.025      2.899      5.126
REMARK INTER + INTRA:          -7.640
REMARK INTER:                  -7.640
REMARK INTRA:                   0.000
REMARK UNBOUND:                 0.000
REMARK SMILES Cc1cc(O)c2c(c1)C(=O)c1cc(O)cc(O)c1C2=O
REMARK SMILES IDX 1 1 2 2 8 3 7 4 6 5 4 6 3 7 19 8 20 9 18 10 11 11 9 12 10 13
REMARK SMILES IDX 12 14 13 15 15 16 16 17 5 18 17 20 14 22
REMARK H PARENT 5 19 17 21 14 23
REMARK Flexibility Score: inf
ROOT
ATOM      1  C   UNL     1      27.875  25.770 -17.347  1.00  0.00     0.044 C 
ATOM      2  C   UNL     1      29.035  24.857 -17.615  1.00  0.00    -0.047 A 
ATOM      3  C   UNL     1      30.142  24.854 -16.758  1.00  0.00     0.016 A 
ATOM      4  C   UNL     1      31.250  24.029 -17.020  1.00  0.00     0.038 A 
ATOM      5  C   UNL     1      31.253  23.201 -18.163  1.00  0.00     0.076 A 
ATOM      6  C   UNL     1      30.145  23.228 -19.040  1.00  0.00     0.127 A 
ATOM      7  C   UNL     1      29.050  24.057 -18.762  1.00  0.00     0.050 A 
ATOM      8  C   UNL     1      32.414  22.305 -18.405  1.00  0.00     0.201 C 
ATOM      9  O   UNL     1      32.287  21.322 -19.181  1.00  0.00    -0.288 OA
ATOM     10  C   UNL     1      33.681  22.501 -17.645  1.00  0.00     0.076 A 
ATOM     11  C   UNL     1      33.645  23.287 -16.469  1.00  0.00     0.041 A 
ATOM     12  C   UNL     1      32.414  24.027 -16.106  1.00  0.00     0.194 C 
ATOM     13  O   UNL     1      32.361  24.671 -15.021  1.00  0.00    -0.289 OA
ATOM     14  C   UNL     1      34.784  23.373 -15.650  1.00  0.00     0.059 A 
ATOM     15  C   UNL     1      35.959  22.702 -15.994  1.00  0.00     0.120 A 
ATOM     16  C   UNL     1      36.014  21.965 -17.175  1.00  0.00     0.093 A 
ATOM     17  C   UNL     1      34.905  21.884 -18.022  1.00  0.00     0.131 A 
ENDROOT
BRANCH   6  18
ATOM     18  O   UNL     1      30.132  22.443 -20.194  1.00  0.00    -0.507 OA
ATOM     19  H   UNL     1      30.986  22.193 -20.679  1.00  0.00     0.293 HD
ENDBRANCH   6  18
BRANCH  17  20
ATOM     20  O   UNL     1      35.078  21.215 -19.236  1.00  0.00    -0.507 OA
ATOM     21  H   UNL     1      34.427  20.533 -19.600  1.00  0.00     0.293 HD
ENDBRANCH  17  20
BRANCH  15  22
ATOM     22  O   UNL     1      37.084  22.772 -15.175  1.00  0.00    -0.508 OA
ATOM     23  H   UNL     1      38.016  22.874 -15.563  1.00  0.00     0.293 HD
ENDBRANCH  15  22
TORSDOF 3
ENDMDL
MODEL 6
REMARK VINA RESULT:    -6.701      2.439      5.798
REMARK INTER + INTRA:          -7.289
REMARK INTER:                  -7.289
REMARK INTRA:                   0.000
REMARK UNBOUND:                 0.000
REMARK SMILES Cc1cc(O)c2c(c1)C(=O)c1cc(O)cc(O)c1C2=O
REMARK SMILES IDX 1 1 2 2 8 3 7 4 6 5 4 6 3 7 19 8 20 9 18 10 11 11 9 12 10 13
REMARK SMILES IDX 12 14 13 15 15 16 16 17 5 18 17 20 14 22
REMARK H PARENT 5 19 17 21 14 23
REMARK Flexibility Score: inf
ROOT
ATOM      1  C   UNL     1      28.123  25.795 -19.450  1.00  0.00     0.044 C 
ATOM      2  C   UNL     1      29.106  25.129 -18.531  1.00  0.00    -0.047 A 
ATOM      3  C   UNL     1      29.722  23.931 -18.909  1.00  0.00     0.016 A 
ATOM      4  C   UNL     1      30.616  23.279 -18.041  1.00  0.00     0.038 A 
ATOM      5  C   UNL     1      30.890  23.832 -16.773  1.00  0.00     0.076 A 
ATOM      6  C   UNL     1      30.245  25.028 -16.385  1.00  0.00     0.127 A 
ATOM      7  C   UNL     1      29.356  25.663 -17.263  1.00  0.00     0.050 A 
ATOM      8  C   UNL     1      31.868  23.153 -15.883  1.00  0.00     0.201 C 
ATOM      9  O   UNL     1      32.395  23.795 -14.936  1.00  0.00    -0.288 OA
ATOM     10  C   UNL     1      32.309  21.761 -16.180  1.00  0.00     0.076 A 
ATOM     11  C   UNL     1      32.077  21.245 -17.477  1.00  0.00     0.041 A 
ATOM     12  C   UNL     1      31.268  22.015 -18.451  1.00  0.00     0.194 C 
ATOM     13  O   UNL     1      31.121  21.585 -19.629  1.00  0.00    -0.289 OA
ATOM     14  C   UNL     1      32.607  19.994 -17.838  1.00  0.00     0.059 A 
ATOM     15  C   UNL     1      33.349  19.246 -16.921  1.00  0.00     0.120 A 
ATOM     16  C   UNL     1      33.540  19.728 -15.628  1.00  0.00     0.093 A 
ATOM     17  C   UNL     1      33.002  20.957 -15.234  1.00  0.00     0.131 A 
ENDROOT
BRANCH   6  18
ATOM     18  O   UNL     1      30.472  25.583 -15.125  1.00  0.00    -0.507 OA
ATOM     19  H   UNL     1      30.146  25.134 -14.276  1.00  0.00     0.293 HD
ENDBRANCH   6  18
BRANCH  17  20
ATOM     20  O   UNL     1      33.148  21.316 -13.892  1.00  0.00    -0.507 OA
ATOM     21  H   UNL     1      32.568  20.955 -13.148  1.00  0.00     0.293 HD
ENDBRANCH  17  20
BRANCH  15  22
ATOM     22  O   UNL     1      33.890  18.013 -17.281  1.00  0.00    -0.508 OA
ATOM     23  H   UNL     1      34.828  17.745 -17.004  1.00  0.00     0.293 HD
ENDBRANCH  15  22
TORSDOF 3
ENDMDL
MODEL 7
REMARK VINA RESULT:    -6.630      2.427      5.864
REMARK INTER + INTRA:          -7.211
REMARK INTER:                  -7.211
REMARK INTRA:                   0.000
REMARK UNBOUND:                 0.000
REMARK SMILES Cc1cc(O)c2c(c1)C(=O)c1cc(O)cc(O)c1C2=O
REMARK SMILES IDX 1 1 2 2 8 3 7 4 6 5 4 6 3 7 19 8 20 9 18 10 11 11 9 12 10 13
REMARK SMILES IDX 12 14 13 15 15 16 16 17 5 18 17 20 14 22
REMARK H PARENT 5 19 17 21 14 23
REMARK Flexibility Score: inf
ROOT
ATOM      1  C   UNL     1      32.366  24.621 -12.427  1.00  0.00     0.044 C 
ATOM      2  C   UNL     1      32.472  23.934 -13.757  1.00  0.00    -0.047 A 
ATOM      3  C   UNL     1      31.509  24.162 -14.746  1.00  0.00     0.016 A 
ATOM      4  C   UNL     1      31.578  23.495 -15.982  1.00  0.00     0.038 A 
ATOM      5  C   UNL     1      32.625  22.581 -16.228  1.00  0.00     0.076 A 
ATOM      6  C   UNL     1      33.580  22.334 -15.216  1.00  0.00     0.127 A 
ATOM      7  C   UNL     1      33.494  23.008 -13.990  1.00  0.00     0.050 A 
ATOM      8  C   UNL     1      32.707  21.915 -17.555  1.00  0.00     0.201 C 
ATOM      9  O   UNL     1      33.796  21.400 -17.922  1.00  0.00    -0.288 OA
ATOM     10  C   UNL     1      31.548  21.962 -18.488  1.00  0.00     0.076 A 
ATOM     11  C   UNL     1      30.537  22.925 -18.259  1.00  0.00     0.041 A 
ATOM     12  C   UNL     1      30.559  23.747 -17.026  1.00  0.00     0.194 C 
ATOM     13  O   UNL     1      29.696  24.653 -16.856  1.00  0.00    -0.289 OA
ATOM     14  C   UNL     1      29.505  23.095 -19.198  1.00  0.00     0.059 A 
ATOM     15  C   UNL     1      29.458  22.309 -20.351  1.00  0.00     0.120 A 
ATOM     16  C   UNL     1      30.424  21.327 -20.559  1.00  0.00     0.093 A 
ATOM     17  C   UNL     1      31.446  21.118 -19.629  1.00  0.00     0.131 A 
ENDROOT
BRANCH   6  18
ATOM     18  O   UNL     1      34.608  21.413 -15.418  1.00  0.00    -0.507 OA
ATOM     19  H   UNL     1      35.371  21.596 -16.061  1.00  0.00     0.293 HD
ENDBRANCH   6  18
BRANCH  17  20
ATOM     20  O   UNL     1      32.309  20.044 -19.860  1.00  0.00    -0.507 OA
ATOM     21  H   UNL     1      32.235  19.153 -19.389  1.00  0.00     0.293 HD
ENDBRANCH  17  20
BRANCH  15  22
ATOM     22  O   UNL     1      28.446  22.487 -21.292  1.00  0.00    -0.508 OA
ATOM     23  H   UNL     1      27.923  21.701 -21.662  1.00  0.00     0.293 HD
ENDBRANCH  15  22
TORSDOF 3
ENDMDL
MODEL 8
REMARK VINA RESULT:    -6.540      2.411      3.965
REMARK INTER + INTRA:          -7.113
REMARK INTER:                  -7.113
REMARK INTRA:                   0.000
REMARK UNBOUND:                 0.000
REMARK SMILES Cc1cc(O)c2c(c1)C(=O)c1cc(O)cc(O)c1C2=O
REMARK SMILES IDX 1 1 2 2 8 3 7 4 6 5 4 6 3 7 19 8 20 9 18 10 11 11 9 12 10 13
REMARK SMILES IDX 12 14 13 15 15 16 16 17 5 18 17 20 14 22
REMARK H PARENT 5 19 17 21 14 23
REMARK Flexibility Score: inf
ROOT
ATOM      1  C   UNL     1      28.502  22.757 -21.530  1.00  0.00     0.044 C 
ATOM      2  C   UNL     1      29.491  22.424 -20.451  1.00  0.00    -0.047 A 
ATOM      3  C   UNL     1      29.535  23.185 -19.277  1.00  0.00     0.016 A 
ATOM      4  C   UNL     1      30.482  22.905 -18.276  1.00  0.00     0.038 A 
ATOM      5  C   UNL     1      31.404  21.852 -18.458  1.00  0.00     0.076 A 
ATOM      6  C   UNL     1      31.373  21.105 -19.657  1.00  0.00     0.127 A 
ATOM      7  C   UNL     1      30.422  21.399 -20.643  1.00  0.00     0.050 A 
ATOM      8  C   UNL     1      32.372  21.543 -17.373  1.00  0.00     0.201 C 
ATOM      9  O   UNL     1      32.937  20.417 -17.349  1.00  0.00    -0.288 OA
ATOM     10  C   UNL     1      32.583  22.510 -16.260  1.00  0.00     0.076 A 
ATOM     11  C   UNL     1      31.617  23.524 -16.058  1.00  0.00     0.041 A 
ATOM     12  C   UNL     1      30.518  23.710 -17.034  1.00  0.00     0.194 C 
ATOM     13  O   UNL     1      29.618  24.568 -16.816  1.00  0.00    -0.289 OA
ATOM     14  C   UNL     1      31.706  24.362 -14.933  1.00  0.00     0.059 A 
ATOM     15  C   UNL     1      32.752  24.215 -14.019  1.00  0.00     0.120 A 
ATOM     16  C   UNL     1      33.732  23.249 -14.239  1.00  0.00     0.093 A 
ATOM     17  C   UNL     1      33.683  22.420 -15.363  1.00  0.00     0.131 A 
ENDROOT
BRANCH   6  18
ATOM     18  O   UNL     1      32.292  20.078 -19.879  1.00  0.00    -0.507 OA
ATOM     19  H   UNL     1      33.287  20.258 -19.953  1.00  0.00     0.293 HD
ENDBRANCH   6  18
BRANCH  17  20
ATOM     20  O   UNL     1      34.761  21.555 -15.564  1.00  0.00    -0.507 OA
ATOM     21  H   UNL     1      34.945  20.744 -14.989  1.00  0.00     0.293 HD
ENDBRANCH  17  20
BRANCH  15  22
ATOM     22  O   UNL     1      32.833  25.033 -12.894  1.00  0.00    -0.508 OA
ATOM     23  H   UNL     1      33.070  26.016 -12.970  1.00  0.00     0.293 HD
ENDBRANCH  15  22
TORSDOF 3
ENDMDL
MODEL 9
REMARK VINA RESULT:    -6.458      2.649      3.753
REMARK INTER + INTRA:          -7.025
REMARK INTER:                  -7.025
REMARK INTRA:                   0.000
REMARK UNBOUND:                 0.000
REMARK SMILES Cc1cc(O)c2c(c1)C(=O)c1cc(O)cc(O)c1C2=O
REMARK SMILES IDX 1 1 2 2 8 3 7 4 6 5 4 6 3 7 19 8 20 9 18 10 11 11 9 12 10 13
REMARK SMILES IDX 12 14 13 15 15 16 16 17 5 18 17 20 14 22
REMARK H PARENT 5 19 17 21 14 23
REMARK Flexibility Score: inf
ROOT
ATOM      1  C   UNL     1      29.274  20.507 -21.348  1.00  0.00     0.044 C 
ATOM      2  C   UNL     1      29.544  21.504 -20.259  1.00  0.00    -0.047 A 
ATOM      3  C   UNL     1      30.703  21.401 -19.481  1.00  0.00     0.016 A 
ATOM      4  C   UNL     1      30.948  22.306 -18.434  1.00  0.00     0.038 A 
ATOM      5  C   UNL     1      30.014  23.327 -18.157  1.00  0.00     0.076 A 
ATOM      6  C   UNL     1      28.832  23.411 -18.927  1.00  0.00     0.127 A 
ATOM      7  C   UNL     1      28.605  22.498 -19.966  1.00  0.00     0.050 A 
ATOM      8  C   UNL     1      30.307  24.302 -17.074  1.00  0.00     0.201 C 
ATOM      9  O   UNL     1      29.696  25.403 -17.050  1.00  0.00    -0.288 OA
ATOM     10  C   UNL     1      31.396  24.028 -16.095  1.00  0.00     0.076 A 
ATOM     11  C   UNL     1      32.357  23.041 -16.418  1.00  0.00     0.041 A 
ATOM     12  C   UNL     1      32.180  22.194 -17.621  1.00  0.00     0.194 C 
ATOM     13  O   UNL     1      33.073  21.362 -17.945  1.00  0.00    -0.289 OA
ATOM     14  C   UNL     1      33.478  22.857 -15.589  1.00  0.00     0.059 A 
ATOM     15  C   UNL     1      33.644  23.630 -14.438  1.00  0.00     0.120 A 
ATOM     16  C   UNL     1      32.676  24.571 -14.091  1.00  0.00     0.093 A 
ATOM     17  C   UNL     1      31.539  24.755 -14.882  1.00  0.00     0.131 A 
ENDROOT
BRANCH   6  18
ATOM     18  O   UNL     1      27.875  24.390 -18.657  1.00  0.00    -0.507 OA
ATOM     19  H   UNL     1      26.924  24.316 -19.000  1.00  0.00     0.293 HD
ENDBRANCH   6  18
BRANCH  17  20
ATOM     20  O   UNL     1      30.568  25.640 -14.406  1.00  0.00    -0.507 OA
ATOM     21  H   UNL     1      29.783  25.961 -14.955  1.00  0.00     0.293 HD
ENDBRANCH  17  20
BRANCH  15  22
ATOM     22  O   UNL     1      34.762  23.463 -13.624  1.00  0.00    -0.508 OA
ATOM     23  H   UNL     1      35.459  22.752 -13.820  1.00  0.00     0.293 HD
ENDBRANCH  15  22
TORSDOF 3
ENDMDL
