MODEL 1
REMARK VINA RESULT:    -5.084      0.000      0.000
REMARK INTER + INTRA:          -5.766
REMARK INTER:                  -5.678
REMARK INTRA:                  -0.088
REMARK UNBOUND:                -0.088
REMARK SMILES CCc1ccc(O)cc1O
REMARK SMILES IDX 3 1 9 2 8 3 6 4 5 5 4 6 2 7 1 8 10 9 7 11
REMARK H PARENT 10 10 7 12
REMARK Flexibility Score: inf
ROOT
ATOM      1  C   UNL     1       3.463   3.770  13.419  1.00  0.00    -0.006 A 
ATOM      2  C   UNL     1       2.455   3.105  12.676  1.00  0.00     0.122 A 
ATOM      3  C   UNL     1       2.404   3.259  11.285  1.00  0.00     0.092 A 
ATOM      4  C   UNL     1       3.349   4.047  10.618  1.00  0.00     0.119 A 
ATOM      5  C   UNL     1       4.353   4.687  11.345  1.00  0.00     0.047 A 
ATOM      6  C   UNL     1       4.414   4.547  12.734  1.00  0.00     0.011 A 
ENDROOT
BRANCH   1   7
ATOM      7  C   UNL     1       3.578   3.635  14.918  1.00  0.00     0.036 C 
ATOM      8  C   UNL     1       4.316   2.354  15.297  1.00  0.00     0.009 C 
ENDBRANCH   1   7
BRANCH   2   9
ATOM      9  O   UNL     1       1.496   2.288  13.279  1.00  0.00    -0.508 OA
ATOM     10  H   UNL     1       1.625   1.299  13.438  1.00  0.00     0.293 HD
ENDBRANCH   2   9
BRANCH   4  11
ATOM     11  O   UNL     1       3.299   4.199   9.234  1.00  0.00    -0.508 OA
ATOM     12  H   UNL     1       3.719   4.998   8.773  1.00  0.00     0.293 HD
ENDBRANCH   4  11
TORSDOF 3
ENDMDL
MODEL 2
REMARK VINA RESULT:    -5.081     15.839     17.210
REMARK INTER + INTRA:          -5.763
REMARK INTER:                  -5.676
REMARK INTRA:                  -0.087
REMARK UNBOUND:                -0.088
REMARK SMILES CCc1ccc(O)cc1O
REMARK SMILES IDX 3 1 9 2 8 3 6 4 5 5 4 6 2 7 1 8 10 9 7 11
REMARK H PARENT 10 10 7 12
REMARK Flexibility Score: inf
ROOT
ATOM      1  C   UNL     1      -9.677  -7.814  14.166  1.00  0.00    -0.006 A 
ATOM      2  C   UNL     1      -8.898  -6.827  13.511  1.00  0.00     0.122 A 
ATOM      3  C   UNL     1      -9.258  -5.478  13.616  1.00  0.00     0.092 A 
ATOM      4  C   UNL     1     -10.368  -5.092  14.375  1.00  0.00     0.119 A 
ATOM      5  C   UNL     1     -11.125  -6.060  15.036  1.00  0.00     0.047 A 
ATOM      6  C   UNL     1     -10.781  -7.410  14.937  1.00  0.00     0.011 A 
ENDROOT
BRANCH   1   7
ATOM      7  C   UNL     1      -9.334  -9.284  14.101  1.00  0.00     0.036 C 
ATOM      8  C   UNL     1     -10.532 -10.104  13.632  1.00  0.00     0.009 C 
ENDBRANCH   1   7
BRANCH   2   9
ATOM      9  O   UNL     1      -7.767  -7.145  12.755  1.00  0.00    -0.508 OA
ATOM     10  H   UNL     1      -6.821  -7.043  13.095  1.00  0.00     0.293 HD
ENDBRANCH   2   9
BRANCH   4  11
ATOM     11  O   UNL     1     -10.725  -3.749  14.480  1.00  0.00    -0.508 OA
ATOM     12  H   UNL     1     -10.267  -3.129  15.138  1.00  0.00     0.293 HD
ENDBRANCH   4  11
TORSDOF 3
ENDMDL
MODEL 3
REMARK VINA RESULT:    -4.758     14.900     16.169
REMARK INTER + INTRA:          -5.403
REMARK INTER:                  -5.310
REMARK INTRA:                  -0.092
REMARK UNBOUND:                -0.088
REMARK SMILES CCc1ccc(O)cc1O
REMARK SMILES IDX 3 1 9 2 8 3 6 4 5 5 4 6 2 7 1 8 10 9 7 11
REMARK H PARENT 10 10 7 12
REMARK Flexibility Score: inf
ROOT
ATOM      1  C   UNL     1      -9.647  -6.962  14.319  1.00  0.00    -0.006 A 
ATOM      2  C   UNL     1      -9.757  -5.609  13.911  1.00  0.00     0.122 A 
ATOM      3  C   UNL     1      -8.626  -4.937  13.431  1.00  0.00     0.092 A 
ATOM      4  C   UNL     1      -7.393  -5.591  13.332  1.00  0.00     0.119 A 
ATOM      5  C   UNL     1      -7.288  -6.929  13.716  1.00  0.00     0.047 A 
ATOM      6  C   UNL     1      -8.405  -7.612  14.201  1.00  0.00     0.011 A 
ENDROOT
BRANCH   1   7
ATOM      7  C   UNL     1     -10.831  -7.746  14.834  1.00  0.00     0.036 C 
ATOM      8  C   UNL     1     -11.110  -8.959  13.952  1.00  0.00     0.009 C 
ENDBRANCH   1   7
BRANCH   2   9
ATOM      9  O   UNL     1     -10.962  -4.906  13.965  1.00  0.00    -0.508 OA
ATOM     10  H   UNL     1     -11.604  -4.836  13.187  1.00  0.00     0.293 HD
ENDBRANCH   2   9
BRANCH   4  11
ATOM     11  O   UNL     1      -6.269  -4.923  12.854  1.00  0.00    -0.508 OA
ATOM     12  H   UNL     1      -6.093  -3.951  13.082  1.00  0.00     0.293 HD
ENDBRANCH   4  11
TORSDOF 3
ENDMDL
MODEL 4
REMARK VINA RESULT:    -4.657      2.099      2.680
REMARK INTER + INTRA:          -5.289
REMARK INTER:                  -5.185
REMARK INTRA:                  -0.104
REMARK UNBOUND:                -0.088
REMARK SMILES CCc1ccc(O)cc1O
REMARK SMILES IDX 3 1 9 2 8 3 6 4 5 5 4 6 2 7 1 8 10 9 7 11
REMARK H PARENT 10 10 7 12
REMARK Flexibility Score: inf
ROOT
ATOM      1  C   UNL     1       3.487   4.077  12.495  1.00  0.00    -0.006 A 
ATOM      2  C   UNL     1       4.417   4.919  11.835  1.00  0.00     0.122 A 
ATOM      3  C   UNL     1       3.990   5.724  10.772  1.00  0.00     0.092 A 
ATOM      4  C   UNL     1       2.651   5.720  10.365  1.00  0.00     0.119 A 
ATOM      5  C   UNL     1       1.730   4.905  11.025  1.00  0.00     0.047 A 
ATOM      6  C   UNL     1       2.142   4.093  12.084  1.00  0.00     0.011 A 
ENDROOT
BRANCH   1   7
ATOM      7  C   UNL     1       3.882   3.194  13.655  1.00  0.00     0.036 C 
ATOM      8  C   UNL     1       3.538   3.855  14.986  1.00  0.00     0.009 C 
ENDBRANCH   1   7
BRANCH   2   9
ATOM      9  O   UNL     1       5.762   4.986  12.207  1.00  0.00    -0.508 OA
ATOM     10  H   UNL     1       6.100   5.531  12.987  1.00  0.00     0.293 HD
ENDBRANCH   2   9
BRANCH   4  11
ATOM     11  O   UNL     1       2.226   6.521   9.308  1.00  0.00    -0.508 OA
ATOM     12  H   UNL     1       2.431   6.281   8.345  1.00  0.00     0.293 HD
ENDBRANCH   4  11
TORSDOF 3
ENDMDL
MODEL 5
REMARK VINA RESULT:    -4.643      1.685      4.298
REMARK INTER + INTRA:          -5.274
REMARK INTER:                  -5.171
REMARK INTRA:                  -0.103
REMARK UNBOUND:                -0.088
REMARK SMILES CCc1ccc(O)cc1O
REMARK SMILES IDX 3 1 9 2 8 3 6 4 5 5 4 6 2 7 1 8 10 9 7 11
REMARK H PARENT 10 10 7 12
REMARK Flexibility Score: inf
ROOT
ATOM      1  C   UNL     1       3.280   4.071  11.399  1.00  0.00    -0.006 A 
ATOM      2  C   UNL     1       4.285   4.362  12.356  1.00  0.00     0.122 A 
ATOM      3  C   UNL     1       4.205   3.801  13.637  1.00  0.00     0.092 A 
ATOM      4  C   UNL     1       3.153   2.942  13.977  1.00  0.00     0.119 A 
ATOM      5  C   UNL     1       2.174   2.640  13.030  1.00  0.00     0.047 A 
ATOM      6  C   UNL     1       2.237   3.195  11.750  1.00  0.00     0.011 A 
ENDROOT
BRANCH   1   7
ATOM      7  C   UNL     1       3.316   4.635   9.998  1.00  0.00     0.036 C 
ATOM      8  C   UNL     1       2.605   5.984   9.934  1.00  0.00     0.009 C 
ENDBRANCH   1   7
BRANCH   2   9
ATOM      9  O   UNL     1       5.370   5.194  12.073  1.00  0.00    -0.508 OA
ATOM     10  H   UNL     1       5.798   5.806  12.754  1.00  0.00     0.293 HD
ENDBRANCH   2   9
BRANCH   4  11
ATOM     11  O   UNL     1       3.074   2.383  15.250  1.00  0.00    -0.508 OA
ATOM     12  H   UNL     1       3.517   1.498  15.468  1.00  0.00     0.293 HD
ENDBRANCH   4  11
TORSDOF 3
ENDMDL
MODEL 6
REMARK VINA RESULT:    -4.615      1.823      3.193
REMARK INTER + INTRA:          -5.243
REMARK INTER:                  -5.190
REMARK INTRA:                  -0.052
REMARK UNBOUND:                -0.088
REMARK SMILES CCc1ccc(O)cc1O
REMARK SMILES IDX 3 1 9 2 8 3 6 4 5 5 4 6 2 7 1 8 10 9 7 11
REMARK H PARENT 10 10 7 12
REMARK Flexibility Score: inf
ROOT
ATOM      1  C   UNL     1       1.999   3.617  11.206  1.00  0.00    -0.006 A 
ATOM      2  C   UNL     1       2.552   3.505  12.507  1.00  0.00     0.122 A 
ATOM      3  C   UNL     1       3.768   4.136  12.800  1.00  0.00     0.092 A 
ATOM      4  C   UNL     1       4.434   4.890  11.827  1.00  0.00     0.119 A 
ATOM      5  C   UNL     1       3.883   5.016  10.551  1.00  0.00     0.047 A 
ATOM      6  C   UNL     1       2.673   4.389  10.243  1.00  0.00     0.011 A 
ENDROOT
BRANCH   1   7
ATOM      7  C   UNL     1       0.687   2.971  10.831  1.00  0.00     0.036 C 
ATOM      8  C   UNL     1       0.858   1.469  10.617  1.00  0.00     0.009 C 
ENDBRANCH   1   7
BRANCH   2   9
ATOM      9  O   UNL     1       1.926   2.786  13.527  1.00  0.00    -0.508 OA
ATOM     10  H   UNL     1       1.377   1.953  13.369  1.00  0.00     0.293 HD
ENDBRANCH   2   9
BRANCH   4  11
ATOM     11  O   UNL     1       5.643   5.518  12.118  1.00  0.00    -0.508 OA
ATOM     12  H   UNL     1       6.076   6.162  11.466  1.00  0.00     0.293 HD
ENDBRANCH   4  11
TORSDOF 3
ENDMDL
MODEL 7
REMARK VINA RESULT:    -4.581     15.828     17.045
REMARK INTER + INTRA:          -5.204
REMARK INTER:                  -5.102
REMARK INTRA:                  -0.102
REMARK UNBOUND:                -0.088
REMARK SMILES CCc1ccc(O)cc1O
REMARK SMILES IDX 3 1 9 2 8 3 6 4 5 5 4 6 2 7 1 8 10 9 7 11
REMARK H PARENT 10 10 7 12
REMARK Flexibility Score: inf
ROOT
ATOM      1  C   UNL     1      -4.709  -8.752   3.062  1.00  0.00    -0.006 A 
ATOM      2  C   UNL     1      -5.617  -7.792   2.549  1.00  0.00     0.122 A 
ATOM      3  C   UNL     1      -5.144  -6.539   2.141  1.00  0.00     0.092 A 
ATOM      4  C   UNL     1      -3.781  -6.230   2.218  1.00  0.00     0.119 A 
ATOM      5  C   UNL     1      -2.882  -7.181   2.705  1.00  0.00     0.047 A 
ATOM      6  C   UNL     1      -3.340  -8.434   3.121  1.00  0.00     0.011 A 
ENDROOT
BRANCH   1   7
ATOM      7  C   UNL     1      -5.155 -10.125   3.508  1.00  0.00     0.036 C 
ATOM      8  C   UNL     1      -5.586 -10.111   4.971  1.00  0.00     0.009 C 
ENDBRANCH   1   7
BRANCH   2   9
ATOM      9  O   UNL     1      -6.985  -8.046   2.427  1.00  0.00    -0.508 OA
ATOM     10  H   UNL     1      -7.687  -7.621   3.016  1.00  0.00     0.293 HD
ENDBRANCH   2   9
BRANCH   4  11
ATOM     11  O   UNL     1      -3.310  -4.984   1.811  1.00  0.00    -0.508 OA
ATOM     12  H   UNL     1      -3.911  -4.318   1.341  1.00  0.00     0.293 HD
ENDBRANCH   4  11
TORSDOF 3
ENDMDL
MODEL 8
REMARK VINA RESULT:    -4.521     15.953     17.158
REMARK INTER + INTRA:          -5.138
REMARK INTER:                  -5.053
REMARK INTRA:                  -0.085
REMARK UNBOUND:                -0.088
REMARK SMILES CCc1ccc(O)cc1O
REMARK SMILES IDX 3 1 9 2 8 3 6 4 5 5 4 6 2 7 1 8 10 9 7 11
REMARK H PARENT 10 10 7 12
REMARK Flexibility Score: inf
ROOT
ATOM      1  C   UNL     1      -9.300  -8.614  13.139  1.00  0.00    -0.006 A 
ATOM      2  C   UNL     1      -8.780  -7.355  12.745  1.00  0.00     0.122 A 
ATOM      3  C   UNL     1      -7.679  -7.300  11.881  1.00  0.00     0.092 A 
ATOM      4  C   UNL     1      -7.096  -8.473  11.390  1.00  0.00     0.119 A 
ATOM      5  C   UNL     1      -7.618  -9.713  11.762  1.00  0.00     0.047 A 
ATOM      6  C   UNL     1      -8.713  -9.785  12.626  1.00  0.00     0.011 A 
ENDROOT
BRANCH   1   7
ATOM      7  C   UNL     1     -10.492  -8.740  14.057  1.00  0.00     0.036 C 
ATOM      8  C   UNL     1     -11.124 -10.125  13.945  1.00  0.00     0.009 C 
ENDBRANCH   1   7
BRANCH   2   9
ATOM      9  O   UNL     1      -9.329  -6.148  13.183  1.00  0.00    -0.508 OA
ATOM     10  H   UNL     1      -8.792  -5.421  13.636  1.00  0.00     0.293 HD
ENDBRANCH   2   9
BRANCH   4  11
ATOM     11  O   UNL     1      -6.002  -8.418  10.530  1.00  0.00    -0.508 OA
ATOM     12  H   UNL     1      -5.439  -9.239  10.335  1.00  0.00     0.293 HD
ENDBRANCH   4  11
TORSDOF 3
ENDMDL
MODEL 9
REMARK VINA RESULT:    -4.517     14.902     16.143
REMARK INTER + INTRA:          -5.133
REMARK INTER:                  -5.034
REMARK INTRA:                  -0.099
REMARK UNBOUND:                -0.088
REMARK SMILES CCc1ccc(O)cc1O
REMARK SMILES IDX 3 1 9 2 8 3 6 4 5 5 4 6 2 7 1 8 10 9 7 11
REMARK H PARENT 10 10 7 12
REMARK Flexibility Score: inf
ROOT
ATOM      1  C   UNL     1      -8.495  -7.459  14.061  1.00  0.00    -0.006 A 
ATOM      2  C   UNL     1      -9.757  -6.866  14.316  1.00  0.00     0.122 A 
ATOM      3  C   UNL     1      -9.945  -5.501  14.066  1.00  0.00     0.092 A 
ATOM      4  C   UNL     1      -8.905  -4.720  13.549  1.00  0.00     0.119 A 
ATOM      5  C   UNL     1      -7.667  -5.306  13.280  1.00  0.00     0.047 A 
ATOM      6  C   UNL     1      -7.463  -6.665  13.529  1.00  0.00     0.011 A 
ENDROOT
BRANCH   1   7
ATOM      7  C   UNL     1      -8.233  -8.927  14.300  1.00  0.00     0.036 C 
ATOM      8  C   UNL     1      -8.663  -9.762  13.097  1.00  0.00     0.009 C 
ENDBRANCH   1   7
BRANCH   2   9
ATOM      9  O   UNL     1     -10.840  -7.595  14.812  1.00  0.00    -0.508 OA
ATOM     10  H   UNL     1     -11.180  -7.517  15.760  1.00  0.00     0.293 HD
ENDBRANCH   2   9
BRANCH   4  11
ATOM     11  O   UNL     1      -9.092  -3.363  13.299  1.00  0.00    -0.508 OA
ATOM     12  H   UNL     1      -9.336  -3.023  12.376  1.00  0.00     0.293 HD
ENDBRANCH   4  11
TORSDOF 3
ENDMDL
