MODEL 1
REMARK VINA RESULT:    -2.170      0.000      0.000
REMARK INTER + INTRA:          -2.170
REMARK INTER:                  -2.170
REMARK INTRA:                   0.000
REMARK UNBOUND:                 0.000
REMARK SMILES CC(=O)[O-]
REMARK SMILES IDX 1 1 2 2 3 3 4 4
REMARK H PARENT
REMARK Flexibility Score: inf
ROOT
ATOM      1  C   UNL     1     -11.230 -73.019   5.557  1.00  0.00     0.063 C 
ATOM      2  C   UNL     1     -12.609 -72.760   6.063  1.00  0.00     0.038 C 
ATOM      3  O   UNL     1     -13.410 -73.716   6.230  1.00  0.00    -0.550 OA
ATOM      4  O   UNL     1     -13.030 -71.458   6.299  1.00  0.00    -0.550 OA
ENDROOT
TORSDOF 0
ENDMDL
MODEL 2
REMARK VINA RESULT:    -2.149      1.343      1.746
REMARK INTER + INTRA:          -2.149
REMARK INTER:                  -2.149
REMARK INTRA:                   0.000
REMARK UNBOUND:                 0.000
REMARK SMILES CC(=O)[O-]
REMARK SMILES IDX 1 1 2 2 3 3 4 4
REMARK H PARENT
REMARK Flexibility Score: inf
ROOT
ATOM      1  C   UNL     1     -12.627 -71.445   6.387  1.00  0.00     0.063 C 
ATOM      2  C   UNL     1     -12.541 -72.843   5.876  1.00  0.00     0.038 C 
ATOM      3  O   UNL     1     -13.384 -73.703   6.244  1.00  0.00    -0.550 OA
ATOM      4  O   UNL     1     -11.499 -73.214   5.037  1.00  0.00    -0.550 OA
ENDROOT
TORSDOF 0
ENDMDL
MODEL 3
REMARK VINA RESULT:    -2.036      1.744      1.999
REMARK INTER + INTRA:          -2.036
REMARK INTER:                  -2.036
REMARK INTRA:                   0.000
REMARK UNBOUND:                 0.000
REMARK SMILES CC(=O)[O-]
REMARK SMILES IDX 1 1 2 2 3 3 4 4
REMARK H PARENT
REMARK Flexibility Score: inf
ROOT
ATOM      1  C   UNL     1     -13.024 -73.240   6.141  1.00  0.00     0.063 C 
ATOM      2  C   UNL     1     -11.714 -72.706   5.669  1.00  0.00     0.038 C 
ATOM      3  O   UNL     1     -11.110 -73.265   4.717  1.00  0.00    -0.550 OA
ATOM      4  O   UNL     1     -11.132 -71.623   6.314  1.00  0.00    -0.550 OA
ENDROOT
TORSDOF 0
ENDMDL
MODEL 4
REMARK VINA RESULT:    -2.003      8.883      9.479
REMARK INTER + INTRA:          -2.003
REMARK INTER:                  -2.003
REMARK INTRA:                   0.000
REMARK UNBOUND:                 0.000
REMARK SMILES CC(=O)[O-]
REMARK SMILES IDX 1 1 2 2 3 3 4 4
REMARK H PARENT
REMARK Flexibility Score: inf
ROOT
ATOM      1  C   UNL     1      -9.410 -68.223  -0.863  1.00  0.00     0.063 C 
ATOM      2  C   UNL     1      -8.941 -66.923  -0.303  1.00  0.00     0.038 C 
ATOM      3  O   UNL     1      -8.844 -65.912  -1.047  1.00  0.00    -0.550 OA
ATOM      4  O   UNL     1      -8.559 -66.836   1.029  1.00  0.00    -0.550 OA
ENDROOT
TORSDOF 0
ENDMDL
MODEL 5
REMARK VINA RESULT:    -1.955      2.763      2.971
REMARK INTER + INTRA:          -1.955
REMARK INTER:                  -1.955
REMARK INTRA:                   0.000
REMARK UNBOUND:                 0.000
REMARK SMILES CC(=O)[O-]
REMARK SMILES IDX 1 1 2 2 3 3 4 4
REMARK H PARENT
REMARK Flexibility Score: inf
ROOT
ATOM      1  C   UNL     1     -11.815 -73.014   5.753  1.00  0.00     0.063 C 
ATOM      2  C   UNL     1     -10.354 -73.160   5.492  1.00  0.00     0.038 C 
ATOM      3  O   UNL     1      -9.644 -73.865   6.256  1.00  0.00    -0.550 OA
ATOM      4  O   UNL     1      -9.763 -72.475   4.439  1.00  0.00    -0.550 OA
ENDROOT
TORSDOF 0
ENDMDL
MODEL 6
REMARK VINA RESULT:    -1.919      9.049      9.644
REMARK INTER + INTRA:          -1.919
REMARK INTER:                  -1.919
REMARK INTRA:                   0.000
REMARK UNBOUND:                 0.000
REMARK SMILES CC(=O)[O-]
REMARK SMILES IDX 1 1 2 2 3 3 4 4
REMARK H PARENT
REMARK Flexibility Score: inf
ROOT
ATOM      1  C   UNL     1      -8.546 -66.590   1.122  1.00  0.00     0.063 C 
ATOM      2  C   UNL     1      -8.965 -66.702  -0.305  1.00  0.00     0.038 C 
ATOM      3  O   UNL     1      -8.854 -65.712  -1.075  1.00  0.00    -0.550 OA
ATOM      4  O   UNL     1      -9.528 -67.880  -0.775  1.00  0.00    -0.550 OA
ENDROOT
TORSDOF 0
ENDMDL
MODEL 7
REMARK VINA RESULT:    -1.888      9.196      9.663
REMARK INTER + INTRA:          -1.888
REMARK INTER:                  -1.888
REMARK INTRA:                   0.000
REMARK UNBOUND:                 0.000
REMARK SMILES CC(=O)[O-]
REMARK SMILES IDX 1 1 2 2 3 3 4 4
REMARK H PARENT
REMARK Flexibility Score: inf
ROOT
ATOM      1  C   UNL     1      -8.458 -66.535   1.063  1.00  0.00     0.063 C 
ATOM      2  C   UNL     1      -8.925 -66.616  -0.351  1.00  0.00     0.038 C 
ATOM      3  O   UNL     1      -9.348 -67.706  -0.816  1.00  0.00    -0.550 OA
ATOM      4  O   UNL     1      -8.844 -65.501  -1.175  1.00  0.00    -0.550 OA
ENDROOT
TORSDOF 0
ENDMDL
MODEL 8
REMARK VINA RESULT:    -1.819      2.632      3.036
REMARK INTER + INTRA:          -1.819
REMARK INTER:                  -1.819
REMARK INTRA:                   0.000
REMARK UNBOUND:                 0.000
REMARK SMILES CC(=O)[O-]
REMARK SMILES IDX 1 1 2 2 3 3 4 4
REMARK H PARENT
REMARK Flexibility Score: inf
ROOT
ATOM      1  C   UNL     1      -8.982 -73.966   6.142  1.00  0.00     0.063 C 
ATOM      2  C   UNL     1     -10.081 -73.270   5.412  1.00  0.00     0.038 C 
ATOM      3  O   UNL     1      -9.841 -72.671   4.331  1.00  0.00    -0.550 OA
ATOM      4  O   UNL     1     -11.361 -73.234   5.950  1.00  0.00    -0.550 OA
ENDROOT
TORSDOF 0
ENDMDL
MODEL 9
REMARK VINA RESULT:    -1.762     10.461     11.073
REMARK INTER + INTRA:          -1.762
REMARK INTER:                  -1.762
REMARK INTRA:                   0.000
REMARK UNBOUND:                 0.000
REMARK SMILES CC(=O)[O-]
REMARK SMILES IDX 1 1 2 2 3 3 4 4
REMARK H PARENT
REMARK Flexibility Score: inf
ROOT
ATOM      1  C   UNL     1      -7.788 -66.301  -0.596  1.00  0.00     0.063 C 
ATOM      2  C   UNL     1      -8.570 -65.039  -0.737  1.00  0.00     0.038 C 
ATOM      3  O   UNL     1      -8.193 -64.149  -1.544  1.00  0.00    -0.550 OA
ATOM      4  O   UNL     1      -9.685 -64.818   0.060  1.00  0.00    -0.550 OA
ENDROOT
TORSDOF 0
ENDMDL
