MODEL 1
REMARK VINA RESULT:    -5.221      0.000      0.000
REMARK INTER + INTRA:          -6.079
REMARK INTER:                  -5.984
REMARK INTRA:                  -0.095
REMARK UNBOUND:                -0.095
REMARK SMILES COc1cc(C(=O)[O-])ccc1O
REMARK SMILES IDX 5 1 9 2 4 3 10 4 3 5 11 6 6 7 7 8 8 9 2 10 1 11 12 12
REMARK H PARENT 12 13
REMARK Flexibility Score: inf
ROOT
ATOM      1  C   UNL     1      18.945  36.324  14.214  1.00  0.00     0.001 A 
ATOM      2  C   UNL     1      18.744  35.512  13.086  1.00  0.00     0.014 A 
ATOM      3  C   UNL     1      18.256  36.024  15.404  1.00  0.00     0.060 A 
ATOM      4  C   UNL     1      17.874  34.422  13.145  1.00  0.00     0.051 A 
ATOM      5  C   UNL     1      17.377  34.924  15.468  1.00  0.00     0.161 A 
ATOM      6  C   UNL     1      17.191  34.126  14.331  1.00  0.00     0.157 A 
ENDROOT
BRANCH   1   7
ATOM      7  C   UNL     1      19.868  37.478  14.145  1.00  0.00     0.072 C 
ATOM      8  O   UNL     1      19.422  38.657  14.140  1.00  0.00    -0.545 OA
ATOM      9  O   UNL     1      21.242  37.279  14.088  1.00  0.00    -0.545 OA
ENDBRANCH   1   7
BRANCH   5  10
ATOM     10  O   UNL     1      16.673  34.595  16.637  1.00  0.00    -0.493 OA
ATOM     11  C   UNL     1      15.476  35.235  17.065  1.00  0.00     0.278 C 
ENDBRANCH   5  10
BRANCH   6  12
ATOM     12  O   UNL     1      16.322  33.037  14.387  1.00  0.00    -0.504 OA
ATOM     13  H   UNL     1      16.605  32.116  14.077  1.00  0.00     0.293 HD
ENDBRANCH   6  12
TORSDOF 3
ENDMDL
MODEL 2
REMARK VINA RESULT:    -5.029     16.056     17.924
REMARK INTER + INTRA:          -5.860
REMARK INTER:                  -5.763
REMARK INTRA:                  -0.097
REMARK UNBOUND:                -0.095
REMARK SMILES COc1cc(C(=O)[O-])ccc1O
REMARK SMILES IDX 5 1 9 2 4 3 10 4 3 5 11 6 6 7 7 8 8 9 2 10 1 11 12 12
REMARK H PARENT 12 13
REMARK Flexibility Score: inf
ROOT
ATOM      1  C   UNL     1      17.853  24.369  28.606  1.00  0.00     0.001 A 
ATOM      2  C   UNL     1      17.478  24.741  27.304  1.00  0.00     0.014 A 
ATOM      3  C   UNL     1      17.348  25.099  29.698  1.00  0.00     0.060 A 
ATOM      4  C   UNL     1      16.616  25.819  27.097  1.00  0.00     0.051 A 
ATOM      5  C   UNL     1      16.477  26.188  29.493  1.00  0.00     0.161 A 
ATOM      6  C   UNL     1      16.115  26.542  28.186  1.00  0.00     0.157 A 
ENDROOT
BRANCH   1   7
ATOM      7  C   UNL     1      18.767  23.226  28.819  1.00  0.00     0.072 C 
ATOM      8  O   UNL     1      19.949  23.260  28.383  1.00  0.00    -0.545 OA
ATOM      9  O   UNL     1      18.336  22.097  29.506  1.00  0.00    -0.545 OA
ENDBRANCH   1   7
BRANCH   5  10
ATOM     10  O   UNL     1      15.953  26.939  30.557  1.00  0.00    -0.493 OA
ATOM     11  C   UNL     1      16.711  27.839  31.359  1.00  0.00     0.278 C 
ENDBRANCH   5  10
BRANCH   6  12
ATOM     12  O   UNL     1      15.254  27.619  27.977  1.00  0.00    -0.504 OA
ATOM     13  H   UNL     1      14.377  27.703  28.477  1.00  0.00     0.293 HD
ENDBRANCH   6  12
TORSDOF 3
ENDMDL
MODEL 3
REMARK VINA RESULT:    -4.975     15.406     17.726
REMARK INTER + INTRA:          -5.797
REMARK INTER:                  -5.701
REMARK INTRA:                  -0.096
REMARK UNBOUND:                -0.095
REMARK SMILES COc1cc(C(=O)[O-])ccc1O
REMARK SMILES IDX 5 1 9 2 4 3 10 4 3 5 11 6 6 7 7 8 8 9 2 10 1 11 12 12
REMARK H PARENT 12 13
REMARK Flexibility Score: inf
ROOT
ATOM      1  C   UNL     1      18.019  24.428  28.937  1.00  0.00     0.001 A 
ATOM      2  C   UNL     1      17.474  25.234  29.950  1.00  0.00     0.014 A 
ATOM      3  C   UNL     1      17.600  24.624  27.608  1.00  0.00     0.060 A 
ATOM      4  C   UNL     1      16.531  26.217  29.642  1.00  0.00     0.051 A 
ATOM      5  C   UNL     1      16.649  25.615  27.292  1.00  0.00     0.161 A 
ATOM      6  C   UNL     1      16.117  26.409  28.318  1.00  0.00     0.157 A 
ENDROOT
BRANCH   1   7
ATOM      7  C   UNL     1      19.017  23.389  29.270  1.00  0.00     0.072 C 
ATOM      8  O   UNL     1      20.250  23.634  29.188  1.00  0.00    -0.545 OA
ATOM      9  O   UNL     1      18.609  22.124  29.679  1.00  0.00    -0.545 OA
ENDBRANCH   1   7
BRANCH   5  10
ATOM     10  O   UNL     1      16.208  25.838  25.979  1.00  0.00    -0.493 OA
ATOM     11  C   UNL     1      15.255  25.027  25.298  1.00  0.00     0.278 C 
ENDBRANCH   5  10
BRANCH   6  12
ATOM     12  O   UNL     1      15.175  27.390  28.013  1.00  0.00    -0.504 OA
ATOM     13  H   UNL     1      14.797  27.491  27.079  1.00  0.00     0.293 HD
ENDBRANCH   6  12
TORSDOF 3
ENDMDL
MODEL 4
REMARK VINA RESULT:    -4.738      1.129      2.441
REMARK INTER + INTRA:          -5.526
REMARK INTER:                  -5.459
REMARK INTRA:                  -0.067
REMARK UNBOUND:                -0.095
REMARK SMILES COc1cc(C(=O)[O-])ccc1O
REMARK SMILES IDX 5 1 9 2 4 3 10 4 3 5 11 6 6 7 7 8 8 9 2 10 1 11 12 12
REMARK H PARENT 12 13
REMARK Flexibility Score: inf
ROOT
ATOM      1  C   UNL     1      18.721  36.498  14.342  1.00  0.00     0.001 A 
ATOM      2  C   UNL     1      18.518  35.998  15.638  1.00  0.00     0.014 A 
ATOM      3  C   UNL     1      18.158  35.813  13.249  1.00  0.00     0.060 A 
ATOM      4  C   UNL     1      17.768  34.838  15.840  1.00  0.00     0.051 A 
ATOM      5  C   UNL     1      17.400  34.642  13.448  1.00  0.00     0.161 A 
ATOM      6  C   UNL     1      17.209  34.159  14.749  1.00  0.00     0.157 A 
ENDROOT
BRANCH   1   7
ATOM      7  C   UNL     1      19.517  37.728  14.135  1.00  0.00     0.072 C 
ATOM      8  O   UNL     1      18.979  38.770  13.673  1.00  0.00    -0.545 OA
ATOM      9  O   UNL     1      20.871  37.752  14.448  1.00  0.00    -0.545 OA
ENDBRANCH   1   7
BRANCH   5  10
ATOM     10  O   UNL     1      16.824  33.933  12.382  1.00  0.00    -0.493 OA
ATOM     11  C   UNL     1      15.513  34.162  11.875  1.00  0.00     0.278 C 
ENDBRANCH   5  10
BRANCH   6  12
ATOM     12  O   UNL     1      16.461  33.001  14.953  1.00  0.00    -0.504 OA
ATOM     13  H   UNL     1      16.547  32.455  15.802  1.00  0.00     0.293 HD
ENDBRANCH   6  12
TORSDOF 3
ENDMDL
MODEL 5
REMARK VINA RESULT:    -4.661     15.457     17.419
REMARK INTER + INTRA:          -5.438
REMARK INTER:                  -5.352
REMARK INTRA:                  -0.086
REMARK UNBOUND:                -0.095
REMARK SMILES COc1cc(C(=O)[O-])ccc1O
REMARK SMILES IDX 5 1 9 2 4 3 10 4 3 5 11 6 6 7 7 8 8 9 2 10 1 11 12 12
REMARK H PARENT 12 13
REMARK Flexibility Score: inf
ROOT
ATOM      1  C   UNL     1      16.496  25.479  27.181  1.00  0.00     0.001 A 
ATOM      2  C   UNL     1      15.791  26.560  27.734  1.00  0.00     0.014 A 
ATOM      3  C   UNL     1      17.380  24.750  27.997  1.00  0.00     0.060 A 
ATOM      4  C   UNL     1      15.964  26.905  29.076  1.00  0.00     0.051 A 
ATOM      5  C   UNL     1      17.558  25.095  29.351  1.00  0.00     0.161 A 
ATOM      6  C   UNL     1      16.845  26.177  29.885  1.00  0.00     0.157 A 
ENDROOT
BRANCH   1   7
ATOM      7  C   UNL     1      16.308  25.118  25.758  1.00  0.00     0.072 C 
ATOM      8  O   UNL     1      17.286  24.750  25.055  1.00  0.00    -0.545 OA
ATOM      9  O   UNL     1      15.047  25.178  25.176  1.00  0.00    -0.545 OA
ENDBRANCH   1   7
BRANCH   5  10
ATOM     10  O   UNL     1      18.431  24.390  30.195  1.00  0.00    -0.493 OA
ATOM     11  C   UNL     1      19.732  23.947  29.822  1.00  0.00     0.278 C 
ENDBRANCH   5  10
BRANCH   6  12
ATOM     12  O   UNL     1      17.017  26.524  31.224  1.00  0.00    -0.504 OA
ATOM     13  H   UNL     1      17.906  26.404  31.694  1.00  0.00     0.293 HD
ENDBRANCH   6  12
TORSDOF 3
ENDMDL
MODEL 6
REMARK VINA RESULT:    -4.634     15.885     17.527
REMARK INTER + INTRA:          -5.406
REMARK INTER:                  -5.324
REMARK INTRA:                  -0.082
REMARK UNBOUND:                -0.095
REMARK SMILES COc1cc(C(=O)[O-])ccc1O
REMARK SMILES IDX 5 1 9 2 4 3 10 4 3 5 11 6 6 7 7 8 8 9 2 10 1 11 12 12
REMARK H PARENT 12 13
REMARK Flexibility Score: inf
ROOT
ATOM      1  C   UNL     1      17.513  24.559  28.242  1.00  0.00     0.001 A 
ATOM      2  C   UNL     1      17.497  24.781  26.855  1.00  0.00     0.014 A 
ATOM      3  C   UNL     1      16.340  24.791  28.985  1.00  0.00     0.060 A 
ATOM      4  C   UNL     1      16.334  25.224  26.223  1.00  0.00     0.051 A 
ATOM      5  C   UNL     1      15.164  25.237  28.350  1.00  0.00     0.161 A 
ATOM      6  C   UNL     1      15.169  25.452  26.966  1.00  0.00     0.157 A 
ENDROOT
BRANCH   1   7
ATOM      7  C   UNL     1      18.748  24.090  28.907  1.00  0.00     0.072 C 
ATOM      8  O   UNL     1      19.055  24.504  30.057  1.00  0.00    -0.545 OA
ATOM      9  O   UNL     1      19.589  23.183  28.273  1.00  0.00    -0.545 OA
ENDBRANCH   1   7
BRANCH   5  10
ATOM     10  O   UNL     1      13.976  25.479  29.059  1.00  0.00    -0.493 OA
ATOM     11  C   UNL     1      13.918  25.888  30.421  1.00  0.00     0.278 C 
ENDBRANCH   5  10
BRANCH   6  12
ATOM     12  O   UNL     1      14.009  25.895  26.332  1.00  0.00    -0.504 OA
ATOM     13  H   UNL     1      13.814  25.671  25.364  1.00  0.00     0.293 HD
ENDBRANCH   6  12
TORSDOF 3
ENDMDL
MODEL 7
REMARK VINA RESULT:    -4.622     16.574     18.561
REMARK INTER + INTRA:          -5.392
REMARK INTER:                  -5.316
REMARK INTRA:                  -0.077
REMARK UNBOUND:                -0.095
REMARK SMILES COc1cc(C(=O)[O-])ccc1O
REMARK SMILES IDX 5 1 9 2 4 3 10 4 3 5 11 6 6 7 7 8 8 9 2 10 1 11 12 12
REMARK H PARENT 12 13
REMARK Flexibility Score: inf
ROOT
ATOM      1  C   UNL     1      17.448  24.541  27.944  1.00  0.00     0.001 A 
ATOM      2  C   UNL     1      18.733  23.978  27.895  1.00  0.00     0.014 A 
ATOM      3  C   UNL     1      16.580  24.176  28.991  1.00  0.00     0.060 A 
ATOM      4  C   UNL     1      19.145  23.070  28.873  1.00  0.00     0.051 A 
ATOM      5  C   UNL     1      16.993  23.260  29.980  1.00  0.00     0.161 A 
ATOM      6  C   UNL     1      18.280  22.710  29.913  1.00  0.00     0.157 A 
ENDROOT
BRANCH   1   7
ATOM      7  C   UNL     1      17.016  25.503  26.906  1.00  0.00     0.072 C 
ATOM      8  O   UNL     1      16.575  26.639  27.227  1.00  0.00    -0.545 OA
ATOM      9  O   UNL     1      17.092  25.167  25.559  1.00  0.00    -0.545 OA
ENDBRANCH   1   7
BRANCH   5  10
ATOM     10  O   UNL     1      16.156  22.873  31.038  1.00  0.00    -0.493 OA
ATOM     11  C   UNL     1      14.840  23.376  31.252  1.00  0.00     0.278 C 
ENDBRANCH   5  10
BRANCH   6  12
ATOM     12  O   UNL     1      18.694  21.802  30.887  1.00  0.00    -0.504 OA
ATOM     13  H   UNL     1      19.096  20.906  30.642  1.00  0.00     0.293 HD
ENDBRANCH   6  12
TORSDOF 3
ENDMDL
MODEL 8
REMARK VINA RESULT:    -4.611     17.199     19.405
REMARK INTER + INTRA:          -5.380
REMARK INTER:                  -5.291
REMARK INTRA:                  -0.089
REMARK UNBOUND:                -0.095
REMARK SMILES COc1cc(C(=O)[O-])ccc1O
REMARK SMILES IDX 5 1 9 2 4 3 10 4 3 5 11 6 6 7 7 8 8 9 2 10 1 11 12 12
REMARK H PARENT 12 13
REMARK Flexibility Score: inf
ROOT
ATOM      1  C   UNL     1      18.016  22.612  29.841  1.00  0.00     0.001 A 
ATOM      2  C   UNL     1      19.007  22.951  28.905  1.00  0.00     0.014 A 
ATOM      3  C   UNL     1      16.790  23.304  29.819  1.00  0.00     0.060 A 
ATOM      4  C   UNL     1      18.779  23.958  27.966  1.00  0.00     0.051 A 
ATOM      5  C   UNL     1      16.556  24.321  28.873  1.00  0.00     0.161 A 
ATOM      6  C   UNL     1      17.558  24.643  27.947  1.00  0.00     0.157 A 
ENDROOT
BRANCH   1   7
ATOM      7  C   UNL     1      18.263  21.544  30.834  1.00  0.00     0.072 C 
ATOM      8  O   UNL     1      19.034  21.742  31.811  1.00  0.00    -0.545 OA
ATOM      9  O   UNL     1      17.647  20.304  30.704  1.00  0.00    -0.545 OA
ENDBRANCH   1   7
BRANCH   5  10
ATOM     10  O   UNL     1      15.347  25.032  28.821  1.00  0.00    -0.493 OA
ATOM     11  C   UNL     1      15.044  26.169  29.623  1.00  0.00     0.278 C 
ENDBRANCH   5  10
BRANCH   6  12
ATOM     12  O   UNL     1      17.333  25.650  27.009  1.00  0.00    -0.504 OA
ATOM     13  H   UNL     1      16.461  25.714  26.498  1.00  0.00     0.293 HD
ENDBRANCH   6  12
TORSDOF 3
ENDMDL
MODEL 9
REMARK VINA RESULT:    -4.299     15.524     17.485
REMARK INTER + INTRA:          -5.022
REMARK INTER:                  -4.943
REMARK INTRA:                  -0.080
REMARK UNBOUND:                -0.095
REMARK SMILES COc1cc(C(=O)[O-])ccc1O
REMARK SMILES IDX 5 1 9 2 4 3 10 4 3 5 11 6 6 7 7 8 8 9 2 10 1 11 12 12
REMARK H PARENT 12 13
REMARK Flexibility Score: inf
ROOT
ATOM      1  C   UNL     1      16.907  25.106  27.327  1.00  0.00     0.001 A 
ATOM      2  C   UNL     1      18.023  24.356  27.732  1.00  0.00     0.014 A 
ATOM      3  C   UNL     1      16.203  25.857  28.286  1.00  0.00     0.060 A 
ATOM      4  C   UNL     1      18.428  24.357  29.068  1.00  0.00     0.051 A 
ATOM      5  C   UNL     1      16.608  25.861  29.635  1.00  0.00     0.161 A 
ATOM      6  C   UNL     1      17.725  25.106  30.020  1.00  0.00     0.157 A 
ENDROOT
BRANCH   1   7
ATOM      7  C   UNL     1      16.482  25.102  25.909  1.00  0.00     0.072 C 
ATOM      8  O   UNL     1      17.289  24.775  24.999  1.00  0.00    -0.545 OA
ATOM      9  O   UNL     1      15.184  25.457  25.562  1.00  0.00    -0.545 OA
ENDBRANCH   1   7
BRANCH   5  10
ATOM     10  O   UNL     1      15.930  26.597  30.619  1.00  0.00    -0.493 OA
ATOM     11  C   UNL     1      16.226  27.947  30.965  1.00  0.00     0.278 C 
ENDBRANCH   5  10
BRANCH   6  12
ATOM     12  O   UNL     1      18.131  25.104  31.353  1.00  0.00    -0.504 OA
ATOM     13  H   UNL     1      18.289  25.966  31.861  1.00  0.00     0.293 HD
ENDBRANCH   6  12
TORSDOF 3
ENDMDL
