MODEL 1
REMARK VINA RESULT:    -3.241      0.000      0.000
REMARK INTER + INTRA:          -3.335
REMARK INTER:                  -3.335
REMARK INTRA:                   0.000
REMARK UNBOUND:                 0.000
REMARK SMILES Nc1ncnc2nc[nH]c12
REMARK SMILES IDX 8 1 7 2 6 3 5 4 4 5 3 6 2 7 10 8 9 9 1 11
REMARK H PARENT 9 10 1 12 1 13
REMARK Flexibility Score: inf
ROOT
ATOM      1  C   UNL     1     103.857 105.062 109.633  1.00  0.00     0.199 A 
ATOM      2  N   UNL     1     104.921 105.534 110.337  1.00  0.00    -0.217 NA
ATOM      3  C   UNL     1     104.907 106.843 110.033  1.00  0.00     0.182 A 
ATOM      4  N   UNL     1     105.772 107.785 110.479  1.00  0.00    -0.215 NA
ATOM      5  C   UNL     1     105.595 109.074 110.058  1.00  0.00     0.226 A 
ATOM      6  N   UNL     1     104.567 109.393 109.206  1.00  0.00    -0.217 NA
ATOM      7  C   UNL     1     103.695 108.444 108.755  1.00  0.00     0.152 A 
ATOM      8  C   UNL     1     103.888 107.137 109.194  1.00  0.00     0.127 A 
ATOM      9  N   UNL     1     103.204 106.018 108.925  1.00  0.00    -0.340 N 
ATOM     10  H   UNL     1     102.366 105.896 108.315  1.00  0.00     0.168 HD
ENDROOT
BRANCH   7  11
ATOM     11  N   UNL     1     102.632 108.800 107.870  1.00  0.00    -0.382 N 
ATOM     12  H   UNL     1     102.264 108.126 107.164  1.00  0.00     0.158 HD
ATOM     13  H   UNL     1     102.208 109.752 107.920  1.00  0.00     0.158 HD
ENDBRANCH   7  11
TORSDOF 1
ENDMDL
MODEL 2
REMARK VINA RESULT:    -3.186     11.386     13.507
REMARK INTER + INTRA:          -3.279
REMARK INTER:                  -3.279
REMARK INTRA:                   0.000
REMARK UNBOUND:                 0.000
REMARK SMILES Nc1ncnc2nc[nH]c12
REMARK SMILES IDX 8 1 7 2 6 3 5 4 4 5 3 6 2 7 10 8 9 9 1 11
REMARK H PARENT 9 10 1 12 1 13
REMARK Flexibility Score: inf
ROOT
ATOM      1  C   UNL     1      98.528  99.771 104.585  1.00  0.00     0.199 A 
ATOM      2  N   UNL     1      97.689  99.899 103.520  1.00  0.00    -0.217 NA
ATOM      3  C   UNL     1      97.642  98.644 103.042  1.00  0.00     0.182 A 
ATOM      4  N   UNL     1      96.937  98.215 101.968  1.00  0.00    -0.215 NA
ATOM      5  C   UNL     1      97.013  96.891 101.634  1.00  0.00     0.226 A 
ATOM      6  N   UNL     1      97.787  96.030 102.371  1.00  0.00    -0.217 NA
ATOM      7  C   UNL     1      98.499  96.461 103.454  1.00  0.00     0.152 A 
ATOM      8  C   UNL     1      98.410  97.811 103.782  1.00  0.00     0.127 A 
ATOM      9  N   UNL     1      98.984  98.507 104.771  1.00  0.00    -0.340 N 
ATOM     10  H   UNL     1      99.633  98.168 105.516  1.00  0.00     0.168 HD
ENDROOT
BRANCH   7  11
ATOM     11  N   UNL     1      99.296  95.547 104.207  1.00  0.00    -0.382 N 
ATOM     12  H   UNL     1      99.088  95.340 105.208  1.00  0.00     0.158 HD
ATOM     13  H   UNL     1     100.108  95.069 103.756  1.00  0.00     0.158 HD
ENDBRANCH   7  11
TORSDOF 1
ENDMDL
MODEL 3
REMARK VINA RESULT:    -3.175      9.482     10.372
REMARK INTER + INTRA:          -3.268
REMARK INTER:                  -3.268
REMARK INTRA:                   0.000
REMARK UNBOUND:                 0.000
REMARK SMILES Nc1ncnc2nc[nH]c12
REMARK SMILES IDX 8 1 7 2 6 3 5 4 4 5 3 6 2 7 10 8 9 9 1 11
REMARK H PARENT 9 10 1 12 1 13
REMARK Flexibility Score: inf
ROOT
ATOM      1  C   UNL     1     110.435 104.753 103.898  1.00  0.00     0.199 A 
ATOM      2  N   UNL     1     111.624 104.258 103.457  1.00  0.00    -0.217 NA
ATOM      3  C   UNL     1     111.415 102.932 103.500  1.00  0.00     0.182 A 
ATOM      4  N   UNL     1     112.299 101.964 103.158  1.00  0.00    -0.215 NA
ATOM      5  C   UNL     1     111.900 100.659 103.268  1.00  0.00     0.226 A 
ATOM      6  N   UNL     1     110.640 100.351 103.714  1.00  0.00    -0.217 NA
ATOM      7  C   UNL     1     109.748 101.327 104.059  1.00  0.00     0.152 A 
ATOM      8  C   UNL     1     110.168 102.649 103.942  1.00  0.00     0.127 A 
ATOM      9  N   UNL     1     109.524 103.794 104.201  1.00  0.00    -0.340 N 
ATOM     10  H   UNL     1     108.551 103.930 104.555  1.00  0.00     0.168 HD
ENDROOT
BRANCH   7  11
ATOM     11  N   UNL     1     108.441 100.982 104.521  1.00  0.00    -0.382 N 
ATOM     12  H   UNL     1     108.267 100.101 105.051  1.00  0.00     0.158 HD
ATOM     13  H   UNL     1     107.635 101.618 104.328  1.00  0.00     0.158 HD
ENDBRANCH   7  11
TORSDOF 1
ENDMDL
MODEL 4
REMARK VINA RESULT:    -3.088      5.080      6.249
REMARK INTER + INTRA:          -3.178
REMARK INTER:                  -3.178
REMARK INTRA:                   0.000
REMARK UNBOUND:                 0.000
REMARK SMILES Nc1ncnc2nc[nH]c12
REMARK SMILES IDX 8 1 7 2 6 3 5 4 4 5 3 6 2 7 10 8 9 9 1 11
REMARK H PARENT 9 10 1 12 1 13
REMARK Flexibility Score: inf
ROOT
ATOM      1  C   UNL     1     109.245 107.831 109.550  1.00  0.00     0.199 A 
ATOM      2  N   UNL     1     110.544 108.132 109.822  1.00  0.00    -0.217 NA
ATOM      3  C   UNL     1     110.604 109.439 109.516  1.00  0.00     0.182 A 
ATOM      4  N   UNL     1     111.692 110.241 109.608  1.00  0.00    -0.215 NA
ATOM      5  C   UNL     1     111.557 111.555 109.251  1.00  0.00     0.226 A 
ATOM      6  N   UNL     1     110.349 112.036 108.812  1.00  0.00    -0.217 NA
ATOM      7  C   UNL     1     109.251 111.228 108.719  1.00  0.00     0.152 A 
ATOM      8  C   UNL     1     109.405 109.894 109.086  1.00  0.00     0.127 A 
ATOM      9  N   UNL     1     108.522 108.887 109.099  1.00  0.00    -0.340 N 
ATOM     10  H   UNL     1     107.514 108.899 108.828  1.00  0.00     0.168 HD
ENDROOT
BRANCH   7  11
ATOM     11  N   UNL     1     108.004 111.752 108.260  1.00  0.00    -0.382 N 
ATOM     12  H   UNL     1     107.668 112.694 108.556  1.00  0.00     0.158 HD
ATOM     13  H   UNL     1     107.407 111.188 107.615  1.00  0.00     0.158 HD
ENDBRANCH   7  11
TORSDOF 1
ENDMDL
MODEL 5
REMARK VINA RESULT:    -3.018     10.844     12.714
REMARK INTER + INTRA:          -3.106
REMARK INTER:                  -3.106
REMARK INTRA:                   0.000
REMARK UNBOUND:                 0.000
REMARK SMILES Nc1ncnc2nc[nH]c12
REMARK SMILES IDX 8 1 7 2 6 3 5 4 4 5 3 6 2 7 10 8 9 9 1 11
REMARK H PARENT 9 10 1 12 1 13
REMARK Flexibility Score: inf
ROOT
ATOM      1  C   UNL     1      99.953  96.274 103.627  1.00  0.00     0.199 A 
ATOM      2  N   UNL     1      98.654  95.947 103.387  1.00  0.00    -0.217 NA
ATOM      3  C   UNL     1      98.036  97.135 103.498  1.00  0.00     0.182 A 
ATOM      4  N   UNL     1      96.710  97.372 103.349  1.00  0.00    -0.215 NA
ATOM      5  C   UNL     1      96.264  98.656 103.500  1.00  0.00     0.226 A 
ATOM      6  N   UNL     1      97.143  99.668 103.794  1.00  0.00    -0.217 NA
ATOM      7  C   UNL     1      98.480  99.430 103.944  1.00  0.00     0.152 A 
ATOM      8  C   UNL     1      98.918  98.118 103.788  1.00  0.00     0.127 A 
ATOM      9  N   UNL     1     100.147  97.594 103.875  1.00  0.00    -0.340 N 
ATOM     10  H   UNL     1     101.049  98.077 104.084  1.00  0.00     0.168 HD
ENDROOT
BRANCH   7  11
ATOM     11  N   UNL     1      99.375 100.500 104.250  1.00  0.00    -0.382 N 
ATOM     12  H   UNL     1     100.408 100.388 104.157  1.00  0.00     0.158 HD
ATOM     13  H   UNL     1      98.999 101.418 104.575  1.00  0.00     0.158 HD
ENDBRANCH   7  11
TORSDOF 1
ENDMDL
MODEL 6
REMARK VINA RESULT:    -2.983      9.994     10.690
REMARK INTER + INTRA:          -3.070
REMARK INTER:                  -3.070
REMARK INTRA:                   0.000
REMARK UNBOUND:                 0.000
REMARK SMILES Nc1ncnc2nc[nH]c12
REMARK SMILES IDX 8 1 7 2 6 3 5 4 4 5 3 6 2 7 10 8 9 9 1 11
REMARK H PARENT 9 10 1 12 1 13
REMARK Flexibility Score: inf
ROOT
ATOM      1  C   UNL     1     113.723 104.130 103.633  1.00  0.00     0.199 A 
ATOM      2  N   UNL     1     113.738 102.788 103.407  1.00  0.00    -0.217 NA
ATOM      3  C   UNL     1     112.438 102.468 103.510  1.00  0.00     0.182 A 
ATOM      4  N   UNL     1     111.897 101.233 103.369  1.00  0.00    -0.215 NA
ATOM      5  C   UNL     1     110.542 101.103 103.509  1.00  0.00     0.226 A 
ATOM      6  N   UNL     1     109.762 102.198 103.784  1.00  0.00    -0.217 NA
ATOM      7  C   UNL     1     110.307 103.443 103.926  1.00  0.00     0.152 A 
ATOM      8  C   UNL     1     111.687 103.559 103.781  1.00  0.00     0.127 A 
ATOM      9  N   UNL     1     112.484 104.631 103.864  1.00  0.00    -0.340 N 
ATOM     10  H   UNL     1     112.225 105.623 104.060  1.00  0.00     0.168 HD
ENDROOT
BRANCH   7  11
ATOM     11  N   UNL     1     109.475 104.568 104.212  1.00  0.00    -0.382 N 
ATOM     12  H   UNL     1     109.561 105.095 105.108  1.00  0.00     0.158 HD
ATOM     13  H   UNL     1     108.760 104.879 103.517  1.00  0.00     0.158 HD
ENDBRANCH   7  11
TORSDOF 1
ENDMDL
MODEL 7
REMARK VINA RESULT:    -2.968      0.924      2.922
REMARK INTER + INTRA:          -3.055
REMARK INTER:                  -3.055
REMARK INTRA:                   0.000
REMARK UNBOUND:                 0.000
REMARK SMILES Nc1ncnc2nc[nH]c12
REMARK SMILES IDX 8 1 7 2 6 3 5 4 4 5 3 6 2 7 10 8 9 9 1 11
REMARK H PARENT 9 10 1 12 1 13
REMARK Flexibility Score: inf
ROOT
ATOM      1  C   UNL     1     106.604 109.474 110.225  1.00  0.00     0.199 A 
ATOM      2  N   UNL     1     106.749 108.250 110.802  1.00  0.00    -0.217 NA
ATOM      3  C   UNL     1     105.690 107.580 110.318  1.00  0.00     0.182 A 
ATOM      4  N   UNL     1     105.358 106.293 110.585  1.00  0.00    -0.215 NA
ATOM      5  C   UNL     1     104.236 105.781 109.994  1.00  0.00     0.226 A 
ATOM      6  N   UNL     1     103.474 106.557 109.158  1.00  0.00    -0.217 NA
ATOM      7  C   UNL     1     103.808 107.854 108.888  1.00  0.00     0.152 A 
ATOM      8  C   UNL     1     104.953 108.361 109.496  1.00  0.00     0.127 A 
ATOM      9  N   UNL     1     105.515 109.573 109.420  1.00  0.00    -0.340 N 
ATOM     10  H   UNL     1     105.200 110.406 108.876  1.00  0.00     0.168 HD
ENDROOT
BRANCH   7  11
ATOM     11  N   UNL     1     103.000 108.642 108.013  1.00  0.00    -0.382 N 
ATOM     12  H   UNL     1     102.992 108.475 106.983  1.00  0.00     0.158 HD
ATOM     13  H   UNL     1     102.400 109.404 108.400  1.00  0.00     0.158 HD
ENDBRANCH   7  11
TORSDOF 1
ENDMDL
MODEL 8
REMARK VINA RESULT:    -2.926      9.527     10.020
REMARK INTER + INTRA:          -3.011
REMARK INTER:                  -3.011
REMARK INTRA:                   0.000
REMARK UNBOUND:                 0.000
REMARK SMILES Nc1ncnc2nc[nH]c12
REMARK SMILES IDX 8 1 7 2 6 3 5 4 4 5 3 6 2 7 10 8 9 9 1 11
REMARK H PARENT 9 10 1 12 1 13
REMARK Flexibility Score: inf
ROOT
ATOM      1  C   UNL     1     108.885 100.524 103.145  1.00  0.00     0.199 A 
ATOM      2  N   UNL     1     110.206 100.239 102.985  1.00  0.00    -0.217 NA
ATOM      3  C   UNL     1     110.788 101.417 103.267  1.00  0.00     0.182 A 
ATOM      4  N   UNL     1     112.117 101.684 103.255  1.00  0.00    -0.215 NA
ATOM      5  C   UNL     1     112.522 102.951 103.575  1.00  0.00     0.226 A 
ATOM      6  N   UNL     1     111.602 103.916 103.895  1.00  0.00    -0.217 NA
ATOM      7  C   UNL     1     110.262 103.648 103.908  1.00  0.00     0.152 A 
ATOM      8  C   UNL     1     109.865 102.354 103.581  1.00  0.00     0.127 A 
ATOM      9  N   UNL     1     108.645 101.809 103.511  1.00  0.00    -0.340 N 
ATOM     10  H   UNL     1     107.719 102.256 103.690  1.00  0.00     0.168 HD
ENDROOT
BRANCH   7  11
ATOM     11  N   UNL     1     109.323 104.669 104.245  1.00  0.00    -0.382 N 
ATOM     12  H   UNL     1     108.368 104.435 104.595  1.00  0.00     0.158 HD
ATOM     13  H   UNL     1     109.586 105.674 104.144  1.00  0.00     0.158 HD
ENDBRANCH   7  11
TORSDOF 1
ENDMDL
