MODEL 1
REMARK VINA RESULT:    -4.240      0.000      0.000
REMARK INTER + INTRA:          -6.512
REMARK INTER:                  -6.223
REMARK INTRA:                  -0.289
REMARK UNBOUND:                -0.289
REMARK SMILES O=C([O-])CCCCCCCC(=O)[O-]
REMARK SMILES IDX 7 1 6 2 5 3 4 4 2 5 1 6 3 7 8 8 9 9 10 10 11 11 12 12 13 13
REMARK H PARENT
REMARK Flexibility Score: inf
ROOT
ATOM      1  C   UNL     1     -16.209 -17.317  -3.802  1.00  0.00     0.000 C 
ENDROOT
BRANCH   1   2
ATOM      2  C   UNL     1     -17.656 -17.505  -3.323  1.00  0.00     0.000 C 
BRANCH   2   3
ATOM      3  C   UNL     1     -18.470 -18.445  -4.233  1.00  0.00     0.006 C 
BRANCH   3   4
ATOM      4  C   UNL     1     -19.352 -19.451  -3.475  1.00  0.00     0.053 C 
BRANCH   4   5
ATOM      5  C   UNL     1     -19.221 -20.838  -4.024  1.00  0.00     0.041 C 
ATOM      6  O   UNL     1     -19.957 -21.763  -3.590  1.00  0.00    -0.550 OA
ATOM      7  O   UNL     1     -18.264 -21.115  -4.991  1.00  0.00    -0.550 OA
ENDBRANCH   4   5
ENDBRANCH   3   4
ENDBRANCH   2   3
ENDBRANCH   1   2
BRANCH   1   8
ATOM      8  C   UNL     1     -15.578 -16.070  -3.166  1.00  0.00     0.000 C 
BRANCH   8   9
ATOM      9  C   UNL     1     -16.109 -14.761  -3.773  1.00  0.00     0.006 C 
BRANCH   9  10
ATOM     10  C   UNL     1     -16.104 -14.777  -5.307  1.00  0.00     0.053 C 
BRANCH  10  11
ATOM     11  C   UNL     1     -16.374 -13.407  -5.843  1.00  0.00     0.041 C 
ATOM     12  O   UNL     1     -17.196 -13.245  -6.783  1.00  0.00    -0.550 OA
ATOM     13  O   UNL     1     -15.683 -12.313  -5.338  1.00  0.00    -0.550 OA
ENDBRANCH  10  11
ENDBRANCH   9  10
ENDBRANCH   8   9
ENDBRANCH   1   8
TORSDOF 8
ENDMDL
MODEL 2
REMARK VINA RESULT:    -3.997     10.658     12.430
REMARK INTER + INTRA:          -6.155
REMARK INTER:                  -5.593
REMARK INTRA:                  -0.562
REMARK UNBOUND:                -0.289
REMARK SMILES O=C([O-])CCCCCCCC(=O)[O-]
REMARK SMILES IDX 7 1 6 2 5 3 4 4 2 5 1 6 3 7 8 8 9 9 10 10 11 11 12 12 13 13
REMARK H PARENT
REMARK Flexibility Score: inf
ROOT
ATOM      1  C   UNL     1     -24.336 -10.998   5.096  1.00  0.00     0.000 C 
ENDROOT
BRANCH   1   2
ATOM      2  C   UNL     1     -23.282 -10.088   4.449  1.00  0.00     0.000 C 
BRANCH   2   3
ATOM      3  C   UNL     1     -21.894 -10.222   5.103  1.00  0.00     0.006 C 
BRANCH   3   4
ATOM      4  C   UNL     1     -20.715 -10.040   4.131  1.00  0.00     0.053 C 
BRANCH   4   5
ATOM      5  C   UNL     1     -20.010 -11.332   3.855  1.00  0.00     0.041 C 
ATOM      6  O   UNL     1     -20.475 -12.415   4.298  1.00  0.00    -0.550 OA
ATOM      7  O   UNL     1     -18.822 -11.335   3.136  1.00  0.00    -0.550 OA
ENDBRANCH   4   5
ENDBRANCH   3   4
ENDBRANCH   2   3
ENDBRANCH   1   2
BRANCH   1   8
ATOM      8  C   UNL     1     -23.682 -12.243   5.712  1.00  0.00     0.000 C 
BRANCH   8   9
ATOM      9  C   UNL     1     -24.199 -13.553   5.095  1.00  0.00     0.006 C 
BRANCH   9  10
ATOM     10  C   UNL     1     -23.670 -13.785   3.674  1.00  0.00     0.053 C 
BRANCH  10  11
ATOM     11  C   UNL     1     -23.975 -15.179   3.226  1.00  0.00     0.041 C 
ATOM     12  O   UNL     1     -23.109 -15.849   2.605  1.00  0.00    -0.550 OA
ATOM     13  O   UNL     1     -25.234 -15.723   3.451  1.00  0.00    -0.550 OA
ENDBRANCH  10  11
ENDBRANCH   9  10
ENDBRANCH   8   9
ENDBRANCH   1   8
TORSDOF 8
ENDMDL
MODEL 3
REMARK VINA RESULT:    -3.981     10.706     11.342
REMARK INTER + INTRA:          -6.131
REMARK INTER:                  -5.531
REMARK INTRA:                  -0.600
REMARK UNBOUND:                -0.289
REMARK SMILES O=C([O-])CCCCCCCC(=O)[O-]
REMARK SMILES IDX 7 1 6 2 5 3 4 4 2 5 1 6 3 7 8 8 9 9 10 10 11 11 12 12 13 13
REMARK H PARENT
REMARK Flexibility Score: inf
ROOT
ATOM      1  C   UNL     1     -24.590 -11.269   4.809  1.00  0.00     0.000 C 
ENDROOT
BRANCH   1   2
ATOM      2  C   UNL     1     -23.965 -12.361   5.689  1.00  0.00     0.000 C 
BRANCH   2   3
ATOM      3  C   UNL     1     -24.188 -13.780   5.131  1.00  0.00     0.006 C 
BRANCH   3   4
ATOM      4  C   UNL     1     -24.025 -13.893   3.606  1.00  0.00     0.053 C 
BRANCH   4   5
ATOM      5  C   UNL     1     -24.108 -15.312   3.136  1.00  0.00     0.041 C 
ATOM      6  O   UNL     1     -23.122 -15.849   2.567  1.00  0.00    -0.550 OA
ATOM      7  O   UNL     1     -25.286 -16.030   3.297  1.00  0.00    -0.550 OA
ENDBRANCH   4   5
ENDBRANCH   3   4
ENDBRANCH   2   3
ENDBRANCH   1   2
BRANCH   1   8
ATOM      8  C   UNL     1     -23.601 -10.116   4.581  1.00  0.00     0.000 C 
BRANCH   8   9
ATOM      9  C   UNL     1     -22.200 -10.417   5.137  1.00  0.00     0.006 C 
BRANCH   9  10
ATOM     10  C   UNL     1     -21.091 -10.170   4.108  1.00  0.00     0.053 C 
BRANCH  10  11
ATOM     11  C   UNL     1     -20.281 -11.412   3.906  1.00  0.00     0.041 C 
ATOM     12  O   UNL     1     -20.832 -12.543   3.960  1.00  0.00    -0.550 OA
ATOM     13  O   UNL     1     -18.909 -11.323   3.706  1.00  0.00    -0.550 OA
ENDBRANCH  10  11
ENDBRANCH   9  10
ENDBRANCH   8   9
ENDBRANCH   1   8
TORSDOF 8
ENDMDL
MODEL 4
REMARK VINA RESULT:    -3.817     10.428     12.710
REMARK INTER + INTRA:          -5.891
REMARK INTER:                  -5.587
REMARK INTRA:                  -0.304
REMARK UNBOUND:                -0.289
REMARK SMILES O=C([O-])CCCCCCCC(=O)[O-]
REMARK SMILES IDX 7 1 6 2 5 3 4 4 2 5 1 6 3 7 8 8 9 9 10 10 11 11 12 12 13 13
REMARK H PARENT
REMARK Flexibility Score: inf
ROOT
ATOM      1  C   UNL     1     -22.863 -14.221   2.997  1.00  0.00     0.000 C 
ENDROOT
BRANCH   1   2
ATOM      2  C   UNL     1     -23.413 -13.278   4.077  1.00  0.00     0.000 C 
BRANCH   2   3
ATOM      3  C   UNL     1     -22.408 -12.185   4.485  1.00  0.00     0.006 C 
BRANCH   3   4
ATOM      4  C   UNL     1     -20.961 -12.458   4.041  1.00  0.00     0.053 C 
BRANCH   4   5
ATOM      5  C   UNL     1     -20.178 -11.192   3.867  1.00  0.00     0.041 C 
ATOM      6  O   UNL     1     -20.682 -10.087   4.197  1.00  0.00    -0.550 OA
ATOM      7  O   UNL     1     -18.907 -11.232   3.310  1.00  0.00    -0.550 OA
ENDBRANCH   4   5
ENDBRANCH   3   4
ENDBRANCH   2   3
ENDBRANCH   1   2
BRANCH   1   8
ATOM      8  C   UNL     1     -23.853 -15.358   2.706  1.00  0.00     0.000 C 
BRANCH   8   9
ATOM      9  C   UNL     1     -25.000 -15.422   3.727  1.00  0.00     0.006 C 
BRANCH   9  10
ATOM     10  C   UNL     1     -26.125 -16.370   3.293  1.00  0.00     0.053 C 
BRANCH  10  11
ATOM     11  C   UNL     1     -27.432 -15.926   3.870  1.00  0.00     0.041 C 
ATOM     12  O   UNL     1     -28.321 -15.437   3.125  1.00  0.00    -0.550 OA
ATOM     13  O   UNL     1     -27.651 -16.008   5.240  1.00  0.00    -0.550 OA
ENDBRANCH  10  11
ENDBRANCH   9  10
ENDBRANCH   8   9
ENDBRANCH   1   8
TORSDOF 8
ENDMDL
MODEL 5
REMARK VINA RESULT:    -3.489      1.904      7.084
REMARK INTER + INTRA:          -5.410
REMARK INTER:                  -4.982
REMARK INTRA:                  -0.428
REMARK UNBOUND:                -0.289
REMARK SMILES O=C([O-])CCCCCCCC(=O)[O-]
REMARK SMILES IDX 7 1 6 2 5 3 4 4 2 5 1 6 3 7 8 8 9 9 10 10 11 11 12 12 13 13
REMARK H PARENT
REMARK Flexibility Score: inf
ROOT
ATOM      1  C   UNL     1     -17.503 -18.878  -4.890  1.00  0.00     0.000 C 
ENDROOT
BRANCH   1   2
ATOM      2  C   UNL     1     -18.189 -17.746  -4.111  1.00  0.00     0.000 C 
BRANCH   2   3
ATOM      3  C   UNL     1     -17.318 -17.193  -2.967  1.00  0.00     0.006 C 
BRANCH   3   4
ATOM      4  C   UNL     1     -15.885 -16.821  -3.386  1.00  0.00     0.053 C 
BRANCH   4   5
ATOM      5  C   UNL     1     -15.854 -15.606  -4.261  1.00  0.00     0.041 C 
ATOM      6  O   UNL     1     -16.205 -14.487  -3.803  1.00  0.00    -0.550 OA
ATOM      7  O   UNL     1     -15.469 -15.717  -5.591  1.00  0.00    -0.550 OA
ENDBRANCH   4   5
ENDBRANCH   3   4
ENDBRANCH   2   3
ENDBRANCH   1   2
BRANCH   1   8
ATOM      8  C   UNL     1     -18.418 -20.107  -4.989  1.00  0.00     0.000 C 
BRANCH   8   9
ATOM      9  C   UNL     1     -19.466 -20.159  -3.866  1.00  0.00     0.006 C 
BRANCH   9  10
ATOM     10  C   UNL     1     -19.750 -21.589  -3.389  1.00  0.00     0.053 C 
BRANCH  10  11
ATOM     11  C   UNL     1     -21.096 -22.039  -3.861  1.00  0.00     0.041 C 
ATOM     12  O   UNL     1     -21.535 -21.661  -4.980  1.00  0.00    -0.550 OA
ATOM     13  O   UNL     1     -21.890 -22.835  -3.045  1.00  0.00    -0.550 OA
ENDBRANCH  10  11
ENDBRANCH   9  10
ENDBRANCH   8   9
ENDBRANCH   1   8
TORSDOF 8
ENDMDL
MODEL 6
REMARK VINA RESULT:    -3.443      3.247      4.331
REMARK INTER + INTRA:          -5.341
REMARK INTER:                  -5.045
REMARK INTRA:                  -0.296
REMARK UNBOUND:                -0.289
REMARK SMILES O=C([O-])CCCCCCCC(=O)[O-]
REMARK SMILES IDX 7 1 6 2 5 3 4 4 2 5 1 6 3 7 8 8 9 9 10 10 11 11 12 12 13 13
REMARK H PARENT
REMARK Flexibility Score: inf
ROOT
ATOM      1  C   UNL     1     -18.319 -20.138  -4.857  1.00  0.00     0.000 C 
ENDROOT
BRANCH   1   2
ATOM      2  C   UNL     1     -19.603 -20.869  -5.277  1.00  0.00     0.000 C 
BRANCH   2   3
ATOM      3  C   UNL     1     -20.876 -20.048  -4.999  1.00  0.00     0.006 C 
BRANCH   3   4
ATOM      4  C   UNL     1     -22.164 -20.665  -5.570  1.00  0.00     0.053 C 
BRANCH   4   5
ATOM      5  C   UNL     1     -23.124 -19.619  -6.047  1.00  0.00     0.041 C 
ATOM      6  O   UNL     1     -22.716 -18.458  -6.309  1.00  0.00    -0.550 OA
ATOM      7  O   UNL     1     -24.474 -19.920  -6.171  1.00  0.00    -0.550 OA
ENDBRANCH   4   5
ENDBRANCH   3   4
ENDBRANCH   2   3
ENDBRANCH   1   2
BRANCH   1   8
ATOM      8  C   UNL     1     -18.637 -18.975  -3.906  1.00  0.00     0.000 C 
BRANCH   8   9
ATOM      9  C   UNL     1     -17.898 -17.681  -4.283  1.00  0.00     0.006 C 
BRANCH   9  10
ATOM     10  C   UNL     1     -16.635 -17.455  -3.443  1.00  0.00     0.053 C 
BRANCH  10  11
ATOM     11  C   UNL     1     -16.587 -16.046  -2.943  1.00  0.00     0.041 C 
ATOM     12  O   UNL     1     -15.621 -15.298  -3.248  1.00  0.00    -0.550 OA
ATOM     13  O   UNL     1     -17.583 -15.572  -2.099  1.00  0.00    -0.550 OA
ENDBRANCH  10  11
ENDBRANCH   9  10
ENDBRANCH   8   9
ENDBRANCH   1   8
TORSDOF 8
ENDMDL
MODEL 7
REMARK VINA RESULT:    -3.425     11.334     11.959
REMARK INTER + INTRA:          -5.316
REMARK INTER:                  -4.637
REMARK INTRA:                  -0.679
REMARK UNBOUND:                -0.289
REMARK SMILES O=C([O-])CCCCCCCC(=O)[O-]
REMARK SMILES IDX 7 1 6 2 5 3 4 4 2 5 1 6 3 7 8 8 9 9 10 10 11 11 12 12 13 13
REMARK H PARENT
REMARK Flexibility Score: inf
ROOT
ATOM      1  C   UNL     1     -25.573 -12.061   4.491  1.00  0.00     0.000 C 
ENDROOT
BRANCH   1   2
ATOM      2  C   UNL     1     -25.043 -12.909   5.656  1.00  0.00     0.000 C 
BRANCH   2   3
ATOM      3  C   UNL     1     -24.544 -14.296   5.208  1.00  0.00     0.006 C 
BRANCH   3   4
ATOM      4  C   UNL     1     -24.815 -14.618   3.728  1.00  0.00     0.053 C 
BRANCH   4   5
ATOM      5  C   UNL     1     -23.558 -14.958   2.988  1.00  0.00     0.041 C 
ATOM      6  O   UNL     1     -22.593 -14.149   2.974  1.00  0.00    -0.550 OA
ATOM      7  O   UNL     1     -23.466 -16.153   2.287  1.00  0.00    -0.550 OA
ENDBRANCH   4   5
ENDBRANCH   3   4
ENDBRANCH   2   3
ENDBRANCH   1   2
BRANCH   1   8
ATOM      8  C   UNL     1     -25.223 -10.579   4.688  1.00  0.00     0.000 C 
BRANCH   8   9
ATOM      9  C   UNL     1     -23.847 -10.376   5.344  1.00  0.00     0.006 C 
BRANCH   9  10
ATOM     10  C   UNL     1     -22.690 -10.546   4.352  1.00  0.00     0.053 C 
BRANCH  10  11
ATOM     11  C   UNL     1     -21.583 -11.337   4.973  1.00  0.00     0.041 C 
ATOM     12  O   UNL     1     -21.628 -11.640   6.195  1.00  0.00    -0.550 OA
ATOM     13  O   UNL     1     -20.476 -11.699   4.215  1.00  0.00    -0.550 OA
ENDBRANCH  10  11
ENDBRANCH   9  10
ENDBRANCH   8   9
ENDBRANCH   1   8
TORSDOF 8
ENDMDL
MODEL 8
REMARK VINA RESULT:    -3.389      1.756      2.815
REMARK INTER + INTRA:          -5.262
REMARK INTER:                  -4.974
REMARK INTRA:                  -0.288
REMARK UNBOUND:                -0.289
REMARK SMILES O=C([O-])CCCCCCCC(=O)[O-]
REMARK SMILES IDX 7 1 6 2 5 3 4 4 2 5 1 6 3 7 8 8 9 9 10 10 11 11 12 12 13 13
REMARK H PARENT
REMARK Flexibility Score: inf
ROOT
ATOM      1  C   UNL     1     -18.177 -18.688  -4.731  1.00  0.00     0.000 C 
ENDROOT
BRANCH   1   2
ATOM      2  C   UNL     1     -18.766 -20.107  -4.738  1.00  0.00     0.000 C 
BRANCH   2   3
ATOM      3  C   UNL     1     -20.262 -20.135  -4.371  1.00  0.00     0.006 C 
BRANCH   3   4
ATOM      4  C   UNL     1     -20.999 -21.409  -4.818  1.00  0.00     0.053 C 
BRANCH   4   5
ATOM      5  C   UNL     1     -21.287 -22.324  -3.668  1.00  0.00     0.041 C 
ATOM      6  O   UNL     1     -22.315 -23.050  -3.680  1.00  0.00    -0.550 OA
ATOM      7  O   UNL     1     -20.437 -22.349  -2.570  1.00  0.00    -0.550 OA
ENDBRANCH   4   5
ENDBRANCH   3   4
ENDBRANCH   2   3
ENDBRANCH   1   2
BRANCH   1   8
ATOM      8  C   UNL     1     -18.124 -18.124  -3.304  1.00  0.00     0.000 C 
BRANCH   8   9
ATOM      9  C   UNL     1     -17.021 -17.068  -3.123  1.00  0.00     0.006 C 
BRANCH   9  10
ATOM     10  C   UNL     1     -16.262 -16.779  -4.424  1.00  0.00     0.053 C 
BRANCH  10  11
ATOM     11  C   UNL     1     -16.084 -15.305  -4.607  1.00  0.00     0.041 C 
ATOM     12  O   UNL     1     -16.292 -14.517  -3.647  1.00  0.00    -0.550 OA
ATOM     13  O   UNL     1     -15.737 -14.795  -5.852  1.00  0.00    -0.550 OA
ENDBRANCH  10  11
ENDBRANCH   9  10
ENDBRANCH   8   9
ENDBRANCH   1   8
TORSDOF 8
ENDMDL
