MODEL 1
REMARK VINA RESULT:    -2.942      0.000      0.000
REMARK INTER + INTRA:          -4.398
REMARK INTER:                  -4.059
REMARK INTRA:                  -0.339
REMARK UNBOUND:                -0.339
REMARK SMILES CCCCCCCCO
REMARK SMILES IDX 5 1 4 2 3 3 2 4 1 5 6 6 7 7 8 8 9 9
REMARK H PARENT 9 10
REMARK Flexibility Score: inf
ROOT
ATOM      1  C   UNL     1      35.235  -8.401  25.959  1.00  0.00     0.000 C 
ENDROOT
BRANCH   1   2
ATOM      2  C   UNL     1      35.090  -9.808  25.360  1.00  0.00    -0.000 C 
BRANCH   2   3
ATOM      3  C   UNL     1      33.612 -10.179  25.184  1.00  0.00    -0.000 C 
BRANCH   3   4
ATOM      4  C   UNL     1      32.700  -9.122  25.818  1.00  0.00    -0.003 C 
ATOM      5  C   UNL     1      31.367  -9.029  25.080  1.00  0.00     0.004 C 
ENDBRANCH   3   4
ENDBRANCH   2   3
ENDBRANCH   1   2
BRANCH   1   6
ATOM      6  C   UNL     1      36.097  -7.473  25.089  1.00  0.00     0.002 C 
BRANCH   6   7
ATOM      7  C   UNL     1      35.254  -6.561  24.183  1.00  0.00     0.028 C 
BRANCH   7   8
ATOM      8  C   UNL     1      36.007  -5.278  23.813  1.00  0.00     0.156 C 
BRANCH   8   9
ATOM      9  O   UNL     1      35.564  -4.773  22.582  1.00  0.00    -0.396 OA
ATOM     10  H   UNL     1      36.373  -4.467  22.093  1.00  0.00     0.210 HD
ENDBRANCH   8   9
ENDBRANCH   7   8
ENDBRANCH   6   7
ENDBRANCH   1   6
TORSDOF 7
ENDMDL
MODEL 2
REMARK VINA RESULT:    -2.835     13.039     13.990
REMARK INTER + INTRA:          -4.251
REMARK INTER:                  -4.108
REMARK INTRA:                  -0.142
REMARK UNBOUND:                -0.339
REMARK SMILES CCCCCCCCO
REMARK SMILES IDX 5 1 4 2 3 3 2 4 1 5 6 6 7 7 8 8 9 9
REMARK H PARENT 9 10
REMARK Flexibility Score: inf
ROOT
ATOM      1  C   UNL     1      33.797 -12.455  36.803  1.00  0.00     0.000 C 
ENDROOT
BRANCH   1   2
ATOM      2  C   UNL     1      32.314 -12.070  36.921  1.00  0.00    -0.000 C 
BRANCH   2   3
ATOM      3  C   UNL     1      31.414 -13.181  36.367  1.00  0.00    -0.000 C 
BRANCH   3   4
ATOM      4  C   UNL     1      30.103 -12.605  35.819  1.00  0.00    -0.003 C 
ATOM      5  C   UNL     1      30.260 -11.132  35.449  1.00  0.00     0.004 C 
ENDBRANCH   3   4
ENDBRANCH   2   3
ENDBRANCH   1   2
BRANCH   1   6
ATOM      6  C   UNL     1      34.619 -12.028  38.028  1.00  0.00     0.002 C 
BRANCH   6   7
ATOM      7  C   UNL     1      36.039 -12.619  38.022  1.00  0.00     0.028 C 
BRANCH   7   8
ATOM      8  C   UNL     1      36.592 -12.778  39.443  1.00  0.00     0.156 C 
BRANCH   8   9
ATOM      9  O   UNL     1      36.380 -14.079  39.921  1.00  0.00    -0.396 OA
ATOM     10  H   UNL     1      35.851 -13.992  40.758  1.00  0.00     0.210 HD
ENDBRANCH   8   9
ENDBRANCH   7   8
ENDBRANCH   6   7
ENDBRANCH   1   6
TORSDOF 7
ENDMDL
MODEL 3
REMARK VINA RESULT:    -2.763     16.900     18.616
REMARK INTER + INTRA:          -4.152
REMARK INTER:                  -3.909
REMARK INTRA:                  -0.243
REMARK UNBOUND:                -0.339
REMARK SMILES CCCCCCCCO
REMARK SMILES IDX 5 1 4 2 3 3 2 4 1 5 6 6 7 7 8 8 9 9
REMARK H PARENT 9 10
REMARK Flexibility Score: inf
ROOT
ATOM      1  C   UNL     1      28.853 -19.839  35.717  1.00  0.00     0.000 C 
ENDROOT
BRANCH   1   2
ATOM      2  C   UNL     1      27.836 -19.173  36.656  1.00  0.00    -0.000 C 
BRANCH   2   3
ATOM      3  C   UNL     1      28.320 -17.784  37.091  1.00  0.00    -0.000 C 
BRANCH   3   4
ATOM      4  C   UNL     1      29.770 -17.545  36.655  1.00  0.00    -0.003 C 
ATOM      5  C   UNL     1      30.056 -16.056  36.483  1.00  0.00     0.004 C 
ENDBRANCH   3   4
ENDBRANCH   2   3
ENDBRANCH   1   2
BRANCH   1   6
ATOM      6  C   UNL     1      28.383 -21.212  35.213  1.00  0.00     0.002 C 
BRANCH   6   7
ATOM      7  C   UNL     1      27.538 -21.966  36.253  1.00  0.00     0.028 C 
BRANCH   7   8
ATOM      8  C   UNL     1      28.052 -23.393  36.475  1.00  0.00     0.156 C 
BRANCH   8   9
ATOM      9  O   UNL     1      28.531 -23.556  37.782  1.00  0.00    -0.396 OA
ATOM     10  H   UNL     1      28.953 -22.695  38.040  1.00  0.00     0.210 HD
ENDBRANCH   8   9
ENDBRANCH   7   8
ENDBRANCH   6   7
ENDBRANCH   1   6
TORSDOF 7
ENDMDL
MODEL 4
REMARK VINA RESULT:    -2.746     14.808     15.917
REMARK INTER + INTRA:          -4.129
REMARK INTER:                  -3.841
REMARK INTRA:                  -0.288
REMARK UNBOUND:                -0.339
REMARK SMILES CCCCCCCCO
REMARK SMILES IDX 5 1 4 2 3 3 2 4 1 5 6 6 7 7 8 8 9 9
REMARK H PARENT 9 10
REMARK Flexibility Score: inf
ROOT
ATOM      1  C   UNL     1      28.614 -23.441  24.284  1.00  0.00     0.000 C 
ENDROOT
BRANCH   1   2
ATOM      2  C   UNL     1      29.262 -23.290  22.900  1.00  0.00    -0.000 C 
BRANCH   2   3
ATOM      3  C   UNL     1      29.308 -21.818  22.474  1.00  0.00    -0.000 C 
BRANCH   3   4
ATOM      4  C   UNL     1      30.683 -21.452  21.903  1.00  0.00    -0.003 C 
ATOM      5  C   UNL     1      31.558 -22.692  21.735  1.00  0.00     0.004 C 
ENDBRANCH   3   4
ENDBRANCH   2   3
ENDBRANCH   1   2
BRANCH   1   6
ATOM      6  C   UNL     1      28.953 -22.277  25.228  1.00  0.00     0.002 C 
BRANCH   6   7
ATOM      7  C   UNL     1      28.515 -22.544  26.677  1.00  0.00     0.028 C 
BRANCH   7   8
ATOM      8  C   UNL     1      29.550 -22.032  27.685  1.00  0.00     0.156 C 
BRANCH   8   9
ATOM      9  O   UNL     1      30.833 -22.010  27.120  1.00  0.00    -0.396 OA
ATOM     10  H   UNL     1      31.335 -22.766  27.524  1.00  0.00     0.210 HD
ENDBRANCH   8   9
ENDBRANCH   7   8
ENDBRANCH   6   7
ENDBRANCH   1   6
TORSDOF 7
ENDMDL
MODEL 5
REMARK VINA RESULT:    -2.739      6.822      7.593
REMARK INTER + INTRA:          -4.118
REMARK INTER:                  -3.697
REMARK INTRA:                  -0.421
REMARK UNBOUND:                -0.339
REMARK SMILES CCCCCCCCO
REMARK SMILES IDX 5 1 4 2 3 3 2 4 1 5 6 6 7 7 8 8 9 9
REMARK H PARENT 9 10
REMARK Flexibility Score: inf
ROOT
ATOM      1  C   UNL     1      35.823  -5.389  33.163  1.00  0.00     0.000 C 
ENDROOT
BRANCH   1   2
ATOM      2  C   UNL     1      34.604  -6.315  33.298  1.00  0.00    -0.000 C 
BRANCH   2   3
ATOM      3  C   UNL     1      33.342  -5.643  32.743  1.00  0.00    -0.000 C 
BRANCH   3   4
ATOM      4  C   UNL     1      32.221  -6.668  32.531  1.00  0.00    -0.003 C 
ATOM      5  C   UNL     1      32.519  -7.573  31.338  1.00  0.00     0.004 C 
ENDBRANCH   3   4
ENDBRANCH   2   3
ENDBRANCH   1   2
BRANCH   1   6
ATOM      6  C   UNL     1      36.937  -5.998  32.298  1.00  0.00     0.002 C 
BRANCH   6   7
ATOM      7  C   UNL     1      36.531  -7.342  31.672  1.00  0.00     0.028 C 
BRANCH   7   8
ATOM      8  C   UNL     1      36.681  -7.324  30.146  1.00  0.00     0.156 C 
BRANCH   8   9
ATOM      9  O   UNL     1      35.544  -6.777  29.536  1.00  0.00    -0.396 OA
ATOM     10  H   UNL     1      35.235  -6.037  30.121  1.00  0.00     0.210 HD
ENDBRANCH   8   9
ENDBRANCH   7   8
ENDBRANCH   6   7
ENDBRANCH   1   6
TORSDOF 7
ENDMDL
MODEL 6
REMARK VINA RESULT:    -2.732      8.308      9.042
REMARK INTER + INTRA:          -4.109
REMARK INTER:                  -3.898
REMARK INTRA:                  -0.211
REMARK UNBOUND:                -0.339
REMARK SMILES CCCCCCCCO
REMARK SMILES IDX 5 1 4 2 3 3 2 4 1 5 6 6 7 7 8 8 9 9
REMARK H PARENT 9 10
REMARK Flexibility Score: inf
ROOT
ATOM      1  C   UNL     1      32.034  -6.772  31.618  1.00  0.00     0.000 C 
ENDROOT
BRANCH   1   2
ATOM      2  C   UNL     1      30.717  -7.092  32.343  1.00  0.00    -0.000 C 
BRANCH   2   3
ATOM      3  C   UNL     1      30.755  -8.498  32.953  1.00  0.00    -0.000 C 
BRANCH   3   4
ATOM      4  C   UNL     1      29.588  -8.708  33.926  1.00  0.00    -0.003 C 
ATOM      5  C   UNL     1      28.550  -7.597  33.788  1.00  0.00     0.004 C 
ENDBRANCH   3   4
ENDBRANCH   2   3
ENDBRANCH   1   2
BRANCH   1   6
ATOM      6  C   UNL     1      32.916  -5.787  32.400  1.00  0.00     0.002 C 
BRANCH   6   7
ATOM      7  C   UNL     1      34.158  -6.458  33.008  1.00  0.00     0.028 C 
BRANCH   7   8
ATOM      8  C   UNL     1      35.222  -5.429  33.405  1.00  0.00     0.156 C 
BRANCH   8   9
ATOM      9  O   UNL     1      34.863  -4.767  34.587  1.00  0.00    -0.396 OA
ATOM     10  H   UNL     1      34.706  -3.816  34.345  1.00  0.00     0.210 HD
ENDBRANCH   8   9
ENDBRANCH   7   8
ENDBRANCH   6   7
ENDBRANCH   1   6
TORSDOF 7
ENDMDL
MODEL 7
REMARK VINA RESULT:    -2.715     18.143     19.504
REMARK INTER + INTRA:          -4.085
REMARK INTER:                  -3.673
REMARK INTRA:                  -0.412
REMARK UNBOUND:                -0.339
REMARK SMILES CCCCCCCCO
REMARK SMILES IDX 5 1 4 2 3 3 2 4 1 5 6 6 7 7 8 8 9 9
REMARK H PARENT 9 10
REMARK Flexibility Score: inf
ROOT
ATOM      1  C   UNL     1      28.268 -21.663  34.582  1.00  0.00     0.000 C 
ENDROOT
BRANCH   1   2
ATOM      2  C   UNL     1      28.895 -20.473  35.325  1.00  0.00    -0.000 C 
BRANCH   2   3
ATOM      3  C   UNL     1      27.926 -19.906  36.369  1.00  0.00    -0.000 C 
BRANCH   3   4
ATOM      4  C   UNL     1      26.845 -20.932  36.731  1.00  0.00    -0.003 C 
ATOM      5  C   UNL     1      25.568 -20.243  37.205  1.00  0.00     0.004 C 
ENDBRANCH   3   4
ENDBRANCH   2   3
ENDBRANCH   1   2
BRANCH   1   6
ATOM      6  C   UNL     1      29.260 -22.815  34.364  1.00  0.00     0.002 C 
BRANCH   6   7
ATOM      7  C   UNL     1      28.940 -24.044  35.230  1.00  0.00     0.028 C 
BRANCH   7   8
ATOM      8  C   UNL     1      29.634 -23.972  36.595  1.00  0.00     0.156 C 
BRANCH   8   9
ATOM      9  O   UNL     1      28.705 -23.740  37.619  1.00  0.00    -0.396 OA
ATOM     10  H   UNL     1      27.820 -23.635  37.181  1.00  0.00     0.210 HD
ENDBRANCH   8   9
ENDBRANCH   7   8
ENDBRANCH   6   7
ENDBRANCH   1   6
TORSDOF 7
ENDMDL
MODEL 8
REMARK VINA RESULT:    -2.702     14.217     15.418
REMARK INTER + INTRA:          -4.067
REMARK INTER:                  -3.766
REMARK INTRA:                  -0.301
REMARK UNBOUND:                -0.339
REMARK SMILES CCCCCCCCO
REMARK SMILES IDX 5 1 4 2 3 3 2 4 1 5 6 6 7 7 8 8 9 9
REMARK H PARENT 9 10
REMARK Flexibility Score: inf
ROOT
ATOM      1  C   UNL     1      29.945 -20.707  23.087  1.00  0.00     0.000 C 
ENDROOT
BRANCH   1   2
ATOM      2  C   UNL     1      30.437 -21.093  21.683  1.00  0.00    -0.000 C 
BRANCH   2   3
ATOM      3  C   UNL     1      31.309 -22.353  21.735  1.00  0.00    -0.000 C 
BRANCH   3   4
ATOM      4  C   UNL     1      31.035 -23.262  20.531  1.00  0.00    -0.003 C 
ATOM      5  C   UNL     1      29.663 -23.922  20.639  1.00  0.00     0.004 C 
ENDBRANCH   3   4
ENDBRANCH   2   3
ENDBRANCH   1   2
BRANCH   1   6
ATOM      6  C   UNL     1      29.498 -21.923  23.913  1.00  0.00     0.002 C 
BRANCH   6   7
ATOM      7  C   UNL     1      28.970 -21.532  25.302  1.00  0.00     0.028 C 
BRANCH   7   8
ATOM      8  C   UNL     1      30.092 -21.012  26.209  1.00  0.00     0.156 C 
BRANCH   8   9
ATOM      9  O   UNL     1      30.654 -22.054  26.960  1.00  0.00    -0.396 OA
ATOM     10  H   UNL     1      31.605 -21.812  27.114  1.00  0.00     0.210 HD
ENDBRANCH   8   9
ENDBRANCH   7   8
ENDBRANCH   6   7
ENDBRANCH   1   6
TORSDOF 7
ENDMDL
MODEL 9
REMARK VINA RESULT:    -2.613     14.337     15.787
REMARK INTER + INTRA:          -3.944
REMARK INTER:                  -3.523
REMARK INTRA:                  -0.421
REMARK UNBOUND:                -0.339
REMARK SMILES CCCCCCCCO
REMARK SMILES IDX 5 1 4 2 3 3 2 4 1 5 6 6 7 7 8 8 9 9
REMARK H PARENT 9 10
REMARK Flexibility Score: inf
ROOT
ATOM      1  C   UNL     1      29.627 -20.535  23.980  1.00  0.00     0.000 C 
ENDROOT
BRANCH   1   2
ATOM      2  C   UNL     1      28.407 -21.215  24.621  1.00  0.00    -0.000 C 
BRANCH   2   3
ATOM      3  C   UNL     1      28.837 -22.389  25.509  1.00  0.00    -0.000 C 
BRANCH   3   4
ATOM      4  C   UNL     1      27.701 -23.406  25.666  1.00  0.00    -0.003 C 
ATOM      5  C   UNL     1      27.322 -24.022  24.321  1.00  0.00     0.004 C 
ENDBRANCH   3   4
ENDBRANCH   2   3
ENDBRANCH   1   2
BRANCH   1   6
ATOM      6  C   UNL     1      29.725 -20.798  22.469  1.00  0.00     0.002 C 
BRANCH   6   7
ATOM      7  C   UNL     1      30.810 -21.829  22.117  1.00  0.00     0.028 C 
BRANCH   7   8
ATOM      8  C   UNL     1      30.200 -23.167  21.685  1.00  0.00     0.156 C 
BRANCH   8   9
ATOM      9  O   UNL     1      30.305 -24.121  22.707  1.00  0.00    -0.396 OA
ATOM     10  H   UNL     1      30.939 -24.814  22.385  1.00  0.00     0.210 HD
ENDBRANCH   8   9
ENDBRANCH   7   8
ENDBRANCH   6   7
ENDBRANCH   1   6
TORSDOF 7
ENDMDL
