MODEL 1
REMARK VINA RESULT:    -4.729      0.000      0.000
REMARK INTER + INTRA:          -7.239
REMARK INTER:                  -7.217
REMARK INTRA:                  -0.021
REMARK UNBOUND:                -0.021
REMARK SMILES CC1=CCC[C@H](C)C(=O)C[C@@H](C(C)C)C(=O)C1
REMARK SMILES IDX 8 1 9 2 6 3 7 4 5 5 4 6 3 7 2 8 1 9 10 11 11 12 15 13 16 14
REMARK SMILES IDX 17 15 12 17 13 18 14 19
REMARK H PARENT
REMARK Flexibility Score: 70.00
ROOT
ATOM      1  C   UNL     1     100.697 132.210  51.681  1.00  0.00     0.136 C 
ATOM      2  O   UNL     1      99.765 131.646  52.225  1.00  0.00    -0.299 OA
ENDROOT
BRANCH   1   3
ATOM      3  C   UNL     1     101.855 131.340  51.195  1.00  0.00     0.053 C 
ATOM      4  C   UNL     1     102.769 132.001  50.147  1.00  0.00     0.016 C 
BRANCH   3   5
ATOM      5  C   UNL     1     102.680 130.709  52.354  1.00  0.00     0.015 C 
BRANCH   5   6
ATOM      6  C   UNL     1     102.477 131.312  53.755  1.00  0.00     0.028 C 
BRANCH   6   7
ATOM      7  C   UNL     1     103.464 132.411  54.065  1.00  0.00    -0.028 C 
ATOM      8  C   UNL     1     103.173 133.691  54.406  1.00  0.00    -0.070 CG0
ATOM      9  C   UNL     1     104.337 134.597  54.728  1.00  0.00     0.039 C 
ATOM     10  G   UNL     1     101.761 134.230  54.579  1.00  0.00     0.000 G0
ENDBRANCH   6   7
ENDBRANCH   5   6
ENDBRANCH   3   5
ENDBRANCH   1   3
BRANCH   1  11
ATOM     11  C   UNL     1     100.581 133.687  51.341  1.00  0.00     0.087 C 
BRANCH  11  12
ATOM     12  C   UNL     1     101.588 134.693  51.979  1.00  0.00     0.066 C 
BRANCH  12  13
ATOM     13  C   UNL     1     101.278 135.053  53.424  1.00  0.00     0.140 C 
ATOM     14  O   UNL     1     100.564 136.021  53.644  1.00  0.00    -0.299 OA
BRANCH  13  15
ATOM     15  C   UNL     1     101.758 134.232  54.595  1.00  0.00     0.106 CG0
ATOM     16  G   UNL     1     103.160 133.685  54.370  1.00  0.00     0.000 G0
ENDBRANCH  13  15
ENDBRANCH  12  13
BRANCH  12  17
ATOM     17  C   UNL     1     102.092 135.915  51.133  1.00  0.00    -0.006 C 
ATOM     18  C   UNL     1     103.613 135.914  50.914  1.00  0.00     0.008 C 
ATOM     19  C   UNL     1     101.344 136.169  49.811  1.00  0.00     0.008 C 
ENDBRANCH  12  17
ENDBRANCH  11  12
ENDBRANCH   1  11
TORSDOF 1
ENDMDL
MODEL 2
REMARK VINA RESULT:    -4.578      1.754      3.923
REMARK INTER + INTRA:          -7.008
REMARK INTER:                  -6.591
REMARK INTRA:                  -0.417
REMARK UNBOUND:                -0.021
REMARK SMILES CC1=CCC[C@H](C)C(=O)C[C@@H](C(C)C)C(=O)C1
REMARK SMILES IDX 8 1 9 2 6 3 7 4 5 5 4 6 3 7 2 8 1 9 10 11 11 12 15 13 16 14
REMARK SMILES IDX 17 15 12 17 13 18 14 19
REMARK H PARENT
REMARK Flexibility Score: 70.00
ROOT
ATOM      1  C   UNL     1     102.257 134.102  50.878  1.00  0.00     0.136 C 
ATOM      2  O   UNL     1     101.081 133.887  50.644  1.00  0.00    -0.299 OA
ENDROOT
BRANCH   1   3
ATOM      3  C   UNL     1     102.663 135.550  51.151  1.00  0.00     0.053 C 
ATOM      4  C   UNL     1     102.776 136.439  49.899  1.00  0.00     0.016 C 
BRANCH   3   5
ATOM      5  C   UNL     1     101.810 136.231  52.259  1.00  0.00     0.015 C 
BRANCH   5   6
ATOM      6  C   UNL     1     101.862 135.595  53.659  1.00  0.00     0.028 C 
BRANCH   6   7
ATOM      7  C   UNL     1     100.627 134.787  53.978  1.00  0.00    -0.028 C 
ATOM      8  C   UNL     1     100.585 133.485  54.356  1.00  0.00    -0.070 CG0
ATOM      9  C   UNL     1      99.228 132.908  54.678  1.00  0.00     0.039 C 
ATOM     10  G   UNL     1     101.815 132.615  54.567  1.00  0.00     0.000 G0
ENDBRANCH   6   7
ENDBRANCH   5   6
ENDBRANCH   3   5
ENDBRANCH   1   3
BRANCH   1  11
ATOM     11  C   UNL     1     103.206 132.931  51.077  1.00  0.00     0.087 C 
BRANCH  11  12
ATOM     12  C   UNL     1     103.515 132.445  52.526  1.00  0.00     0.066 C 
BRANCH  12  13
ATOM     13  C   UNL     1     102.295 131.960  53.294  1.00  0.00     0.140 C 
ATOM     14  O   UNL     1     101.704 130.970  52.887  1.00  0.00    -0.299 OA
BRANCH  13  15
ATOM     15  C   UNL     1     101.819 132.607  54.570  1.00  0.00     0.106 CG0
ATOM     16  G   UNL     1     100.596 133.484  54.344  1.00  0.00     0.000 G0
ENDBRANCH  13  15
ENDBRANCH  12  13
BRANCH  12  17
ATOM     17  C   UNL     1     104.518 133.264  53.413  1.00  0.00    -0.006 C 
ATOM     18  C   UNL     1     105.442 132.376  54.260  1.00  0.00     0.008 C 
ATOM     19  C   UNL     1     105.319 134.358  52.683  1.00  0.00     0.008 C 
ENDBRANCH  12  17
ENDBRANCH  11  12
ENDBRANCH   1  11
TORSDOF 1
ENDMDL
MODEL 3
REMARK VINA RESULT:    -4.574      2.012      4.422
REMARK INTER + INTRA:          -7.001
REMARK INTER:                  -7.153
REMARK INTRA:                   0.152
REMARK UNBOUND:                -0.021
REMARK SMILES CC1=CCC[C@H](C)C(=O)C[C@@H](C(C)C)C(=O)C1
REMARK SMILES IDX 8 1 9 2 6 3 7 4 5 5 4 6 3 7 2 8 1 9 10 11 11 12 15 13 16 14
REMARK SMILES IDX 17 15 12 17 13 18 14 19
REMARK H PARENT
REMARK Flexibility Score: 70.00
ROOT
ATOM      1  C   UNL     1     103.452 133.808  51.169  1.00  0.00     0.136 C 
ATOM      2  O   UNL     1     103.776 133.108  50.226  1.00  0.00    -0.299 OA
ENDROOT
BRANCH   1   3
ATOM      3  C   UNL     1     102.537 134.996  50.877  1.00  0.00     0.053 C 
ATOM      4  C   UNL     1     103.250 136.245  50.327  1.00  0.00     0.016 C 
BRANCH   3   5
ATOM      5  C   UNL     1     101.297 134.622  50.015  1.00  0.00     0.015 C 
BRANCH   5   6
ATOM      6  C   UNL     1      99.942 134.566  50.741  1.00  0.00     0.028 C 
BRANCH   6   7
ATOM      7  C   UNL     1      99.671 133.218  51.366  1.00  0.00    -0.028 C 
ATOM      8  C   UNL     1      99.891 132.863  52.655  1.00  0.00    -0.070 CG0
ATOM      9  C   UNL     1      99.484 131.467  53.062  1.00  0.00     0.039 C 
ATOM     10  G   UNL     1     100.424 133.806  53.724  1.00  0.00     0.000 G0
ENDBRANCH   6   7
ENDBRANCH   5   6
ENDBRANCH   3   5
ENDBRANCH   1   3
BRANCH   1  11
ATOM     11  C   UNL     1     103.801 133.368  52.582  1.00  0.00     0.087 C 
BRANCH  11  12
ATOM     12  C   UNL     1     102.748 132.567  53.408  1.00  0.00     0.066 C 
BRANCH  12  13
ATOM     13  C   UNL     1     101.798 133.438  54.215  1.00  0.00     0.140 C 
ATOM     14  O   UNL     1     102.189 133.900  55.278  1.00  0.00    -0.299 OA
BRANCH  13  15
ATOM     15  C   UNL     1     100.417 133.809  53.734  1.00  0.00     0.106 CG0
ATOM     16  G   UNL     1      99.910 132.855  52.663  1.00  0.00     0.000 G0
ENDBRANCH  13  15
ENDBRANCH  12  13
BRANCH  12  17
ATOM     17  C   UNL     1     103.196 131.270  54.169  1.00  0.00    -0.006 C 
ATOM     18  C   UNL     1     103.194 130.016  53.282  1.00  0.00     0.008 C 
ATOM     19  C   UNL     1     104.508 131.381  54.968  1.00  0.00     0.008 C 
ENDBRANCH  12  17
ENDBRANCH  11  12
ENDBRANCH   1  11
TORSDOF 1
ENDMDL
MODEL 4
REMARK VINA RESULT:    -4.572      2.359      4.442
REMARK INTER + INTRA:          -6.998
REMARK INTER:                  -6.699
REMARK INTRA:                  -0.299
REMARK UNBOUND:                -0.021
REMARK SMILES CC1=CCC[C@H](C)C(=O)C[C@@H](C(C)C)C(=O)C1
REMARK SMILES IDX 8 1 9 2 6 3 7 4 5 5 4 6 3 7 2 8 1 9 10 11 11 12 15 13 16 14
REMARK SMILES IDX 17 15 12 17 13 18 14 19
REMARK H PARENT
REMARK Flexibility Score: 70.00
ROOT
ATOM      1  C   UNL     1     102.643 134.092  50.646  1.00  0.00     0.136 C 
ATOM      2  O   UNL     1     101.530 133.688  50.357  1.00  0.00    -0.299 OA
ENDROOT
BRANCH   1   3
ATOM      3  C   UNL     1     102.902 135.591  50.505  1.00  0.00     0.053 C 
ATOM      4  C   UNL     1     101.786 136.378  49.795  1.00  0.00     0.016 C 
BRANCH   3   5
ATOM      5  C   UNL     1     103.319 136.272  51.839  1.00  0.00     0.015 C 
BRANCH   5   6
ATOM      6  C   UNL     1     104.806 136.636  51.994  1.00  0.00     0.028 C 
BRANCH   6   7
ATOM      7  C   UNL     1     105.307 136.454  53.407  1.00  0.00    -0.028 C 
ATOM      8  C   UNL     1     105.829 135.324  53.943  1.00  0.00    -0.070 CG0
ATOM      9  C   UNL     1     106.317 135.403  55.370  1.00  0.00     0.039 C 
ATOM     10  G   UNL     1     106.042 134.029  53.171  1.00  0.00     0.000 G0
ENDBRANCH   6   7
ENDBRANCH   5   6
ENDBRANCH   3   5
ENDBRANCH   1   3
BRANCH   1  11
ATOM     11  C   UNL     1     103.634 133.145  51.302  1.00  0.00     0.087 C 
BRANCH  11  12
ATOM     12  C   UNL     1     103.611 132.979  52.853  1.00  0.00     0.066 C 
BRANCH  12  13
ATOM     13  C   UNL     1     104.988 132.979  53.499  1.00  0.00     0.140 C 
ATOM     14  O   UNL     1     105.270 132.075  54.273  1.00  0.00    -0.299 OA
BRANCH  13  15
ATOM     15  C   UNL     1     106.043 134.009  53.181  1.00  0.00     0.106 CG0
ATOM     16  G   UNL     1     105.819 135.309  53.939  1.00  0.00     0.000 G0
ENDBRANCH  13  15
ENDBRANCH  12  13
BRANCH  12  17
ATOM     17  C   UNL     1     102.626 131.943  53.498  1.00  0.00    -0.006 C 
ATOM     18  C   UNL     1     101.251 132.542  53.832  1.00  0.00     0.008 C 
ATOM     19  C   UNL     1     102.479 130.603  52.755  1.00  0.00     0.008 C 
ENDBRANCH  12  17
ENDBRANCH  11  12
ENDBRANCH   1  11
TORSDOF 1
ENDMDL
MODEL 5
REMARK VINA RESULT:    -4.558      1.882      3.309
REMARK INTER + INTRA:          -6.978
REMARK INTER:                  -6.815
REMARK INTRA:                  -0.163
REMARK UNBOUND:                -0.021
REMARK SMILES CC1=CCC[C@H](C)C(=O)C[C@@H](C(C)C)C(=O)C1
REMARK SMILES IDX 8 1 9 2 6 3 7 4 5 5 4 6 3 7 2 8 1 9 10 11 11 12 15 13 16 14
REMARK SMILES IDX 17 15 12 17 13 18 14 19
REMARK H PARENT
REMARK Flexibility Score: 70.00
ROOT
ATOM      1  C   UNL     1     102.498 134.130  51.335  1.00  0.00     0.136 C 
ATOM      2  O   UNL     1     101.641 134.939  51.645  1.00  0.00    -0.299 OA
ENDROOT
BRANCH   1   3
ATOM      3  C   UNL     1     102.058 132.930  50.499  1.00  0.00     0.053 C 
ATOM      4  C   UNL     1     103.207 132.120  49.871  1.00  0.00     0.016 C 
BRANCH   3   5
ATOM      5  C   UNL     1     101.045 132.005  51.234  1.00  0.00     0.015 C 
BRANCH   5   6
ATOM      6  C   UNL     1     101.494 131.425  52.587  1.00  0.00     0.028 C 
BRANCH   6   7
ATOM      7  C   UNL     1     100.966 132.212  53.762  1.00  0.00    -0.028 C 
ATOM      8  C   UNL     1     101.696 132.773  54.757  1.00  0.00    -0.070 CG0
ATOM      9  C   UNL     1     100.942 133.566  55.798  1.00  0.00     0.039 C 
ATOM     10  G   UNL     1     103.215 132.737  54.829  1.00  0.00     0.000 G0
ENDBRANCH   6   7
ENDBRANCH   5   6
ENDBRANCH   3   5
ENDBRANCH   1   3
BRANCH   1  11
ATOM     11  C   UNL     1     103.959 134.445  51.616  1.00  0.00     0.087 C 
BRANCH  11  12
ATOM     12  C   UNL     1     104.653 133.784  52.846  1.00  0.00     0.066 C 
BRANCH  12  13
ATOM     13  C   UNL     1     103.868 133.904  54.143  1.00  0.00     0.140 C 
ATOM     14  O   UNL     1     103.705 135.016  54.626  1.00  0.00    -0.299 OA
BRANCH  13  15
ATOM     15  C   UNL     1     103.228 132.722  54.827  1.00  0.00     0.106 CG0
ATOM     16  G   UNL     1     101.709 132.770  54.745  1.00  0.00     0.000 G0
ENDBRANCH  13  15
ENDBRANCH  12  13
BRANCH  12  17
ATOM     17  C   UNL     1     106.200 133.962  53.041  1.00  0.00    -0.006 C 
ATOM     18  C   UNL     1     106.652 135.429  52.984  1.00  0.00     0.008 C 
ATOM     19  C   UNL     1     106.810 133.242  54.258  1.00  0.00     0.008 C 
ENDBRANCH  12  17
ENDBRANCH  11  12
ENDBRANCH   1  11
TORSDOF 1
ENDMDL
MODEL 6
REMARK VINA RESULT:    -4.500      1.560      2.390
REMARK INTER + INTRA:          -6.889
REMARK INTER:                  -6.579
REMARK INTRA:                  -0.310
REMARK UNBOUND:                -0.021
REMARK SMILES CC1=CCC[C@H](C)C(=O)C[C@@H](C(C)C)C(=O)C1
REMARK SMILES IDX 8 1 9 2 6 3 7 4 5 5 4 6 3 7 2 8 1 9 10 11 11 12 15 13 16 14
REMARK SMILES IDX 17 15 12 17 13 18 14 19
REMARK H PARENT
REMARK Flexibility Score: 70.00
ROOT
ATOM      1  C   UNL     1     100.661 132.043  52.815  1.00  0.00     0.136 C 
ATOM      2  O   UNL     1      99.512 131.680  52.995  1.00  0.00    -0.299 OA
ENDROOT
BRANCH   1   3
ATOM      3  C   UNL     1     101.750 131.350  53.633  1.00  0.00     0.053 C 
ATOM      4  C   UNL     1     102.812 130.608  52.801  1.00  0.00     0.016 C 
BRANCH   3   5
ATOM      5  C   UNL     1     102.405 132.275  54.698  1.00  0.00     0.015 C 
BRANCH   5   6
ATOM      6  C   UNL     1     101.547 133.441  55.222  1.00  0.00     0.028 C 
BRANCH   6   7
ATOM      7  C   UNL     1     102.321 134.733  55.323  1.00  0.00    -0.028 C 
ATOM      8  C   UNL     1     102.196 135.818  54.519  1.00  0.00    -0.070 CG0
ATOM      9  C   UNL     1     103.042 137.022  54.855  1.00  0.00     0.039 C 
ATOM     10  G   UNL     1     101.195 135.927  53.377  1.00  0.00     0.000 G0
ENDBRANCH   6   7
ENDBRANCH   5   6
ENDBRANCH   3   5
ENDBRANCH   1   3
BRANCH   1  11
ATOM     11  C   UNL     1     100.973 133.001  51.677  1.00  0.00     0.087 C 
BRANCH  11  12
ATOM     12  C   UNL     1     102.166 133.993  51.827  1.00  0.00     0.066 C 
BRANCH  12  13
ATOM     13  C   UNL     1     101.751 135.438  52.058  1.00  0.00     0.140 C 
ATOM     14  O   UNL     1     101.819 136.222  51.122  1.00  0.00    -0.299 OA
BRANCH  13  15
ATOM     15  C   UNL     1     101.198 135.932  53.372  1.00  0.00     0.106 CG0
ATOM     16  G   UNL     1     102.213 135.814  54.499  1.00  0.00     0.000 G0
ENDBRANCH  13  15
ENDBRANCH  12  13
BRANCH  12  17
ATOM     17  C   UNL     1     103.405 133.852  50.875  1.00  0.00    -0.006 C 
ATOM     18  C   UNL     1     104.746 133.834  51.624  1.00  0.00     0.008 C 
ATOM     19  C   UNL     1     103.332 132.710  49.845  1.00  0.00     0.008 C 
ENDBRANCH  12  17
ENDBRANCH  11  12
ENDBRANCH   1  11
TORSDOF 1
ENDMDL
MODEL 7
REMARK VINA RESULT:    -4.493      1.788      3.223
REMARK INTER + INTRA:          -6.878
REMARK INTER:                  -6.855
REMARK INTRA:                  -0.023
REMARK UNBOUND:                -0.021
REMARK SMILES CC1=CCC[C@H](C)C(=O)C[C@@H](C(C)C)C(=O)C1
REMARK SMILES IDX 8 1 9 2 6 3 7 4 5 5 4 6 3 7 2 8 1 9 10 11 11 12 15 13 16 14
REMARK SMILES IDX 17 15 12 17 13 18 14 19
REMARK H PARENT
REMARK Flexibility Score: 70.00
ROOT
ATOM      1  C   UNL     1     102.326 133.871  50.726  1.00  0.00     0.136 C 
ATOM      2  O   UNL     1     102.621 132.889  50.068  1.00  0.00    -0.299 OA
ENDROOT
BRANCH   1   3
ATOM      3  C   UNL     1     100.838 134.165  50.915  1.00  0.00     0.053 C 
ATOM      4  C   UNL     1     100.193 134.999  49.794  1.00  0.00     0.016 C 
BRANCH   3   5
ATOM      5  C   UNL     1      99.996 132.898  51.240  1.00  0.00     0.015 C 
BRANCH   5   6
ATOM      6  C   UNL     1     100.044 132.389  52.691  1.00  0.00     0.028 C 
BRANCH   6   7
ATOM      7  C   UNL     1     101.198 131.448  52.941  1.00  0.00    -0.028 C 
ATOM      8  C   UNL     1     102.232 131.641  53.797  1.00  0.00    -0.070 CG0
ATOM      9  C   UNL     1     103.241 130.525  53.917  1.00  0.00     0.039 C 
ATOM     10  G   UNL     1     102.377 132.856  54.703  1.00  0.00     0.000 G0
ENDBRANCH   6   7
ENDBRANCH   5   6
ENDBRANCH   3   5
ENDBRANCH   1   3
BRANCH   1  11
ATOM     11  C   UNL     1     103.414 134.626  51.473  1.00  0.00     0.087 C 
BRANCH  11  12
ATOM     12  C   UNL     1     103.877 134.105  52.867  1.00  0.00     0.066 C 
BRANCH  12  13
ATOM     13  C   UNL     1     102.784 134.101  53.925  1.00  0.00     0.140 C 
ATOM     14  O   UNL     1     102.155 135.132  54.120  1.00  0.00    -0.299 OA
BRANCH  13  15
ATOM     15  C   UNL     1     102.397 132.866  54.700  1.00  0.00     0.106 CG0
ATOM     16  G   UNL     1     102.251 131.649  53.798  1.00  0.00     0.000 G0
ENDBRANCH  13  15
ENDBRANCH  12  13
BRANCH  12  17
ATOM     17  C   UNL     1     105.275 134.548  53.426  1.00  0.00    -0.006 C 
ATOM     18  C   UNL     1     106.293 133.399  53.489  1.00  0.00     0.008 C 
ATOM     19  C   UNL     1     105.892 135.798  52.773  1.00  0.00     0.008 C 
ENDBRANCH  12  17
ENDBRANCH  11  12
ENDBRANCH   1  11
TORSDOF 1
ENDMDL
MODEL 8
REMARK VINA RESULT:    -4.424      1.994      3.344
REMARK INTER + INTRA:          -6.773
REMARK INTER:                  -7.007
REMARK INTRA:                   0.233
REMARK UNBOUND:                -0.021
REMARK SMILES CC1=CCC[C@H](C)C(=O)C[C@@H](C(C)C)C(=O)C1
REMARK SMILES IDX 8 1 9 2 6 3 7 4 5 5 4 6 3 7 2 8 1 9 10 11 11 12 15 13 16 14
REMARK SMILES IDX 17 15 12 17 13 18 14 19
REMARK H PARENT
REMARK Flexibility Score: 70.00
ROOT
ATOM      1  C   UNL     1     100.189 135.088  54.107  1.00  0.00     0.136 C 
ATOM      2  O   UNL     1      99.400 135.858  54.625  1.00  0.00    -0.299 OA
ENDROOT
BRANCH   1   3
ATOM      3  C   UNL     1      99.780 133.618  54.023  1.00  0.00     0.053 C 
ATOM      4  C   UNL     1      98.703 133.185  55.034  1.00  0.00     0.016 C 
BRANCH   3   5
ATOM      5  C   UNL     1      99.423 133.159  52.580  1.00  0.00     0.015 C 
BRANCH   5   6
ATOM      6  C   UNL     1     100.103 131.874  52.075  1.00  0.00     0.028 C 
BRANCH   6   7
ATOM      7  C   UNL     1     101.242 131.431  52.962  1.00  0.00    -0.028 C 
ATOM      8  C   UNL     1     102.551 131.757  52.825  1.00  0.00    -0.070 CG0
ATOM      9  C   UNL     1     103.501 131.236  53.877  1.00  0.00     0.039 C 
ATOM     10  G   UNL     1     103.094 132.686  51.749  1.00  0.00     0.000 G0
ENDBRANCH   6   7
ENDBRANCH   5   6
ENDBRANCH   3   5
ENDBRANCH   1   3
BRANCH   1  11
ATOM     11  C   UNL     1     101.422 135.638  53.409  1.00  0.00     0.087 C 
BRANCH  11  12
ATOM     12  C   UNL     1     101.869 135.011  52.053  1.00  0.00     0.066 C 
BRANCH  12  13
ATOM     13  C   UNL     1     103.103 134.126  52.152  1.00  0.00     0.140 C 
ATOM     14  O   UNL     1     104.121 134.596  52.640  1.00  0.00    -0.299 OA
BRANCH  13  15
ATOM     15  C   UNL     1     103.108 132.677  51.735  1.00  0.00     0.106 CG0
ATOM     16  G   UNL     1     102.551 131.768  52.821  1.00  0.00     0.000 G0
ENDBRANCH  13  15
ENDBRANCH  12  13
BRANCH  12  17
ATOM     17  C   UNL     1     101.844 135.893  50.755  1.00  0.00    -0.006 C 
ATOM     18  C   UNL     1     103.246 136.276  50.256  1.00  0.00     0.008 C 
ATOM     19  C   UNL     1     100.973 135.363  49.601  1.00  0.00     0.008 C 
ENDBRANCH  12  17
ENDBRANCH  11  12
ENDBRANCH   1  11
TORSDOF 1
ENDMDL
MODEL 9
REMARK VINA RESULT:    -4.354      1.558      2.501
REMARK INTER + INTRA:          -6.667
REMARK INTER:                  -6.986
REMARK INTRA:                   0.319
REMARK UNBOUND:                -0.021
REMARK SMILES CC1=CCC[C@H](C)C(=O)C[C@@H](C(C)C)C(=O)C1
REMARK SMILES IDX 8 1 9 2 6 3 7 4 5 5 4 6 3 7 2 8 1 9 10 11 11 12 15 13 16 14
REMARK SMILES IDX 17 15 12 17 13 18 14 19
REMARK H PARENT
REMARK Flexibility Score: 70.00
ROOT
ATOM      1  C   UNL     1     102.644 132.717  51.109  1.00  0.00     0.136 C 
ATOM      2  O   UNL     1     102.492 132.958  49.925  1.00  0.00    -0.299 OA
ENDROOT
BRANCH   1   3
ATOM      3  C   UNL     1     102.100 131.387  51.629  1.00  0.00     0.053 C 
ATOM      4  C   UNL     1     102.876 130.787  52.815  1.00  0.00     0.016 C 
BRANCH   3   5
ATOM      5  C   UNL     1     100.569 131.414  51.904  1.00  0.00     0.015 C 
BRANCH   5   6
ATOM      6  C   UNL     1      99.905 132.799  51.989  1.00  0.00     0.028 C 
BRANCH   6   7
ATOM      7  C   UNL     1      99.440 133.138  53.385  1.00  0.00    -0.028 C 
ATOM      8  C   UNL     1     100.209 133.570  54.414  1.00  0.00    -0.070 CG0
ATOM      9  C   UNL     1      99.502 133.901  55.707  1.00  0.00     0.039 C 
ATOM     10  G   UNL     1     101.704 133.833  54.313  1.00  0.00     0.000 G0
ENDBRANCH   6   7
ENDBRANCH   5   6
ENDBRANCH   3   5
ENDBRANCH   1   3
BRANCH   1  11
ATOM     11  C   UNL     1     103.517 133.633  51.952  1.00  0.00     0.087 C 
BRANCH  11  12
ATOM     12  C   UNL     1     102.989 135.052  52.325  1.00  0.00     0.066 C 
BRANCH  12  13
ATOM     13  C   UNL     1     102.020 135.068  53.497  1.00  0.00     0.140 C 
ATOM     14  O   UNL     1     101.425 136.106  53.748  1.00  0.00    -0.299 OA
BRANCH  13  15
ATOM     15  C   UNL     1     101.713 133.844  54.324  1.00  0.00     0.106 CG0
ATOM     16  G   UNL     1     100.218 133.578  54.414  1.00  0.00     0.000 G0
ENDBRANCH  13  15
ENDBRANCH  12  13
BRANCH  12  17
ATOM     17  C   UNL     1     102.588 136.046  51.178  1.00  0.00    -0.006 C 
ATOM     18  C   UNL     1     103.694 136.238  50.129  1.00  0.00     0.008 C 
ATOM     19  C   UNL     1     101.228 135.782  50.507  1.00  0.00     0.008 C 
ENDBRANCH  12  17
ENDBRANCH  11  12
ENDBRANCH   1  11
TORSDOF 1
ENDMDL
