MODEL 1
REMARK VINA RESULT:    -4.420      0.000      0.000
REMARK INTER + INTRA:         -10.225
REMARK INTER:                  -8.037
REMARK INTRA:                  -2.188
REMARK UNBOUND:                -2.188
REMARK SMILES CCCCCCCCCCCCCCCC(=O)[O-]
REMARK SMILES IDX 9 1 10 2 11 3 12 4 13 5 14 6 15 7 16 8 17 9 18 10 8 11 7 12
REMARK SMILES IDX 6 13 5 14 4 15 3 16 2 17 1 18
REMARK H PARENT
REMARK Flexibility Score: inf
ROOT
ATOM      1  C   UNL     1     -18.063   9.137  30.349  1.00  0.00     0.000 C 
ENDROOT
BRANCH   1   2
ATOM      2  C   UNL     1     -17.239   9.372  29.067  1.00  0.00     0.000 C 
BRANCH   2   3
ATOM      3  C   UNL     1     -16.757  10.821  28.859  1.00  0.00     0.000 C 
BRANCH   3   4
ATOM      4  C   UNL     1     -15.508  11.213  29.674  1.00  0.00     0.000 C 
BRANCH   4   5
ATOM      5  C   UNL     1     -14.432  11.988  28.886  1.00  0.00     0.000 C 
BRANCH   5   6
ATOM      6  C   UNL     1     -13.384  11.109  28.179  1.00  0.00     0.006 C 
BRANCH   6   7
ATOM      7  C   UNL     1     -12.993  11.644  26.796  1.00  0.00     0.053 C 
BRANCH   7   8
ATOM      8  C   UNL     1     -13.206  10.596  25.751  1.00  0.00     0.041 C 
ATOM      9  O   UNL     1     -13.313   9.385  26.081  1.00  0.00    -0.550 OA
ATOM     10  O   UNL     1     -13.337  10.959  24.417  1.00  0.00    -0.550 OA
ENDBRANCH   7   8
ENDBRANCH   6   7
ENDBRANCH   5   6
ENDBRANCH   4   5
ENDBRANCH   3   4
ENDBRANCH   2   3
ENDBRANCH   1   2
BRANCH   1  11
ATOM     11  C   UNL     1     -17.392   8.228  31.395  1.00  0.00     0.000 C 
BRANCH  11  12
ATOM     12  C   UNL     1     -16.624   9.021  32.466  1.00  0.00    -0.000 C 
BRANCH  12  13
ATOM     13  C   UNL     1     -15.124   8.691  32.484  1.00  0.00    -0.000 C 
BRANCH  13  14
ATOM     14  C   UNL     1     -14.747   7.595  31.473  1.00  0.00    -0.000 C 
BRANCH  14  15
ATOM     15  C   UNL     1     -13.774   8.109  30.390  1.00  0.00    -0.000 C 
BRANCH  15  16
ATOM     16  C   UNL     1     -14.034   7.514  28.994  1.00  0.00    -0.000 C 
BRANCH  16  17
ATOM     17  C   UNL     1     -14.851   6.212  28.992  1.00  0.00    -0.003 C 
ATOM     18  C   UNL     1     -14.003   4.981  28.676  1.00  0.00     0.004 C 
ENDBRANCH  16  17
ENDBRANCH  15  16
ENDBRANCH  14  15
ENDBRANCH  13  14
ENDBRANCH  12  13
ENDBRANCH  11  12
ENDBRANCH   1  11
TORSDOF 14
ENDMDL
MODEL 2
REMARK VINA RESULT:    -4.391      3.489      5.873
REMARK INTER + INTRA:         -10.173
REMARK INTER:                  -7.874
REMARK INTRA:                  -2.298
REMARK UNBOUND:                -2.188
REMARK SMILES CCCCCCCCCCCCCCCC(=O)[O-]
REMARK SMILES IDX 9 1 10 2 11 3 12 4 13 5 14 6 15 7 16 8 17 9 18 10 8 11 7 12
REMARK SMILES IDX 6 13 5 14 4 15 3 16 2 17 1 18
REMARK H PARENT
REMARK Flexibility Score: inf
ROOT
ATOM      1  C   UNL     1     -15.196   9.720  28.360  1.00  0.00     0.000 C 
ENDROOT
BRANCH   1   2
ATOM      2  C   UNL     1     -13.691   9.408  28.489  1.00  0.00     0.000 C 
BRANCH   2   3
ATOM      3  C   UNL     1     -13.358   7.951  28.867  1.00  0.00     0.000 C 
BRANCH   3   4
ATOM      4  C   UNL     1     -14.047   6.881  27.998  1.00  0.00     0.000 C 
BRANCH   4   5
ATOM      5  C   UNL     1     -14.098   5.469  28.618  1.00  0.00     0.000 C 
BRANCH   5   6
ATOM      6  C   UNL     1     -15.453   5.080  29.237  1.00  0.00     0.006 C 
BRANCH   6   7
ATOM      7  C   UNL     1     -15.366   4.826  30.748  1.00  0.00     0.053 C 
BRANCH   7   8
ATOM      8  C   UNL     1     -16.165   3.619  31.121  1.00  0.00     0.041 C 
ATOM      9  O   UNL     1     -17.327   3.461  30.661  1.00  0.00    -0.550 OA
ATOM     10  O   UNL     1     -15.611   2.642  31.938  1.00  0.00    -0.550 OA
ENDBRANCH   7   8
ENDBRANCH   6   7
ENDBRANCH   5   6
ENDBRANCH   4   5
ENDBRANCH   3   4
ENDBRANCH   2   3
ENDBRANCH   1   2
BRANCH   1  11
ATOM     11  C   UNL     1     -15.696  10.880  29.238  1.00  0.00     0.000 C 
BRANCH  11  12
ATOM     12  C   UNL     1     -14.699  11.258  30.347  1.00  0.00    -0.000 C 
BRANCH  12  13
ATOM     13  C   UNL     1     -15.124  10.736  31.728  1.00  0.00    -0.000 C 
BRANCH  13  14
ATOM     14  C   UNL     1     -14.420   9.422  32.106  1.00  0.00    -0.000 C 
BRANCH  14  15
ATOM     15  C   UNL     1     -15.410   8.245  32.235  1.00  0.00    -0.000 C 
BRANCH  15  16
ATOM     16  C   UNL     1     -16.873   8.636  31.952  1.00  0.00    -0.000 C 
BRANCH  16  17
ATOM     17  C   UNL     1     -17.509   7.917  30.751  1.00  0.00    -0.003 C 
ATOM     18  C   UNL     1     -18.539   8.778  30.022  1.00  0.00     0.004 C 
ENDBRANCH  16  17
ENDBRANCH  15  16
ENDBRANCH  14  15
ENDBRANCH  13  14
ENDBRANCH  12  13
ENDBRANCH  11  12
ENDBRANCH   1  11
TORSDOF 14
ENDMDL
MODEL 3
REMARK VINA RESULT:    -4.294      3.435      6.124
REMARK INTER + INTRA:          -9.996
REMARK INTER:                  -8.114
REMARK INTRA:                  -1.882
REMARK UNBOUND:                -2.188
REMARK SMILES CCCCCCCCCCCCCCCC(=O)[O-]
REMARK SMILES IDX 9 1 10 2 11 3 12 4 13 5 14 6 15 7 16 8 17 9 18 10 8 11 7 12
REMARK SMILES IDX 6 13 5 14 4 15 3 16 2 17 1 18
REMARK H PARENT
REMARK Flexibility Score: inf
ROOT
ATOM      1  C   UNL     1     -14.621   9.412  32.005  1.00  0.00     0.000 C 
ENDROOT
BRANCH   1   2
ATOM      2  C   UNL     1     -14.270   8.007  31.477  1.00  0.00     0.000 C 
BRANCH   2   3
ATOM      3  C   UNL     1     -13.852   7.954  29.994  1.00  0.00     0.000 C 
BRANCH   3   4
ATOM      4  C   UNL     1     -14.677   6.987  29.121  1.00  0.00     0.000 C 
BRANCH   4   5
ATOM      5  C   UNL     1     -13.998   5.634  28.825  1.00  0.00     0.000 C 
BRANCH   5   6
ATOM      6  C   UNL     1     -14.733   4.402  29.383  1.00  0.00     0.006 C 
BRANCH   6   7
ATOM      7  C   UNL     1     -15.456   4.689  30.705  1.00  0.00     0.053 C 
BRANCH   7   8
ATOM      8  C   UNL     1     -16.188   3.472  31.174  1.00  0.00     0.041 C 
ATOM      9  O   UNL     1     -17.390   3.288  30.844  1.00  0.00    -0.550 OA
ATOM     10  O   UNL     1     -15.530   2.514  31.936  1.00  0.00    -0.550 OA
ENDBRANCH   7   8
ENDBRANCH   6   7
ENDBRANCH   5   6
ENDBRANCH   4   5
ENDBRANCH   3   4
ENDBRANCH   2   3
ENDBRANCH   1   2
BRANCH   1  11
ATOM     11  C   UNL     1     -16.120   9.657  32.255  1.00  0.00     0.000 C 
BRANCH  11  12
ATOM     12  C   UNL     1     -17.004   8.515  31.725  1.00  0.00    -0.000 C 
BRANCH  12  13
ATOM     13  C   UNL     1     -17.949   8.971  30.603  1.00  0.00    -0.000 C 
BRANCH  13  14
ATOM     14  C   UNL     1     -17.195   9.390  29.329  1.00  0.00    -0.000 C 
BRANCH  14  15
ATOM     15  C   UNL     1     -17.625  10.785  28.829  1.00  0.00    -0.000 C 
BRANCH  15  16
ATOM     16  C   UNL     1     -16.448  11.665  28.367  1.00  0.00    -0.000 C 
BRANCH  16  17
ATOM     17  C   UNL     1     -15.204  11.600  29.269  1.00  0.00    -0.003 C 
ATOM     18  C   UNL     1     -13.903  11.492  28.477  1.00  0.00     0.004 C 
ENDBRANCH  16  17
ENDBRANCH  15  16
ENDBRANCH  14  15
ENDBRANCH  13  14
ENDBRANCH  12  13
ENDBRANCH  11  12
ENDBRANCH   1  11
TORSDOF 14
ENDMDL
MODEL 4
REMARK VINA RESULT:    -4.259     15.431     17.130
REMARK INTER + INTRA:          -9.932
REMARK INTER:                  -8.524
REMARK INTRA:                  -1.408
REMARK UNBOUND:                -2.188
REMARK SMILES CCCCCCCCCCCCCCCC(=O)[O-]
REMARK SMILES IDX 9 1 10 2 11 3 12 4 13 5 14 6 15 7 16 8 17 9 18 10 8 11 7 12
REMARK SMILES IDX 6 13 5 14 4 15 3 16 2 17 1 18
REMARK H PARENT
REMARK Flexibility Score: inf
ROOT
ATOM      1  C   UNL     1     -19.951  -5.831  22.826  1.00  0.00     0.000 C 
ENDROOT
BRANCH   1   2
ATOM      2  C   UNL     1     -19.053  -4.990  21.896  1.00  0.00     0.000 C 
BRANCH   2   3
ATOM      3  C   UNL     1     -18.137  -3.979  22.613  1.00  0.00     0.000 C 
BRANCH   3   4
ATOM      4  C   UNL     1     -16.627  -4.249  22.460  1.00  0.00     0.000 C 
BRANCH   4   5
ATOM      5  C   UNL     1     -16.224  -5.738  22.483  1.00  0.00     0.000 C 
BRANCH   5   6
ATOM      6  C   UNL     1     -15.288  -6.176  21.342  1.00  0.00     0.006 C 
BRANCH   6   7
ATOM      7  C   UNL     1     -16.043  -6.534  20.056  1.00  0.00     0.053 C 
BRANCH   7   8
ATOM      8  C   UNL     1     -15.609  -5.648  18.932  1.00  0.00     0.041 C 
ATOM      9  O   UNL     1     -16.132  -4.512  18.780  1.00  0.00    -0.550 OA
ATOM     10  O   UNL     1     -14.589  -6.055  18.079  1.00  0.00    -0.550 OA
ENDBRANCH   7   8
ENDBRANCH   6   7
ENDBRANCH   5   6
ENDBRANCH   4   5
ENDBRANCH   3   4
ENDBRANCH   2   3
ENDBRANCH   1   2
BRANCH   1  11
ATOM     11  C   UNL     1     -20.763  -5.020  23.851  1.00  0.00     0.000 C 
BRANCH  11  12
ATOM     12  C   UNL     1     -21.837  -4.137  23.194  1.00  0.00    -0.000 C 
BRANCH  12  13
ATOM     13  C   UNL     1     -23.255  -4.461  23.689  1.00  0.00    -0.000 C 
BRANCH  13  14
ATOM     14  C   UNL     1     -23.492  -5.972  23.853  1.00  0.00    -0.000 C 
BRANCH  14  15
ATOM     15  C   UNL     1     -23.997  -6.333  25.266  1.00  0.00    -0.000 C 
BRANCH  15  16
ATOM     16  C   UNL     1     -22.919  -6.973  26.161  1.00  0.00    -0.000 C 
BRANCH  16  17
ATOM     17  C   UNL     1     -22.654  -6.227  27.480  1.00  0.00    -0.003 C 
ATOM     18  C   UNL     1     -22.661  -4.709  27.313  1.00  0.00     0.004 C 
ENDBRANCH  16  17
ENDBRANCH  15  16
ENDBRANCH  14  15
ENDBRANCH  13  14
ENDBRANCH  12  13
ENDBRANCH  11  12
ENDBRANCH   1  11
TORSDOF 14
ENDMDL
MODEL 5
REMARK VINA RESULT:    -4.253     15.604     18.126
REMARK INTER + INTRA:          -9.922
REMARK INTER:                  -8.362
REMARK INTRA:                  -1.560
REMARK UNBOUND:                -2.188
REMARK SMILES CCCCCCCCCCCCCCCC(=O)[O-]
REMARK SMILES IDX 9 1 10 2 11 3 12 4 13 5 14 6 15 7 16 8 17 9 18 10 8 11 7 12
REMARK SMILES IDX 6 13 5 14 4 15 3 16 2 17 1 18
REMARK H PARENT
REMARK Flexibility Score: inf
ROOT
ATOM      1  C   UNL     1     -15.377  -6.678  18.622  1.00  0.00     0.000 C 
ENDROOT
BRANCH   1   2
ATOM      2  C   UNL     1     -15.195  -5.854  19.912  1.00  0.00     0.000 C 
BRANCH   2   3
ATOM      3  C   UNL     1     -14.938  -6.684  21.185  1.00  0.00     0.000 C 
BRANCH   3   4
ATOM      4  C   UNL     1     -15.820  -6.311  22.393  1.00  0.00     0.000 C 
BRANCH   4   5
ATOM      5  C   UNL     1     -16.439  -4.899  22.337  1.00  0.00     0.000 C 
BRANCH   5   6
ATOM      6  C   UNL     1     -17.978  -4.863  22.353  1.00  0.00     0.006 C 
BRANCH   6   7
ATOM      7  C   UNL     1     -18.609  -6.069  21.644  1.00  0.00     0.053 C 
BRANCH   7   8
ATOM      8  C   UNL     1     -18.857  -5.755  20.204  1.00  0.00     0.041 C 
ATOM      9  O   UNL     1     -18.762  -4.570  19.787  1.00  0.00    -0.550 OA
ATOM     10  O   UNL     1     -19.143  -6.778  19.308  1.00  0.00    -0.550 OA
ENDBRANCH   7   8
ENDBRANCH   6   7
ENDBRANCH   5   6
ENDBRANCH   4   5
ENDBRANCH   3   4
ENDBRANCH   2   3
ENDBRANCH   1   2
BRANCH   1  11
ATOM     11  C   UNL     1     -16.173  -5.975  17.508  1.00  0.00     0.000 C 
BRANCH  11  12
ATOM     12  C   UNL     1     -15.305  -5.626  16.287  1.00  0.00    -0.000 C 
BRANCH  12  13
ATOM     13  C   UNL     1     -14.984  -4.127  16.198  1.00  0.00    -0.000 C 
BRANCH  13  14
ATOM     14  C   UNL     1     -13.847  -3.709  17.147  1.00  0.00    -0.000 C 
BRANCH  14  15
ATOM     15  C   UNL     1     -14.071  -2.301  17.740  1.00  0.00    -0.000 C 
BRANCH  15  16
ATOM     16  C   UNL     1     -15.455  -1.707  17.416  1.00  0.00    -0.000 C 
BRANCH  16  17
ATOM     17  C   UNL     1     -15.487  -0.174  17.310  1.00  0.00    -0.003 C 
ATOM     18  C   UNL     1     -14.887   0.342  16.003  1.00  0.00     0.004 C 
ENDBRANCH  16  17
ENDBRANCH  15  16
ENDBRANCH  14  15
ENDBRANCH  13  14
ENDBRANCH  12  13
ENDBRANCH  11  12
ENDBRANCH   1  11
TORSDOF 14
ENDMDL
MODEL 6
REMARK VINA RESULT:    -4.249      3.698      6.454
REMARK INTER + INTRA:          -9.914
REMARK INTER:                  -8.392
REMARK INTRA:                  -1.523
REMARK UNBOUND:                -2.188
REMARK SMILES CCCCCCCCCCCCCCCC(=O)[O-]
REMARK SMILES IDX 9 1 10 2 11 3 12 4 13 5 14 6 15 7 16 8 17 9 18 10 8 11 7 12
REMARK SMILES IDX 6 13 5 14 4 15 3 16 2 17 1 18
REMARK H PARENT
REMARK Flexibility Score: inf
ROOT
ATOM      1  C   UNL     1     -16.295   5.428  30.716  1.00  0.00     0.000 C 
ENDROOT
BRANCH   1   2
ATOM      2  C   UNL     1     -14.801   5.783  30.575  1.00  0.00     0.000 C 
BRANCH   2   3
ATOM      3  C   UNL     1     -14.430   6.539  29.283  1.00  0.00     0.000 C 
BRANCH   3   4
ATOM      4  C   UNL     1     -13.648   5.708  28.247  1.00  0.00     0.000 C 
BRANCH   4   5
ATOM      5  C   UNL     1     -14.204   4.292  27.991  1.00  0.00     0.000 C 
BRANCH   5   6
ATOM      6  C   UNL     1     -13.298   3.142  28.468  1.00  0.00     0.006 C 
BRANCH   6   7
ATOM      7  C   UNL     1     -14.091   1.941  28.999  1.00  0.00     0.053 C 
BRANCH   7   8
ATOM      8  C   UNL     1     -13.903   0.756  28.107  1.00  0.00     0.041 C 
ATOM      9  O   UNL     1     -13.273  -0.255  28.518  1.00  0.00    -0.550 OA
ATOM     10  O   UNL     1     -14.466   0.744  26.837  1.00  0.00    -0.550 OA
ENDBRANCH   7   8
ENDBRANCH   6   7
ENDBRANCH   5   6
ENDBRANCH   4   5
ENDBRANCH   3   4
ENDBRANCH   2   3
ENDBRANCH   1   2
BRANCH   1  11
ATOM     11  C   UNL     1     -17.269   6.496  30.189  1.00  0.00     0.000 C 
BRANCH  11  12
ATOM     12  C   UNL     1     -17.802   7.415  31.302  1.00  0.00    -0.000 C 
BRANCH  12  13
ATOM     13  C   UNL     1     -17.271   8.852  31.187  1.00  0.00    -0.000 C 
BRANCH  13  14
ATOM     14  C   UNL     1     -16.517   9.306  32.449  1.00  0.00    -0.000 C 
BRANCH  14  15
ATOM     15  C   UNL     1     -15.093   9.809  32.128  1.00  0.00    -0.000 C 
BRANCH  15  16
ATOM     16  C   UNL     1     -14.811   9.944  30.619  1.00  0.00    -0.000 C 
BRANCH  16  17
ATOM     17  C   UNL     1     -14.799  11.389  30.095  1.00  0.00    -0.003 C 
ATOM     18  C   UNL     1     -15.744  11.599  28.913  1.00  0.00     0.004 C 
ENDBRANCH  16  17
ENDBRANCH  15  16
ENDBRANCH  14  15
ENDBRANCH  13  14
ENDBRANCH  12  13
ENDBRANCH  11  12
ENDBRANCH   1  11
TORSDOF 14
ENDMDL
MODEL 7
REMARK VINA RESULT:    -4.236     16.096     17.922
REMARK INTER + INTRA:          -9.890
REMARK INTER:                  -8.522
REMARK INTRA:                  -1.368
REMARK UNBOUND:                -2.188
REMARK SMILES CCCCCCCCCCCCCCCC(=O)[O-]
REMARK SMILES IDX 9 1 10 2 11 3 12 4 13 5 14 6 15 7 16 8 17 9 18 10 8 11 7 12
REMARK SMILES IDX 6 13 5 14 4 15 3 16 2 17 1 18
REMARK H PARENT
REMARK Flexibility Score: inf
ROOT
ATOM      1  C   UNL     1     -18.539  -5.969  22.016  1.00  0.00     0.000 C 
ENDROOT
BRANCH   1   2
ATOM      2  C   UNL     1     -19.835  -6.005  22.852  1.00  0.00     0.000 C 
BRANCH   2   3
ATOM      3  C   UNL     1     -20.324  -4.632  23.355  1.00  0.00     0.000 C 
BRANCH   3   4
ATOM      4  C   UNL     1     -21.419  -4.691  24.439  1.00  0.00     0.000 C 
BRANCH   4   5
ATOM      5  C   UNL     1     -22.015  -6.091  24.689  1.00  0.00     0.000 C 
BRANCH   5   6
ATOM      6  C   UNL     1     -22.842  -6.224  25.982  1.00  0.00     0.006 C 
BRANCH   6   7
ATOM      7  C   UNL     1     -24.353  -6.147  25.732  1.00  0.00     0.053 C 
BRANCH   7   8
ATOM      8  C   UNL     1     -24.895  -4.837  26.208  1.00  0.00     0.041 C 
ATOM      9  O   UNL     1     -26.124  -4.583  26.101  1.00  0.00    -0.550 OA
ATOM     10  O   UNL     1     -24.053  -3.915  26.817  1.00  0.00    -0.550 OA
ENDBRANCH   7   8
ENDBRANCH   6   7
ENDBRANCH   5   6
ENDBRANCH   4   5
ENDBRANCH   3   4
ENDBRANCH   2   3
ENDBRANCH   1   2
BRANCH   1  11
ATOM     11  C   UNL     1     -17.770  -4.637  22.068  1.00  0.00     0.000 C 
BRANCH  11  12
ATOM     12  C   UNL     1     -16.275  -4.826  22.377  1.00  0.00    -0.000 C 
BRANCH  12  13
ATOM     13  C   UNL     1     -15.876  -6.306  22.486  1.00  0.00    -0.000 C 
BRANCH  13  14
ATOM     14  C   UNL     1     -14.836  -6.717  21.430  1.00  0.00    -0.000 C 
BRANCH  14  15
ATOM     15  C   UNL     1     -15.467  -6.907  20.034  1.00  0.00    -0.000 C 
BRANCH  15  16
ATOM     16  C   UNL     1     -15.203  -5.733  19.072  1.00  0.00    -0.000 C 
BRANCH  16  17
ATOM     17  C   UNL     1     -16.404  -5.339  18.196  1.00  0.00    -0.003 C 
ATOM     18  C   UNL     1     -17.612  -6.252  18.401  1.00  0.00     0.004 C 
ENDBRANCH  16  17
ENDBRANCH  15  16
ENDBRANCH  14  15
ENDBRANCH  13  14
ENDBRANCH  12  13
ENDBRANCH  11  12
ENDBRANCH   1  11
TORSDOF 14
ENDMDL
MODEL 8
REMARK VINA RESULT:    -4.229     13.299     16.729
REMARK INTER + INTRA:          -9.877
REMARK INTER:                  -8.194
REMARK INTRA:                  -1.683
REMARK UNBOUND:                -2.188
REMARK SMILES CCCCCCCCCCCCCCCC(=O)[O-]
REMARK SMILES IDX 9 1 10 2 11 3 12 4 13 5 14 6 15 7 16 8 17 9 18 10 8 11 7 12
REMARK SMILES IDX 6 13 5 14 4 15 3 16 2 17 1 18
REMARK H PARENT
REMARK Flexibility Score: inf
ROOT
ATOM      1  C   UNL     1     -15.451  -6.739  17.425  1.00  0.00     0.000 C 
ENDROOT
BRANCH   1   2
ATOM      2  C   UNL     1     -14.054  -6.117  17.223  1.00  0.00     0.000 C 
BRANCH   2   3
ATOM      3  C   UNL     1     -13.978  -5.026  16.137  1.00  0.00     0.000 C 
BRANCH   3   4
ATOM      4  C   UNL     1     -14.772  -3.742  16.450  1.00  0.00     0.000 C 
BRANCH   4   5
ATOM      5  C   UNL     1     -14.184  -2.870  17.579  1.00  0.00     0.000 C 
BRANCH   5   6
ATOM      6  C   UNL     1     -15.221  -2.070  18.389  1.00  0.00     0.006 C 
BRANCH   6   7
ATOM      7  C   UNL     1     -14.946  -2.095  19.898  1.00  0.00     0.053 C 
BRANCH   7   8
ATOM      8  C   UNL     1     -14.930  -0.706  20.449  1.00  0.00     0.041 C 
ATOM      9  O   UNL     1     -15.640   0.193  19.925  1.00  0.00    -0.550 OA
ATOM     10  O   UNL     1     -14.169  -0.411  21.574  1.00  0.00    -0.550 OA
ENDBRANCH   7   8
ENDBRANCH   6   7
ENDBRANCH   5   6
ENDBRANCH   4   5
ENDBRANCH   3   4
ENDBRANCH   2   3
ENDBRANCH   1   2
BRANCH   1  11
ATOM     11  C   UNL     1     -16.179  -6.296  18.707  1.00  0.00     0.000 C 
BRANCH  11  12
ATOM     12  C   UNL     1     -15.212  -5.839  19.812  1.00  0.00    -0.000 C 
BRANCH  12  13
ATOM     13  C   UNL     1     -15.029  -6.895  20.912  1.00  0.00    -0.000 C 
BRANCH  13  14
ATOM     14  C   UNL     1     -15.748  -6.519  22.219  1.00  0.00    -0.000 C 
BRANCH  14  15
ATOM     15  C   UNL     1     -16.219  -5.048  22.223  1.00  0.00    -0.000 C 
BRANCH  15  16
ATOM     16  C   UNL     1     -17.740  -4.887  22.402  1.00  0.00    -0.000 C 
BRANCH  16  17
ATOM     17  C   UNL     1     -18.184  -3.507  22.914  1.00  0.00    -0.003 C 
ATOM     18  C   UNL     1     -17.020  -2.527  23.058  1.00  0.00     0.004 C 
ENDBRANCH  16  17
ENDBRANCH  15  16
ENDBRANCH  14  15
ENDBRANCH  13  14
ENDBRANCH  12  13
ENDBRANCH  11  12
ENDBRANCH   1  11
TORSDOF 14
ENDMDL
MODEL 9
REMARK VINA RESULT:    -4.225     14.600     16.873
REMARK INTER + INTRA:          -9.871
REMARK INTER:                  -8.068
REMARK INTRA:                  -1.803
REMARK UNBOUND:                -2.188
REMARK SMILES CCCCCCCCCCCCCCCC(=O)[O-]
REMARK SMILES IDX 9 1 10 2 11 3 12 4 13 5 14 6 15 7 16 8 17 9 18 10 8 11 7 12
REMARK SMILES IDX 6 13 5 14 4 15 3 16 2 17 1 18
REMARK H PARENT
REMARK Flexibility Score: inf
ROOT
ATOM      1  C   UNL     1     -15.031  -4.431  15.987  1.00  0.00     0.000 C 
ENDROOT
BRANCH   1   2
ATOM      2  C   UNL     1     -13.875  -4.062  16.939  1.00  0.00     0.000 C 
BRANCH   2   3
ATOM      3  C   UNL     1     -13.936  -2.633  17.514  1.00  0.00     0.000 C 
BRANCH   3   4
ATOM      4  C   UNL     1     -14.508  -2.532  18.942  1.00  0.00     0.000 C 
BRANCH   4   5
ATOM      5  C   UNL     1     -15.866  -1.809  19.051  1.00  0.00     0.000 C 
BRANCH   5   6
ATOM      6  C   UNL     1     -16.482  -1.378  17.708  1.00  0.00     0.006 C 
BRANCH   6   7
ATOM      7  C   UNL     1     -16.904   0.097  17.693  1.00  0.00     0.053 C 
BRANCH   7   8
ATOM      8  C   UNL     1     -16.394   0.774  16.461  1.00  0.00     0.041 C 
ATOM      9  O   UNL     1     -17.140   1.554  15.811  1.00  0.00    -0.550 OA
ATOM     10  O   UNL     1     -15.078   0.584  16.056  1.00  0.00    -0.550 OA
ENDBRANCH   7   8
ENDBRANCH   6   7
ENDBRANCH   5   6
ENDBRANCH   4   5
ENDBRANCH   3   4
ENDBRANCH   2   3
ENDBRANCH   1   2
BRANCH   1  11
ATOM     11  C   UNL     1     -15.887  -5.628  16.439  1.00  0.00     0.000 C 
BRANCH  11  12
ATOM     12  C   UNL     1     -16.592  -5.380  17.784  1.00  0.00    -0.000 C 
BRANCH  12  13
ATOM     13  C   UNL     1     -16.229  -6.430  18.845  1.00  0.00    -0.000 C 
BRANCH  13  14
ATOM     14  C   UNL     1     -15.288  -5.875  19.928  1.00  0.00    -0.000 C 
BRANCH  14  15
ATOM     15  C   UNL     1     -15.252  -6.772  21.184  1.00  0.00    -0.000 C 
BRANCH  15  16
ATOM     16  C   UNL     1     -15.854  -6.105  22.436  1.00  0.00    -0.000 C 
BRANCH  16  17
ATOM     17  C   UNL     1     -17.024  -5.147  22.154  1.00  0.00    -0.003 C 
ATOM     18  C   UNL     1     -16.729  -3.711  22.582  1.00  0.00     0.004 C 
ENDBRANCH  16  17
ENDBRANCH  15  16
ENDBRANCH  14  15
ENDBRANCH  13  14
ENDBRANCH  12  13
ENDBRANCH  11  12
ENDBRANCH   1  11
TORSDOF 14
ENDMDL
