MODEL 1
REMARK VINA RESULT:     4.771      0.000      0.000
REMARK INTER + INTRA:           6.034
REMARK INTER:                   6.165
REMARK INTRA:                  -0.132
REMARK UNBOUND:                -0.132
REMARK SMILES CCCCCCC(=O)[O-]
REMARK SMILES IDX 5 1 6 2 7 3 8 4 9 5 4 6 3 7 2 8 1 9
REMARK H PARENT
REMARK Flexibility Score: inf
ROOT
ATOM      1  C   UNL     1      -8.626 -17.858  27.187  1.00  0.00     0.006 C 
ENDROOT
BRANCH   1   2
ATOM      2  C   UNL     1      -7.390 -17.006  26.883  1.00  0.00     0.053 C 
BRANCH   2   3
ATOM      3  C   UNL     1      -6.194 -17.878  26.663  1.00  0.00     0.041 C 
ATOM      4  O   UNL     1      -6.213 -18.766  25.770  1.00  0.00    -0.550 OA
ATOM      5  O   UNL     1      -5.076 -17.743  27.476  1.00  0.00    -0.550 OA
ENDBRANCH   2   3
ENDBRANCH   1   2
BRANCH   1   6
ATOM      6  C   UNL     1      -9.263 -17.446  28.519  1.00  0.00     0.000 C 
BRANCH   6   7
ATOM      7  C   UNL     1      -8.240 -17.503  29.659  1.00  0.00    -0.000 C 
BRANCH   7   8
ATOM      8  C   UNL     1      -8.939 -17.628  31.019  1.00  0.00    -0.003 C 
ATOM      9  C   UNL     1      -8.112 -16.978  32.125  1.00  0.00     0.004 C 
ENDBRANCH   7   8
ENDBRANCH   6   7
ENDBRANCH   1   6
TORSDOF 5
ENDMDL
MODEL 2
REMARK VINA RESULT:     4.839      2.948      4.624
REMARK INTER + INTRA:           6.122
REMARK INTER:                   6.357
REMARK INTRA:                  -0.234
REMARK UNBOUND:                -0.132
REMARK SMILES CCCCCCC(=O)[O-]
REMARK SMILES IDX 5 1 6 2 7 3 8 4 9 5 4 6 3 7 2 8 1 9
REMARK H PARENT
REMARK Flexibility Score: inf
ROOT
ATOM      1  C   UNL     1      -9.463 -17.832  29.343  1.00  0.00     0.006 C 
ENDROOT
BRANCH   1   2
ATOM      2  C   UNL     1      -8.114 -17.507  29.992  1.00  0.00     0.053 C 
BRANCH   2   3
ATOM      3  C   UNL     1      -8.275 -17.317  31.467  1.00  0.00     0.041 C 
ATOM      4  O   UNL     1      -7.401 -16.693  32.125  1.00  0.00    -0.550 OA
ATOM      5  O   UNL     1      -9.366 -17.870  32.125  1.00  0.00    -0.550 OA
ENDBRANCH   2   3
ENDBRANCH   1   2
BRANCH   1   6
ATOM      6  C   UNL     1      -9.390 -17.680  27.819  1.00  0.00     0.000 C 
BRANCH   6   7
ATOM      7  C   UNL     1      -8.117 -16.934  27.401  1.00  0.00    -0.000 C 
BRANCH   7   8
ATOM      8  C   UNL     1      -7.280 -17.777  26.431  1.00  0.00    -0.003 C 
ATOM      9  C   UNL     1      -5.849 -17.941  26.937  1.00  0.00     0.004 C 
ENDBRANCH   7   8
ENDBRANCH   6   7
ENDBRANCH   1   6
TORSDOF 5
ENDMDL
