MODEL 1
REMARK VINA RESULT:    -7.691      0.000      0.000
REMARK INTER + INTRA:         -12.755
REMARK INTER:                 -11.963
REMARK INTRA:                  -0.792
REMARK UNBOUND:                -0.792
REMARK SMILES C[C@@]12C[C@@H](O)[C@H]3C[C@]1(O[C@H]1O[C@@H](CO)[C@H](O)[C@@H](O)[C@@H]1O)[C@@]3(COC(=O)c1ccccc1)C(=O)O2
REMARK SMILES IDX 1 1 2 2 3 3 4 4 6 5 7 6 8 7 21 8 32 9 33 10 34 11 9 12 10 13
REMARK SMILES IDX 19 14 11 15 17 16 12 17 15 18 20 19 18 21 13 23 14 24 16 26
REMARK SMILES IDX 5 28 22 30 23 31 24 32 25 33 26 34 27 35 31 36 28 37 30 38
REMARK SMILES IDX 29 39
REMARK H PARENT 20 20 18 22 14 25 16 27 5 29
REMARK Flexibility Score: inf
ROOT
ATOM      1  C   UNL     1     176.682 179.756 170.383  1.00  0.00     0.060 C 
ATOM      2  C   UNL     1     177.092 179.808 171.859  1.00  0.00     0.142 C 
ATOM      3  C   UNL     1     175.945 180.420 172.745  1.00  0.00     0.083 C 
ATOM      4  C   UNL     1     176.229 180.192 174.278  1.00  0.00     0.123 C 
ATOM      5  C   UNL     1     177.114 178.918 174.496  1.00  0.00     0.045 C 
ATOM      6  C   UNL     1     176.599 177.842 173.530  1.00  0.00     0.049 C 
ATOM      7  C   UNL     1     177.594 178.428 172.487  1.00  0.00     0.131 C 
ATOM      8  C   UNL     1     178.427 178.991 173.659  1.00  0.00     0.140 C 
ATOM      9  C   UNL     1     178.895 180.314 173.141  1.00  0.00     0.319 C 
ATOM     10  O   UNL     1     179.775 181.043 173.672  1.00  0.00    -0.251 OA
ATOM     11  O   UNL     1     178.198 180.680 172.013  1.00  0.00    -0.456 OA
ENDROOT
BRANCH   7  12
ATOM     12  O   UNL     1     178.406 177.641 171.609  1.00  0.00    -0.338 OA
BRANCH  12  13
ATOM     13  C   UNL     1     178.120 176.253 171.446  1.00  0.00     0.282 C 
ATOM     14  C   UNL     1     179.303 175.438 170.843  1.00  0.00     0.202 C 
ATOM     15  O   UNL     1     176.884 176.033 170.787  1.00  0.00    -0.341 OA
ATOM     16  C   UNL     1     178.858 174.562 169.653  1.00  0.00     0.179 C 
ATOM     17  C   UNL     1     176.546 174.655 170.808  1.00  0.00     0.178 C 
ATOM     18  C   UNL     1     177.523 173.809 169.937  1.00  0.00     0.177 C 
BRANCH  14  19
ATOM     19  O   UNL     1     179.850 174.599 171.843  1.00  0.00    -0.385 OA
ATOM     20  H   UNL     1     180.115 173.737 171.406  1.00  0.00     0.211 HD
ENDBRANCH  14  19
BRANCH  16  21
ATOM     21  O   UNL     1     178.723 175.362 168.505  1.00  0.00    -0.387 OA
ATOM     22  H   UNL     1     178.661 174.746 167.727  1.00  0.00     0.211 HD
ENDBRANCH  16  21
BRANCH  17  23
ATOM     23  C   UNL     1     175.099 174.518 170.314  1.00  0.00     0.191 C 
BRANCH  23  24
ATOM     24  O   UNL     1     174.606 173.236 170.569  1.00  0.00    -0.394 OA
ATOM     25  H   UNL     1     174.996 172.642 169.881  1.00  0.00     0.210 HD
ENDBRANCH  23  24
ENDBRANCH  17  23
BRANCH  18  26
ATOM     26  O   UNL     1     177.772 172.584 170.592  1.00  0.00    -0.387 OA
ATOM     27  H   UNL     1     178.746 172.392 170.489  1.00  0.00     0.211 HD
ENDBRANCH  18  26
ENDBRANCH  12  13
ENDBRANCH   7  12
BRANCH   4  28
ATOM     28  O   UNL     1     175.010 180.045 174.956  1.00  0.00    -0.393 OA
ATOM     29  H   UNL     1     174.703 180.962 175.192  1.00  0.00     0.210 HD
ENDBRANCH   4  28
BRANCH   8  30
ATOM     30  C   UNL     1     179.566 178.076 174.175  1.00  0.00     0.255 C 
BRANCH  30  31
ATOM     31  O   UNL     1     179.695 178.197 175.590  1.00  0.00    -0.461 OA
BRANCH  31  32
ATOM     32  C   UNL     1     180.714 178.919 176.230  1.00  0.00     0.338 C 
ATOM     33  O   UNL     1     181.885 178.930 175.750  1.00  0.00    -0.246 OA
BRANCH  32  34
ATOM     34  C   UNL     1     180.409 179.689 177.457  1.00  0.00     0.060 A 
ATOM     35  C   UNL     1     179.575 180.825 177.397  1.00  0.00     0.015 A 
ATOM     36  C   UNL     1     180.964 179.312 178.697  1.00  0.00     0.015 A 
ATOM     37  C   UNL     1     179.296 181.559 178.556  1.00  0.00     0.001 A 
ATOM     38  C   UNL     1     180.681 180.053 179.851  1.00  0.00     0.001 A 
ATOM     39  C   UNL     1     179.856 181.181 179.779  1.00  0.00     0.000 A 
ENDBRANCH  32  34
ENDBRANCH  31  32
ENDBRANCH  30  31
ENDBRANCH   8  30
TORSDOF 12
ENDMDL
MODEL 2
REMARK VINA RESULT:    -7.671      3.731      7.016
REMARK INTER + INTRA:         -12.723
REMARK INTER:                 -11.725
REMARK INTRA:                  -0.998
REMARK UNBOUND:                -0.792
REMARK SMILES C[C@@]12C[C@@H](O)[C@H]3C[C@]1(O[C@H]1O[C@@H](CO)[C@H](O)[C@@H](O)[C@@H]1O)[C@@]3(COC(=O)c1ccccc1)C(=O)O2
REMARK SMILES IDX 1 1 2 2 3 3 4 4 6 5 7 6 8 7 21 8 32 9 33 10 34 11 9 12 10 13
REMARK SMILES IDX 19 14 11 15 17 16 12 17 15 18 20 19 18 21 13 23 14 24 16 26
REMARK SMILES IDX 5 28 22 30 23 31 24 32 25 33 26 34 27 35 31 36 28 37 30 38
REMARK SMILES IDX 29 39
REMARK H PARENT 20 20 18 22 14 25 16 27 5 29
REMARK Flexibility Score: inf
ROOT
ATOM      1  C   UNL     1     178.269 184.032 173.513  1.00  0.00     0.060 C 
ATOM      2  C   UNL     1     177.789 182.609 173.203  1.00  0.00     0.142 C 
ATOM      3  C   UNL     1     176.783 182.600 171.993  1.00  0.00     0.083 C 
ATOM      4  C   UNL     1     176.532 181.135 171.475  1.00  0.00     0.123 C 
ATOM      5  C   UNL     1     177.765 180.217 171.779  1.00  0.00     0.045 C 
ATOM      6  C   UNL     1     179.024 181.047 171.490  1.00  0.00     0.049 C 
ATOM      7  C   UNL     1     178.940 181.527 172.967  1.00  0.00     0.131 C 
ATOM      8  C   UNL     1     178.133 180.250 173.293  1.00  0.00     0.140 C 
ATOM      9  C   UNL     1     177.122 180.729 174.285  1.00  0.00     0.319 C 
ATOM     10  O   UNL     1     176.375 179.996 174.989  1.00  0.00    -0.251 OA
ATOM     11  O   UNL     1     177.060 182.103 174.307  1.00  0.00    -0.456 OA
ENDROOT
BRANCH   7  12
ATOM     12  O   UNL     1     180.066 181.662 173.842  1.00  0.00    -0.338 OA
BRANCH  12  13
ATOM     13  C   UNL     1     180.900 182.813 173.736  1.00  0.00     0.282 C 
ATOM     14  C   UNL     1     182.168 182.587 172.858  1.00  0.00     0.202 C 
ATOM     15  O   UNL     1     181.180 183.392 175.000  1.00  0.00    -0.341 OA
ATOM     16  C   UNL     1     183.456 183.053 173.568  1.00  0.00     0.179 C 
ATOM     17  C   UNL     1     181.853 184.632 174.843  1.00  0.00     0.178 C 
ATOM     18  C   UNL     1     183.285 184.440 174.260  1.00  0.00     0.177 C 
BRANCH  14  19
ATOM     19  O   UNL     1     182.032 183.308 171.648  1.00  0.00    -0.385 OA
ATOM     20  H   UNL     1     182.062 182.648 170.895  1.00  0.00     0.211 HD
ENDBRANCH  14  19
BRANCH  16  21
ATOM     21  O   UNL     1     183.846 182.090 174.515  1.00  0.00    -0.387 OA
ATOM     22  H   UNL     1     183.067 181.939 175.114  1.00  0.00     0.211 HD
ENDBRANCH  16  21
BRANCH  17  23
ATOM     23  C   UNL     1     181.897 185.320 176.214  1.00  0.00     0.191 C 
BRANCH  23  24
ATOM     24  O   UNL     1     182.638 186.503 176.153  1.00  0.00    -0.394 OA
ATOM     25  H   UNL     1     183.586 186.248 176.271  1.00  0.00     0.210 HD
ENDBRANCH  23  24
ENDBRANCH  17  23
BRANCH  18  26
ATOM     26  O   UNL     1     183.550 185.486 173.350  1.00  0.00    -0.387 OA
ATOM     27  H   UNL     1     184.536 185.641 173.363  1.00  0.00     0.211 HD
ENDBRANCH  18  26
ENDBRANCH  12  13
ENDBRANCH   7  12
BRANCH   4  28
ATOM     28  O   UNL     1     176.295 181.168 170.093  1.00  0.00    -0.393 OA
ATOM     29  H   UNL     1     176.708 180.346 169.713  1.00  0.00     0.210 HD
ENDBRANCH   4  28
BRANCH   8  30
ATOM     30  C   UNL     1     178.965 179.035 173.776  1.00  0.00     0.255 C 
BRANCH  30  31
ATOM     31  O   UNL     1     178.975 178.978 175.201  1.00  0.00    -0.461 OA
BRANCH  31  32
ATOM     32  C   UNL     1     180.137 179.053 175.984  1.00  0.00     0.338 C 
ATOM     33  O   UNL     1     181.222 178.557 175.564  1.00  0.00    -0.246 OA
BRANCH  32  34
ATOM     34  C   UNL     1     180.094 179.737 177.296  1.00  0.00     0.060 A 
ATOM     35  C   UNL     1     179.370 180.938 177.451  1.00  0.00     0.015 A 
ATOM     36  C   UNL     1     180.793 179.213 178.402  1.00  0.00     0.015 A 
ATOM     37  C   UNL     1     179.339 181.591 178.689  1.00  0.00     0.001 A 
ATOM     38  C   UNL     1     180.759 179.874 179.636  1.00  0.00     0.001 A 
ATOM     39  C   UNL     1     180.040 181.066 179.777  1.00  0.00     0.000 A 
ENDBRANCH  32  34
ENDBRANCH  31  32
ENDBRANCH  30  31
ENDBRANCH   8  30
TORSDOF 12
ENDMDL
MODEL 3
REMARK VINA RESULT:    -7.665      5.145      8.743
REMARK INTER + INTRA:         -12.713
REMARK INTER:                 -11.832
REMARK INTRA:                  -0.881
REMARK UNBOUND:                -0.792
REMARK SMILES C[C@@]12C[C@@H](O)[C@H]3C[C@]1(O[C@H]1O[C@@H](CO)[C@H](O)[C@@H](O)[C@@H]1O)[C@@]3(COC(=O)c1ccccc1)C(=O)O2
REMARK SMILES IDX 1 1 2 2 3 3 4 4 6 5 7 6 8 7 21 8 32 9 33 10 34 11 9 12 10 13
REMARK SMILES IDX 19 14 11 15 17 16 12 17 15 18 20 19 18 21 13 23 14 24 16 26
REMARK SMILES IDX 5 28 22 30 23 31 24 32 25 33 26 34 27 35 31 36 28 37 30 38
REMARK SMILES IDX 29 39
REMARK H PARENT 20 20 18 22 14 25 16 27 5 29
REMARK Flexibility Score: inf
ROOT
ATOM      1  C   UNL     1     183.929 180.722 170.445  1.00  0.00     0.060 C 
ATOM      2  C   UNL     1     183.538 180.733 171.927  1.00  0.00     0.142 C 
ATOM      3  C   UNL     1     184.679 180.120 172.820  1.00  0.00     0.083 C 
ATOM      4  C   UNL     1     184.423 180.409 174.347  1.00  0.00     0.123 C 
ATOM      5  C   UNL     1     183.577 181.715 174.531  1.00  0.00     0.045 C 
ATOM      6  C   UNL     1     184.109 182.742 173.520  1.00  0.00     0.049 C 
ATOM      7  C   UNL     1     183.084 182.149 172.512  1.00  0.00     0.131 C 
ATOM      8  C   UNL     1     182.252 181.650 173.714  1.00  0.00     0.140 C 
ATOM      9  C   UNL     1     181.740 180.324 173.249  1.00  0.00     0.319 C 
ATOM     10  O   UNL     1     180.846 179.639 173.816  1.00  0.00    -0.251 OA
ATOM     11  O   UNL     1     182.410 179.899 172.126  1.00  0.00    -0.456 OA
ENDROOT
BRANCH   7  12
ATOM     12  O   UNL     1     182.282 182.927 171.617  1.00  0.00    -0.338 OA
BRANCH  12  13
ATOM     13  C   UNL     1     182.568 184.314 171.447  1.00  0.00     0.282 C 
ATOM     14  C   UNL     1     181.346 185.149 170.959  1.00  0.00     0.202 C 
ATOM     15  O   UNL     1     183.744 184.530 170.685  1.00  0.00    -0.341 OA
ATOM     16  C   UNL     1     181.695 186.035 169.746  1.00  0.00     0.179 C 
ATOM     17  C   UNL     1     184.098 185.904 170.692  1.00  0.00     0.178 C 
ATOM     18  C   UNL     1     183.058 186.771 169.921  1.00  0.00     0.177 C 
BRANCH  14  19
ATOM     19  O   UNL     1     180.898 185.980 172.014  1.00  0.00    -0.385 OA
ATOM     20  H   UNL     1     180.860 186.919 171.666  1.00  0.00     0.211 HD
ENDBRANCH  14  19
BRANCH  16  21
ATOM     21  O   UNL     1     181.720 185.249 168.581  1.00  0.00    -0.387 OA
ATOM     22  H   UNL     1     181.159 184.448 168.759  1.00  0.00     0.211 HD
ENDBRANCH  16  21
BRANCH  17  23
ATOM     23  C   UNL     1     185.498 186.033 170.076  1.00  0.00     0.191 C 
BRANCH  23  24
ATOM     24  O   UNL     1     185.576 187.157 169.250  1.00  0.00    -0.394 OA
ATOM     25  H   UNL     1     184.706 187.621 169.323  1.00  0.00     0.210 HD
ENDBRANCH  23  24
ENDBRANCH  17  23
BRANCH  18  26
ATOM     26  O   UNL     1     182.881 187.990 170.610  1.00  0.00    -0.387 OA
ATOM     27  H   UNL     1     182.913 188.718 169.928  1.00  0.00     0.211 HD
ENDBRANCH  18  26
ENDBRANCH  12  13
ENDBRANCH   7  12
BRANCH   4  28
ATOM     28  O   UNL     1     185.654 180.545 175.004  1.00  0.00    -0.393 OA
ATOM     29  H   UNL     1     186.361 180.410 174.316  1.00  0.00     0.210 HD
ENDBRANCH   4  28
BRANCH   8  30
ATOM     30  C   UNL     1     181.146 182.615 174.211  1.00  0.00     0.255 C 
BRANCH  30  31
ATOM     31  O   UNL     1     181.004 182.517 175.627  1.00  0.00    -0.461 OA
BRANCH  31  32
ATOM     32  C   UNL     1     179.985 181.798 176.269  1.00  0.00     0.338 C 
ATOM     33  O   UNL     1     178.812 181.792 175.795  1.00  0.00    -0.246 OA
BRANCH  32  34
ATOM     34  C   UNL     1     180.291 181.025 177.494  1.00  0.00     0.060 A 
ATOM     35  C   UNL     1     181.137 179.896 177.432  1.00  0.00     0.015 A 
ATOM     36  C   UNL     1     179.728 181.389 178.733  1.00  0.00     0.015 A 
ATOM     37  C   UNL     1     181.417 179.159 178.588  1.00  0.00     0.001 A 
ATOM     38  C   UNL     1     180.012 180.645 179.885  1.00  0.00     0.001 A 
ATOM     39  C   UNL     1     180.848 179.526 179.811  1.00  0.00     0.000 A 
ENDBRANCH  32  34
ENDBRANCH  31  32
ENDBRANCH  30  31
ENDBRANCH   8  30
TORSDOF 12
ENDMDL
MODEL 4
REMARK VINA RESULT:    -7.653      2.845      5.182
REMARK INTER + INTRA:         -12.695
REMARK INTER:                 -11.647
REMARK INTRA:                  -1.048
REMARK UNBOUND:                -0.792
REMARK SMILES C[C@@]12C[C@@H](O)[C@H]3C[C@]1(O[C@H]1O[C@@H](CO)[C@H](O)[C@@H](O)[C@@H]1O)[C@@]3(COC(=O)c1ccccc1)C(=O)O2
REMARK SMILES IDX 1 1 2 2 3 3 4 4 6 5 7 6 8 7 21 8 32 9 33 10 34 11 9 12 10 13
REMARK SMILES IDX 19 14 11 15 17 16 12 17 15 18 20 19 18 21 13 23 14 24 16 26
REMARK SMILES IDX 5 28 22 30 23 31 24 32 25 33 26 34 27 35 31 36 28 37 30 38
REMARK SMILES IDX 29 39
REMARK H PARENT 20 20 18 22 14 25 16 27 5 29
REMARK Flexibility Score: inf
ROOT
ATOM      1  C   UNL     1     182.446 176.682 173.565  1.00  0.00     0.060 C 
ATOM      2  C   UNL     1     182.873 178.110 173.205  1.00  0.00     0.142 C 
ATOM      3  C   UNL     1     183.851 178.117 171.973  1.00  0.00     0.083 C 
ATOM      4  C   UNL     1     184.045 179.575 171.410  1.00  0.00     0.123 C 
ATOM      5  C   UNL     1     182.790 180.462 171.718  1.00  0.00     0.045 C 
ATOM      6  C   UNL     1     181.552 179.586 171.481  1.00  0.00     0.049 C 
ATOM      7  C   UNL     1     181.684 179.149 172.968  1.00  0.00     0.131 C 
ATOM      8  C   UNL     1     182.457 180.459 173.241  1.00  0.00     0.140 C 
ATOM      9  C   UNL     1     183.505 180.039 174.221  1.00  0.00     0.319 C 
ATOM     10  O   UNL     1     184.243 180.814 174.887  1.00  0.00    -0.251 OA
ATOM     11  O   UNL     1     183.610 178.669 174.279  1.00  0.00    -0.456 OA
ENDROOT
BRANCH   7  12
ATOM     12  O   UNL     1     180.583 179.003 173.872  1.00  0.00    -0.338 OA
BRANCH  12  13
ATOM     13  C   UNL     1     179.770 177.834 173.802  1.00  0.00     0.282 C 
ATOM     14  C   UNL     1     178.487 178.017 172.936  1.00  0.00     0.202 C 
ATOM     15  O   UNL     1     179.517 177.278 175.081  1.00  0.00    -0.341 OA
ATOM     16  C   UNL     1     177.217 177.542 173.672  1.00  0.00     0.179 C 
ATOM     17  C   UNL     1     178.866 176.022 174.959  1.00  0.00     0.178 C 
ATOM     18  C   UNL     1     177.424 176.174 174.391  1.00  0.00     0.177 C 
BRANCH  14  19
ATOM     19  O   UNL     1     178.621 177.272 171.739  1.00  0.00    -0.385 OA
ATOM     20  H   UNL     1     178.475 176.307 171.963  1.00  0.00     0.211 HD
ENDBRANCH  14  19
BRANCH  16  21
ATOM     21  O   UNL     1     176.820 178.518 174.602  1.00  0.00    -0.387 OA
ATOM     22  H   UNL     1     177.212 178.260 175.479  1.00  0.00     0.211 HD
ENDBRANCH  16  21
BRANCH  17  23
ATOM     23  C   UNL     1     178.852 175.363 176.346  1.00  0.00     0.191 C 
BRANCH  23  24
ATOM     24  O   UNL     1     177.745 174.523 176.486  1.00  0.00    -0.394 OA
ATOM     25  H   UNL     1     176.944 175.090 176.362  1.00  0.00     0.210 HD
ENDBRANCH  23  24
ENDBRANCH  17  23
BRANCH  18  26
ATOM     26  O   UNL     1     177.167 175.104 173.507  1.00  0.00    -0.387 OA
ATOM     27  H   UNL     1     178.052 174.727 173.242  1.00  0.00     0.211 HD
ENDBRANCH  18  26
ENDBRANCH  12  13
ENDBRANCH   7  12
BRANCH   4  28
ATOM     28  O   UNL     1     184.251 179.511 170.024  1.00  0.00    -0.393 OA
ATOM     29  H   UNL     1     184.322 180.450 169.703  1.00  0.00     0.210 HD
ENDBRANCH   4  28
BRANCH   8  30
ATOM     30  C   UNL     1     181.598 181.660 173.709  1.00  0.00     0.255 C 
BRANCH  30  31
ATOM     31  O   UNL     1     181.603 181.745 175.133  1.00  0.00    -0.461 OA
BRANCH  31  32
ATOM     32  C   UNL     1     180.453 181.649 175.932  1.00  0.00     0.338 C 
ATOM     33  O   UNL     1     179.351 182.114 175.522  1.00  0.00    -0.246 OA
BRANCH  32  34
ATOM     34  C   UNL     1     180.530 180.978 177.249  1.00  0.00     0.060 A 
ATOM     35  C   UNL     1     179.816 181.490 178.354  1.00  0.00     0.015 A 
ATOM     36  C   UNL     1     181.332 179.833 177.427  1.00  0.00     0.015 A 
ATOM     37  C   UNL     1     179.898 180.862 179.602  1.00  0.00     0.001 A 
ATOM     38  C   UNL     1     181.410 179.212 178.679  1.00  0.00     0.001 A 
ATOM     39  C   UNL     1     180.701 179.731 179.768  1.00  0.00     0.000 A 
ENDBRANCH  32  34
ENDBRANCH  31  32
ENDBRANCH  30  31
ENDBRANCH   8  30
TORSDOF 12
ENDMDL
MODEL 5
REMARK VINA RESULT:    -7.582      2.957      5.455
REMARK INTER + INTRA:         -12.585
REMARK INTER:                 -11.221
REMARK INTRA:                  -1.364
REMARK UNBOUND:                -0.792
REMARK SMILES C[C@@]12C[C@@H](O)[C@H]3C[C@]1(O[C@H]1O[C@@H](CO)[C@H](O)[C@@H](O)[C@@H]1O)[C@@]3(COC(=O)c1ccccc1)C(=O)O2
REMARK SMILES IDX 1 1 2 2 3 3 4 4 6 5 7 6 8 7 21 8 32 9 33 10 34 11 9 12 10 13
REMARK SMILES IDX 19 14 11 15 17 16 12 17 15 18 20 19 18 21 13 23 14 24 16 26
REMARK SMILES IDX 5 28 22 30 23 31 24 32 25 33 26 34 27 35 31 36 28 37 30 38
REMARK SMILES IDX 29 39
REMARK H PARENT 20 20 18 22 14 25 16 27 5 29
REMARK Flexibility Score: inf
ROOT
ATOM      1  C   UNL     1     179.278 176.683 173.280  1.00  0.00     0.060 C 
ATOM      2  C   UNL     1     180.566 177.471 173.020  1.00  0.00     0.142 C 
ATOM      3  C   UNL     1     181.359 176.877 171.798  1.00  0.00     0.083 C 
ATOM      4  C   UNL     1     182.505 177.853 171.335  1.00  0.00     0.123 C 
ATOM      5  C   UNL     1     182.149 179.337 171.692  1.00  0.00     0.045 C 
ATOM      6  C   UNL     1     180.657 179.527 171.388  1.00  0.00     0.049 C 
ATOM      7  C   UNL     1     180.388 179.049 172.843  1.00  0.00     0.131 C 
ATOM      8  C   UNL     1     181.823 179.490 173.209  1.00  0.00     0.140 C 
ATOM      9  C   UNL     1     182.272 178.434 174.167  1.00  0.00     0.319 C 
ATOM     10  O   UNL     1     183.304 178.484 174.889  1.00  0.00    -0.251 OA
ATOM     11  O   UNL     1     181.433 177.344 174.134  1.00  0.00    -0.456 OA
ENDROOT
BRANCH   7  12
ATOM     12  O   UNL     1     179.428 179.637 173.727  1.00  0.00    -0.338 OA
BRANCH  12  13
ATOM     13  C   UNL     1     178.338 180.378 173.183  1.00  0.00     0.282 C 
ATOM     14  C   UNL     1     177.446 181.061 174.263  1.00  0.00     0.202 C 
ATOM     15  O   UNL     1     177.602 179.630 172.229  1.00  0.00    -0.341 OA
ATOM     16  C   UNL     1     175.946 180.770 174.047  1.00  0.00     0.179 C 
ATOM     17  C   UNL     1     176.647 180.453 171.578  1.00  0.00     0.178 C 
ATOM     18  C   UNL     1     175.523 180.913 172.553  1.00  0.00     0.177 C 
BRANCH  14  19
ATOM     19  O   UNL     1     177.646 182.462 174.216  1.00  0.00    -0.385 OA
ATOM     20  H   UNL     1     178.521 182.660 174.661  1.00  0.00     0.211 HD
ENDBRANCH  14  19
BRANCH  16  21
ATOM     21  O   UNL     1     175.648 179.476 174.508  1.00  0.00    -0.387 OA
ATOM     22  H   UNL     1     176.510 178.987 174.581  1.00  0.00     0.211 HD
ENDBRANCH  16  21
BRANCH  17  23
ATOM     23  C   UNL     1     176.070 179.661 170.396  1.00  0.00     0.191 C 
BRANCH  23  24
ATOM     24  O   UNL     1     174.844 180.194 169.991  1.00  0.00    -0.394 OA
ATOM     25  H   UNL     1     174.632 180.924 170.623  1.00  0.00     0.210 HD
ENDBRANCH  23  24
ENDBRANCH  17  23
BRANCH  18  26
ATOM     26  O   UNL     1     175.183 182.251 172.258  1.00  0.00    -0.387 OA
ATOM     27  H   UNL     1     174.998 182.296 171.279  1.00  0.00     0.211 HD
ENDBRANCH  18  26
ENDBRANCH  12  13
ENDBRANCH   7  12
BRANCH   4  28
ATOM     28  O   UNL     1     182.685 177.729 169.950  1.00  0.00    -0.393 OA
ATOM     29  H   UNL     1     181.989 177.095 169.628  1.00  0.00     0.210 HD
ENDBRANCH   4  28
BRANCH   8  30
ATOM     30  C   UNL     1     181.964 180.935 173.750  1.00  0.00     0.255 C 
BRANCH  30  31
ATOM     31  O   UNL     1     181.984 180.929 175.176  1.00  0.00    -0.461 OA
BRANCH  31  32
ATOM     32  C   UNL     1     181.011 181.541 175.981  1.00  0.00     0.338 C 
ATOM     33  O   UNL     1     180.372 182.546 175.556  1.00  0.00    -0.246 OA
BRANCH  32  34
ATOM     34  C   UNL     1     180.716 180.990 177.323  1.00  0.00     0.060 A 
ATOM     35  C   UNL     1     181.262 179.751 177.721  1.00  0.00     0.015 A 
ATOM     36  C   UNL     1     179.871 181.682 178.214  1.00  0.00     0.015 A 
ATOM     37  C   UNL     1     180.974 179.225 178.986  1.00  0.00     0.001 A 
ATOM     38  C   UNL     1     179.587 181.148 179.476  1.00  0.00     0.001 A 
ATOM     39  C   UNL     1     180.130 179.916 179.859  1.00  0.00     0.000 A 
ENDBRANCH  32  34
ENDBRANCH  31  32
ENDBRANCH  30  31
ENDBRANCH   8  30
TORSDOF 12
ENDMDL
MODEL 6
REMARK VINA RESULT:    -7.552      4.235      6.232
REMARK INTER + INTRA:         -12.538
REMARK INTER:                 -11.218
REMARK INTRA:                  -1.320
REMARK UNBOUND:                -0.792
REMARK SMILES C[C@@]12C[C@@H](O)[C@H]3C[C@]1(O[C@H]1O[C@@H](CO)[C@H](O)[C@@H](O)[C@@H]1O)[C@@]3(COC(=O)c1ccccc1)C(=O)O2
REMARK SMILES IDX 1 1 2 2 3 3 4 4 6 5 7 6 8 7 21 8 32 9 33 10 34 11 9 12 10 13
REMARK SMILES IDX 19 14 11 15 17 16 12 17 15 18 20 19 18 21 13 23 14 24 16 26
REMARK SMILES IDX 5 28 22 30 23 31 24 32 25 33 26 34 27 35 31 36 28 37 30 38
REMARK SMILES IDX 29 39
REMARK H PARENT 20 20 18 22 14 25 16 27 5 29
REMARK Flexibility Score: inf
ROOT
ATOM      1  C   UNL     1     181.476 184.189 173.495  1.00  0.00     0.060 C 
ATOM      2  C   UNL     1     180.217 183.380 173.165  1.00  0.00     0.142 C 
ATOM      3  C   UNL     1     179.439 184.010 171.952  1.00  0.00     0.083 C 
ATOM      4  C   UNL     1     178.332 183.027 171.414  1.00  0.00     0.123 C 
ATOM      5  C   UNL     1     178.719 181.538 171.712  1.00  0.00     0.045 C 
ATOM      6  C   UNL     1     180.224 181.401 171.439  1.00  0.00     0.049 C 
ATOM      7  C   UNL     1     180.442 181.818 172.921  1.00  0.00     0.131 C 
ATOM      8  C   UNL     1     179.011 181.323 173.228  1.00  0.00     0.140 C 
ATOM      9  C   UNL     1     178.510 182.321 174.222  1.00  0.00     0.319 C 
ATOM     10  O   UNL     1     177.462 182.210 174.913  1.00  0.00    -0.251 OA
ATOM     11  O   UNL     1     179.320 183.432 174.261  1.00  0.00    -0.456 OA
ENDROOT
BRANCH   7  12
ATOM     12  O   UNL     1     181.396 181.214 173.802  1.00  0.00    -0.338 OA
BRANCH  12  13
ATOM     13  C   UNL     1     182.458 180.435 173.256  1.00  0.00     0.282 C 
ATOM     14  C   UNL     1     183.344 179.743 174.335  1.00  0.00     0.202 C 
ATOM     15  O   UNL     1     183.202 181.149 172.282  1.00  0.00    -0.341 OA
ATOM     16  C   UNL     1     184.848 179.989 174.097  1.00  0.00     0.179 C 
ATOM     17  C   UNL     1     184.126 180.290 171.632  1.00  0.00     0.178 C 
ATOM     18  C   UNL     1     185.249 179.813 172.600  1.00  0.00     0.177 C 
BRANCH  14  19
ATOM     19  O   UNL     1     183.104 178.348 174.310  1.00  0.00    -0.385 OA
ATOM     20  H   UNL     1     183.429 177.998 173.429  1.00  0.00     0.211 HD
ENDBRANCH  14  19
BRANCH  16  21
ATOM     21  O   UNL     1     185.189 181.280 174.536  1.00  0.00    -0.387 OA
ATOM     22  H   UNL     1     184.380 181.848 174.424  1.00  0.00     0.211 HD
ENDBRANCH  16  21
BRANCH  17  23
ATOM     23  C   UNL     1     184.710 181.049 170.432  1.00  0.00     0.191 C 
BRANCH  23  24
ATOM     24  O   UNL     1     185.929 180.492 170.037  1.00  0.00    -0.394 OA
ATOM     25  H   UNL     1     186.634 180.972 170.537  1.00  0.00     0.210 HD
ENDBRANCH  23  24
ENDBRANCH  17  23
BRANCH  18  26
ATOM     26  O   UNL     1     185.548 178.461 172.321  1.00  0.00    -0.387 OA
ATOM     27  H   UNL     1     184.928 178.170 171.595  1.00  0.00     0.211 HD
ENDBRANCH  18  26
ENDBRANCH  12  13
ENDBRANCH   7  12
BRANCH   4  28
ATOM     28  O   UNL     1     178.184 183.210 170.032  1.00  0.00    -0.393 OA
ATOM     29  H   UNL     1     178.552 184.111 169.823  1.00  0.00     0.210 HD
ENDBRANCH   4  28
BRANCH   8  30
ATOM     30  C   UNL     1     178.897 179.851 173.698  1.00  0.00     0.255 C 
BRANCH  30  31
ATOM     31  O   UNL     1     178.807 179.792 175.121  1.00  0.00    -0.461 OA
BRANCH  31  32
ATOM     32  C   UNL     1     179.760 179.176 175.946  1.00  0.00     0.338 C 
ATOM     33  O   UNL     1     180.393 178.159 175.540  1.00  0.00    -0.246 OA
BRANCH  32  34
ATOM     34  C   UNL     1     180.041 179.737 177.287  1.00  0.00     0.060 A 
ATOM     35  C   UNL     1     180.692 178.955 178.265  1.00  0.00     0.015 A 
ATOM     36  C   UNL     1     179.645 181.050 177.614  1.00  0.00     0.015 A 
ATOM     37  C   UNL     1     180.948 179.482 179.536  1.00  0.00     0.001 A 
ATOM     38  C   UNL     1     179.903 181.568 178.889  1.00  0.00     0.001 A 
ATOM     39  C   UNL     1     180.545 180.782 179.852  1.00  0.00     0.000 A 
ENDBRANCH  32  34
ENDBRANCH  31  32
ENDBRANCH  30  31
ENDBRANCH   8  30
TORSDOF 12
ENDMDL
MODEL 7
REMARK VINA RESULT:    -7.420      3.440      5.551
REMARK INTER + INTRA:         -12.332
REMARK INTER:                 -11.174
REMARK INTRA:                  -1.158
REMARK UNBOUND:                -0.792
REMARK SMILES C[C@@]12C[C@@H](O)[C@H]3C[C@]1(O[C@H]1O[C@@H](CO)[C@H](O)[C@@H](O)[C@@H]1O)[C@@]3(COC(=O)c1ccccc1)C(=O)O2
REMARK SMILES IDX 1 1 2 2 3 3 4 4 6 5 7 6 8 7 21 8 32 9 33 10 34 11 9 12 10 13
REMARK SMILES IDX 19 14 11 15 17 16 12 17 15 18 20 19 18 21 13 23 14 24 16 26
REMARK SMILES IDX 5 28 22 30 23 31 24 32 25 33 26 34 27 35 31 36 28 37 30 38
REMARK SMILES IDX 29 39
REMARK H PARENT 20 20 18 22 14 25 16 27 5 29
REMARK Flexibility Score: inf
ROOT
ATOM      1  C   UNL     1     180.006 183.962 170.931  1.00  0.00     0.060 C 
ATOM      2  C   UNL     1     181.030 183.593 172.010  1.00  0.00     0.142 C 
ATOM      3  C   UNL     1     181.639 184.880 172.680  1.00  0.00     0.083 C 
ATOM      4  C   UNL     1     182.446 184.515 173.982  1.00  0.00     0.123 C 
ATOM      5  C   UNL     1     181.896 183.196 174.626  1.00  0.00     0.045 C 
ATOM      6  C   UNL     1     180.365 183.252 174.528  1.00  0.00     0.049 C 
ATOM      7  C   UNL     1     180.517 182.580 173.134  1.00  0.00     0.131 C 
ATOM      8  C   UNL     1     181.884 182.027 173.595  1.00  0.00     0.140 C 
ATOM      9  C   UNL     1     182.725 182.125 172.363  1.00  0.00     0.319 C 
ATOM     10  O   UNL     1     183.860 181.600 172.201  1.00  0.00    -0.251 OA
ATOM     11  O   UNL     1     182.125 182.920 171.414  1.00  0.00    -0.456 OA
ENDROOT
BRANCH   7  12
ATOM     12  O   UNL     1     179.675 181.530 172.643  1.00  0.00    -0.338 OA
BRANCH  12  13
ATOM     13  C   UNL     1     178.314 181.470 173.063  1.00  0.00     0.282 C 
ATOM     14  C   UNL     1     177.994 180.243 173.969  1.00  0.00     0.202 C 
ATOM     15  O   UNL     1     177.411 181.629 171.981  1.00  0.00    -0.341 OA
ATOM     16  C   UNL     1     176.750 179.471 173.483  1.00  0.00     0.179 C 
ATOM     17  C   UNL     1     176.079 181.748 172.457  1.00  0.00     0.178 C 
ATOM     18  C   UNL     1     175.575 180.421 173.097  1.00  0.00     0.177 C 
BRANCH  14  19
ATOM     19  O   UNL     1     177.762 180.689 175.292  1.00  0.00    -0.385 OA
ATOM     20  H   UNL     1     177.394 179.915 175.814  1.00  0.00     0.211 HD
ENDBRANCH  14  19
BRANCH  16  21
ATOM     21  O   UNL     1     177.096 178.666 172.384  1.00  0.00    -0.387 OA
ATOM     22  H   UNL     1     177.092 179.252 171.581  1.00  0.00     0.211 HD
ENDBRANCH  16  21
BRANCH  17  23
ATOM     23  C   UNL     1     175.193 182.169 171.276  1.00  0.00     0.191 C 
BRANCH  23  24
ATOM     24  O   UNL     1     174.030 181.397 171.227  1.00  0.00    -0.394 OA
ATOM     25  H   UNL     1     173.541 181.570 172.069  1.00  0.00     0.210 HD
ENDBRANCH  23  24
ENDBRANCH  17  23
BRANCH  18  26
ATOM     26  O   UNL     1     174.793 180.730 174.232  1.00  0.00    -0.387 OA
ATOM     27  H   UNL     1     175.343 181.327 174.811  1.00  0.00     0.211 HD
ENDBRANCH  18  26
ENDBRANCH  12  13
ENDBRANCH   7  12
BRANCH   4  28
ATOM     28  O   UNL     1     182.341 185.569 174.901  1.00  0.00    -0.393 OA
ATOM     29  H   UNL     1     181.374 185.794 174.967  1.00  0.00     0.210 HD
ENDBRANCH   4  28
BRANCH   8  30
ATOM     30  C   UNL     1     181.857 180.614 174.230  1.00  0.00     0.255 C 
BRANCH  30  31
ATOM     31  O   UNL     1     182.687 180.578 175.390  1.00  0.00    -0.461 OA
BRANCH  31  32
ATOM     32  C   UNL     1     182.508 179.687 176.459  1.00  0.00     0.338 C 
ATOM     33  O   UNL     1     183.209 178.637 176.538  1.00  0.00    -0.246 OA
BRANCH  32  34
ATOM     34  C   UNL     1     181.512 179.993 177.510  1.00  0.00     0.060 A 
ATOM     35  C   UNL     1     180.698 181.141 177.409  1.00  0.00     0.015 A 
ATOM     36  C   UNL     1     181.377 179.156 178.636  1.00  0.00     0.015 A 
ATOM     37  C   UNL     1     179.764 181.435 178.409  1.00  0.00     0.001 A 
ATOM     38  C   UNL     1     180.441 179.459 179.633  1.00  0.00     0.001 A 
ATOM     39  C   UNL     1     179.642 180.602 179.524  1.00  0.00     0.000 A 
ENDBRANCH  32  34
ENDBRANCH  31  32
ENDBRANCH  30  31
ENDBRANCH   8  30
TORSDOF 12
ENDMDL
MODEL 8
REMARK VINA RESULT:    -7.404      3.790      5.612
REMARK INTER + INTRA:         -12.307
REMARK INTER:                 -11.653
REMARK INTRA:                  -0.654
REMARK UNBOUND:                -0.792
REMARK SMILES C[C@@]12C[C@@H](O)[C@H]3C[C@]1(O[C@H]1O[C@@H](CO)[C@H](O)[C@@H](O)[C@@H]1O)[C@@]3(COC(=O)c1ccccc1)C(=O)O2
REMARK SMILES IDX 1 1 2 2 3 3 4 4 6 5 7 6 8 7 21 8 32 9 33 10 34 11 9 12 10 13
REMARK SMILES IDX 19 14 11 15 17 16 12 17 15 18 20 19 18 21 13 23 14 24 16 26
REMARK SMILES IDX 5 28 22 30 23 31 24 32 25 33 26 34 27 35 31 36 28 37 30 38
REMARK SMILES IDX 29 39
REMARK H PARENT 20 20 18 22 14 25 16 27 5 29
REMARK Flexibility Score: inf
ROOT
ATOM      1  C   UNL     1     185.903 179.272 172.028  1.00  0.00     0.060 C 
ATOM      2  C   UNL     1     184.645 179.694 172.795  1.00  0.00     0.142 C 
ATOM      3  C   UNL     1     184.290 181.202 172.519  1.00  0.00     0.083 C 
ATOM      4  C   UNL     1     182.848 181.551 173.046  1.00  0.00     0.123 C 
ATOM      5  C   UNL     1     181.936 180.277 173.058  1.00  0.00     0.045 C 
ATOM      6  C   UNL     1     182.235 179.498 171.769  1.00  0.00     0.049 C 
ATOM      7  C   UNL     1     183.357 178.777 172.569  1.00  0.00     0.131 C 
ATOM      8  C   UNL     1     182.593 179.120 173.868  1.00  0.00     0.140 C 
ATOM      9  C   UNL     1     183.689 179.431 174.837  1.00  0.00     0.319 C 
ATOM     10  O   UNL     1     183.554 179.565 176.083  1.00  0.00    -0.251 OA
ATOM     11  O   UNL     1     184.889 179.610 174.188  1.00  0.00    -0.456 OA
ENDROOT
BRANCH   7  12
ATOM     12  O   UNL     1     183.636 177.375 172.491  1.00  0.00    -0.338 OA
BRANCH  12  13
ATOM     13  C   UNL     1     183.118 176.618 171.400  1.00  0.00     0.282 C 
ATOM     14  C   UNL     1     182.208 175.431 171.839  1.00  0.00     0.202 C 
ATOM     15  O   UNL     1     184.127 176.248 170.475  1.00  0.00    -0.341 OA
ATOM     16  C   UNL     1     182.612 174.106 171.159  1.00  0.00     0.179 C 
ATOM     17  C   UNL     1     183.552 175.660 169.317  1.00  0.00     0.178 C 
ATOM     18  C   UNL     1     182.896 174.284 169.636  1.00  0.00     0.177 C 
BRANCH  14  19
ATOM     19  O   UNL     1     180.865 175.722 171.501  1.00  0.00    -0.385 OA
ATOM     20  H   UNL     1     180.618 175.151 170.715  1.00  0.00     0.211 HD
ENDBRANCH  14  19
BRANCH  16  21
ATOM     21  O   UNL     1     183.745 173.576 171.799  1.00  0.00    -0.387 OA
ATOM     22  H   UNL     1     183.688 172.586 171.718  1.00  0.00     0.211 HD
ENDBRANCH  16  21
BRANCH  17  23
ATOM     23  C   UNL     1     184.658 175.520 168.262  1.00  0.00     0.191 C 
BRANCH  23  24
ATOM     24  O   UNL     1     185.799 176.231 168.641  1.00  0.00    -0.394 OA
ATOM     25  H   UNL     1     185.489 177.118 168.950  1.00  0.00     0.210 HD
ENDBRANCH  23  24
ENDBRANCH  17  23
BRANCH  18  26
ATOM     26  O   UNL     1     181.702 174.165 168.891  1.00  0.00    -0.387 OA
ATOM     27  H   UNL     1     181.925 173.652 168.065  1.00  0.00     0.211 HD
ENDBRANCH  18  26
ENDBRANCH  12  13
ENDBRANCH   7  12
BRANCH   4  28
ATOM     28  O   UNL     1     182.280 182.533 172.220  1.00  0.00    -0.393 OA
ATOM     29  H   UNL     1     182.869 183.333 172.283  1.00  0.00     0.210 HD
ENDBRANCH   4  28
BRANCH   8  30
ATOM     30  C   UNL     1     181.597 178.042 174.366  1.00  0.00     0.255 C 
BRANCH  30  31
ATOM     31  O   UNL     1     181.232 178.294 175.721  1.00  0.00    -0.461 OA
BRANCH  31  32
ATOM     32  C   UNL     1     180.130 179.071 176.109  1.00  0.00     0.338 C 
ATOM     33  O   UNL     1     179.141 179.206 175.333  1.00  0.00    -0.246 OA
BRANCH  32  34
ATOM     34  C   UNL     1     180.117 179.713 177.443  1.00  0.00     0.060 A 
ATOM     35  C   UNL     1     179.370 180.890 177.661  1.00  0.00     0.015 A 
ATOM     36  C   UNL     1     180.867 179.172 178.507  1.00  0.00     0.015 A 
ATOM     37  C   UNL     1     179.368 181.503 178.920  1.00  0.00     0.001 A 
ATOM     38  C   UNL     1     180.861 179.793 179.762  1.00  0.00     0.001 A 
ATOM     39  C   UNL     1     180.119 180.962 179.966  1.00  0.00     0.000 A 
ENDBRANCH  32  34
ENDBRANCH  31  32
ENDBRANCH  30  31
ENDBRANCH   8  30
TORSDOF 12
ENDMDL
MODEL 9
REMARK VINA RESULT:    -7.310      4.279      6.384
REMARK INTER + INTRA:         -12.162
REMARK INTER:                 -10.857
REMARK INTRA:                  -1.304
REMARK UNBOUND:                -0.792
REMARK SMILES C[C@@]12C[C@@H](O)[C@H]3C[C@]1(O[C@H]1O[C@@H](CO)[C@H](O)[C@@H](O)[C@@H]1O)[C@@]3(COC(=O)c1ccccc1)C(=O)O2
REMARK SMILES IDX 1 1 2 2 3 3 4 4 6 5 7 6 8 7 21 8 32 9 33 10 34 11 9 12 10 13
REMARK SMILES IDX 19 14 11 15 17 16 12 17 15 18 20 19 18 21 13 23 14 24 16 26
REMARK SMILES IDX 5 28 22 30 23 31 24 32 25 33 26 34 27 35 31 36 28 37 30 38
REMARK SMILES IDX 29 39
REMARK H PARENT 20 20 18 22 14 25 16 27 5 29
REMARK Flexibility Score: inf
ROOT
ATOM      1  C   UNL     1     182.231 182.187 170.276  1.00  0.00     0.060 C 
ATOM      2  C   UNL     1     182.655 182.667 171.668  1.00  0.00     0.142 C 
ATOM      3  C   UNL     1     183.530 183.971 171.577  1.00  0.00     0.083 C 
ATOM      4  C   UNL     1     183.707 184.638 172.993  1.00  0.00     0.123 C 
ATOM      5  C   UNL     1     182.499 184.286 173.927  1.00  0.00     0.045 C 
ATOM      6  C   UNL     1     181.228 184.369 173.070  1.00  0.00     0.049 C 
ATOM      7  C   UNL     1     181.471 182.873 172.721  1.00  0.00     0.131 C 
ATOM      8  C   UNL     1     182.290 182.745 174.024  1.00  0.00     0.140 C 
ATOM      9  C   UNL     1     183.406 181.826 173.639  1.00  0.00     0.319 C 
ATOM     10  O   UNL     1     184.211 181.271 174.434  1.00  0.00    -0.251 OA
ATOM     11  O   UNL     1     183.488 181.693 172.272  1.00  0.00    -0.456 OA
ENDROOT
BRANCH   7  12
ATOM     12  O   UNL     1     180.445 181.877 172.656  1.00  0.00    -0.338 OA
BRANCH  12  13
ATOM     13  C   UNL     1     179.102 182.272 172.382  1.00  0.00     0.282 C 
ATOM     14  C   UNL     1     178.194 182.317 173.647  1.00  0.00     0.202 C 
ATOM     15  O   UNL     1     178.539 181.545 171.303  1.00  0.00    -0.341 OA
ATOM     16  C   UNL     1     176.868 181.556 173.437  1.00  0.00     0.179 C 
ATOM     17  C   UNL     1     177.278 182.088 170.940  1.00  0.00     0.178 C 
ATOM     18  C   UNL     1     176.215 181.871 172.057  1.00  0.00     0.177 C 
BRANCH  14  19
ATOM     19  O   UNL     1     177.896 183.665 173.961  1.00  0.00    -0.385 OA
ATOM     20  H   UNL     1     177.926 184.190 173.108  1.00  0.00     0.211 HD
ENDBRANCH  14  19
BRANCH  16  21
ATOM     21  O   UNL     1     177.096 180.174 173.556  1.00  0.00    -0.387 OA
ATOM     22  H   UNL     1     176.306 179.787 174.020  1.00  0.00     0.211 HD
ENDBRANCH  16  21
BRANCH  17  23
ATOM     23  C   UNL     1     176.845 181.431 169.622  1.00  0.00     0.191 C 
BRANCH  23  24
ATOM     24  O   UNL     1     175.492 181.085 169.660  1.00  0.00    -0.394 OA
ATOM     25  H   UNL     1     175.196 180.999 168.721  1.00  0.00     0.210 HD
ENDBRANCH  23  24
ENDBRANCH  17  23
BRANCH  18  26
ATOM     26  O   UNL     1     175.402 183.022 172.143  1.00  0.00    -0.387 OA
ATOM     27  H   UNL     1     174.816 182.906 172.942  1.00  0.00     0.211 HD
ENDBRANCH  18  26
ENDBRANCH  12  13
ENDBRANCH   7  12
BRANCH   4  28
ATOM     28  O   UNL     1     183.798 186.029 172.840  1.00  0.00    -0.393 OA
ATOM     29  H   UNL     1     182.894 186.346 172.571  1.00  0.00     0.210 HD
ENDBRANCH   4  28
BRANCH   8  30
ATOM     30  C   UNL     1     181.496 182.284 175.273  1.00  0.00     0.255 C 
BRANCH  30  31
ATOM     31  O   UNL     1     181.261 180.879 175.218  1.00  0.00    -0.461 OA
BRANCH  31  32
ATOM     32  C   UNL     1     180.298 180.210 175.990  1.00  0.00     0.338 C 
ATOM     33  O   UNL     1     179.368 179.562 175.428  1.00  0.00    -0.246 OA
BRANCH  32  34
ATOM     34  C   UNL     1     180.388 180.245 177.467  1.00  0.00     0.060 A 
ATOM     35  C   UNL     1     181.196 179.315 178.155  1.00  0.00     0.015 A 
ATOM     36  C   UNL     1     179.654 181.193 178.209  1.00  0.00     0.015 A 
ATOM     37  C   UNL     1     181.272 179.341 179.552  1.00  0.00     0.001 A 
ATOM     38  C   UNL     1     179.734 181.211 179.606  1.00  0.00     0.001 A 
ATOM     39  C   UNL     1     180.535 180.281 180.278  1.00  0.00     0.000 A 
ENDBRANCH  32  34
ENDBRANCH  31  32
ENDBRANCH  30  31
ENDBRANCH   8  30
TORSDOF 12
ENDMDL
