MODEL 1
REMARK VINA RESULT:    -2.513      0.000      0.000
REMARK INTER + INTRA:          -3.273
REMARK INTER:                  -3.101
REMARK INTRA:                  -0.172
REMARK UNBOUND:                -0.172
REMARK SMILES CCCCCC(=O)[O-]
REMARK SMILES IDX 4 1 5 2 6 3 7 4 8 5 3 6 2 7 1 8
REMARK H PARENT
REMARK Flexibility Score: inf
ROOT
ATOM      1  C   UNL     1     168.241 171.125 154.125  1.00  0.00     0.006 C 
ENDROOT
BRANCH   1   2
ATOM      2  C   UNL     1     167.522 169.993 154.870  1.00  0.00     0.053 C 
BRANCH   2   3
ATOM      3  C   UNL     1     166.089 170.352 155.107  1.00  0.00     0.041 C 
ATOM      4  O   UNL     1     165.213 170.060 154.250  1.00  0.00    -0.550 OA
ATOM      5  O   UNL     1     165.713 170.964 156.295  1.00  0.00    -0.550 OA
ENDBRANCH   2   3
ENDBRANCH   1   2
BRANCH   1   6
ATOM      6  C   UNL     1     168.390 170.850 152.618  1.00  0.00     0.000 C 
BRANCH   6   7
ATOM      7  C   UNL     1     168.288 169.366 152.219  1.00  0.00    -0.003 C 
ATOM      8  C   UNL     1     169.304 168.962 151.152  1.00  0.00     0.004 C 
ENDBRANCH   6   7
ENDBRANCH   1   6
TORSDOF 4
ENDMDL
MODEL 2
REMARK VINA RESULT:    -2.484     18.447     19.210
REMARK INTER + INTRA:          -3.238
REMARK INTER:                  -3.074
REMARK INTRA:                  -0.164
REMARK UNBOUND:                -0.172
REMARK SMILES CCCCCC(=O)[O-]
REMARK SMILES IDX 4 1 5 2 6 3 7 4 8 5 3 6 2 7 1 8
REMARK H PARENT
REMARK Flexibility Score: inf
ROOT
ATOM      1  C   UNL     1     172.162 152.908 154.078  1.00  0.00     0.006 C 
ENDROOT
BRANCH   1   2
ATOM      2  C   UNL     1     173.037 152.738 152.830  1.00  0.00     0.053 C 
BRANCH   2   3
ATOM      3  C   UNL     1     172.278 152.030 151.752  1.00  0.00     0.041 C 
ATOM      4  O   UNL     1     172.748 151.963 150.586  1.00  0.00    -0.550 OA
ATOM      5  O   UNL     1     171.074 151.403 152.047  1.00  0.00    -0.550 OA
ENDBRANCH   2   3
ENDBRANCH   1   2
BRANCH   1   6
ATOM      6  C   UNL     1     172.875 152.477 155.372  1.00  0.00     0.000 C 
BRANCH   6   7
ATOM      7  C   UNL     1     172.029 151.601 156.315  1.00  0.00    -0.003 C 
ATOM      8  C   UNL     1     170.878 150.893 155.601  1.00  0.00     0.004 C 
ENDBRANCH   6   7
ENDBRANCH   1   6
TORSDOF 4
ENDMDL
MODEL 3
REMARK VINA RESULT:    -2.444     18.023     19.020
REMARK INTER + INTRA:          -3.188
REMARK INTER:                  -3.096
REMARK INTRA:                  -0.091
REMARK UNBOUND:                -0.172
REMARK SMILES CCCCCC(=O)[O-]
REMARK SMILES IDX 4 1 5 2 6 3 7 4 8 5 3 6 2 7 1 8
REMARK H PARENT
REMARK Flexibility Score: inf
ROOT
ATOM      1  C   UNL     1     171.634 152.701 153.715  1.00  0.00     0.006 C 
ENDROOT
BRANCH   1   2
ATOM      2  C   UNL     1     172.946 152.503 152.947  1.00  0.00     0.053 C 
BRANCH   2   3
ATOM      3  C   UNL     1     172.737 152.746 151.485  1.00  0.00     0.041 C 
ATOM      4  O   UNL     1     172.835 151.795 150.665  1.00  0.00    -0.550 OA
ATOM      5  O   UNL     1     172.387 154.011 151.034  1.00  0.00    -0.550 OA
ENDBRANCH   2   3
ENDBRANCH   1   2
BRANCH   1   6
ATOM      6  C   UNL     1     170.939 151.373 154.067  1.00  0.00     0.000 C 
BRANCH   6   7
ATOM      7  C   UNL     1     170.927 151.028 155.567  1.00  0.00    -0.003 C 
ATOM      8  C   UNL     1     172.004 151.766 156.360  1.00  0.00     0.004 C 
ENDBRANCH   6   7
ENDBRANCH   1   6
TORSDOF 4
ENDMDL
MODEL 4
REMARK VINA RESULT:    -2.320     18.660     19.427
REMARK INTER + INTRA:          -3.035
REMARK INTER:                  -2.759
REMARK INTRA:                  -0.276
REMARK UNBOUND:                -0.172
REMARK SMILES CCCCCC(=O)[O-]
REMARK SMILES IDX 4 1 5 2 6 3 7 4 8 5 3 6 2 7 1 8
REMARK H PARENT
REMARK Flexibility Score: inf
ROOT
ATOM      1  C   UNL     1     152.890 170.062 140.199  1.00  0.00     0.006 C 
ENDROOT
BRANCH   1   2
ATOM      2  C   UNL     1     153.284 170.274 138.731  1.00  0.00     0.053 C 
BRANCH   2   3
ATOM      3  C   UNL     1     154.750 170.040 138.546  1.00  0.00     0.041 C 
ATOM      4  O   UNL     1     155.247 168.909 138.791  1.00  0.00    -0.550 OA
ATOM      5  O   UNL     1     155.560 171.057 138.057  1.00  0.00    -0.550 OA
ENDBRANCH   2   3
ENDBRANCH   1   2
BRANCH   1   6
ATOM      6  C   UNL     1     153.531 171.092 141.146  1.00  0.00     0.000 C 
BRANCH   6   7
ATOM      7  C   UNL     1     154.415 170.488 142.253  1.00  0.00    -0.003 C 
ATOM      8  C   UNL     1     154.364 168.961 142.293  1.00  0.00     0.004 C 
ENDBRANCH   6   7
ENDBRANCH   1   6
TORSDOF 4
ENDMDL
MODEL 5
REMARK VINA RESULT:    -2.315     18.498     19.164
REMARK INTER + INTRA:          -3.029
REMARK INTER:                  -2.792
REMARK INTRA:                  -0.237
REMARK UNBOUND:                -0.172
REMARK SMILES CCCCCC(=O)[O-]
REMARK SMILES IDX 4 1 5 2 6 3 7 4 8 5 3 6 2 7 1 8
REMARK H PARENT
REMARK Flexibility Score: inf
ROOT
ATOM      1  C   UNL     1     153.608 170.000 138.735  1.00  0.00     0.006 C 
ENDROOT
BRANCH   1   2
ATOM      2  C   UNL     1     152.973 170.712 139.937  1.00  0.00     0.053 C 
BRANCH   2   3
ATOM      3  C   UNL     1     153.625 170.272 141.209  1.00  0.00     0.041 C 
ATOM      4  O   UNL     1     154.077 171.125 142.017  1.00  0.00    -0.550 OA
ATOM      5  O   UNL     1     153.689 168.921 141.526  1.00  0.00    -0.550 OA
ENDBRANCH   2   3
ENDBRANCH   1   2
BRANCH   1   6
ATOM      6  C   UNL     1     155.052 170.459 138.462  1.00  0.00     0.000 C 
BRANCH   6   7
ATOM      7  C   UNL     1     156.009 169.342 138.008  1.00  0.00    -0.003 C 
ATOM      8  C   UNL     1     155.948 168.102 138.899  1.00  0.00     0.004 C 
ENDBRANCH   6   7
ENDBRANCH   1   6
TORSDOF 4
ENDMDL
MODEL 6
REMARK VINA RESULT:    -2.300      2.998      4.477
REMARK INTER + INTRA:          -3.010
REMARK INTER:                  -2.914
REMARK INTRA:                  -0.095
REMARK UNBOUND:                -0.172
REMARK SMILES CCCCCC(=O)[O-]
REMARK SMILES IDX 4 1 5 2 6 3 7 4 8 5 3 6 2 7 1 8
REMARK H PARENT
REMARK Flexibility Score: inf
ROOT
ATOM      1  C   UNL     1     168.225 170.713 153.263  1.00  0.00     0.006 C 
ENDROOT
BRANCH   1   2
ATOM      2  C   UNL     1     167.879 169.378 152.592  1.00  0.00     0.053 C 
BRANCH   2   3
ATOM      3  C   UNL     1     168.519 169.290 151.242  1.00  0.00     0.041 C 
ATOM      4  O   UNL     1     169.690 168.843 151.125  1.00  0.00    -0.550 OA
ATOM      5  O   UNL     1     167.805 169.658 150.109  1.00  0.00    -0.550 OA
ENDBRANCH   2   3
ENDBRANCH   1   2
BRANCH   1   6
ATOM      6  C   UNL     1     167.875 170.739 154.762  1.00  0.00     0.000 C 
BRANCH   6   7
ATOM      7  C   UNL     1     166.414 171.109 155.078  1.00  0.00    -0.003 C 
ATOM      8  C   UNL     1     165.681 170.028 155.870  1.00  0.00     0.004 C 
ENDBRANCH   6   7
ENDBRANCH   1   6
TORSDOF 4
ENDMDL
MODEL 7
REMARK VINA RESULT:    -2.283     17.368     18.361
REMARK INTER + INTRA:          -2.989
REMARK INTER:                  -2.757
REMARK INTRA:                  -0.232
REMARK UNBOUND:                -0.172
REMARK SMILES CCCCCC(=O)[O-]
REMARK SMILES IDX 4 1 5 2 6 3 7 4 8 5 3 6 2 7 1 8
REMARK H PARENT
REMARK Flexibility Score: inf
ROOT
ATOM      1  C   UNL     1     173.096 152.572 155.554  1.00  0.00     0.006 C 
ENDROOT
BRANCH   1   2
ATOM      2  C   UNL     1     172.777 152.580 154.054  1.00  0.00     0.053 C 
BRANCH   2   3
ATOM      3  C   UNL     1     172.339 153.944 153.621  1.00  0.00     0.041 C 
ATOM      4  O   UNL     1     171.278 154.443 154.081  1.00  0.00    -0.550 OA
ATOM      5  O   UNL     1     173.125 154.682 152.746  1.00  0.00    -0.550 OA
ENDBRANCH   2   3
ENDBRANCH   1   2
BRANCH   1   6
ATOM      6  C   UNL     1     172.207 151.600 156.351  1.00  0.00     0.000 C 
BRANCH   6   7
ATOM      7  C   UNL     1     170.992 151.056 155.577  1.00  0.00    -0.003 C 
ATOM      8  C   UNL     1     169.686 151.760 155.941  1.00  0.00     0.004 C 
ENDBRANCH   6   7
ENDBRANCH   1   6
TORSDOF 4
ENDMDL
MODEL 8
REMARK VINA RESULT:    -2.257      4.138      5.571
REMARK INTER + INTRA:          -2.957
REMARK INTER:                  -2.846
REMARK INTRA:                  -0.110
REMARK UNBOUND:                -0.172
REMARK SMILES CCCCCC(=O)[O-]
REMARK SMILES IDX 4 1 5 2 6 3 7 4 8 5 3 6 2 7 1 8
REMARK H PARENT
REMARK Flexibility Score: inf
ROOT
ATOM      1  C   UNL     1     168.716 169.696 150.835  1.00  0.00     0.006 C 
ENDROOT
BRANCH   1   2
ATOM      2  C   UNL     1     169.800 170.780 150.780  1.00  0.00     0.053 C 
BRANCH   2   3
ATOM      3  C   UNL     1     170.986 170.294 150.009  1.00  0.00     0.041 C 
ATOM      4  O   UNL     1     171.696 171.107 149.361  1.00  0.00    -0.550 OA
ATOM      5  O   UNL     1     171.336 168.951 150.046  1.00  0.00    -0.550 OA
ENDBRANCH   2   3
ENDBRANCH   1   2
BRANCH   1   6
ATOM      6  C   UNL     1     168.210 169.426 152.264  1.00  0.00     0.000 C 
BRANCH   6   7
ATOM      7  C   UNL     1     168.169 170.664 153.178  1.00  0.00    -0.003 C 
ATOM      8  C   UNL     1     167.798 170.330 154.622  1.00  0.00     0.004 C 
ENDBRANCH   6   7
ENDBRANCH   1   6
TORSDOF 4
ENDMDL
