MODEL 1
REMARK VINA RESULT:    -3.500      0.000      0.000
REMARK INTER + INTRA:          -4.307
REMARK INTER:                  -4.216
REMARK INTRA:                  -0.091
REMARK UNBOUND:                -0.091
REMARK SMILES CCCCCO
REMARK SMILES IDX 4 1 3 2 2 3 1 4 5 5 6 6
REMARK H PARENT 6 7
REMARK Flexibility Score: inf
ROOT
ATOM      1  C   UNL     1      17.973  13.486  21.433  1.00  0.00     0.028 C 
ENDROOT
BRANCH   1   2
ATOM      2  C   UNL     1      17.942  13.203  22.944  1.00  0.00     0.002 C 
BRANCH   2   3
ATOM      3  C   UNL     1      19.176  12.422  23.422  1.00  0.00    -0.003 C 
ATOM      4  C   UNL     1      20.174  12.149  22.297  1.00  0.00     0.004 C 
ENDBRANCH   2   3
ENDBRANCH   1   2
BRANCH   1   5
ATOM      5  C   UNL     1      16.774  12.863  20.716  1.00  0.00     0.156 C 
BRANCH   5   6
ATOM      6  O   UNL     1      16.318  11.744  21.424  1.00  0.00    -0.396 OA
ATOM      7  H   UNL     1      15.612  12.076  22.039  1.00  0.00     0.210 HD
ENDBRANCH   5   6
ENDBRANCH   1   5
TORSDOF 4
ENDMDL
MODEL 2
REMARK VINA RESULT:    -3.497      1.590      2.066
REMARK INTER + INTRA:          -4.303
REMARK INTER:                  -4.294
REMARK INTRA:                  -0.009
REMARK UNBOUND:                -0.091
REMARK SMILES CCCCCO
REMARK SMILES IDX 4 1 3 2 2 3 1 4 5 5 6 6
REMARK H PARENT 6 7
REMARK Flexibility Score: inf
ROOT
ATOM      1  C   UNL     1      18.721  12.244  22.638  1.00  0.00     0.028 C 
ENDROOT
BRANCH   1   2
ATOM      2  C   UNL     1      18.676  13.250  23.799  1.00  0.00     0.002 C 
BRANCH   2   3
ATOM      3  C   UNL     1      19.907  13.149  24.714  1.00  0.00    -0.003 C 
ATOM      4  C   UNL     1      20.008  14.315  25.697  1.00  0.00     0.004 C 
ENDBRANCH   2   3
ENDBRANCH   1   2
BRANCH   1   5
ATOM      5  C   UNL     1      17.692  12.580  21.559  1.00  0.00     0.156 C 
BRANCH   5   6
ATOM      6  O   UNL     1      16.621  11.679  21.616  1.00  0.00    -0.396 OA
ATOM      7  H   UNL     1      16.510  11.325  20.695  1.00  0.00     0.210 HD
ENDBRANCH   5   6
ENDBRANCH   1   5
TORSDOF 4
ENDMDL
MODEL 3
REMARK VINA RESULT:    -3.425      8.090      8.513
REMARK INTER + INTRA:          -4.217
REMARK INTER:                  -4.179
REMARK INTRA:                  -0.038
REMARK UNBOUND:                -0.091
REMARK SMILES CCCCCO
REMARK SMILES IDX 4 1 3 2 2 3 1 4 5 5 6 6
REMARK H PARENT 6 7
REMARK Flexibility Score: inf
ROOT
ATOM      1  C   UNL     1      12.720  18.389  22.997  1.00  0.00     0.028 C 
ENDROOT
BRANCH   1   2
ATOM      2  C   UNL     1      13.215  18.309  24.451  1.00  0.00     0.002 C 
BRANCH   2   3
ATOM      3  C   UNL     1      12.133  17.798  25.415  1.00  0.00    -0.003 C 
ATOM      4  C   UNL     1      10.855  17.372  24.694  1.00  0.00     0.004 C 
ENDBRANCH   2   3
ENDBRANCH   1   2
BRANCH   1   5
ATOM      5  C   UNL     1      13.598  19.311  22.151  1.00  0.00     0.156 C 
BRANCH   5   6
ATOM      6  O   UNL     1      14.493  20.010  22.971  1.00  0.00    -0.396 OA
ATOM      7  H   UNL     1      14.888  20.723  22.403  1.00  0.00     0.210 HD
ENDBRANCH   5   6
ENDBRANCH   1   5
TORSDOF 4
ENDMDL
MODEL 4
REMARK VINA RESULT:    -3.221      9.263     10.159
REMARK INTER + INTRA:          -3.971
REMARK INTER:                  -3.876
REMARK INTRA:                  -0.095
REMARK UNBOUND:                -0.091
REMARK SMILES CCCCCO
REMARK SMILES IDX 4 1 3 2 2 3 1 4 5 5 6 6
REMARK H PARENT 6 7
REMARK Flexibility Score: inf
ROOT
ATOM      1  C   UNL     1      13.722  14.800  31.645  1.00  0.00     0.028 C 
ENDROOT
BRANCH   1   2
ATOM      2  C   UNL     1      12.895  13.839  30.775  1.00  0.00     0.002 C 
BRANCH   2   3
ATOM      3  C   UNL     1      13.708  13.248  29.613  1.00  0.00    -0.003 C 
ATOM      4  C   UNL     1      13.749  14.169  28.394  1.00  0.00     0.004 C 
ENDBRANCH   2   3
ENDBRANCH   1   2
BRANCH   1   5
ATOM      5  C   UNL     1      13.275  16.251  31.466  1.00  0.00     0.156 C 
BRANCH   5   6
ATOM      6  O   UNL     1      14.201  16.947  30.679  1.00  0.00    -0.396 OA
ATOM      7  H   UNL     1      14.372  17.805  31.149  1.00  0.00     0.210 HD
ENDBRANCH   5   6
ENDBRANCH   1   5
TORSDOF 4
ENDMDL
MODEL 5
REMARK VINA RESULT:    -3.167      9.794     10.651
REMARK INTER + INTRA:          -3.906
REMARK INTER:                  -3.805
REMARK INTRA:                  -0.101
REMARK UNBOUND:                -0.091
REMARK SMILES CCCCCO
REMARK SMILES IDX 4 1 3 2 2 3 1 4 5 5 6 6
REMARK H PARENT 6 7
REMARK Flexibility Score: inf
ROOT
ATOM      1  C   UNL     1      12.922  15.594  32.191  1.00  0.00     0.028 C 
ENDROOT
BRANCH   1   2
ATOM      2  C   UNL     1      13.638  14.329  31.688  1.00  0.00     0.002 C 
BRANCH   2   3
ATOM      3  C   UNL     1      12.895  13.654  30.525  1.00  0.00    -0.003 C 
ATOM      4  C   UNL     1      13.788  13.434  29.304  1.00  0.00     0.004 C 
ENDBRANCH   2   3
ENDBRANCH   1   2
BRANCH   1   5
ATOM      5  C   UNL     1      12.985  16.724  31.164  1.00  0.00     0.156 C 
BRANCH   5   6
ATOM      6  O   UNL     1      14.305  16.912  30.734  1.00  0.00    -0.396 OA
ATOM      7  H   UNL     1      14.717  16.009  30.706  1.00  0.00     0.210 HD
ENDBRANCH   5   6
ENDBRANCH   1   5
TORSDOF 4
ENDMDL
MODEL 6
REMARK VINA RESULT:    -3.145      7.969      8.700
REMARK INTER + INTRA:          -3.880
REMARK INTER:                  -3.831
REMARK INTRA:                  -0.049
REMARK UNBOUND:                -0.091
REMARK SMILES CCCCCO
REMARK SMILES IDX 4 1 3 2 2 3 1 4 5 5 6 6
REMARK H PARENT 6 7
REMARK Flexibility Score: inf
ROOT
ATOM      1  C   UNL     1      13.830  14.691  28.477  1.00  0.00     0.028 C 
ENDROOT
BRANCH   1   2
ATOM      2  C   UNL     1      13.990  13.264  29.029  1.00  0.00     0.002 C 
BRANCH   2   3
ATOM      3  C   UNL     1      13.217  13.049  30.339  1.00  0.00    -0.003 C 
ATOM      4  C   UNL     1      13.622  14.038  31.432  1.00  0.00     0.004 C 
ENDBRANCH   2   3
ENDBRANCH   1   2
BRANCH   1   5
ATOM      5  C   UNL     1      12.477  14.883  27.793  1.00  0.00     0.156 C 
BRANCH   5   6
ATOM      6  O   UNL     1      12.531  14.411  26.476  1.00  0.00    -0.396 OA
ATOM      7  H   UNL     1      11.806  13.737  26.394  1.00  0.00     0.210 HD
ENDBRANCH   5   6
ENDBRANCH   1   5
TORSDOF 4
ENDMDL
MODEL 7
REMARK VINA RESULT:    -3.145      1.555      3.070
REMARK INTER + INTRA:          -3.879
REMARK INTER:                  -3.799
REMARK INTRA:                  -0.080
REMARK UNBOUND:                -0.091
REMARK SMILES CCCCCO
REMARK SMILES IDX 4 1 3 2 2 3 1 4 5 5 6 6
REMARK H PARENT 6 7
REMARK Flexibility Score: inf
ROOT
ATOM      1  C   UNL     1      17.676  13.164  22.891  1.00  0.00     0.028 C 
ENDROOT
BRANCH   1   2
ATOM      2  C   UNL     1      17.005  12.471  21.694  1.00  0.00     0.002 C 
BRANCH   2   3
ATOM      3  C   UNL     1      16.707  13.443  20.542  1.00  0.00    -0.003 C 
ATOM      4  C   UNL     1      17.832  14.453  20.316  1.00  0.00     0.004 C 
ENDBRANCH   2   3
ENDBRANCH   1   2
BRANCH   1   5
ATOM      5  C   UNL     1      18.983  12.474  23.284  1.00  0.00     0.156 C 
BRANCH   5   6
ATOM      6  O   UNL     1      19.157  11.306  22.531  1.00  0.00    -0.396 OA
ATOM      7  H   UNL     1      19.591  11.587  21.683  1.00  0.00     0.210 HD
ENDBRANCH   5   6
ENDBRANCH   1   5
TORSDOF 4
ENDMDL
MODEL 8
REMARK VINA RESULT:    -3.107      8.910      9.771
REMARK INTER + INTRA:          -3.833
REMARK INTER:                  -3.743
REMARK INTRA:                  -0.090
REMARK UNBOUND:                -0.091
REMARK SMILES CCCCCO
REMARK SMILES IDX 4 1 3 2 2 3 1 4 5 5 6 6
REMARK H PARENT 6 7
REMARK Flexibility Score: inf
ROOT
ATOM      1  C   UNL     1      12.426  15.958  29.533  1.00  0.00     0.028 C 
ENDROOT
BRANCH   1   2
ATOM      2  C   UNL     1      13.649  15.490  28.726  1.00  0.00     0.002 C 
BRANCH   2   3
ATOM      3  C   UNL     1      13.744  13.959  28.636  1.00  0.00    -0.003 C 
ATOM      4  C   UNL     1      13.549  13.275  29.989  1.00  0.00     0.004 C 
ENDBRANCH   2   3
ENDBRANCH   1   2
BRANCH   1   5
ATOM      5  C   UNL     1      12.830  16.864  30.696  1.00  0.00     0.156 C 
BRANCH   5   6
ATOM      6  O   UNL     1      14.220  17.038  30.712  1.00  0.00    -0.396 OA
ATOM      7  H   UNL     1      14.603  16.240  30.262  1.00  0.00     0.210 HD
ENDBRANCH   5   6
ENDBRANCH   1   5
TORSDOF 4
ENDMDL
MODEL 9
REMARK VINA RESULT:    -3.073      8.078      8.194
REMARK INTER + INTRA:          -3.792
REMARK INTER:                  -3.741
REMARK INTRA:                  -0.051
REMARK UNBOUND:                -0.091
REMARK SMILES CCCCCO
REMARK SMILES IDX 4 1 3 2 2 3 1 4 5 5 6 6
REMARK H PARENT 6 7
REMARK Flexibility Score: inf
ROOT
ATOM      1  C   UNL     1      12.710  18.173  24.400  1.00  0.00     0.028 C 
ENDROOT
BRANCH   1   2
ATOM      2  C   UNL     1      12.405  17.421  25.706  1.00  0.00     0.002 C 
BRANCH   2   3
ATOM      3  C   UNL     1      12.017  15.954  25.466  1.00  0.00    -0.003 C 
ATOM      4  C   UNL     1      12.311  15.061  26.671  1.00  0.00     0.004 C 
ENDBRANCH   2   3
ENDBRANCH   1   2
BRANCH   1   5
ATOM      5  C   UNL     1      11.887  17.631  23.231  1.00  0.00     0.156 C 
BRANCH   5   6
ATOM      6  O   UNL     1      10.662  18.306  23.150  1.00  0.00    -0.396 OA
ATOM      7  H   UNL     1       9.969  17.606  23.023  1.00  0.00     0.210 HD
ENDBRANCH   5   6
ENDBRANCH   1   5
TORSDOF 4
ENDMDL
