MODEL 1
REMARK VINA RESULT:     1.807      0.000      0.000
REMARK INTER + INTRA:           3.267
REMARK INTER:                   3.498
REMARK INTRA:                  -0.231
REMARK UNBOUND:                -0.231
REMARK SMILES CCCCCCCCCCCCCCCCCC(=O)[O-]
REMARK SMILES IDX 10 1 11 2 12 3 13 4 14 5 15 6 16 7 17 8 18 9 19 10 20 11
REMARK SMILES IDX 9 12 8 13 7 14 6 15 5 16 4 17 3 18 2 19 1 20
REMARK H PARENT
REMARK Flexibility Score: inf
ROOT
ATOM      1  C   UNL     1       2.633  43.260  11.469  1.00  0.00     0.000 C 
ENDROOT
BRANCH   1   2
ATOM      2  C   UNL     1       3.204  43.634  10.091  1.00  0.00     0.000 C 
BRANCH   2   3
ATOM      3  C   UNL     1       4.742  43.668  10.079  1.00  0.00     0.000 C 
BRANCH   3   4
ATOM      4  C   UNL     1       5.303  45.098  10.054  1.00  0.00     0.000 C 
BRANCH   4   5
ATOM      5  C   UNL     1       6.754  45.125  10.554  1.00  0.00     0.000 C 
BRANCH   5   6
ATOM      6  C   UNL     1       7.554  43.883  10.125  1.00  0.00     0.000 C 
BRANCH   6   7
ATOM      7  C   UNL     1       7.158  42.623  10.909  1.00  0.00     0.006 C 
BRANCH   7   8
ATOM      8  C   UNL     1       7.837  42.595  12.281  1.00  0.00     0.053 C 
BRANCH   8   9
ATOM      9  C   UNL     1       6.813  42.569  13.371  1.00  0.00     0.041 C 
ATOM     10  O   UNL     1       5.920  43.454  13.422  1.00  0.00    -0.550 OA
ATOM     11  O   UNL     1       6.817  41.540  14.305  1.00  0.00    -0.550 OA
ENDBRANCH   8   9
ENDBRANCH   7   8
ENDBRANCH   6   7
ENDBRANCH   5   6
ENDBRANCH   4   5
ENDBRANCH   3   4
ENDBRANCH   2   3
ENDBRANCH   1   2
BRANCH   1  12
ATOM     12  C   UNL     1       1.891  44.427  12.148  1.00  0.00     0.000 C 
BRANCH  12  13
ATOM     13  C   UNL     1       0.892  44.020  13.245  1.00  0.00    -0.000 C 
BRANCH  13  14
ATOM     14  C   UNL     1      -0.131  45.125  13.565  1.00  0.00    -0.000 C 
BRANCH  14  15
ATOM     15  C   UNL     1      -0.878  44.871  14.885  1.00  0.00    -0.000 C 
BRANCH  15  16
ATOM     16  C   UNL     1      -2.396  45.069  14.752  1.00  0.00    -0.000 C 
BRANCH  16  17
ATOM     17  C   UNL     1      -3.145  43.755  15.016  1.00  0.00    -0.000 C 
BRANCH  17  18
ATOM     18  C   UNL     1      -2.249  42.517  14.850  1.00  0.00    -0.000 C 
BRANCH  18  19
ATOM     19  C   UNL     1      -3.002  41.318  14.254  1.00  0.00    -0.003 C 
ATOM     20  C   UNL     1      -4.392  41.182  14.871  1.00  0.00     0.004 C 
ENDBRANCH  18  19
ENDBRANCH  17  18
ENDBRANCH  16  17
ENDBRANCH  15  16
ENDBRANCH  14  15
ENDBRANCH  13  14
ENDBRANCH  12  13
ENDBRANCH   1  12
TORSDOF 16
ENDMDL
MODEL 2
REMARK VINA RESULT:     3.197      1.236      2.125
REMARK INTER + INTRA:           5.956
REMARK INTER:                   6.153
REMARK INTRA:                  -0.197
REMARK UNBOUND:                -0.231
REMARK SMILES CCCCCCCCCCCCCCCCCC(=O)[O-]
REMARK SMILES IDX 10 1 11 2 12 3 13 4 14 5 15 6 16 7 17 8 18 9 19 10 20 11
REMARK SMILES IDX 9 12 8 13 7 14 6 15 5 16 4 17 3 18 2 19 1 20
REMARK H PARENT
REMARK Flexibility Score: inf
ROOT
ATOM      1  C   UNL     1       1.324  44.016  12.339  1.00  0.00     0.000 C 
ENDROOT
BRANCH   1   2
ATOM      2  C   UNL     1       1.384  43.208  11.031  1.00  0.00     0.000 C 
BRANCH   2   3
ATOM      3  C   UNL     1       2.749  43.317  10.332  1.00  0.00     0.000 C 
BRANCH   3   4
ATOM      4  C   UNL     1       3.425  44.677  10.560  1.00  0.00     0.000 C 
BRANCH   4   5
ATOM      5  C   UNL     1       4.542  44.565  11.609  1.00  0.00     0.000 C 
BRANCH   5   6
ATOM      6  C   UNL     1       5.916  44.986  11.061  1.00  0.00     0.000 C 
BRANCH   6   7
ATOM      7  C   UNL     1       6.485  43.977  10.052  1.00  0.00     0.006 C 
BRANCH   7   8
ATOM      8  C   UNL     1       6.772  42.631  10.725  1.00  0.00     0.053 C 
BRANCH   8   9
ATOM      9  C   UNL     1       7.521  42.835  12.003  1.00  0.00     0.041 C 
ATOM     10  O   UNL     1       8.723  43.207  11.981  1.00  0.00    -0.550 OA
ATOM     11  O   UNL     1       6.878  42.659  13.223  1.00  0.00    -0.550 OA
ENDBRANCH   8   9
ENDBRANCH   7   8
ENDBRANCH   6   7
ENDBRANCH   5   6
ENDBRANCH   4   5
ENDBRANCH   3   4
ENDBRANCH   2   3
ENDBRANCH   1   2
BRANCH   1  12
ATOM     12  C   UNL     1      -0.071  43.999  12.992  1.00  0.00     0.000 C 
BRANCH  12  13
ATOM     13  C   UNL     1      -0.158  44.673  14.372  1.00  0.00    -0.000 C 
BRANCH  13  14
ATOM     14  C   UNL     1      -1.584  45.125  14.731  1.00  0.00    -0.000 C 
BRANCH  14  15
ATOM     15  C   UNL     1      -2.610  43.986  14.610  1.00  0.00    -0.000 C 
BRANCH  15  16
ATOM     16  C   UNL     1      -1.997  42.606  14.892  1.00  0.00    -0.000 C 
BRANCH  16  17
ATOM     17  C   UNL     1      -2.872  41.487  14.308  1.00  0.00    -0.000 C 
BRANCH  17  18
ATOM     18  C   UNL     1      -4.345  41.604  14.731  1.00  0.00    -0.000 C 
BRANCH  18  19
ATOM     19  C   UNL     1      -5.142  40.321  14.454  1.00  0.00    -0.003 C 
ATOM     20  C   UNL     1      -5.527  39.621  15.756  1.00  0.00     0.004 C 
ENDBRANCH  18  19
ENDBRANCH  17  18
ENDBRANCH  16  17
ENDBRANCH  15  16
ENDBRANCH  14  15
ENDBRANCH  13  14
ENDBRANCH  12  13
ENDBRANCH   1  12
TORSDOF 16
ENDMDL
MODEL 3
REMARK VINA RESULT:     3.501      3.455      8.504
REMARK INTER + INTRA:           6.544
REMARK INTER:                   7.711
REMARK INTRA:                  -1.167
REMARK UNBOUND:                -0.231
REMARK SMILES CCCCCCCCCCCCCCCCCC(=O)[O-]
REMARK SMILES IDX 10 1 11 2 12 3 13 4 14 5 15 6 16 7 17 8 18 9 19 10 20 11
REMARK SMILES IDX 9 12 8 13 7 14 6 15 5 16 4 17 3 18 2 19 1 20
REMARK H PARENT
REMARK Flexibility Score: inf
ROOT
ATOM      1  C   UNL     1       3.060  43.266  11.535  1.00  0.00     0.000 C 
ENDROOT
BRANCH   1   2
ATOM      2  C   UNL     1       1.547  43.291  11.261  1.00  0.00     0.000 C 
BRANCH   2   3
ATOM      3  C   UNL     1       1.173  42.583   9.948  1.00  0.00     0.000 C 
BRANCH   3   4
ATOM      4  C   UNL     1      -0.245  41.991   9.976  1.00  0.00     0.000 C 
BRANCH   4   5
ATOM      5  C   UNL     1      -0.552  41.371  11.347  1.00  0.00     0.000 C 
BRANCH   5   6
ATOM      6  C   UNL     1      -1.473  42.254  12.206  1.00  0.00     0.000 C 
BRANCH   6   7
ATOM      7  C   UNL     1      -1.302  42.000  13.711  1.00  0.00     0.006 C 
BRANCH   7   8
ATOM      8  C   UNL     1      -1.421  43.304  14.505  1.00  0.00     0.053 C 
BRANCH   8   9
ATOM      9  C   UNL     1      -2.831  43.516  14.955  1.00  0.00     0.041 C 
ATOM     10  O   UNL     1      -3.649  42.559  14.946  1.00  0.00    -0.550 OA
ATOM     11  O   UNL     1      -3.232  44.760  15.428  1.00  0.00    -0.550 OA
ENDBRANCH   8   9
ENDBRANCH   7   8
ENDBRANCH   6   7
ENDBRANCH   5   6
ENDBRANCH   4   5
ENDBRANCH   3   4
ENDBRANCH   2   3
ENDBRANCH   1   2
BRANCH   1  12
ATOM     12  C   UNL     1       3.904  43.432  10.258  1.00  0.00     0.000 C 
BRANCH  12  13
ATOM     13  C   UNL     1       4.277  44.882   9.901  1.00  0.00    -0.000 C 
BRANCH  13  14
ATOM     14  C   UNL     1       5.797  45.123   9.876  1.00  0.00    -0.000 C 
BRANCH  14  15
ATOM     15  C   UNL     1       6.601  43.830  10.092  1.00  0.00    -0.000 C 
BRANCH  15  16
ATOM     16  C   UNL     1       8.033  44.100  10.580  1.00  0.00    -0.000 C 
BRANCH  16  17
ATOM     17  C   UNL     1       8.308  43.372  11.904  1.00  0.00    -0.000 C 
BRANCH  17  18
ATOM     18  C   UNL     1       7.532  42.051  12.026  1.00  0.00    -0.000 C 
BRANCH  18  19
ATOM     19  C   UNL     1       7.194  41.697  13.482  1.00  0.00    -0.003 C 
ATOM     20  C   UNL     1       6.368  42.801  14.138  1.00  0.00     0.004 C 
ENDBRANCH  18  19
ENDBRANCH  17  18
ENDBRANCH  16  17
ENDBRANCH  15  16
ENDBRANCH  14  15
ENDBRANCH  13  14
ENDBRANCH  12  13
ENDBRANCH   1  12
TORSDOF 16
ENDMDL
MODEL 4
REMARK VINA RESULT:     3.695      2.839      8.422
REMARK INTER + INTRA:           6.921
REMARK INTER:                   8.005
REMARK INTRA:                  -1.084
REMARK UNBOUND:                -0.231
REMARK SMILES CCCCCCCCCCCCCCCCCC(=O)[O-]
REMARK SMILES IDX 10 1 11 2 12 3 13 4 14 5 15 6 16 7 17 8 18 9 19 10 20 11
REMARK SMILES IDX 9 12 8 13 7 14 6 15 5 16 4 17 3 18 2 19 1 20
REMARK H PARENT
REMARK Flexibility Score: inf
ROOT
ATOM      1  C   UNL     1       1.768  42.346  10.936  1.00  0.00     0.000 C 
ENDROOT
BRANCH   1   2
ATOM      2  C   UNL     1       0.659  43.405  11.060  1.00  0.00     0.000 C 
BRANCH   2   3
ATOM      3  C   UNL     1       0.009  43.418  12.454  1.00  0.00     0.000 C 
BRANCH   3   4
ATOM      4  C   UNL     1       0.722  44.366  13.431  1.00  0.00     0.000 C 
BRANCH   4   5
ATOM      5  C   UNL     1      -0.295  45.125  14.296  1.00  0.00     0.000 C 
BRANCH   5   6
ATOM      6  C   UNL     1      -1.752  44.796  13.928  1.00  0.00     0.000 C 
BRANCH   6   7
ATOM      7  C   UNL     1      -2.668  44.709  15.158  1.00  0.00     0.006 C 
BRANCH   7   8
ATOM      8  C   UNL     1      -3.446  43.390  15.170  1.00  0.00     0.053 C 
BRANCH   8   9
ATOM      9  C   UNL     1      -2.586  42.271  14.674  1.00  0.00     0.041 C 
ATOM     10  O   UNL     1      -2.908  41.637  13.636  1.00  0.00    -0.550 OA
ATOM     11  O   UNL     1      -1.403  41.958  15.332  1.00  0.00    -0.550 OA
ENDBRANCH   8   9
ENDBRANCH   7   8
ENDBRANCH   6   7
ENDBRANCH   5   6
ENDBRANCH   4   5
ENDBRANCH   3   4
ENDBRANCH   2   3
ENDBRANCH   1   2
BRANCH   1  12
ATOM     12  C   UNL     1       2.904  42.775   9.988  1.00  0.00     0.000 C 
BRANCH  12  13
ATOM     13  C   UNL     1       3.273  44.268  10.039  1.00  0.00    -0.000 C 
BRANCH  13  14
ATOM     14  C   UNL     1       3.690  44.736  11.445  1.00  0.00    -0.000 C 
BRANCH  14  15
ATOM     15  C   UNL     1       5.215  44.736  11.637  1.00  0.00    -0.000 C 
BRANCH  15  16
ATOM     16  C   UNL     1       5.975  45.008  10.329  1.00  0.00    -0.000 C 
BRANCH  16  17
ATOM     17  C   UNL     1       6.811  43.788   9.917  1.00  0.00    -0.000 C 
BRANCH  17  18
ATOM     18  C   UNL     1       7.910  43.450  10.938  1.00  0.00    -0.000 C 
BRANCH  18  19
ATOM     19  C   UNL     1       7.673  42.103  11.637  1.00  0.00    -0.003 C 
ATOM     20  C   UNL     1       7.262  42.305  13.093  1.00  0.00     0.004 C 
ENDBRANCH  18  19
ENDBRANCH  17  18
ENDBRANCH  16  17
ENDBRANCH  15  16
ENDBRANCH  14  15
ENDBRANCH  13  14
ENDBRANCH  12  13
ENDBRANCH   1  12
TORSDOF 16
ENDMDL
MODEL 5
REMARK VINA RESULT:     3.888      3.795      9.055
REMARK INTER + INTRA:           7.294
REMARK INTER:                   7.438
REMARK INTRA:                  -0.144
REMARK UNBOUND:                -0.231
REMARK SMILES CCCCCCCCCCCCCCCCCC(=O)[O-]
REMARK SMILES IDX 10 1 11 2 12 3 13 4 14 5 15 6 16 7 17 8 18 9 19 10 20 11
REMARK SMILES IDX 9 12 8 13 7 14 6 15 5 16 4 17 3 18 2 19 1 20
REMARK H PARENT
REMARK Flexibility Score: inf
ROOT
ATOM      1  C   UNL     1       1.765  43.234  10.943  1.00  0.00     0.000 C 
ENDROOT
BRANCH   1   2
ATOM      2  C   UNL     1       1.674  44.053  12.242  1.00  0.00     0.000 C 
BRANCH   2   3
ATOM      3  C   UNL     1       0.298  43.937  12.917  1.00  0.00     0.000 C 
BRANCH   3   4
ATOM      4  C   UNL     1       0.039  45.060  13.933  1.00  0.00     0.000 C 
BRANCH   4   5
ATOM      5  C   UNL     1      -1.382  44.962  14.507  1.00  0.00     0.000 C 
BRANCH   5   6
ATOM      6  C   UNL     1      -1.731  43.545  14.993  1.00  0.00     0.000 C 
BRANCH   6   7
ATOM      7  C   UNL     1      -3.160  43.126  14.617  1.00  0.00     0.006 C 
BRANCH   7   8
ATOM      8  C   UNL     1      -3.263  41.606  14.461  1.00  0.00     0.053 C 
BRANCH   8   9
ATOM      9  C   UNL     1      -4.642  41.138  14.802  1.00  0.00     0.041 C 
ATOM     10  O   UNL     1      -5.511  41.960  15.192  1.00  0.00    -0.550 OA
ATOM     11  O   UNL     1      -4.980  39.799  14.647  1.00  0.00    -0.550 OA
ENDBRANCH   8   9
ENDBRANCH   7   8
ENDBRANCH   6   7
ENDBRANCH   5   6
ENDBRANCH   4   5
ENDBRANCH   3   4
ENDBRANCH   2   3
ENDBRANCH   1   2
BRANCH   1  12
ATOM     12  C   UNL     1       2.665  43.892   9.880  1.00  0.00     0.000 C 
BRANCH  12  13
ATOM     13  C   UNL     1       3.779  44.798  10.432  1.00  0.00    -0.000 C 
BRANCH  13  14
ATOM     14  C   UNL     1       5.164  44.127  10.411  1.00  0.00    -0.000 C 
BRANCH  14  15
ATOM     15  C   UNL     1       6.100  44.673  11.502  1.00  0.00    -0.000 C 
BRANCH  15  16
ATOM     16  C   UNL     1       7.580  44.625  11.089  1.00  0.00    -0.000 C 
BRANCH  16  17
ATOM     17  C   UNL     1       8.031  43.180  10.832  1.00  0.00    -0.000 C 
BRANCH  17  18
ATOM     18  C   UNL     1       7.307  42.164  11.731  1.00  0.00    -0.000 C 
BRANCH  18  19
ATOM     19  C   UNL     1       7.512  42.449  13.227  1.00  0.00    -0.003 C 
ATOM     20  C   UNL     1       6.176  42.489  13.965  1.00  0.00     0.004 C 
ENDBRANCH  18  19
ENDBRANCH  17  18
ENDBRANCH  16  17
ENDBRANCH  15  16
ENDBRANCH  14  15
ENDBRANCH  13  14
ENDBRANCH  12  13
ENDBRANCH   1  12
TORSDOF 16
ENDMDL
