MODEL 1
REMARK VINA RESULT:    -2.453      0.000      0.000
REMARK INTER + INTRA:          -2.453
REMARK INTER:                  -2.453
REMARK INTRA:                   0.000
REMARK UNBOUND:                 0.000
REMARK SMILES CC(=O)[O-]
REMARK SMILES IDX 1 1 2 2 3 3 4 4
REMARK H PARENT
REMARK Flexibility Score: inf
ROOT
ATOM      1  C   UNL     1       3.685   5.638 -29.507  1.00  0.00     0.063 C 
ATOM      2  C   UNL     1       2.470   4.855 -29.870  1.00  0.00     0.038 C 
ATOM      3  O   UNL     1       2.580   3.661 -30.256  1.00  0.00    -0.550 OA
ATOM      4  O   UNL     1       1.210   5.422 -29.732  1.00  0.00    -0.550 OA
ENDROOT
TORSDOF 0
ENDMDL
MODEL 2
REMARK VINA RESULT:    -2.426      0.202      1.628
REMARK INTER + INTRA:          -2.426
REMARK INTER:                  -2.426
REMARK INTRA:                   0.000
REMARK UNBOUND:                 0.000
REMARK SMILES CC(=O)[O-]
REMARK SMILES IDX 1 1 2 2 3 3 4 4
REMARK H PARENT
REMARK Flexibility Score: inf
ROOT
ATOM      1  C   UNL     1       3.721   5.838 -29.732  1.00  0.00     0.063 C 
ATOM      2  C   UNL     1       2.515   4.970 -29.858  1.00  0.00     0.038 C 
ATOM      3  O   UNL     1       1.375   5.430 -29.589  1.00  0.00    -0.550 OA
ATOM      4  O   UNL     1       2.641   3.668 -30.324  1.00  0.00    -0.550 OA
ENDROOT
TORSDOF 0
ENDMDL
MODEL 3
REMARK VINA RESULT:    -2.369      1.940      2.132
REMARK INTER + INTRA:          -2.369
REMARK INTER:                  -2.369
REMARK INTRA:                   0.000
REMARK UNBOUND:                 0.000
REMARK SMILES CC(=O)[O-]
REMARK SMILES IDX 1 1 2 2 3 3 4 4
REMARK H PARENT
REMARK Flexibility Score: inf
ROOT
ATOM      1  C   UNL     1       2.296   5.145 -29.523  1.00  0.00     0.063 C 
ATOM      2  C   UNL     1       3.729   5.082 -29.927  1.00  0.00     0.038 C 
ATOM      3  O   UNL     1       4.231   3.990 -30.301  1.00  0.00    -0.550 OA
ATOM      4  O   UNL     1       4.499   6.237 -29.943  1.00  0.00    -0.550 OA
ENDROOT
TORSDOF 0
ENDMDL
MODEL 4
REMARK VINA RESULT:    -2.320      1.445      2.031
REMARK INTER + INTRA:          -2.320
REMARK INTER:                  -2.320
REMARK INTRA:                   0.000
REMARK UNBOUND:                 0.000
REMARK SMILES CC(=O)[O-]
REMARK SMILES IDX 1 1 2 2 3 3 4 4
REMARK H PARENT
REMARK Flexibility Score: inf
ROOT
ATOM      1  C   UNL     1       2.941   3.886 -30.481  1.00  0.00     0.063 C 
ATOM      2  C   UNL     1       2.618   5.271 -30.034  1.00  0.00     0.038 C 
ATOM      3  O   UNL     1       1.468   5.541 -29.597  1.00  0.00    -0.550 OA
ATOM      4  O   UNL     1       3.599   6.253 -30.048  1.00  0.00    -0.550 OA
ENDROOT
TORSDOF 0
ENDMDL
MODEL 5
REMARK VINA RESULT:    -2.300      1.334      1.712
REMARK INTER + INTRA:          -2.300
REMARK INTER:                  -2.300
REMARK INTRA:                   0.000
REMARK UNBOUND:                 0.000
REMARK SMILES CC(=O)[O-]
REMARK SMILES IDX 1 1 2 2 3 3 4 4
REMARK H PARENT
REMARK Flexibility Score: inf
ROOT
ATOM      1  C   UNL     1       3.888   5.819 -29.681  1.00  0.00     0.063 C 
ATOM      2  C   UNL     1       3.758   4.443 -30.241  1.00  0.00     0.038 C 
ATOM      3  O   UNL     1       4.770   3.849 -30.696  1.00  0.00    -0.550 OA
ATOM      4  O   UNL     1       2.531   3.793 -30.212  1.00  0.00    -0.550 OA
ENDROOT
TORSDOF 0
ENDMDL
MODEL 6
REMARK VINA RESULT:    -2.299      1.433      1.739
REMARK INTER + INTRA:          -2.299
REMARK INTER:                  -2.299
REMARK INTRA:                   0.000
REMARK UNBOUND:                 0.000
REMARK SMILES CC(=O)[O-]
REMARK SMILES IDX 1 1 2 2 3 3 4 4
REMARK H PARENT
REMARK Flexibility Score: inf
ROOT
ATOM      1  C   UNL     1       3.099   3.923 -30.455  1.00  0.00     0.063 C 
ATOM      2  C   UNL     1       2.718   5.290 -30.000  1.00  0.00     0.038 C 
ATOM      3  O   UNL     1       3.566   6.220 -30.014  1.00  0.00    -0.550 OA
ATOM      4  O   UNL     1       1.412   5.554 -29.610  1.00  0.00    -0.550 OA
ENDROOT
TORSDOF 0
ENDMDL
MODEL 7
REMARK VINA RESULT:    -2.183      2.317      2.596
REMARK INTER + INTRA:          -2.183
REMARK INTER:                  -2.183
REMARK INTRA:                   0.000
REMARK UNBOUND:                 0.000
REMARK SMILES CC(=O)[O-]
REMARK SMILES IDX 1 1 2 2 3 3 4 4
REMARK H PARENT
REMARK Flexibility Score: inf
ROOT
ATOM      1  C   UNL     1       2.605   4.422 -29.907  1.00  0.00     0.063 C 
ATOM      2  C   UNL     1       3.675   3.933 -30.822  1.00  0.00     0.038 C 
ATOM      3  O   UNL     1       4.842   4.398 -30.734  1.00  0.00    -0.550 OA
ATOM      4  O   UNL     1       3.401   2.925 -31.737  1.00  0.00    -0.550 OA
ENDROOT
TORSDOF 0
ENDMDL
MODEL 8
REMARK VINA RESULT:    -2.139      2.121      2.307
REMARK INTER + INTRA:          -2.139
REMARK INTER:                  -2.139
REMARK INTRA:                   0.000
REMARK UNBOUND:                 0.000
REMARK SMILES CC(=O)[O-]
REMARK SMILES IDX 1 1 2 2 3 3 4 4
REMARK H PARENT
REMARK Flexibility Score: inf
ROOT
ATOM      1  C   UNL     1       5.179   3.592 -31.276  1.00  0.00     0.063 C 
ATOM      2  C   UNL     1       3.970   4.093 -30.564  1.00  0.00     0.038 C 
ATOM      3  O   UNL     1       2.878   3.473 -30.660  1.00  0.00    -0.550 OA
ATOM      4  O   UNL     1       4.057   5.214 -29.748  1.00  0.00    -0.550 OA
ENDROOT
TORSDOF 0
ENDMDL
MODEL 9
REMARK VINA RESULT:    -2.005      3.184      3.612
REMARK INTER + INTRA:          -2.005
REMARK INTER:                  -2.005
REMARK INTRA:                   0.000
REMARK UNBOUND:                 0.000
REMARK SMILES CC(=O)[O-]
REMARK SMILES IDX 1 1 2 2 3 3 4 4
REMARK H PARENT
REMARK Flexibility Score: inf
ROOT
ATOM      1  C   UNL     1       4.559   4.779 -31.431  1.00  0.00     0.063 C 
ATOM      2  C   UNL     1       4.927   6.054 -30.753  1.00  0.00     0.038 C 
ATOM      3  O   UNL     1       4.120   6.601 -29.956  1.00  0.00    -0.550 OA
ATOM      4  O   UNL     1       6.181   6.614 -30.957  1.00  0.00    -0.550 OA
ENDROOT
TORSDOF 0
ENDMDL
