MODEL 1
REMARK VINA RESULT:    -5.012      0.000      0.000
REMARK INTER + INTRA:          -7.764
REMARK INTER:                  -6.184
REMARK INTRA:                  -1.580
REMARK UNBOUND:                -1.580
REMARK SMILES CC(C)=CCC[C@@H](C)c1ccc(C)cc1
REMARK SMILES IDX 6 1 7 2 8 3 9 4 13 5 12 6 11 7 14 8 10 9 15 10 5 11 4 12
REMARK SMILES IDX 2 13 1 14 3 15
REMARK H PARENT
REMARK Flexibility Score: inf
ROOT
ATOM      1  C   UNL     1       4.221 -20.195   7.758  1.00  0.00     0.012 C 
ENDROOT
BRANCH   1   2
ATOM      2  C   UNL     1       5.308 -19.498   6.903  1.00  0.00     0.016 C 
ATOM      3  C   UNL     1       5.163 -19.807   5.405  1.00  0.00     0.013 C 
BRANCH   2   4
ATOM      4  C   UNL     1       5.278 -17.999   7.141  1.00  0.00    -0.045 A 
ATOM      5  C   UNL     1       5.256 -13.727   7.784  1.00  0.00     0.044 C 
ATOM      6  C   UNL     1       5.234 -15.210   7.562  1.00  0.00    -0.051 A 
ATOM      7  C   UNL     1       5.232 -15.729   6.260  1.00  0.00     0.004 A 
ATOM      8  C   UNL     1       5.287 -16.089   8.653  1.00  0.00     0.004 A 
ATOM      9  C   UNL     1       5.248 -17.112   6.051  1.00  0.00     0.004 A 
ATOM     10  C   UNL     1       5.303 -17.471   8.446  1.00  0.00     0.004 A 
ENDBRANCH   2   4
ENDBRANCH   1   2
BRANCH   1  11
ATOM     11  C   UNL     1       2.788 -20.026   7.222  1.00  0.00     0.028 C 
BRANCH  11  12
ATOM     12  C   UNL     1       1.976 -19.054   8.046  1.00  0.00    -0.028 C 
ATOM     13  C   UNL     1       1.512 -17.867   7.594  1.00  0.00    -0.080 C 
ATOM     14  C   UNL     1       1.689 -17.427   6.162  1.00  0.00     0.039 C 
ATOM     15  C   UNL     1       0.726 -16.972   8.517  1.00  0.00     0.039 C 
ENDBRANCH  11  12
ENDBRANCH   1  11
TORSDOF 4
ENDMDL
MODEL 2
REMARK VINA RESULT:    -4.999      1.878      3.732
REMARK INTER + INTRA:          -7.748
REMARK INTER:                  -6.961
REMARK INTRA:                  -0.787
REMARK UNBOUND:                -1.580
REMARK SMILES CC(C)=CCC[C@@H](C)c1ccc(C)cc1
REMARK SMILES IDX 6 1 7 2 8 3 9 4 13 5 12 6 11 7 14 8 10 9 15 10 5 11 4 12
REMARK SMILES IDX 2 13 1 14 3 15
REMARK H PARENT
REMARK Flexibility Score: inf
ROOT
ATOM      1  C   UNL     1       5.729 -17.412   7.054  1.00  0.00     0.012 C 
ENDROOT
BRANCH   1   2
ATOM      2  C   UNL     1       5.112 -16.938   8.393  1.00  0.00     0.016 C 
ATOM      3  C   UNL     1       6.022 -17.233   9.596  1.00  0.00     0.013 C 
BRANCH   2   4
ATOM      4  C   UNL     1       4.789 -15.456   8.323  1.00  0.00    -0.045 A 
ATOM      5  C   UNL     1       3.821 -11.253   8.074  1.00  0.00     0.044 C 
ATOM      6  C   UNL     1       4.165 -12.708   8.189  1.00  0.00    -0.051 A 
ATOM      7  C   UNL     1       3.188 -13.638   8.569  1.00  0.00     0.004 A 
ATOM      8  C   UNL     1       5.449 -13.159   7.849  1.00  0.00     0.004 A 
ATOM      9  C   UNL     1       3.498 -15.000   8.640  1.00  0.00     0.004 A 
ATOM     10  C   UNL     1       5.761 -14.520   7.921  1.00  0.00     0.004 A 
ENDBRANCH   2   4
ENDBRANCH   1   2
BRANCH   1  11
ATOM     11  C   UNL     1       4.889 -18.465   6.309  1.00  0.00     0.028 C 
BRANCH  11  12
ATOM     12  C   UNL     1       4.186 -19.414   7.252  1.00  0.00    -0.028 C 
ATOM     13  C   UNL     1       4.612 -20.664   7.541  1.00  0.00    -0.080 C 
ATOM     14  C   UNL     1       5.911 -21.214   7.006  1.00  0.00     0.039 C 
ATOM     15  C   UNL     1       3.814 -21.526   8.486  1.00  0.00     0.039 C 
ENDBRANCH  11  12
ENDBRANCH   1  11
TORSDOF 4
ENDMDL
MODEL 3
REMARK VINA RESULT:    -4.989      1.696      3.444
REMARK INTER + INTRA:          -7.735
REMARK INTER:                  -7.016
REMARK INTRA:                  -0.719
REMARK UNBOUND:                -1.580
REMARK SMILES CC(C)=CCC[C@@H](C)c1ccc(C)cc1
REMARK SMILES IDX 6 1 7 2 8 3 9 4 13 5 12 6 11 7 14 8 10 9 15 10 5 11 4 12
REMARK SMILES IDX 2 13 1 14 3 15
REMARK H PARENT
REMARK Flexibility Score: inf
ROOT
ATOM      1  C   UNL     1       3.708 -18.012   7.986  1.00  0.00     0.012 C 
ENDROOT
BRANCH   1   2
ATOM      2  C   UNL     1       5.029 -17.211   7.875  1.00  0.00     0.016 C 
ATOM      3  C   UNL     1       5.767 -17.476   6.554  1.00  0.00     0.013 C 
BRANCH   2   4
ATOM      4  C   UNL     1       4.755 -15.727   8.042  1.00  0.00    -0.045 A 
ATOM      5  C   UNL     1       4.029 -11.501   8.567  1.00  0.00     0.044 C 
ATOM      6  C   UNL     1       4.272 -12.966   8.357  1.00  0.00    -0.051 A 
ATOM      7  C   UNL     1       5.527 -13.420   7.929  1.00  0.00     0.004 A 
ATOM      8  C   UNL     1       3.267 -13.898   8.653  1.00  0.00     0.004 A 
ATOM      9  C   UNL     1       5.766 -14.789   7.768  1.00  0.00     0.004 A 
ATOM     10  C   UNL     1       3.504 -15.266   8.493  1.00  0.00     0.004 A 
ENDBRANCH   2   4
ENDBRANCH   1   2
BRANCH   1  11
ATOM     11  C   UNL     1       3.599 -19.190   7.001  1.00  0.00     0.028 C 
BRANCH  11  12
ATOM     12  C   UNL     1       3.486 -20.522   7.706  1.00  0.00    -0.028 C 
ATOM     13  C   UNL     1       4.443 -21.477   7.698  1.00  0.00    -0.080 C 
ATOM     14  C   UNL     1       5.784 -21.265   7.042  1.00  0.00     0.039 C 
ATOM     15  C   UNL     1       4.208 -22.776   8.426  1.00  0.00     0.039 C 
ENDBRANCH  11  12
ENDBRANCH   1  11
TORSDOF 4
ENDMDL
MODEL 4
REMARK VINA RESULT:    -4.898      2.464      4.094
REMARK INTER + INTRA:          -7.623
REMARK INTER:                  -6.131
REMARK INTRA:                  -1.492
REMARK UNBOUND:                -1.580
REMARK SMILES CC(C)=CCC[C@@H](C)c1ccc(C)cc1
REMARK SMILES IDX 6 1 7 2 8 3 9 4 13 5 12 6 11 7 14 8 10 9 15 10 5 11 4 12
REMARK SMILES IDX 2 13 1 14 3 15
REMARK H PARENT
REMARK Flexibility Score: inf
ROOT
ATOM      1  C   UNL     1       5.701 -17.412   7.024  1.00  0.00     0.012 C 
ENDROOT
BRANCH   1   2
ATOM      2  C   UNL     1       5.089 -16.943   8.366  1.00  0.00     0.016 C 
ATOM      3  C   UNL     1       5.987 -17.273   9.569  1.00  0.00     0.013 C 
BRANCH   2   4
ATOM      4  C   UNL     1       4.795 -15.454   8.315  1.00  0.00    -0.045 A 
ATOM      5  C   UNL     1       4.009 -11.207   8.222  1.00  0.00     0.044 C 
ATOM      6  C   UNL     1       4.274 -12.683   8.226  1.00  0.00    -0.051 A 
ATOM      7  C   UNL     1       5.557 -13.172   7.940  1.00  0.00     0.004 A 
ATOM      8  C   UNL     1       3.259 -13.583   8.584  1.00  0.00     0.004 A 
ATOM      9  C   UNL     1       5.814 -14.546   7.980  1.00  0.00     0.004 A 
ATOM     10  C   UNL     1       3.515 -14.957   8.623  1.00  0.00     0.004 A 
ENDBRANCH   2   4
ENDBRANCH   1   2
BRANCH   1  11
ATOM     11  C   UNL     1       4.784 -17.210   5.805  1.00  0.00     0.028 C 
BRANCH  11  12
ATOM     12  C   UNL     1       5.396 -16.297   4.768  1.00  0.00    -0.028 C 
ATOM     13  C   UNL     1       4.844 -15.136   4.347  1.00  0.00    -0.080 C 
ATOM     14  C   UNL     1       3.578 -14.583   4.951  1.00  0.00     0.039 C 
ATOM     15  C   UNL     1       5.542 -14.318   3.291  1.00  0.00     0.039 C 
ENDBRANCH  11  12
ENDBRANCH   1  11
TORSDOF 4
ENDMDL
MODEL 5
REMARK VINA RESULT:    -4.782      1.264      4.073
REMARK INTER + INTRA:          -7.480
REMARK INTER:                  -6.430
REMARK INTRA:                  -1.050
REMARK UNBOUND:                -1.580
REMARK SMILES CC(C)=CCC[C@@H](C)c1ccc(C)cc1
REMARK SMILES IDX 6 1 7 2 8 3 9 4 13 5 12 6 11 7 14 8 10 9 15 10 5 11 4 12
REMARK SMILES IDX 2 13 1 14 3 15
REMARK H PARENT
REMARK Flexibility Score: inf
ROOT
ATOM      1  C   UNL     1       4.307 -15.131   8.613  1.00  0.00     0.012 C 
ENDROOT
BRANCH   1   2
ATOM      2  C   UNL     1       5.542 -15.550   7.779  1.00  0.00     0.016 C 
ATOM      3  C   UNL     1       6.864 -15.299   8.522  1.00  0.00     0.013 C 
BRANCH   2   4
ATOM      4  C   UNL     1       5.430 -17.009   7.373  1.00  0.00    -0.045 A 
ATOM      5  C   UNL     1       5.161 -21.176   6.266  1.00  0.00     0.044 C 
ATOM      6  C   UNL     1       5.226 -19.726   6.643  1.00  0.00    -0.051 A 
ATOM      7  C   UNL     1       4.989 -19.329   7.966  1.00  0.00     0.004 A 
ATOM      8  C   UNL     1       5.593 -18.763   5.691  1.00  0.00     0.004 A 
ATOM      9  C   UNL     1       5.085 -17.981   8.328  1.00  0.00     0.004 A 
ATOM     10  C   UNL     1       5.689 -17.416   6.051  1.00  0.00     0.004 A 
ENDBRANCH   2   4
ENDBRANCH   1   2
BRANCH   1  11
ATOM     11  C   UNL     1       3.022 -14.939   7.787  1.00  0.00     0.028 C 
BRANCH  11  12
ATOM     12  C   UNL     1       1.773 -15.207   8.594  1.00  0.00    -0.028 C 
ATOM     13  C   UNL     1       1.079 -16.367   8.570  1.00  0.00    -0.080 C 
ATOM     14  C   UNL     1       1.545 -17.566   7.783  1.00  0.00     0.039 C 
ATOM     15  C   UNL     1      -0.166 -16.510   9.408  1.00  0.00     0.039 C 
ENDBRANCH  11  12
ENDBRANCH   1  11
TORSDOF 4
ENDMDL
MODEL 6
REMARK VINA RESULT:    -4.764      1.914      4.797
REMARK INTER + INTRA:          -7.458
REMARK INTER:                  -5.949
REMARK INTRA:                  -1.508
REMARK UNBOUND:                -1.580
REMARK SMILES CC(C)=CCC[C@@H](C)c1ccc(C)cc1
REMARK SMILES IDX 6 1 7 2 8 3 9 4 13 5 12 6 11 7 14 8 10 9 15 10 5 11 4 12
REMARK SMILES IDX 2 13 1 14 3 15
REMARK H PARENT
REMARK Flexibility Score: inf
ROOT
ATOM      1  C   UNL     1       5.783 -18.170   4.449  1.00  0.00     0.012 C 
ENDROOT
BRANCH   1   2
ATOM      2  C   UNL     1       5.075 -19.490   4.059  1.00  0.00     0.016 C 
ATOM      3  C   UNL     1       5.906 -20.334   3.079  1.00  0.00     0.013 C 
BRANCH   2   4
ATOM      4  C   UNL     1       4.745 -20.294   5.304  1.00  0.00    -0.045 A 
ATOM      5  C   UNL     1       3.765 -22.528   8.869  1.00  0.00     0.044 C 
ATOM      6  C   UNL     1       4.109 -21.778   7.617  1.00  0.00    -0.051 A 
ATOM      7  C   UNL     1       3.102 -21.406   6.716  1.00  0.00     0.004 A 
ATOM      8  C   UNL     1       5.433 -21.382   7.372  1.00  0.00     0.004 A 
ATOM      9  C   UNL     1       3.418 -20.674   5.567  1.00  0.00     0.004 A 
ATOM     10  C   UNL     1       5.750 -20.651   6.224  1.00  0.00     0.004 A 
ENDBRANCH   2   4
ENDBRANCH   1   2
BRANCH   1  11
ATOM     11  C   UNL     1       4.947 -17.247   5.355  1.00  0.00     0.028 C 
BRANCH  11  12
ATOM     12  C   UNL     1       5.599 -17.012   6.697  1.00  0.00    -0.028 C 
ATOM     13  C   UNL     1       5.016 -17.271   7.889  1.00  0.00    -0.080 C 
ATOM     14  C   UNL     1       3.657 -17.919   7.995  1.00  0.00     0.039 C 
ATOM     15  C   UNL     1       5.762 -16.978   9.166  1.00  0.00     0.039 C 
ENDBRANCH  11  12
ENDBRANCH   1  11
TORSDOF 4
ENDMDL
MODEL 7
REMARK VINA RESULT:    -4.746      2.125      5.389
REMARK INTER + INTRA:          -7.435
REMARK INTER:                  -6.628
REMARK INTRA:                  -0.808
REMARK UNBOUND:                -1.580
REMARK SMILES CC(C)=CCC[C@@H](C)c1ccc(C)cc1
REMARK SMILES IDX 6 1 7 2 8 3 9 4 13 5 12 6 11 7 14 8 10 9 15 10 5 11 4 12
REMARK SMILES IDX 2 13 1 14 3 15
REMARK H PARENT
REMARK Flexibility Score: inf
ROOT
ATOM      1  C   UNL     1       4.303 -15.186   8.534  1.00  0.00     0.012 C 
ENDROOT
BRANCH   1   2
ATOM      2  C   UNL     1       5.579 -15.653   7.792  1.00  0.00     0.016 C 
ATOM      3  C   UNL     1       6.855 -15.419   8.617  1.00  0.00     0.013 C 
BRANCH   2   4
ATOM      4  C   UNL     1       5.455 -17.116   7.408  1.00  0.00    -0.045 A 
ATOM      5  C   UNL     1       5.148 -21.298   6.368  1.00  0.00     0.044 C 
ATOM      6  C   UNL     1       5.227 -19.842   6.719  1.00  0.00    -0.051 A 
ATOM      7  C   UNL     1       4.844 -19.400   7.993  1.00  0.00     0.004 A 
ATOM      8  C   UNL     1       5.751 -18.921   5.800  1.00  0.00     0.004 A 
ATOM      9  C   UNL     1       4.952 -18.048   8.333  1.00  0.00     0.004 A 
ATOM     10  C   UNL     1       5.860 -17.569   6.138  1.00  0.00     0.004 A 
ENDBRANCH   2   4
ENDBRANCH   1   2
BRANCH   1  11
ATOM     11  C   UNL     1       3.476 -14.135   7.771  1.00  0.00     0.028 C 
BRANCH  11  12
ATOM     12  C   UNL     1       4.344 -13.139   7.039  1.00  0.00    -0.028 C 
ATOM     13  C   UNL     1       4.715 -11.936   7.533  1.00  0.00    -0.080 C 
ATOM     14  C   UNL     1       4.361 -11.499   8.932  1.00  0.00     0.039 C 
ATOM     15  C   UNL     1       5.571 -11.018   6.699  1.00  0.00     0.039 C 
ENDBRANCH  11  12
ENDBRANCH   1  11
TORSDOF 4
ENDMDL
MODEL 8
REMARK VINA RESULT:    -4.668      1.643      4.946
REMARK INTER + INTRA:          -7.339
REMARK INTER:                  -5.823
REMARK INTRA:                  -1.516
REMARK UNBOUND:                -1.580
REMARK SMILES CC(C)=CCC[C@@H](C)c1ccc(C)cc1
REMARK SMILES IDX 6 1 7 2 8 3 9 4 13 5 12 6 11 7 14 8 10 9 15 10 5 11 4 12
REMARK SMILES IDX 2 13 1 14 3 15
REMARK H PARENT
REMARK Flexibility Score: inf
ROOT
ATOM      1  C   UNL     1       4.977 -13.755   7.433  1.00  0.00     0.012 C 
ENDROOT
BRANCH   1   2
ATOM      2  C   UNL     1       4.093 -14.434   8.508  1.00  0.00     0.016 C 
ATOM      3  C   UNL     1       2.672 -13.851   8.554  1.00  0.00     0.013 C 
BRANCH   2   4
ATOM      4  C   UNL     1       4.045 -15.934   8.273  1.00  0.00    -0.045 A 
ATOM      5  C   UNL     1       3.861 -20.206   7.659  1.00  0.00     0.044 C 
ATOM      6  C   UNL     1       3.930 -18.719   7.843  1.00  0.00    -0.051 A 
ATOM      7  C   UNL     1       2.767 -17.942   7.761  1.00  0.00     0.004 A 
ATOM      8  C   UNL     1       5.148 -18.103   8.168  1.00  0.00     0.004 A 
ATOM      9  C   UNL     1       2.824 -16.560   7.969  1.00  0.00     0.004 A 
ATOM     10  C   UNL     1       5.206 -16.722   8.376  1.00  0.00     0.004 A 
ENDBRANCH   2   4
ENDBRANCH   1   2
BRANCH   1  11
ATOM     11  C   UNL     1       4.458 -13.915   5.993  1.00  0.00     0.028 C 
BRANCH  11  12
ATOM     12  C   UNL     1       5.216 -14.970   5.222  1.00  0.00    -0.028 C 
ATOM     13  C   UNL     1       4.640 -16.005   4.569  1.00  0.00    -0.080 C 
ATOM     14  C   UNL     1       3.143 -16.160   4.470  1.00  0.00     0.039 C 
ATOM     15  C   UNL     1       5.505 -17.007   3.847  1.00  0.00     0.039 C 
ENDBRANCH  11  12
ENDBRANCH   1  11
TORSDOF 4
ENDMDL
MODEL 9
REMARK VINA RESULT:    -4.652      1.662      4.716
REMARK INTER + INTRA:          -7.320
REMARK INTER:                  -6.466
REMARK INTRA:                  -0.854
REMARK UNBOUND:                -1.580
REMARK SMILES CC(C)=CCC[C@@H](C)c1ccc(C)cc1
REMARK SMILES IDX 6 1 7 2 8 3 9 4 13 5 12 6 11 7 14 8 10 9 15 10 5 11 4 12
REMARK SMILES IDX 2 13 1 14 3 15
REMARK H PARENT
REMARK Flexibility Score: inf
ROOT
ATOM      1  C   UNL     1       6.038 -16.892   7.059  1.00  0.00     0.012 C 
ENDROOT
BRANCH   1   2
ATOM      2  C   UNL     1       4.830 -17.561   6.359  1.00  0.00     0.016 C 
ATOM      3  C   UNL     1       5.014 -17.660   4.837  1.00  0.00     0.013 C 
BRANCH   2   4
ATOM      4  C   UNL     1       4.576 -18.935   6.954  1.00  0.00    -0.045 A 
ATOM      5  C   UNL     1       3.855 -22.872   8.578  1.00  0.00     0.044 C 
ATOM      6  C   UNL     1       4.118 -21.497   8.040  1.00  0.00    -0.051 A 
ATOM      7  C   UNL     1       5.289 -21.235   7.316  1.00  0.00     0.004 A 
ATOM      8  C   UNL     1       3.163 -20.482   8.196  1.00  0.00     0.004 A 
ATOM      9  C   UNL     1       5.519 -19.963   6.781  1.00  0.00     0.004 A 
ATOM     10  C   UNL     1       3.391 -19.211   7.662  1.00  0.00     0.004 A 
ENDBRANCH   2   4
ENDBRANCH   1   2
BRANCH   1  11
ATOM     11  C   UNL     1       5.751 -16.408   8.492  1.00  0.00     0.028 C 
BRANCH  11  12
ATOM     12  C   UNL     1       4.439 -15.666   8.597  1.00  0.00    -0.028 C 
ATOM     13  C   UNL     1       4.282 -14.346   8.347  1.00  0.00    -0.080 C 
ATOM     14  C   UNL     1       5.411 -13.485   7.840  1.00  0.00     0.039 C 
ATOM     15  C   UNL     1       2.923 -13.713   8.503  1.00  0.00     0.039 C 
ENDBRANCH  11  12
ENDBRANCH   1  11
TORSDOF 4
ENDMDL
