MODEL 1
REMARK VINA RESULT:    -1.072      0.000      0.000
REMARK INTER + INTRA:          -4.445
REMARK INTER:                  -1.949
REMARK INTRA:                  -2.496
REMARK UNBOUND:                -2.496
REMARK SMILES CCCCCCCCCCCCCCCC(=O)[O-]
REMARK SMILES IDX 9 1 10 2 11 3 12 4 13 5 14 6 15 7 16 8 17 9 18 10 8 11 7 12
REMARK SMILES IDX 6 13 5 14 4 15 3 16 2 17 1 18
REMARK H PARENT
REMARK Flexibility Score: inf
ROOT
ATOM      1  C   UNL     1     -12.884 -21.292  84.072  1.00  0.00     0.000 C 
ENDROOT
BRANCH   1   2
ATOM      2  C   UNL     1     -13.217 -20.793  82.651  1.00  0.00     0.000 C 
BRANCH   2   3
ATOM      3  C   UNL     1     -14.104 -21.739  81.819  1.00  0.00     0.000 C 
BRANCH   3   4
ATOM      4  C   UNL     1     -15.346 -21.081  81.185  1.00  0.00     0.000 C 
BRANCH   4   5
ATOM      5  C   UNL     1     -16.084 -21.949  80.149  1.00  0.00     0.000 C 
BRANCH   5   6
ATOM      6  C   UNL     1     -17.598 -22.013  80.394  1.00  0.00     0.006 C 
BRANCH   6   7
ATOM      7  C   UNL     1     -18.059 -20.849  81.276  1.00  0.00     0.053 C 
BRANCH   7   8
ATOM      8  C   UNL     1     -18.870 -19.875  80.480  1.00  0.00     0.041 C 
ATOM      9  O   UNL     1     -18.317 -19.151  79.611  1.00  0.00    -0.550 OA
ATOM     10  O   UNL     1     -20.229 -19.733  80.731  1.00  0.00    -0.550 OA
ENDBRANCH   7   8
ENDBRANCH   6   7
ENDBRANCH   5   6
ENDBRANCH   4   5
ENDBRANCH   3   4
ENDBRANCH   2   3
ENDBRANCH   1   2
BRANCH   1  11
ATOM     11  C   UNL     1     -12.907 -22.822  84.244  1.00  0.00     0.000 C 
BRANCH  11  12
ATOM     12  C   UNL     1     -13.726 -23.274  85.463  1.00  0.00    -0.000 C 
BRANCH  12  13
ATOM     13  C   UNL     1     -14.944 -22.360  85.673  1.00  0.00    -0.000 C 
BRANCH  13  14
ATOM     14  C   UNL     1     -16.277 -23.103  85.491  1.00  0.00    -0.000 C 
BRANCH  14  15
ATOM     15  C   UNL     1     -16.849 -22.954  84.070  1.00  0.00    -0.000 C 
BRANCH  15  16
ATOM     16  C   UNL     1     -17.103 -24.322  83.401  1.00  0.00    -0.000 C 
BRANCH  16  17
ATOM     17  C   UNL     1     -15.943 -24.793  82.508  1.00  0.00    -0.003 C 
ATOM     18  C   UNL     1     -15.062 -25.847  83.175  1.00  0.00     0.004 C 
ENDBRANCH  16  17
ENDBRANCH  15  16
ENDBRANCH  14  15
ENDBRANCH  13  14
ENDBRANCH  12  13
ENDBRANCH  11  12
ENDBRANCH   1  11
TORSDOF 14
ENDMDL
MODEL 2
REMARK VINA RESULT:    -0.837      1.797      4.408
REMARK INTER + INTRA:          -4.018
REMARK INTER:                  -1.582
REMARK INTRA:                  -2.437
REMARK UNBOUND:                -2.496
REMARK SMILES CCCCCCCCCCCCCCCC(=O)[O-]
REMARK SMILES IDX 9 1 10 2 11 3 12 4 13 5 14 6 15 7 16 8 17 9 18 10 8 11 7 12
REMARK SMILES IDX 6 13 5 14 4 15 3 16 2 17 1 18
REMARK H PARENT
REMARK Flexibility Score: inf
ROOT
ATOM      1  C   UNL     1     -16.841 -22.477  80.466  1.00  0.00     0.000 C 
ENDROOT
BRANCH   1   2
ATOM      2  C   UNL     1     -16.184 -23.748  79.891  1.00  0.00     0.000 C 
BRANCH   2   3
ATOM      3  C   UNL     1     -16.064 -24.923  80.880  1.00  0.00     0.000 C 
BRANCH   3   4
ATOM      4  C   UNL     1     -15.719 -24.525  82.329  1.00  0.00     0.000 C 
BRANCH   4   5
ATOM      5  C   UNL     1     -16.610 -25.167  83.409  1.00  0.00     0.000 C 
BRANCH   5   6
ATOM      6  C   UNL     1     -16.987 -24.189  84.530  1.00  0.00     0.006 C 
BRANCH   6   7
ATOM      7  C   UNL     1     -17.076 -22.756  84.000  1.00  0.00     0.053 C 
BRANCH   7   8
ATOM      8  C   UNL     1     -18.505 -22.352  83.815  1.00  0.00     0.041 C 
ATOM      9  O   UNL     1     -19.432 -23.152  84.108  1.00  0.00    -0.550 OA
ATOM     10  O   UNL     1     -18.812 -21.110  83.274  1.00  0.00    -0.550 OA
ENDBRANCH   7   8
ENDBRANCH   6   7
ENDBRANCH   5   6
ENDBRANCH   4   5
ENDBRANCH   3   4
ENDBRANCH   2   3
ENDBRANCH   1   2
BRANCH   1  11
ATOM     11  C   UNL     1     -15.981 -21.203  80.377  1.00  0.00     0.000 C 
BRANCH  11  12
ATOM     12  C   UNL     1     -14.481 -21.482  80.553  1.00  0.00    -0.000 C 
BRANCH  12  13
ATOM     13  C   UNL     1     -13.967 -20.897  81.878  1.00  0.00    -0.000 C 
BRANCH  13  14
ATOM     14  C   UNL     1     -13.282 -21.952  82.761  1.00  0.00    -0.000 C 
BRANCH  14  15
ATOM     15  C   UNL     1     -13.274 -21.562  84.250  1.00  0.00    -0.000 C 
BRANCH  15  16
ATOM     16  C   UNL     1     -13.560 -22.770  85.168  1.00  0.00    -0.000 C 
BRANCH  16  17
ATOM     17  C   UNL     1     -12.876 -24.068  84.706  1.00  0.00    -0.003 C 
ATOM     18  C   UNL     1     -13.434 -25.316  85.386  1.00  0.00     0.004 C 
ENDBRANCH  16  17
ENDBRANCH  15  16
ENDBRANCH  14  15
ENDBRANCH  13  14
ENDBRANCH  12  13
ENDBRANCH  11  12
ENDBRANCH   1  11
TORSDOF 14
ENDMDL
MODEL 3
REMARK VINA RESULT:    -0.836      3.056      5.407
REMARK INTER + INTRA:          -4.016
REMARK INTER:                  -1.557
REMARK INTRA:                  -2.460
REMARK UNBOUND:                -2.496
REMARK SMILES CCCCCCCCCCCCCCCC(=O)[O-]
REMARK SMILES IDX 9 1 10 2 11 3 12 4 13 5 14 6 15 7 16 8 17 9 18 10 8 11 7 12
REMARK SMILES IDX 6 13 5 14 4 15 3 16 2 17 1 18
REMARK H PARENT
REMARK Flexibility Score: inf
ROOT
ATOM      1  C   UNL     1     -15.846 -25.006  81.084  1.00  0.00     0.000 C 
ENDROOT
BRANCH   1   2
ATOM      2  C   UNL     1     -14.609 -24.845  81.990  1.00  0.00     0.000 C 
BRANCH   2   3
ATOM      3  C   UNL     1     -14.678 -25.606  83.329  1.00  0.00     0.000 C 
BRANCH   3   4
ATOM      4  C   UNL     1     -16.052 -25.575  84.027  1.00  0.00     0.000 C 
BRANCH   4   5
ATOM      5  C   UNL     1     -16.121 -24.693  85.288  1.00  0.00     0.000 C 
BRANCH   5   6
ATOM      6  C   UNL     1     -16.198 -23.194  84.964  1.00  0.00     0.006 C 
BRANCH   6   7
ATOM      7  C   UNL     1     -15.150 -22.408  85.756  1.00  0.00     0.053 C 
BRANCH   7   8
ATOM      8  C   UNL     1     -13.834 -22.420  85.042  1.00  0.00     0.041 C 
ATOM      9  O   UNL     1     -12.895 -23.148  85.456  1.00  0.00    -0.550 OA
ATOM     10  O   UNL     1     -13.630 -21.588  83.947  1.00  0.00    -0.550 OA
ENDBRANCH   7   8
ENDBRANCH   6   7
ENDBRANCH   5   6
ENDBRANCH   4   5
ENDBRANCH   3   4
ENDBRANCH   2   3
ENDBRANCH   1   2
BRANCH   1  11
ATOM     11  C   UNL     1     -16.369 -23.699  80.461  1.00  0.00     0.000 C 
BRANCH  11  12
ATOM     12  C   UNL     1     -16.102 -22.469  81.341  1.00  0.00    -0.000 C 
BRANCH  12  13
ATOM     13  C   UNL     1     -17.195 -21.406  81.143  1.00  0.00    -0.000 C 
BRANCH  13  14
ATOM     14  C   UNL     1     -18.175 -21.341  82.325  1.00  0.00    -0.000 C 
BRANCH  14  15
ATOM     15  C   UNL     1     -19.613 -21.713  81.923  1.00  0.00    -0.000 C 
BRANCH  15  16
ATOM     16  C   UNL     1     -19.797 -23.238  81.769  1.00  0.00    -0.000 C 
BRANCH  16  17
ATOM     17  C   UNL     1     -19.173 -24.051  82.916  1.00  0.00    -0.003 C 
ATOM     18  C   UNL     1     -19.657 -25.499  82.958  1.00  0.00     0.004 C 
ENDBRANCH  16  17
ENDBRANCH  15  16
ENDBRANCH  14  15
ENDBRANCH  13  14
ENDBRANCH  12  13
ENDBRANCH  11  12
ENDBRANCH   1  11
TORSDOF 14
ENDMDL
MODEL 4
REMARK VINA RESULT:    -0.835      2.946      5.236
REMARK INTER + INTRA:          -4.015
REMARK INTER:                  -1.568
REMARK INTRA:                  -2.446
REMARK UNBOUND:                -2.496
REMARK SMILES CCCCCCCCCCCCCCCC(=O)[O-]
REMARK SMILES IDX 9 1 10 2 11 3 12 4 13 5 14 6 15 7 16 8 17 9 18 10 8 11 7 12
REMARK SMILES IDX 6 13 5 14 4 15 3 16 2 17 1 18
REMARK H PARENT
REMARK Flexibility Score: inf
ROOT
ATOM      1  C   UNL     1     -15.502 -23.607  79.561  1.00  0.00     0.000 C 
ENDROOT
BRANCH   1   2
ATOM      2  C   UNL     1     -15.960 -22.152  79.337  1.00  0.00     0.000 C 
BRANCH   2   3
ATOM      3  C   UNL     1     -14.963 -21.075  79.808  1.00  0.00     0.000 C 
BRANCH   3   4
ATOM      4  C   UNL     1     -14.832 -20.931  81.338  1.00  0.00     0.000 C 
BRANCH   4   5
ATOM      5  C   UNL     1     -13.397 -20.701  81.848  1.00  0.00     0.000 C 
BRANCH   5   6
ATOM      6  C   UNL     1     -13.195 -21.173  83.295  1.00  0.00     0.006 C 
BRANCH   6   7
ATOM      7  C   UNL     1     -13.195 -22.702  83.377  1.00  0.00     0.053 C 
BRANCH   7   8
ATOM      8  C   UNL     1     -13.904 -23.161  84.612  1.00  0.00     0.041 C 
ATOM      9  O   UNL     1     -14.040 -24.391  84.844  1.00  0.00    -0.550 OA
ATOM     10  O   UNL     1     -14.459 -22.231  85.482  1.00  0.00    -0.550 OA
ENDBRANCH   7   8
ENDBRANCH   6   7
ENDBRANCH   5   6
ENDBRANCH   4   5
ENDBRANCH   3   4
ENDBRANCH   2   3
ENDBRANCH   1   2
BRANCH   1  11
ATOM     11  C   UNL     1     -16.453 -24.464  80.416  1.00  0.00     0.000 C 
BRANCH  11  12
ATOM     12  C   UNL     1     -16.067 -24.484  81.902  1.00  0.00    -0.000 C 
BRANCH  12  13
ATOM     13  C   UNL     1     -17.273 -24.128  82.786  1.00  0.00    -0.000 C 
BRANCH  13  14
ATOM     14  C   UNL     1     -17.285 -22.647  83.198  1.00  0.00    -0.000 C 
BRANCH  14  15
ATOM     15  C   UNL     1     -18.626 -21.957  82.887  1.00  0.00    -0.000 C 
BRANCH  15  16
ATOM     16  C   UNL     1     -18.960 -21.990  81.380  1.00  0.00    -0.000 C 
BRANCH  16  17
ATOM     17  C   UNL     1     -19.185 -20.596  80.771  1.00  0.00    -0.003 C 
ATOM     18  C   UNL     1     -18.201 -19.549  81.288  1.00  0.00     0.004 C 
ENDBRANCH  16  17
ENDBRANCH  15  16
ENDBRANCH  14  15
ENDBRANCH  13  14
ENDBRANCH  12  13
ENDBRANCH  11  12
ENDBRANCH   1  11
TORSDOF 14
ENDMDL
MODEL 5
REMARK VINA RESULT:    -0.823      3.292      5.088
REMARK INTER + INTRA:          -3.993
REMARK INTER:                  -1.513
REMARK INTRA:                  -2.480
REMARK UNBOUND:                -2.496
REMARK SMILES CCCCCCCCCCCCCCCC(=O)[O-]
REMARK SMILES IDX 9 1 10 2 11 3 12 4 13 5 14 6 15 7 16 8 17 9 18 10 8 11 7 12
REMARK SMILES IDX 6 13 5 14 4 15 3 16 2 17 1 18
REMARK H PARENT
REMARK Flexibility Score: inf
ROOT
ATOM      1  C   UNL     1     -17.467 -21.855  81.142  1.00  0.00     0.000 C 
ENDROOT
BRANCH   1   2
ATOM      2  C   UNL     1     -16.469 -20.682  81.063  1.00  0.00     0.000 C 
BRANCH   2   3
ATOM      3  C   UNL     1     -14.998 -21.059  81.323  1.00  0.00     0.000 C 
BRANCH   3   4
ATOM      4  C   UNL     1     -14.460 -22.222  80.465  1.00  0.00     0.000 C 
BRANCH   4   5
ATOM      5  C   UNL     1     -13.832 -23.380  81.262  1.00  0.00     0.000 C 
BRANCH   5   6
ATOM      6  C   UNL     1     -14.737 -24.619  81.328  1.00  0.00     0.006 C 
BRANCH   6   7
ATOM      7  C   UNL     1     -14.585 -25.337  82.672  1.00  0.00     0.053 C 
BRANCH   7   8
ATOM      8  C   UNL     1     -15.103 -26.738  82.580  1.00  0.00     0.041 C 
ATOM      9  O   UNL     1     -16.308 -26.949  82.282  1.00  0.00    -0.550 OA
ATOM     10  O   UNL     1     -14.267 -27.809  82.873  1.00  0.00    -0.550 OA
ENDBRANCH   7   8
ENDBRANCH   6   7
ENDBRANCH   5   6
ENDBRANCH   4   5
ENDBRANCH   3   4
ENDBRANCH   2   3
ENDBRANCH   1   2
BRANCH   1  11
ATOM     11  C   UNL     1     -17.986 -22.172  82.557  1.00  0.00     0.000 C 
BRANCH  11  12
ATOM     12  C   UNL     1     -17.911 -23.667  82.900  1.00  0.00    -0.000 C 
BRANCH  12  13
ATOM     13  C   UNL     1     -17.584 -23.872  84.388  1.00  0.00    -0.000 C 
BRANCH  13  14
ATOM     14  C   UNL     1     -16.824 -22.680  84.993  1.00  0.00    -0.000 C 
BRANCH  14  15
ATOM     15  C   UNL     1     -15.415 -23.062  85.480  1.00  0.00    -0.000 C 
BRANCH  15  16
ATOM     16  C   UNL     1     -14.311 -22.282  84.735  1.00  0.00    -0.000 C 
BRANCH  16  17
ATOM     17  C   UNL     1     -12.891 -22.790  85.035  1.00  0.00    -0.003 C 
ATOM     18  C   UNL     1     -12.875 -24.084  85.846  1.00  0.00     0.004 C 
ENDBRANCH  16  17
ENDBRANCH  15  16
ENDBRANCH  14  15
ENDBRANCH  13  14
ENDBRANCH  12  13
ENDBRANCH  11  12
ENDBRANCH   1  11
TORSDOF 14
ENDMDL
MODEL 6
REMARK VINA RESULT:    -0.813      2.501      4.215
REMARK INTER + INTRA:          -3.975
REMARK INTER:                  -1.370
REMARK INTRA:                  -2.604
REMARK UNBOUND:                -2.496
REMARK SMILES CCCCCCCCCCCCCCCC(=O)[O-]
REMARK SMILES IDX 9 1 10 2 11 3 12 4 13 5 14 6 15 7 16 8 17 9 18 10 8 11 7 12
REMARK SMILES IDX 6 13 5 14 4 15 3 16 2 17 1 18
REMARK H PARENT
REMARK Flexibility Score: inf
ROOT
ATOM      1  C   UNL     1     -17.776 -24.278  81.892  1.00  0.00     0.000 C 
ENDROOT
BRANCH   1   2
ATOM      2  C   UNL     1     -17.183 -23.068  81.141  1.00  0.00     0.000 C 
BRANCH   2   3
ATOM      3  C   UNL     1     -17.377 -21.709  81.839  1.00  0.00     0.000 C 
BRANCH   3   4
ATOM      4  C   UNL     1     -18.844 -21.273  82.024  1.00  0.00     0.000 C 
BRANCH   4   5
ATOM      5  C   UNL     1     -19.242 -20.928  83.471  1.00  0.00     0.000 C 
BRANCH   5   6
ATOM      6  C   UNL     1     -20.461 -21.723  83.961  1.00  0.00     0.006 C 
BRANCH   6   7
ATOM      7  C   UNL     1     -20.959 -22.683  82.877  1.00  0.00     0.053 C 
BRANCH   7   8
ATOM      8  C   UNL     1     -22.394 -22.410  82.553  1.00  0.00     0.041 C 
ATOM      9  O   UNL     1     -22.923 -21.319  82.891  1.00  0.00    -0.550 OA
ATOM     10  O   UNL     1     -23.161 -23.381  81.921  1.00  0.00    -0.550 OA
ENDBRANCH   7   8
ENDBRANCH   6   7
ENDBRANCH   5   6
ENDBRANCH   4   5
ENDBRANCH   3   4
ENDBRANCH   2   3
ENDBRANCH   1   2
BRANCH   1  11
ATOM     11  C   UNL     1     -17.095 -24.608  83.232  1.00  0.00     0.000 C 
BRANCH  11  12
ATOM     12  C   UNL     1     -18.061 -24.550  84.424  1.00  0.00    -0.000 C 
BRANCH  12  13
ATOM     13  C   UNL     1     -17.389 -23.898  85.642  1.00  0.00    -0.000 C 
BRANCH  13  14
ATOM     14  C   UNL     1     -16.563 -22.656  85.266  1.00  0.00    -0.000 C 
BRANCH  14  15
ATOM     15  C   UNL     1     -15.294 -22.507  86.123  1.00  0.00    -0.000 C 
BRANCH  15  16
ATOM     16  C   UNL     1     -14.007 -22.584  85.273  1.00  0.00    -0.000 C 
BRANCH  16  17
ATOM     17  C   UNL     1     -14.230 -22.246  83.789  1.00  0.00    -0.003 C 
ATOM     18  C   UNL     1     -13.603 -23.265  82.841  1.00  0.00     0.004 C 
ENDBRANCH  16  17
ENDBRANCH  15  16
ENDBRANCH  14  15
ENDBRANCH  13  14
ENDBRANCH  12  13
ENDBRANCH  11  12
ENDBRANCH   1  11
TORSDOF 14
ENDMDL
MODEL 7
REMARK VINA RESULT:    -0.802      2.099      4.296
REMARK INTER + INTRA:          -3.954
REMARK INTER:                  -1.374
REMARK INTRA:                  -2.580
REMARK UNBOUND:                -2.496
REMARK SMILES CCCCCCCCCCCCCCCC(=O)[O-]
REMARK SMILES IDX 9 1 10 2 11 3 12 4 13 5 14 6 15 7 16 8 17 9 18 10 8 11 7 12
REMARK SMILES IDX 6 13 5 14 4 15 3 16 2 17 1 18
REMARK H PARENT
REMARK Flexibility Score: inf
ROOT
ATOM      1  C   UNL     1     -16.711 -23.958  82.541  1.00  0.00     0.000 C 
ENDROOT
BRANCH   1   2
ATOM      2  C   UNL     1     -16.669 -25.293  83.312  1.00  0.00     0.000 C 
BRANCH   2   3
ATOM      3  C   UNL     1     -17.971 -26.116  83.262  1.00  0.00     0.000 C 
BRANCH   3   4
ATOM      4  C   UNL     1     -19.257 -25.292  83.046  1.00  0.00     0.000 C 
BRANCH   4   5
ATOM      5  C   UNL     1     -19.988 -24.879  84.337  1.00  0.00     0.000 C 
BRANCH   5   6
ATOM      6  C   UNL     1     -20.317 -23.381  84.383  1.00  0.00     0.006 C 
BRANCH   6   7
ATOM      7  C   UNL     1     -20.260 -22.764  82.982  1.00  0.00     0.053 C 
BRANCH   7   8
ATOM      8  C   UNL     1     -20.075 -21.282  83.068  1.00  0.00     0.041 C 
ATOM      9  O   UNL     1     -20.431 -20.542  82.114  1.00  0.00    -0.550 OA
ATOM     10  O   UNL     1     -19.462 -20.721  84.182  1.00  0.00    -0.550 OA
ENDBRANCH   7   8
ENDBRANCH   6   7
ENDBRANCH   5   6
ENDBRANCH   4   5
ENDBRANCH   3   4
ENDBRANCH   2   3
ENDBRANCH   1   2
BRANCH   1  11
ATOM     11  C   UNL     1     -16.519 -22.700  83.407  1.00  0.00     0.000 C 
BRANCH  11  12
ATOM     12  C   UNL     1     -16.694 -22.976  84.908  1.00  0.00    -0.000 C 
BRANCH  12  13
ATOM     13  C   UNL     1     -15.483 -22.463  85.704  1.00  0.00    -0.000 C 
BRANCH  13  14
ATOM     14  C   UNL     1     -14.435 -23.559  85.954  1.00  0.00    -0.000 C 
BRANCH  14  15
ATOM     15  C   UNL     1     -13.126 -23.314  85.182  1.00  0.00    -0.000 C 
BRANCH  15  16
ATOM     16  C   UNL     1     -12.900 -24.364  84.074  1.00  0.00    -0.000 C 
BRANCH  16  17
ATOM     17  C   UNL     1     -12.923 -23.773  82.654  1.00  0.00    -0.003 C 
ATOM     18  C   UNL     1     -12.878 -22.247  82.639  1.00  0.00     0.004 C 
ENDBRANCH  16  17
ENDBRANCH  15  16
ENDBRANCH  14  15
ENDBRANCH  13  14
ENDBRANCH  12  13
ENDBRANCH  11  12
ENDBRANCH   1  11
TORSDOF 14
ENDMDL
MODEL 8
REMARK VINA RESULT:    -0.792      1.818      3.664
REMARK INTER + INTRA:          -3.936
REMARK INTER:                  -1.400
REMARK INTRA:                  -2.535
REMARK UNBOUND:                -2.496
REMARK SMILES CCCCCCCCCCCCCCCC(=O)[O-]
REMARK SMILES IDX 9 1 10 2 11 3 12 4 13 5 14 6 15 7 16 8 17 9 18 10 8 11 7 12
REMARK SMILES IDX 6 13 5 14 4 15 3 16 2 17 1 18
REMARK H PARENT
REMARK Flexibility Score: inf
ROOT
ATOM      1  C   UNL     1     -15.534 -25.984  82.373  1.00  0.00     0.000 C 
ENDROOT
BRANCH   1   2
ATOM      2  C   UNL     1     -14.928 -25.412  81.075  1.00  0.00     0.000 C 
BRANCH   2   3
ATOM      3  C   UNL     1     -13.566 -24.712  81.245  1.00  0.00     0.000 C 
BRANCH   3   4
ATOM      4  C   UNL     1     -13.465 -23.315  80.599  1.00  0.00     0.000 C 
BRANCH   4   5
ATOM      5  C   UNL     1     -13.444 -22.139  81.594  1.00  0.00     0.000 C 
BRANCH   5   6
ATOM      6  C   UNL     1     -14.656 -21.209  81.443  1.00  0.00     0.006 C 
BRANCH   6   7
ATOM      7  C   UNL     1     -15.638 -21.753  80.402  1.00  0.00     0.053 C 
BRANCH   7   8
ATOM      8  C   UNL     1     -16.988 -21.965  81.013  1.00  0.00     0.041 C 
ATOM      9  O   UNL     1     -17.517 -21.059  81.707  1.00  0.00    -0.550 OA
ATOM     10  O   UNL     1     -17.638 -23.182  80.856  1.00  0.00    -0.550 OA
ENDBRANCH   7   8
ENDBRANCH   6   7
ENDBRANCH   5   6
ENDBRANCH   4   5
ENDBRANCH   3   4
ENDBRANCH   2   3
ENDBRANCH   1   2
BRANCH   1  11
ATOM     11  C   UNL     1     -14.570 -26.834  83.220  1.00  0.00     0.000 C 
BRANCH  11  12
ATOM     12  C   UNL     1     -14.403 -26.302  84.651  1.00  0.00    -0.000 C 
BRANCH  12  13
ATOM     13  C   UNL     1     -13.042 -25.610  84.822  1.00  0.00    -0.000 C 
BRANCH  13  14
ATOM     14  C   UNL     1     -13.158 -24.077  84.842  1.00  0.00    -0.000 C 
BRANCH  14  15
ATOM     15  C   UNL     1     -13.863 -23.553  86.106  1.00  0.00    -0.000 C 
BRANCH  15  16
ATOM     16  C   UNL     1     -15.000 -22.565  85.768  1.00  0.00    -0.000 C 
BRANCH  16  17
ATOM     17  C   UNL     1     -15.696 -22.864  84.430  1.00  0.00    -0.003 C 
ATOM     18  C   UNL     1     -17.104 -23.430  84.600  1.00  0.00     0.004 C 
ENDBRANCH  16  17
ENDBRANCH  15  16
ENDBRANCH  14  15
ENDBRANCH  13  14
ENDBRANCH  12  13
ENDBRANCH  11  12
ENDBRANCH   1  11
TORSDOF 14
ENDMDL
MODEL 9
REMARK VINA RESULT:    -0.790      3.183      5.794
REMARK INTER + INTRA:          -3.933
REMARK INTER:                  -1.620
REMARK INTRA:                  -2.313
REMARK UNBOUND:                -2.496
REMARK SMILES CCCCCCCCCCCCCCCC(=O)[O-]
REMARK SMILES IDX 9 1 10 2 11 3 12 4 13 5 14 6 15 7 16 8 17 9 18 10 8 11 7 12
REMARK SMILES IDX 6 13 5 14 4 15 3 16 2 17 1 18
REMARK H PARENT
REMARK Flexibility Score: inf
ROOT
ATOM      1  C   UNL     1     -16.288 -23.652  81.990  1.00  0.00     0.000 C 
ENDROOT
BRANCH   1   2
ATOM      2  C   UNL     1     -14.808 -23.432  81.616  1.00  0.00     0.000 C 
BRANCH   2   3
ATOM      3  C   UNL     1     -14.344 -21.963  81.630  1.00  0.00     0.000 C 
BRANCH   3   4
ATOM      4  C   UNL     1     -13.031 -21.700  82.395  1.00  0.00     0.000 C 
BRANCH   4   5
ATOM      5  C   UNL     1     -13.209 -21.283  83.867  1.00  0.00     0.000 C 
BRANCH   5   6
ATOM      6  C   UNL     1     -13.133 -22.471  84.837  1.00  0.00     0.006 C 
BRANCH   6   7
ATOM      7  C   UNL     1     -14.465 -22.669  85.565  1.00  0.00     0.053 C 
BRANCH   7   8
ATOM      8  C   UNL     1     -14.937 -24.082  85.419  1.00  0.00     0.041 C 
ATOM      9  O   UNL     1     -14.225 -24.929  84.820  1.00  0.00    -0.550 OA
ATOM     10  O   UNL     1     -16.187 -24.451  85.903  1.00  0.00    -0.550 OA
ENDBRANCH   7   8
ENDBRANCH   6   7
ENDBRANCH   5   6
ENDBRANCH   4   5
ENDBRANCH   3   4
ENDBRANCH   2   3
ENDBRANCH   1   2
BRANCH   1  11
ATOM     11  C   UNL     1     -16.940 -22.495  82.770  1.00  0.00     0.000 C 
BRANCH  11  12
ATOM     12  C   UNL     1     -18.025 -21.768  81.962  1.00  0.00    -0.000 C 
BRANCH  12  13
ATOM     13  C   UNL     1     -18.361 -22.541  80.677  1.00  0.00    -0.000 C 
BRANCH  13  14
ATOM     14  C   UNL     1     -18.329 -21.647  79.427  1.00  0.00    -0.000 C 
BRANCH  14  15
ATOM     15  C   UNL     1     -16.900 -21.401  78.911  1.00  0.00    -0.000 C 
BRANCH  15  16
ATOM     16  C   UNL     1     -16.261 -22.685  78.338  1.00  0.00    -0.000 C 
BRANCH  16  17
ATOM     17  C   UNL     1     -15.111 -22.411  77.353  1.00  0.00    -0.003 C 
ATOM     18  C   UNL     1     -13.929 -21.691  77.997  1.00  0.00     0.004 C 
ENDBRANCH  16  17
ENDBRANCH  15  16
ENDBRANCH  14  15
ENDBRANCH  13  14
ENDBRANCH  12  13
ENDBRANCH  11  12
ENDBRANCH   1  11
TORSDOF 14
ENDMDL
