MODEL 1
REMARK VINA RESULT:    -6.569      0.000      0.000
REMARK INTER + INTRA:         -11.160
REMARK INTER:                  -9.257
REMARK INTRA:                  -1.903
REMARK UNBOUND:                -1.903
REMARK SMILES OC[C@H]1O[C@@H](O[C@@H]2OC=C[C@@H]3[C@H](O)[C@H]4O[C@@]4(CO)[C@@H]23)[C@@H](O)[C@@H](O)[C@@H]1O
REMARK SMILES IDX 6 1 7 2 10 3 9 4 11 5 8 6 19 7 12 8 16 9 14 10 15 11 13 12
REMARK SMILES IDX 17 14 18 15 5 17 20 18 4 19 22 20 3 21 24 22 21 23 23 25
REMARK SMILES IDX 2 27 1 28 25 30
REMARK H PARENT 13 13 18 16 21 24 23 26 1 29 25 31
REMARK Flexibility Score: inf
ROOT
ATOM      1  O   UNL     1     -14.364 -29.928 -12.257  1.00  0.00    -0.310 OA
ENDROOT
BRANCH   1   2
ATOM      2  C   UNL     1     -13.755 -31.087 -12.800  1.00  0.00     0.315 C 
ATOM      3  C   UNL     1     -14.022 -33.980 -12.994  1.00  0.00     0.018 C 
ATOM      4  C   UNL     1     -14.839 -33.182 -13.699  1.00  0.00     0.186 C 
ATOM      5  C   UNL     1     -12.883 -33.333 -12.271  1.00  0.00     0.059 C 
ATOM      6  O   UNL     1     -14.717 -31.774 -13.630  1.00  0.00    -0.472 OA
ATOM      7  C   UNL     1     -13.354 -32.026 -11.656  1.00  0.00     0.105 C 
ATOM      8  C   UNL     1     -12.197 -34.052 -11.110  1.00  0.00     0.154 C 
ATOM      9  C   UNL     1     -12.228 -31.618 -10.706  1.00  0.00     0.130 C 
ATOM     10  C   UNL     1     -11.609 -32.901 -10.276  1.00  0.00     0.183 C 
ATOM     11  O   UNL     1     -10.901 -31.955 -11.055  1.00  0.00    -0.360 OA
BRANCH   8  12
ATOM     12  O   UNL     1     -13.125 -34.758 -10.329  1.00  0.00    -0.390 OA
ATOM     13  H   UNL     1     -12.951 -35.722 -10.483  1.00  0.00     0.211 HD
ENDBRANCH   8  12
BRANCH   9  14
ATOM     14  C   UNL     1     -12.400 -30.576  -9.600  1.00  0.00     0.195 C 
BRANCH  14  15
ATOM     15  O   UNL     1     -12.417 -29.298 -10.169  1.00  0.00    -0.393 OA
ATOM     16  H   UNL     1     -12.669 -29.423 -11.121  1.00  0.00     0.210 HD
ENDBRANCH  14  15
ENDBRANCH   9  14
ENDBRANCH   1   2
BRANCH   1  17
ATOM     17  C   UNL     1     -14.145 -28.774 -13.053  1.00  0.00     0.286 C 
ATOM     18  C   UNL     1     -15.006 -27.594 -12.548  1.00  0.00     0.202 C 
ATOM     19  O   UNL     1     -12.771 -28.448 -12.954  1.00  0.00    -0.341 OA
ATOM     20  C   UNL     1     -14.801 -26.346 -13.445  1.00  0.00     0.179 C 
ATOM     21  C   UNL     1     -12.386 -27.237 -13.608  1.00  0.00     0.178 C 
ATOM     22  C   UNL     1     -13.525 -26.440 -14.315  1.00  0.00     0.177 C 
BRANCH  18  23
ATOM     23  O   UNL     1     -14.662 -27.300 -11.215  1.00  0.00    -0.385 OA
ATOM     24  H   UNL     1     -13.975 -26.584 -11.241  1.00  0.00     0.211 HD
ENDBRANCH  18  23
BRANCH  20  25
ATOM     25  O   UNL     1     -14.754 -25.172 -12.672  1.00  0.00    -0.387 OA
ATOM     26  H   UNL     1     -13.877 -24.742 -12.856  1.00  0.00     0.211 HD
ENDBRANCH  20  25
BRANCH  21  27
ATOM     27  C   UNL     1     -11.632 -26.365 -12.591  1.00  0.00     0.191 C 
BRANCH  27  28
ATOM     28  O   UNL     1     -11.684 -26.946 -11.316  1.00  0.00    -0.394 OA
ATOM     29  H   UNL     1     -12.043 -26.248 -10.710  1.00  0.00     0.210 HD
ENDBRANCH  27  28
ENDBRANCH  21  27
BRANCH  22  30
ATOM     30  O   UNL     1     -13.821 -27.066 -15.540  1.00  0.00    -0.387 OA
ATOM     31  H   UNL     1     -14.551 -27.717 -15.366  1.00  0.00     0.211 HD
ENDBRANCH  22  30
ENDBRANCH   1  17
TORSDOF 10
ENDMDL
MODEL 2
REMARK VINA RESULT:    -6.001      2.382      6.468
REMARK INTER + INTRA:         -10.360
REMARK INTER:                  -8.378
REMARK INTRA:                  -1.982
REMARK UNBOUND:                -1.903
REMARK SMILES OC[C@H]1O[C@@H](O[C@@H]2OC=C[C@@H]3[C@H](O)[C@H]4O[C@@]4(CO)[C@@H]23)[C@@H](O)[C@@H](O)[C@@H]1O
REMARK SMILES IDX 6 1 7 2 10 3 9 4 11 5 8 6 19 7 12 8 16 9 14 10 15 11 13 12
REMARK SMILES IDX 17 14 18 15 5 17 20 18 4 19 22 20 3 21 24 22 21 23 23 25
REMARK SMILES IDX 2 27 1 28 25 30
REMARK H PARENT 13 13 18 16 21 24 23 26 1 29 25 31
REMARK Flexibility Score: inf
ROOT
ATOM      1  O   UNL     1     -13.456 -32.526 -13.540  1.00  0.00    -0.310 OA
ENDROOT
BRANCH   1   2
ATOM      2  C   UNL     1     -13.791 -31.636 -12.487  1.00  0.00     0.315 C 
ATOM      3  C   UNL     1     -13.482 -28.887 -11.580  1.00  0.00     0.018 C 
ATOM      4  C   UNL     1     -14.315 -29.170 -12.594  1.00  0.00     0.186 C 
ATOM      5  C   UNL     1     -12.882 -30.042 -10.840  1.00  0.00     0.059 C 
ATOM      6  O   UNL     1     -14.490 -30.500 -13.041  1.00  0.00    -0.472 OA
ATOM      7  C   UNL     1     -12.501 -31.130 -11.829  1.00  0.00     0.105 C 
ATOM      8  C   UNL     1     -11.615 -29.850 -10.008  1.00  0.00     0.154 C 
ATOM      9  C   UNL     1     -11.636 -32.099 -11.023  1.00  0.00     0.130 C 
ATOM     10  C   UNL     1     -10.991 -31.257  -9.980  1.00  0.00     0.183 C 
ATOM     11  O   UNL     1     -11.922 -32.270  -9.650  1.00  0.00    -0.360 OA
BRANCH   8  12
ATOM     12  O   UNL     1     -10.723 -28.966 -10.635  1.00  0.00    -0.390 OA
ATOM     13  H   UNL     1      -9.921 -28.912 -10.054  1.00  0.00     0.211 HD
ENDBRANCH   8  12
BRANCH   9  14
ATOM     14  C   UNL     1     -10.727 -33.146 -11.667  1.00  0.00     0.195 C 
BRANCH  14  15
ATOM     15  O   UNL     1     -11.491 -34.263 -12.026  1.00  0.00    -0.393 OA
ATOM     16  H   UNL     1     -11.032 -35.049 -11.632  1.00  0.00     0.210 HD
ENDBRANCH  14  15
ENDBRANCH   9  14
ENDBRANCH   1   2
BRANCH   1  17
ATOM     17  C   UNL     1     -14.434 -33.535 -13.731  1.00  0.00     0.286 C 
ATOM     18  C   UNL     1     -13.974 -34.540 -14.813  1.00  0.00     0.202 C 
ATOM     19  O   UNL     1     -14.601 -34.201 -12.493  1.00  0.00    -0.341 OA
ATOM     20  C   UNL     1     -15.062 -35.617 -15.055  1.00  0.00     0.179 C 
ATOM     21  C   UNL     1     -15.474 -35.332 -12.524  1.00  0.00     0.178 C 
ATOM     22  C   UNL     1     -16.099 -35.685 -13.908  1.00  0.00     0.177 C 
BRANCH  18  23
ATOM     23  O   UNL     1     -12.768 -35.143 -14.409  1.00  0.00    -0.385 OA
ATOM     24  H   UNL     1     -12.168 -34.416 -14.097  1.00  0.00     0.211 HD
ENDBRANCH  18  23
BRANCH  20  25
ATOM     25  O   UNL     1     -14.482 -36.886 -15.235  1.00  0.00    -0.387 OA
ATOM     26  H   UNL     1     -14.060 -37.135 -14.370  1.00  0.00     0.211 HD
ENDBRANCH  20  25
BRANCH  21  27
ATOM     27  C   UNL     1     -14.724 -36.530 -11.920  1.00  0.00     0.191 C 
BRANCH  27  28
ATOM     28  O   UNL     1     -13.372 -36.214 -11.727  1.00  0.00    -0.394 OA
ATOM     29  H   UNL     1     -13.059 -36.788 -10.981  1.00  0.00     0.210 HD
ENDBRANCH  27  28
ENDBRANCH  21  27
BRANCH  22  30
ATOM     30  O   UNL     1     -17.160 -34.796 -14.165  1.00  0.00    -0.387 OA
ATOM     31  H   UNL     1     -16.793 -33.875 -14.093  1.00  0.00     0.211 HD
ENDBRANCH  22  30
ENDBRANCH   1  17
TORSDOF 10
ENDMDL
MODEL 3
REMARK VINA RESULT:    -5.829      1.757      3.508
REMARK INTER + INTRA:         -10.118
REMARK INTER:                  -8.944
REMARK INTRA:                  -1.174
REMARK UNBOUND:                -1.903
REMARK SMILES OC[C@H]1O[C@@H](O[C@@H]2OC=C[C@@H]3[C@H](O)[C@H]4O[C@@]4(CO)[C@@H]23)[C@@H](O)[C@@H](O)[C@@H]1O
REMARK SMILES IDX 6 1 7 2 10 3 9 4 11 5 8 6 19 7 12 8 16 9 14 10 15 11 13 12
REMARK SMILES IDX 17 14 18 15 5 17 20 18 4 19 22 20 3 21 24 22 21 23 23 25
REMARK SMILES IDX 2 27 1 28 25 30
REMARK H PARENT 13 13 18 16 21 24 23 26 1 29 25 31
REMARK Flexibility Score: inf
ROOT
ATOM      1  O   UNL     1     -13.163 -29.438 -11.334  1.00  0.00    -0.310 OA
ENDROOT
BRANCH   1   2
ATOM      2  C   UNL     1     -12.009 -30.079 -10.816  1.00  0.00     0.315 C 
ATOM      3  C   UNL     1      -9.222 -30.680 -11.404  1.00  0.00     0.018 C 
ATOM      4  C   UNL     1      -9.582 -29.433 -11.065  1.00  0.00     0.186 C 
ATOM      5  C   UNL     1     -10.259 -31.753 -11.287  1.00  0.00     0.059 C 
ATOM      6  O   UNL     1     -10.928 -29.122 -10.762  1.00  0.00    -0.472 OA
ATOM      7  C   UNL     1     -11.597 -31.213 -11.763  1.00  0.00     0.105 C 
ATOM      8  C   UNL     1     -10.105 -33.064 -12.055  1.00  0.00     0.154 C 
ATOM      9  C   UNL     1     -12.489 -32.448 -11.892  1.00  0.00     0.130 C 
ATOM     10  C   UNL     1     -11.553 -33.562 -12.205  1.00  0.00     0.183 C 
ATOM     11  O   UNL     1     -12.283 -33.520 -10.994  1.00  0.00    -0.360 OA
BRANCH   8  12
ATOM     12  O   UNL     1      -9.560 -32.846 -13.330  1.00  0.00    -0.390 OA
ATOM     13  H   UNL     1     -10.313 -32.899 -13.973  1.00  0.00     0.211 HD
ENDBRANCH   8  12
BRANCH   9  14
ATOM     14  C   UNL     1     -13.799 -32.458 -12.680  1.00  0.00     0.195 C 
BRANCH  14  15
ATOM     15  O   UNL     1     -13.737 -31.493 -13.691  1.00  0.00    -0.393 OA
ATOM     16  H   UNL     1     -12.773 -31.304 -13.833  1.00  0.00     0.210 HD
ENDBRANCH  14  15
ENDBRANCH   9  14
ENDBRANCH   1   2
BRANCH   1  17
ATOM     17  C   UNL     1     -12.852 -28.251 -12.046  1.00  0.00     0.286 C 
ATOM     18  C   UNL     1     -13.159 -28.424 -13.552  1.00  0.00     0.202 C 
ATOM     19  O   UNL     1     -13.649 -27.213 -11.506  1.00  0.00    -0.341 OA
ATOM     20  C   UNL     1     -12.776 -27.144 -14.337  1.00  0.00     0.179 C 
ATOM     21  C   UNL     1     -13.550 -25.957 -12.181  1.00  0.00     0.178 C 
ATOM     22  C   UNL     1     -12.602 -25.910 -13.419  1.00  0.00     0.177 C 
BRANCH  18  23
ATOM     23  O   UNL     1     -14.526 -28.712 -13.721  1.00  0.00    -0.385 OA
ATOM     24  H   UNL     1     -14.585 -29.590 -14.182  1.00  0.00     0.211 HD
ENDBRANCH  18  23
BRANCH  20  25
ATOM     25  O   UNL     1     -13.732 -26.857 -15.329  1.00  0.00    -0.387 OA
ATOM     26  H   UNL     1     -13.966 -27.720 -15.761  1.00  0.00     0.211 HD
ENDBRANCH  20  25
BRANCH  21  27
ATOM     27  C   UNL     1     -14.971 -25.494 -12.539  1.00  0.00     0.191 C 
BRANCH  27  28
ATOM     28  O   UNL     1     -14.925 -24.475 -13.500  1.00  0.00    -0.394 OA
ATOM     29  H   UNL     1     -15.822 -24.456 -13.924  1.00  0.00     0.210 HD
ENDBRANCH  27  28
ENDBRANCH  21  27
BRANCH  22  30
ATOM     30  O   UNL     1     -11.272 -25.829 -12.967  1.00  0.00    -0.387 OA
ATOM     31  H   UNL     1     -11.298 -25.873 -11.975  1.00  0.00     0.211 HD
ENDBRANCH  22  30
ENDBRANCH   1  17
TORSDOF 10
ENDMDL
MODEL 4
REMARK VINA RESULT:    -5.803      1.434      3.552
REMARK INTER + INTRA:         -10.082
REMARK INTER:                  -8.630
REMARK INTRA:                  -1.452
REMARK UNBOUND:                -1.903
REMARK SMILES OC[C@H]1O[C@@H](O[C@@H]2OC=C[C@@H]3[C@H](O)[C@H]4O[C@@]4(CO)[C@@H]23)[C@@H](O)[C@@H](O)[C@@H]1O
REMARK SMILES IDX 6 1 7 2 10 3 9 4 11 5 8 6 19 7 12 8 16 9 14 10 15 11 13 12
REMARK SMILES IDX 17 14 18 15 5 17 20 18 4 19 22 20 3 21 24 22 21 23 23 25
REMARK SMILES IDX 2 27 1 28 25 30
REMARK H PARENT 13 13 18 16 21 24 23 26 1 29 25 31
REMARK Flexibility Score: inf
ROOT
ATOM      1  O   UNL     1     -13.755 -30.664 -11.056  1.00  0.00    -0.310 OA
ENDROOT
BRANCH   1   2
ATOM      2  C   UNL     1     -12.705 -31.230 -10.287  1.00  0.00     0.315 C 
ATOM      3  C   UNL     1      -9.854 -31.818 -10.321  1.00  0.00     0.018 C 
ATOM      4  C   UNL     1     -10.277 -30.554 -10.167  1.00  0.00     0.186 C 
ATOM      5  C   UNL     1     -10.889 -32.899 -10.289  1.00  0.00     0.059 C 
ATOM      6  O   UNL     1     -11.658 -30.248 -10.134  1.00  0.00    -0.472 OA
ATOM      7  C   UNL     1     -12.126 -32.434 -11.039  1.00  0.00     0.105 C 
ATOM      8  C   UNL     1     -10.593 -34.270 -10.894  1.00  0.00     0.154 C 
ATOM      9  C   UNL     1     -12.972 -33.696 -11.207  1.00  0.00     0.130 C 
ATOM     10  C   UNL     1     -11.988 -34.812 -11.248  1.00  0.00     0.183 C 
ATOM     11  O   UNL     1     -12.921 -34.678 -10.192  1.00  0.00    -0.360 OA
BRANCH   8  12
ATOM     12  O   UNL     1      -9.833 -34.154 -12.069  1.00  0.00    -0.390 OA
ATOM     13  H   UNL     1     -10.372 -34.561 -12.796  1.00  0.00     0.211 HD
ENDBRANCH   8  12
BRANCH   9  14
ATOM     14  C   UNL     1     -14.123 -33.807 -12.207  1.00  0.00     0.195 C 
BRANCH  14  15
ATOM     15  O   UNL     1     -13.999 -32.797 -13.168  1.00  0.00    -0.393 OA
ATOM     16  H   UNL     1     -13.778 -33.253 -14.021  1.00  0.00     0.210 HD
ENDBRANCH  14  15
ENDBRANCH   9  14
ENDBRANCH   1   2
BRANCH   1  17
ATOM     17  C   UNL     1     -13.414 -29.395 -11.590  1.00  0.00     0.286 C 
ATOM     18  C   UNL     1     -13.207 -29.486 -13.119  1.00  0.00     0.202 C 
ATOM     19  O   UNL     1     -14.482 -28.513 -11.299  1.00  0.00    -0.341 OA
ATOM     20  C   UNL     1     -12.789 -28.110 -13.697  1.00  0.00     0.179 C 
ATOM     21  C   UNL     1     -14.362 -27.206 -11.863  1.00  0.00     0.178 C 
ATOM     22  C   UNL     1     -13.093 -26.941 -12.729  1.00  0.00     0.177 C 
BRANCH  18  23
ATOM     23  O   UNL     1     -14.395 -29.933 -13.727  1.00  0.00    -0.385 OA
ATOM     24  H   UNL     1     -15.020 -30.183 -12.997  1.00  0.00     0.211 HD
ENDBRANCH  18  23
BRANCH  20  25
ATOM     25  O   UNL     1     -13.419 -27.870 -14.932  1.00  0.00    -0.387 OA
ATOM     26  H   UNL     1     -13.165 -26.950 -15.210  1.00  0.00     0.211 HD
ENDBRANCH  20  25
BRANCH  21  27
ATOM     27  C   UNL     1     -15.653 -26.901 -12.640  1.00  0.00     0.191 C 
BRANCH  27  28
ATOM     28  O   UNL     1     -16.298 -28.093 -13.000  1.00  0.00    -0.394 OA
ATOM     29  H   UNL     1     -17.091 -28.165 -12.408  1.00  0.00     0.210 HD
ENDBRANCH  27  28
ENDBRANCH  21  27
BRANCH  22  30
ATOM     30  O   UNL     1     -11.998 -26.726 -11.873  1.00  0.00    -0.387 OA
ATOM     31  H   UNL     1     -11.951 -27.505 -11.258  1.00  0.00     0.211 HD
ENDBRANCH  22  30
ENDBRANCH   1  17
TORSDOF 10
ENDMDL
MODEL 5
REMARK VINA RESULT:    -5.651      2.466      6.471
REMARK INTER + INTRA:          -9.867
REMARK INTER:                  -8.598
REMARK INTRA:                  -1.268
REMARK UNBOUND:                -1.903
REMARK SMILES OC[C@H]1O[C@@H](O[C@@H]2OC=C[C@@H]3[C@H](O)[C@H]4O[C@@]4(CO)[C@@H]23)[C@@H](O)[C@@H](O)[C@@H]1O
REMARK SMILES IDX 6 1 7 2 10 3 9 4 11 5 8 6 19 7 12 8 16 9 14 10 15 11 13 12
REMARK SMILES IDX 17 14 18 15 5 17 20 18 4 19 22 20 3 21 24 22 21 23 23 25
REMARK SMILES IDX 2 27 1 28 25 30
REMARK H PARENT 13 13 18 16 21 24 23 26 1 29 25 31
REMARK Flexibility Score: inf
ROOT
ATOM      1  O   UNL     1     -13.157 -32.558 -13.584  1.00  0.00    -0.310 OA
ENDROOT
BRANCH   1   2
ATOM      2  C   UNL     1     -13.483 -31.660 -12.536  1.00  0.00     0.315 C 
ATOM      3  C   UNL     1     -13.436 -28.848 -11.784  1.00  0.00     0.018 C 
ATOM      4  C   UNL     1     -14.335 -29.289 -12.678  1.00  0.00     0.186 C 
ATOM      5  C   UNL     1     -12.609 -29.874 -11.076  1.00  0.00     0.059 C 
ATOM      6  O   UNL     1     -14.384 -30.654 -13.047  1.00  0.00    -0.472 OA
ATOM      7  C   UNL     1     -12.204 -30.961 -12.059  1.00  0.00     0.105 C 
ATOM      8  C   UNL     1     -11.291 -29.480 -10.412  1.00  0.00     0.154 C 
ATOM      9  C   UNL     1     -11.133 -31.767 -11.324  1.00  0.00     0.130 C 
ATOM     10  C   UNL     1     -10.489 -30.793 -10.401  1.00  0.00     0.183 C 
ATOM     11  O   UNL     1     -11.236 -31.895  -9.920  1.00  0.00    -0.360 OA
BRANCH   8  12
ATOM     12  O   UNL     1     -10.600 -28.526 -11.177  1.00  0.00    -0.390 OA
ATOM     13  H   UNL     1     -11.222 -27.764 -11.308  1.00  0.00     0.211 HD
ENDBRANCH   8  12
BRANCH   9  14
ATOM     14  C   UNL     1     -10.175 -32.725 -12.030  1.00  0.00     0.195 C 
BRANCH  14  15
ATOM     15  O   UNL     1     -10.247 -32.517 -13.412  1.00  0.00    -0.393 OA
ATOM     16  H   UNL     1      -9.502 -33.039 -13.809  1.00  0.00     0.210 HD
ENDBRANCH  14  15
ENDBRANCH   9  14
ENDBRANCH   1   2
BRANCH   1  17
ATOM     17  C   UNL     1     -13.532 -33.894 -13.292  1.00  0.00     0.286 C 
ATOM     18  C   UNL     1     -14.989 -33.949 -12.777  1.00  0.00     0.202 C 
ATOM     19  O   UNL     1     -13.416 -34.638 -14.491  1.00  0.00    -0.341 OA
ATOM     20  C   UNL     1     -15.386 -35.403 -12.414  1.00  0.00     0.179 C 
ATOM     21  C   UNL     1     -13.864 -35.992 -14.412  1.00  0.00     0.178 C 
ATOM     22  C   UNL     1     -14.434 -36.453 -13.035  1.00  0.00     0.177 C 
BRANCH  18  23
ATOM     23  O   UNL     1     -15.854 -33.436 -13.762  1.00  0.00    -0.385 OA
ATOM     24  H   UNL     1     -15.284 -33.065 -14.486  1.00  0.00     0.211 HD
ENDBRANCH  18  23
BRANCH  20  25
ATOM     25  O   UNL     1     -16.707 -35.678 -12.810  1.00  0.00    -0.387 OA
ATOM     26  H   UNL     1     -16.667 -35.979 -13.756  1.00  0.00     0.211 HD
ENDBRANCH  20  25
BRANCH  21  27
ATOM     27  C   UNL     1     -14.872 -36.228 -15.549  1.00  0.00     0.191 C 
BRANCH  27  28
ATOM     28  O   UNL     1     -15.173 -35.020 -16.192  1.00  0.00    -0.394 OA
ATOM     29  H   UNL     1     -15.202 -35.225 -17.163  1.00  0.00     0.210 HD
ENDBRANCH  27  28
ENDBRANCH  21  27
BRANCH  22  30
ATOM     30  O   UNL     1     -13.359 -36.706 -12.163  1.00  0.00    -0.387 OA
ATOM     31  H   UNL     1     -12.583 -36.182 -12.497  1.00  0.00     0.211 HD
ENDBRANCH  22  30
ENDBRANCH   1  17
TORSDOF 10
ENDMDL
MODEL 6
REMARK VINA RESULT:    -5.605      2.426      6.376
REMARK INTER + INTRA:          -9.802
REMARK INTER:                  -8.239
REMARK INTRA:                  -1.563
REMARK UNBOUND:                -1.903
REMARK SMILES OC[C@H]1O[C@@H](O[C@@H]2OC=C[C@@H]3[C@H](O)[C@H]4O[C@@]4(CO)[C@@H]23)[C@@H](O)[C@@H](O)[C@@H]1O
REMARK SMILES IDX 6 1 7 2 10 3 9 4 11 5 8 6 19 7 12 8 16 9 14 10 15 11 13 12
REMARK SMILES IDX 17 14 18 15 5 17 20 18 4 19 22 20 3 21 24 22 21 23 23 25
REMARK SMILES IDX 2 27 1 28 25 30
REMARK H PARENT 13 13 18 16 21 24 23 26 1 29 25 31
REMARK Flexibility Score: inf
ROOT
ATOM      1  O   UNL     1     -12.466 -32.649 -13.909  1.00  0.00    -0.310 OA
ENDROOT
BRANCH   1   2
ATOM      2  C   UNL     1     -11.417 -32.210 -13.063  1.00  0.00     0.315 C 
ATOM      3  C   UNL     1     -10.358 -32.443 -10.360  1.00  0.00     0.018 C 
ATOM      4  C   UNL     1     -10.227 -33.462 -11.223  1.00  0.00     0.186 C 
ATOM      5  C   UNL     1     -10.893 -31.152 -10.897  1.00  0.00     0.059 C 
ATOM      6  O   UNL     1     -10.721 -33.365 -12.544  1.00  0.00    -0.472 OA
ATOM      7  C   UNL     1     -12.016 -31.441 -11.878  1.00  0.00     0.105 C 
ATOM      8  C   UNL     1     -11.498 -30.114  -9.952  1.00  0.00     0.154 C 
ATOM      9  C   UNL     1     -12.679 -30.085 -12.118  1.00  0.00     0.130 C 
ATOM     10  C   UNL     1     -12.459 -29.325 -10.858  1.00  0.00     0.183 C 
ATOM     11  O   UNL     1     -11.869 -28.927 -12.081  1.00  0.00    -0.360 OA
BRANCH   8  12
ATOM     12  O   UNL     1     -12.233 -30.728  -8.926  1.00  0.00    -0.390 OA
ATOM     13  H   UNL     1     -12.083 -31.705  -9.014  1.00  0.00     0.211 HD
ENDBRANCH   8  12
BRANCH   9  14
ATOM     14  C   UNL     1     -14.067 -29.928 -12.738  1.00  0.00     0.195 C 
BRANCH  14  15
ATOM     15  O   UNL     1     -14.009 -30.270 -14.094  1.00  0.00    -0.393 OA
ATOM     16  H   UNL     1     -14.243 -29.447 -14.597  1.00  0.00     0.210 HD
ENDBRANCH  14  15
ENDBRANCH   9  14
ENDBRANCH   1   2
BRANCH   1  17
ATOM     17  C   UNL     1     -13.047 -33.866 -13.469  1.00  0.00     0.286 C 
ATOM     18  C   UNL     1     -14.478 -33.623 -12.935  1.00  0.00     0.202 C 
ATOM     19  O   UNL     1     -13.089 -34.741 -14.581  1.00  0.00    -0.341 OA
ATOM     20  C   UNL     1     -15.096 -34.944 -12.411  1.00  0.00     0.179 C 
ATOM     21  C   UNL     1     -13.750 -35.986 -14.350  1.00  0.00     0.178 C 
ATOM     22  C   UNL     1     -14.347 -36.198 -12.924  1.00  0.00     0.177 C 
BRANCH  18  23
ATOM     23  O   UNL     1     -15.275 -33.082 -13.960  1.00  0.00    -0.385 OA
ATOM     24  H   UNL     1     -15.109 -33.623 -14.776  1.00  0.00     0.211 HD
ENDBRANCH  18  23
BRANCH  20  25
ATOM     25  O   UNL     1     -16.456 -35.037 -12.759  1.00  0.00    -0.387 OA
ATOM     26  H   UNL     1     -16.538 -34.694 -13.688  1.00  0.00     0.211 HD
ENDBRANCH  20  25
BRANCH  21  27
ATOM     27  C   UNL     1     -14.815 -36.171 -15.442  1.00  0.00     0.191 C 
BRANCH  27  28
ATOM     28  O   UNL     1     -14.983 -34.982 -16.166  1.00  0.00    -0.394 OA
ATOM     29  H   UNL     1     -15.877 -34.632 -15.917  1.00  0.00     0.210 HD
ENDBRANCH  27  28
ENDBRANCH  21  27
BRANCH  22  30
ATOM     30  O   UNL     1     -13.303 -36.532 -12.042  1.00  0.00    -0.387 OA
ATOM     31  H   UNL     1     -13.374 -37.506 -11.862  1.00  0.00     0.211 HD
ENDBRANCH  22  30
ENDBRANCH   1  17
TORSDOF 10
ENDMDL
MODEL 7
REMARK VINA RESULT:    -5.604      1.373      2.365
REMARK INTER + INTRA:          -9.801
REMARK INTER:                  -8.926
REMARK INTRA:                  -0.875
REMARK UNBOUND:                -1.903
REMARK SMILES OC[C@H]1O[C@@H](O[C@@H]2OC=C[C@@H]3[C@H](O)[C@H]4O[C@@]4(CO)[C@@H]23)[C@@H](O)[C@@H](O)[C@@H]1O
REMARK SMILES IDX 6 1 7 2 10 3 9 4 11 5 8 6 19 7 12 8 16 9 14 10 15 11 13 12
REMARK SMILES IDX 17 14 18 15 5 17 20 18 4 19 22 20 3 21 24 22 21 23 23 25
REMARK SMILES IDX 2 27 1 28 25 30
REMARK H PARENT 13 13 18 16 21 24 23 26 1 29 25 31
REMARK Flexibility Score: inf
ROOT
ATOM      1  O   UNL     1     -13.672 -30.434 -11.024  1.00  0.00    -0.310 OA
ENDROOT
BRANCH   1   2
ATOM      2  C   UNL     1     -13.053 -31.563 -11.619  1.00  0.00     0.315 C 
ATOM      3  C   UNL     1     -13.220 -34.462 -11.833  1.00  0.00     0.018 C 
ATOM      4  C   UNL     1     -14.108 -33.689 -12.477  1.00  0.00     0.186 C 
ATOM      5  C   UNL     1     -12.064 -33.778 -11.172  1.00  0.00     0.059 C 
ATOM      6  O   UNL     1     -14.036 -32.278 -12.397  1.00  0.00    -0.472 OA
ATOM      7  C   UNL     1     -12.546 -32.497 -10.513  1.00  0.00     0.105 C 
ATOM      8  C   UNL     1     -11.281 -34.482 -10.065  1.00  0.00     0.154 C 
ATOM      9  C   UNL     1     -11.380 -32.055  -9.628  1.00  0.00     0.130 C 
ATOM     10  C   UNL     1     -10.687 -33.318  -9.253  1.00  0.00     0.183 C 
ATOM     11  O   UNL     1     -10.065 -32.337 -10.062  1.00  0.00    -0.360 OA
BRANCH   8  12
ATOM     12  O   UNL     1     -12.132 -35.232  -9.238  1.00  0.00    -0.390 OA
ATOM     13  H   UNL     1     -11.941 -34.950  -8.306  1.00  0.00     0.211 HD
ENDBRANCH   8  12
BRANCH   9  14
ATOM     14  C   UNL     1     -11.524 -31.033  -8.501  1.00  0.00     0.195 C 
BRANCH  14  15
ATOM     15  O   UNL     1     -11.237 -29.756  -8.996  1.00  0.00    -0.393 OA
ATOM     16  H   UNL     1     -11.962 -29.540  -9.638  1.00  0.00     0.210 HD
ENDBRANCH  14  15
ENDBRANCH   9  14
ENDBRANCH   1   2
BRANCH   1  17
ATOM     17  C   UNL     1     -13.278 -29.215 -11.633  1.00  0.00     0.286 C 
ATOM     18  C   UNL     1     -13.242 -29.363 -13.172  1.00  0.00     0.202 C 
ATOM     19  O   UNL     1     -14.228 -28.232 -11.265  1.00  0.00    -0.341 OA
ATOM     20  C   UNL     1     -12.769 -28.045 -13.837  1.00  0.00     0.179 C 
ATOM     21  C   UNL     1     -14.054 -26.956 -11.883  1.00  0.00     0.178 C 
ATOM     22  C   UNL     1     -12.865 -26.830 -12.884  1.00  0.00     0.177 C 
BRANCH  18  23
ATOM     23  O   UNL     1     -14.523 -29.715 -13.638  1.00  0.00    -0.385 OA
ATOM     24  H   UNL     1     -15.092 -29.869 -12.840  1.00  0.00     0.211 HD
ENDBRANCH  18  23
BRANCH  20  25
ATOM     25  O   UNL     1     -13.502 -27.780 -15.008  1.00  0.00    -0.387 OA
ATOM     26  H   UNL     1     -14.463 -27.817 -14.759  1.00  0.00     0.211 HD
ENDBRANCH  20  25
BRANCH  21  27
ATOM     27  C   UNL     1     -15.387 -26.555 -12.534  1.00  0.00     0.191 C 
BRANCH  27  28
ATOM     28  O   UNL     1     -16.091 -27.694 -12.948  1.00  0.00    -0.394 OA
ATOM     29  H   UNL     1     -15.432 -28.437 -12.954  1.00  0.00     0.210 HD
ENDBRANCH  27  28
ENDBRANCH  21  27
BRANCH  22  30
ATOM     30  O   UNL     1     -11.670 -26.694 -12.153  1.00  0.00    -0.387 OA
ATOM     31  H   UNL     1     -11.042 -27.387 -12.488  1.00  0.00     0.211 HD
ENDBRANCH  22  30
ENDBRANCH   1  17
TORSDOF 10
ENDMDL
MODEL 8
REMARK VINA RESULT:    -5.531      1.441      1.878
REMARK INTER + INTRA:          -9.698
REMARK INTER:                  -8.508
REMARK INTRA:                  -1.190
REMARK UNBOUND:                -1.903
REMARK SMILES OC[C@H]1O[C@@H](O[C@@H]2OC=C[C@@H]3[C@H](O)[C@H]4O[C@@]4(CO)[C@@H]23)[C@@H](O)[C@@H](O)[C@@H]1O
REMARK SMILES IDX 6 1 7 2 10 3 9 4 11 5 8 6 19 7 12 8 16 9 14 10 15 11 13 12
REMARK SMILES IDX 17 14 18 15 5 17 20 18 4 19 22 20 3 21 24 22 21 23 23 25
REMARK SMILES IDX 2 27 1 28 25 30
REMARK H PARENT 13 13 18 16 21 24 23 26 1 29 25 31
REMARK Flexibility Score: inf
ROOT
ATOM      1  O   UNL     1     -12.308 -29.905 -12.766  1.00  0.00    -0.310 OA
ENDROOT
BRANCH   1   2
ATOM      2  C   UNL     1     -12.631 -31.153 -13.358  1.00  0.00     0.315 C 
ATOM      3  C   UNL     1     -14.529 -33.358 -13.245  1.00  0.00     0.018 C 
ATOM      4  C   UNL     1     -14.900 -32.180 -13.769  1.00  0.00     0.186 C 
ATOM      5  C   UNL     1     -13.083 -33.535 -12.902  1.00  0.00     0.059 C 
ATOM      6  O   UNL     1     -13.989 -31.100 -13.847  1.00  0.00    -0.472 OA
ATOM      7  C   UNL     1     -12.550 -32.251 -12.290  1.00  0.00     0.105 C 
ATOM      8  C   UNL     1     -12.651 -34.614 -11.911  1.00  0.00     0.154 C 
ATOM      9  C   UNL     1     -11.190 -32.636 -11.707  1.00  0.00     0.130 C 
ATOM     10  C   UNL     1     -11.320 -34.076 -11.356  1.00  0.00     0.183 C 
ATOM     11  O   UNL     1     -10.435 -33.632 -12.367  1.00  0.00    -0.360 OA
BRANCH   8  12
ATOM     12  O   UNL     1     -13.571 -34.737 -10.859  1.00  0.00    -0.390 OA
ATOM     13  H   UNL     1     -14.356 -35.223 -11.223  1.00  0.00     0.211 HD
ENDBRANCH   8  12
BRANCH   9  14
ATOM     14  C   UNL     1     -10.445 -31.782 -10.682  1.00  0.00     0.195 C 
BRANCH  14  15
ATOM     15  O   UNL     1     -11.313 -30.810 -10.172  1.00  0.00    -0.393 OA
ATOM     16  H   UNL     1     -11.647 -30.301 -10.955  1.00  0.00     0.210 HD
ENDBRANCH  14  15
ENDBRANCH   9  14
ENDBRANCH   1   2
BRANCH   1  17
ATOM     17  C   UNL     1     -13.391 -28.990 -12.801  1.00  0.00     0.286 C 
ATOM     18  C   UNL     1     -13.389 -28.097 -11.540  1.00  0.00     0.202 C 
ATOM     19  O   UNL     1     -13.233 -28.192 -13.960  1.00  0.00    -0.341 OA
ATOM     20  C   UNL     1     -14.598 -27.128 -11.555  1.00  0.00     0.179 C 
ATOM     21  C   UNL     1     -14.180 -27.131 -14.101  1.00  0.00     0.178 C 
ATOM     22  C   UNL     1     -15.233 -26.989 -12.959  1.00  0.00     0.177 C 
BRANCH  18  23
ATOM     23  O   UNL     1     -12.182 -27.374 -11.480  1.00  0.00    -0.385 OA
ATOM     24  H   UNL     1     -12.377 -26.518 -11.016  1.00  0.00     0.211 HD
ENDBRANCH  18  23
BRANCH  20  25
ATOM     25  O   UNL     1     -14.230 -25.855 -11.081  1.00  0.00    -0.387 OA
ATOM     26  H   UNL     1     -13.631 -26.001 -10.302  1.00  0.00     0.211 HD
ENDBRANCH  20  25
BRANCH  21  27
ATOM     27  C   UNL     1     -13.402 -25.824 -14.319  1.00  0.00     0.191 C 
BRANCH  27  28
ATOM     28  O   UNL     1     -12.030 -26.032 -14.119  1.00  0.00    -0.394 OA
ATOM     29  H   UNL     1     -11.943 -26.947 -13.746  1.00  0.00     0.210 HD
ENDBRANCH  27  28
ENDBRANCH  21  27
BRANCH  22  30
ATOM     30  O   UNL     1     -16.228 -27.967 -13.138  1.00  0.00    -0.387 OA
ATOM     31  H   UNL     1     -15.800 -28.851 -12.982  1.00  0.00     0.211 HD
ENDBRANCH  22  30
ENDBRANCH   1  17
TORSDOF 10
ENDMDL
MODEL 9
REMARK VINA RESULT:    -5.473      1.383      3.137
REMARK INTER + INTRA:          -9.616
REMARK INTER:                  -8.707
REMARK INTRA:                  -0.909
REMARK UNBOUND:                -1.903
REMARK SMILES OC[C@H]1O[C@@H](O[C@@H]2OC=C[C@@H]3[C@H](O)[C@H]4O[C@@]4(CO)[C@@H]23)[C@@H](O)[C@@H](O)[C@@H]1O
REMARK SMILES IDX 6 1 7 2 10 3 9 4 11 5 8 6 19 7 12 8 16 9 14 10 15 11 13 12
REMARK SMILES IDX 17 14 18 15 5 17 20 18 4 19 22 20 3 21 24 22 21 23 23 25
REMARK SMILES IDX 2 27 1 28 25 30
REMARK H PARENT 13 13 18 16 21 24 23 26 1 29 25 31
REMARK Flexibility Score: inf
ROOT
ATOM      1  O   UNL     1     -12.611 -30.284 -12.661  1.00  0.00    -0.310 OA
ENDROOT
BRANCH   1   2
ATOM      2  C   UNL     1     -12.700 -31.057 -11.475  1.00  0.00     0.315 C 
ATOM      3  C   UNL     1     -11.227 -32.934  -9.807  1.00  0.00     0.018 C 
ATOM      4  C   UNL     1     -10.893 -31.635  -9.811  1.00  0.00     0.186 C 
ATOM      5  C   UNL     1     -12.473 -33.327 -10.537  1.00  0.00     0.059 C 
ATOM      6  O   UNL     1     -11.605 -30.703 -10.603  1.00  0.00    -0.472 OA
ATOM      7  C   UNL     1     -12.565 -32.542 -11.835  1.00  0.00     0.105 C 
ATOM      8  C   UNL     1     -12.688 -34.775 -10.974  1.00  0.00     0.154 C 
ATOM      9  C   UNL     1     -13.679 -33.231 -12.624  1.00  0.00     0.130 C 
ATOM     10  C   UNL     1     -13.648 -34.648 -12.170  1.00  0.00     0.183 C 
ATOM     11  O   UNL     1     -14.753 -33.804 -11.907  1.00  0.00    -0.360 OA
BRANCH   8  12
ATOM     12  O   UNL     1     -11.487 -35.359 -11.409  1.00  0.00    -0.390 OA
ATOM     13  H   UNL     1     -11.422 -35.180 -12.383  1.00  0.00     0.211 HD
ENDBRANCH   8  12
BRANCH   9  14
ATOM     14  C   UNL     1     -13.887 -33.034 -14.126  1.00  0.00     0.195 C 
BRANCH  14  15
ATOM     15  O   UNL     1     -14.833 -32.024 -14.332  1.00  0.00    -0.393 OA
ATOM     16  H   UNL     1     -14.524 -31.243 -13.803  1.00  0.00     0.210 HD
ENDBRANCH  14  15
ENDBRANCH   9  14
ENDBRANCH   1   2
BRANCH   1  17
ATOM     17  C   UNL     1     -13.597 -29.266 -12.721  1.00  0.00     0.286 C 
ATOM     18  C   UNL     1     -13.480 -28.323 -11.501  1.00  0.00     0.202 C 
ATOM     19  O   UNL     1     -13.381 -28.538 -13.917  1.00  0.00    -0.341 OA
ATOM     20  C   UNL     1     -14.586 -27.237 -11.542  1.00  0.00     0.179 C 
ATOM     21  C   UNL     1     -14.218 -27.394 -14.091  1.00  0.00     0.178 C 
ATOM     22  C   UNL     1     -15.230 -27.096 -12.942  1.00  0.00     0.177 C 
BRANCH  18  23
ATOM     23  O   UNL     1     -12.206 -27.725 -11.492  1.00  0.00    -0.385 OA
ATOM     24  H   UNL     1     -12.342 -26.746 -11.594  1.00  0.00     0.211 HD
ENDBRANCH  18  23
BRANCH  20  25
ATOM     25  O   UNL     1     -14.082 -25.990 -11.132  1.00  0.00    -0.387 OA
ATOM     26  H   UNL     1     -14.727 -25.623 -10.471  1.00  0.00     0.211 HD
ENDBRANCH  20  25
BRANCH  21  27
ATOM     27  C   UNL     1     -13.317 -26.183 -14.380  1.00  0.00     0.191 C 
BRANCH  27  28
ATOM     28  O   UNL     1     -12.066 -26.607 -14.851  1.00  0.00    -0.394 OA
ATOM     29  H   UNL     1     -11.493 -26.717 -14.048  1.00  0.00     0.210 HD
ENDBRANCH  27  28
ENDBRANCH  21  27
BRANCH  22  30
ATOM     30  O   UNL     1     -16.322 -27.975 -13.062  1.00  0.00    -0.387 OA
ATOM     31  H   UNL     1     -16.853 -27.897 -12.225  1.00  0.00     0.211 HD
ENDBRANCH  22  30
ENDBRANCH   1  17
TORSDOF 10
ENDMDL
