MODEL 1
REMARK VINA RESULT:     8.017      0.000      0.000
REMARK INTER + INTRA:          14.707
REMARK INTER:                  15.516
REMARK INTRA:                  -0.808
REMARK UNBOUND:                -0.808
REMARK SMILES CCCCCCCCCCCCCCCCCC(=O)[O-]
REMARK SMILES IDX 10 1 11 2 12 3 13 4 14 5 15 6 16 7 17 8 18 9 19 10 20 11
REMARK SMILES IDX 9 12 8 13 7 14 6 15 5 16 4 17 3 18 2 19 1 20
REMARK H PARENT
REMARK Flexibility Score: inf
ROOT
ATOM      1  C   UNL     1     -20.139   5.799 -19.489  1.00  0.00     0.000 C 
ENDROOT
BRANCH   1   2
ATOM      2  C   UNL     1     -20.963   7.090 -19.658  1.00  0.00     0.000 C 
BRANCH   2   3
ATOM      3  C   UNL     1     -21.871   7.409 -18.451  1.00  0.00     0.000 C 
BRANCH   3   4
ATOM      4  C   UNL     1     -23.367   7.373 -18.814  1.00  0.00     0.000 C 
BRANCH   4   5
ATOM      5  C   UNL     1     -23.863   8.699 -19.412  1.00  0.00     0.000 C 
BRANCH   5   6
ATOM      6  C   UNL     1     -23.477   9.917 -18.555  1.00  0.00     0.000 C 
BRANCH   6   7
ATOM      7  C   UNL     1     -23.855   9.735 -17.071  1.00  0.00     0.006 C 
BRANCH   7   8
ATOM      8  C   UNL     1     -22.983  10.560 -16.110  1.00  0.00     0.053 C 
BRANCH   8   9
ATOM      9  C   UNL     1     -21.900   9.742 -15.482  1.00  0.00     0.041 C 
ATOM     10  O   UNL     1     -20.691  10.059 -15.641  1.00  0.00    -0.550 OA
ATOM     11  O   UNL     1     -22.223   8.614 -14.739  1.00  0.00    -0.550 OA
ENDBRANCH   8   9
ENDBRANCH   7   8
ENDBRANCH   6   7
ENDBRANCH   5   6
ENDBRANCH   4   5
ENDBRANCH   3   4
ENDBRANCH   2   3
ENDBRANCH   1   2
BRANCH   1  12
ATOM     12  C   UNL     1     -20.677   4.822 -18.429  1.00  0.00     0.000 C 
BRANCH  12  13
ATOM     13  C   UNL     1     -20.284   3.344 -18.641  1.00  0.00    -0.000 C 
BRANCH  13  14
ATOM     14  C   UNL     1     -19.067   3.116 -19.556  1.00  0.00    -0.000 C 
BRANCH  14  15
ATOM     15  C   UNL     1     -17.752   3.615 -18.938  1.00  0.00    -0.000 C 
BRANCH  15  16
ATOM     16  C   UNL     1     -16.822   4.186 -20.014  1.00  0.00    -0.000 C 
BRANCH  16  17
ATOM     17  C   UNL     1     -15.371   4.232 -19.520  1.00  0.00    -0.000 C 
BRANCH  17  18
ATOM     18  C   UNL     1     -15.102   3.117 -18.499  1.00  0.00    -0.000 C 
BRANCH  18  19
ATOM     19  C   UNL     1     -14.077   3.530 -17.431  1.00  0.00    -0.003 C 
ATOM     20  C   UNL     1     -14.415   2.982 -16.045  1.00  0.00     0.004 C 
ENDBRANCH  18  19
ENDBRANCH  17  18
ENDBRANCH  16  17
ENDBRANCH  15  16
ENDBRANCH  14  15
ENDBRANCH  13  14
ENDBRANCH  12  13
ENDBRANCH   1  12
TORSDOF 16
ENDMDL
MODEL 2
REMARK VINA RESULT:     8.259      0.994      1.413
REMARK INTER + INTRA:          15.176
REMARK INTER:                  15.459
REMARK INTRA:                  -0.283
REMARK UNBOUND:                -0.808
REMARK SMILES CCCCCCCCCCCCCCCCCC(=O)[O-]
REMARK SMILES IDX 10 1 11 2 12 3 13 4 14 5 15 6 16 7 17 8 18 9 19 10 20 11
REMARK SMILES IDX 9 12 8 13 7 14 6 15 5 16 4 17 3 18 2 19 1 20
REMARK H PARENT
REMARK Flexibility Score: inf
ROOT
ATOM      1  C   UNL     1     -20.240   5.429 -19.893  1.00  0.00     0.000 C 
ENDROOT
BRANCH   1   2
ATOM      2  C   UNL     1     -21.041   6.743 -19.829  1.00  0.00     0.000 C 
BRANCH   2   3
ATOM      3  C   UNL     1     -21.506   7.118 -18.405  1.00  0.00     0.000 C 
BRANCH   3   4
ATOM      4  C   UNL     1     -23.010   7.440 -18.343  1.00  0.00     0.000 C 
BRANCH   4   5
ATOM      5  C   UNL     1     -23.362   8.763 -19.045  1.00  0.00     0.000 C 
BRANCH   5   6
ATOM      6  C   UNL     1     -22.852   9.994 -18.277  1.00  0.00     0.000 C 
BRANCH   6   7
ATOM      7  C   UNL     1     -23.807  10.415 -17.140  1.00  0.00     0.006 C 
BRANCH   7   8
ATOM      8  C   UNL     1     -23.584   9.637 -15.833  1.00  0.00     0.053 C 
BRANCH   8   9
ATOM      9  C   UNL     1     -22.134   9.509 -15.488  1.00  0.00     0.041 C 
ATOM     10  O   UNL     1     -21.271  10.183 -16.110  1.00  0.00    -0.550 OA
ATOM     11  O   UNL     1     -21.731   8.625 -14.494  1.00  0.00    -0.550 OA
ENDBRANCH   8   9
ENDBRANCH   7   8
ENDBRANCH   6   7
ENDBRANCH   5   6
ENDBRANCH   4   5
ENDBRANCH   3   4
ENDBRANCH   2   3
ENDBRANCH   1   2
BRANCH   1  12
ATOM     12  C   UNL     1     -20.475   4.469 -18.712  1.00  0.00     0.000 C 
BRANCH  12  13
ATOM     13  C   UNL     1     -19.783   3.095 -18.837  1.00  0.00    -0.000 C 
BRANCH  13  14
ATOM     14  C   UNL     1     -18.963   2.891 -20.124  1.00  0.00    -0.000 C 
BRANCH  14  15
ATOM     15  C   UNL     1     -17.448   2.905 -19.877  1.00  0.00    -0.000 C 
BRANCH  15  16
ATOM     16  C   UNL     1     -17.136   2.875 -18.376  1.00  0.00    -0.000 C 
BRANCH  16  17
ATOM     17  C   UNL     1     -15.710   3.366 -18.099  1.00  0.00    -0.000 C 
BRANCH  17  18
ATOM     18  C   UNL     1     -14.815   3.177 -19.333  1.00  0.00    -0.000 C 
BRANCH  18  19
ATOM     19  C   UNL     1     -14.533   4.498 -20.065  1.00  0.00    -0.003 C 
ATOM     20  C   UNL     1     -13.885   5.548 -19.164  1.00  0.00     0.004 C 
ENDBRANCH  18  19
ENDBRANCH  17  18
ENDBRANCH  16  17
ENDBRANCH  15  16
ENDBRANCH  14  15
ENDBRANCH  13  14
ENDBRANCH  12  13
ENDBRANCH   1  12
TORSDOF 16
ENDMDL
MODEL 3
REMARK VINA RESULT:     8.468      3.315      8.265
REMARK INTER + INTRA:          15.581
REMARK INTER:                  15.219
REMARK INTRA:                   0.362
REMARK UNBOUND:                -0.808
REMARK SMILES CCCCCCCCCCCCCCCCCC(=O)[O-]
REMARK SMILES IDX 10 1 11 2 12 3 13 4 14 5 15 6 16 7 17 8 18 9 19 10 20 11
REMARK SMILES IDX 9 12 8 13 7 14 6 15 5 16 4 17 3 18 2 19 1 20
REMARK H PARENT
REMARK Flexibility Score: inf
ROOT
ATOM      1  C   UNL     1     -19.901   5.565 -18.740  1.00  0.00     0.000 C 
ENDROOT
BRANCH   1   2
ATOM      2  C   UNL     1     -20.732   4.281 -18.549  1.00  0.00     0.000 C 
BRANCH   2   3
ATOM      3  C   UNL     1     -19.918   2.982 -18.730  1.00  0.00     0.000 C 
BRANCH   3   4
ATOM      4  C   UNL     1     -19.223   2.910 -20.102  1.00  0.00     0.000 C 
BRANCH   4   5
ATOM      5  C   UNL     1     -17.690   2.893 -19.989  1.00  0.00     0.000 C 
BRANCH   5   6
ATOM      6  C   UNL     1     -17.203   2.933 -18.530  1.00  0.00     0.000 C 
BRANCH   6   7
ATOM      7  C   UNL     1     -16.391   4.206 -18.216  1.00  0.00     0.006 C 
BRANCH   7   8
ATOM      8  C   UNL     1     -14.878   3.958 -18.111  1.00  0.00     0.053 C 
BRANCH   8   9
ATOM      9  C   UNL     1     -14.194   4.043 -19.439  1.00  0.00     0.041 C 
ATOM     10  O   UNL     1     -13.882   2.993 -20.061  1.00  0.00    -0.550 OA
ATOM     11  O   UNL     1     -13.879   5.283 -19.981  1.00  0.00    -0.550 OA
ENDBRANCH   8   9
ENDBRANCH   7   8
ENDBRANCH   6   7
ENDBRANCH   5   6
ENDBRANCH   4   5
ENDBRANCH   3   4
ENDBRANCH   2   3
ENDBRANCH   1   2
BRANCH   1  12
ATOM     12  C   UNL     1     -20.162   6.314 -20.059  1.00  0.00     0.000 C 
BRANCH  12  13
ATOM     13  C   UNL     1     -21.417   7.212 -20.066  1.00  0.00    -0.000 C 
BRANCH  13  14
ATOM     14  C   UNL     1     -22.384   6.992 -18.887  1.00  0.00    -0.000 C 
BRANCH  14  15
ATOM     15  C   UNL     1     -22.478   8.209 -17.956  1.00  0.00    -0.000 C 
BRANCH  15  16
ATOM     16  C   UNL     1     -23.511   9.218 -18.473  1.00  0.00    -0.000 C 
BRANCH  16  17
ATOM     17  C   UNL     1     -24.252   9.892 -17.312  1.00  0.00    -0.000 C 
BRANCH  17  18
ATOM     18  C   UNL     1     -23.445   9.786 -16.009  1.00  0.00    -0.000 C 
BRANCH  18  19
ATOM     19  C   UNL     1     -22.078  10.481 -16.104  1.00  0.00    -0.003 C 
ATOM     20  C   UNL     1     -20.909   9.496 -16.071  1.00  0.00     0.004 C 
ENDBRANCH  18  19
ENDBRANCH  17  18
ENDBRANCH  16  17
ENDBRANCH  15  16
ENDBRANCH  14  15
ENDBRANCH  13  14
ENDBRANCH  12  13
ENDBRANCH   1  12
TORSDOF 16
ENDMDL
MODEL 4
REMARK VINA RESULT:     8.768      1.094      2.405
REMARK INTER + INTRA:          16.161
REMARK INTER:                  15.487
REMARK INTRA:                   0.674
REMARK UNBOUND:                -0.808
REMARK SMILES CCCCCCCCCCCCCCCCCC(=O)[O-]
REMARK SMILES IDX 10 1 11 2 12 3 13 4 14 5 15 6 16 7 17 8 18 9 19 10 20 11
REMARK SMILES IDX 9 12 8 13 7 14 6 15 5 16 4 17 3 18 2 19 1 20
REMARK H PARENT
REMARK Flexibility Score: inf
ROOT
ATOM      1  C   UNL     1     -18.754   5.070 -19.270  1.00  0.00     0.000 C 
ENDROOT
BRANCH   1   2
ATOM      2  C   UNL     1     -19.937   5.789 -19.946  1.00  0.00     0.000 C 
BRANCH   2   3
ATOM      3  C   UNL     1     -21.205   5.857 -19.069  1.00  0.00     0.000 C 
BRANCH   3   4
ATOM      4  C   UNL     1     -22.070   7.092 -19.379  1.00  0.00     0.000 C 
BRANCH   4   5
ATOM      5  C   UNL     1     -22.094   8.104 -18.221  1.00  0.00     0.000 C 
BRANCH   5   6
ATOM      6  C   UNL     1     -23.399   8.917 -18.173  1.00  0.00     0.000 C 
BRANCH   6   7
ATOM      7  C   UNL     1     -23.865   9.196 -16.729  1.00  0.00     0.006 C 
BRANCH   7   8
ATOM      8  C   UNL     1     -22.920  10.123 -15.948  1.00  0.00     0.053 C 
BRANCH   8   9
ATOM      9  C   UNL     1     -21.511   9.620 -15.937  1.00  0.00     0.041 C 
ATOM     10  O   UNL     1     -21.131   8.815 -15.046  1.00  0.00    -0.550 OA
ATOM     11  O   UNL     1     -20.608  10.060 -16.897  1.00  0.00    -0.550 OA
ENDBRANCH   8   9
ENDBRANCH   7   8
ENDBRANCH   6   7
ENDBRANCH   5   6
ENDBRANCH   4   5
ENDBRANCH   3   4
ENDBRANCH   2   3
ENDBRANCH   1   2
BRANCH   1  12
ATOM     12  C   UNL     1     -18.209   3.855 -20.040  1.00  0.00     0.000 C 
BRANCH  12  13
ATOM     13  C   UNL     1     -16.755   3.462 -19.702  1.00  0.00    -0.000 C 
BRANCH  13  14
ATOM     14  C   UNL     1     -15.718   4.588 -19.869  1.00  0.00    -0.000 C 
BRANCH  14  15
ATOM     15  C   UNL     1     -14.357   4.246 -19.244  1.00  0.00    -0.000 C 
BRANCH  15  16
ATOM     16  C   UNL     1     -14.398   2.877 -18.554  1.00  0.00    -0.000 C 
BRANCH  16  17
ATOM     17  C   UNL     1     -13.876   2.969 -17.115  1.00  0.00    -0.000 C 
BRANCH  17  18
ATOM     18  C   UNL     1     -15.036   2.980 -16.109  1.00  0.00    -0.000 C 
BRANCH  18  19
ATOM     19  C   UNL     1     -14.734   3.834 -14.869  1.00  0.00    -0.003 C 
ATOM     20  C   UNL     1     -14.244   3.003 -13.683  1.00  0.00     0.004 C 
ENDBRANCH  18  19
ENDBRANCH  17  18
ENDBRANCH  16  17
ENDBRANCH  15  16
ENDBRANCH  14  15
ENDBRANCH  13  14
ENDBRANCH  12  13
ENDBRANCH   1  12
TORSDOF 16
ENDMDL
MODEL 5
REMARK VINA RESULT:     9.667      3.146      8.806
REMARK INTER + INTRA:          17.900
REMARK INTER:                  16.612
REMARK INTRA:                   1.288
REMARK UNBOUND:                -0.808
REMARK SMILES CCCCCCCCCCCCCCCCCC(=O)[O-]
REMARK SMILES IDX 10 1 11 2 12 3 13 4 14 5 15 6 16 7 17 8 18 9 19 10 20 11
REMARK SMILES IDX 9 12 8 13 7 14 6 15 5 16 4 17 3 18 2 19 1 20
REMARK H PARENT
REMARK Flexibility Score: inf
ROOT
ATOM      1  C   UNL     1     -20.541   5.740 -18.539  1.00  0.00     0.000 C 
ENDROOT
BRANCH   1   2
ATOM      2  C   UNL     1     -21.348   4.605 -19.198  1.00  0.00     0.000 C 
BRANCH   2   3
ATOM      3  C   UNL     1     -20.850   3.192 -18.825  1.00  0.00     0.000 C 
BRANCH   3   4
ATOM      4  C   UNL     1     -19.319   3.126 -18.677  1.00  0.00     0.000 C 
BRANCH   4   5
ATOM      5  C   UNL     1     -18.586   3.985 -19.721  1.00  0.00     0.000 C 
BRANCH   5   6
ATOM      6  C   UNL     1     -17.112   4.231 -19.355  1.00  0.00     0.000 C 
BRANCH   6   7
ATOM      7  C   UNL     1     -16.152   3.302 -20.125  1.00  0.00     0.006 C 
BRANCH   7   8
ATOM      8  C   UNL     1     -14.923   2.875 -19.305  1.00  0.00     0.053 C 
BRANCH   8   9
ATOM      9  C   UNL     1     -15.036   3.266 -17.866  1.00  0.00     0.041 C 
ATOM     10  O   UNL     1     -16.168   3.434 -17.340  1.00  0.00    -0.550 OA
ATOM     11  O   UNL     1     -13.889   3.471 -17.109  1.00  0.00    -0.550 OA
ENDBRANCH   8   9
ENDBRANCH   7   8
ENDBRANCH   6   7
ENDBRANCH   5   6
ENDBRANCH   4   5
ENDBRANCH   3   4
ENDBRANCH   2   3
ENDBRANCH   1   2
BRANCH   1  12
ATOM     12  C   UNL     1     -20.402   7.014 -19.390  1.00  0.00     0.000 C 
BRANCH  12  13
ATOM     13  C   UNL     1     -21.098   8.266 -18.815  1.00  0.00    -0.000 C 
BRANCH  13  14
ATOM     14  C   UNL     1     -22.201   7.982 -17.779  1.00  0.00    -0.000 C 
BRANCH  14  15
ATOM     15  C   UNL     1     -22.043   8.808 -16.494  1.00  0.00    -0.000 C 
BRANCH  15  16
ATOM     16  C   UNL     1     -22.731  10.171 -16.629  1.00  0.00    -0.000 C 
BRANCH  16  17
ATOM     17  C   UNL     1     -23.337  10.347 -18.027  1.00  0.00    -0.000 C 
BRANCH  17  18
ATOM     18  C   UNL     1     -23.499  11.834 -18.373  1.00  0.00    -0.000 C 
BRANCH  18  19
ATOM     19  C   UNL     1     -24.080  12.053 -19.779  1.00  0.00    -0.003 C 
ATOM     20  C   UNL     1     -24.632  13.464 -19.977  1.00  0.00     0.004 C 
ENDBRANCH  18  19
ENDBRANCH  17  18
ENDBRANCH  16  17
ENDBRANCH  15  16
ENDBRANCH  14  15
ENDBRANCH  13  14
ENDBRANCH  12  13
ENDBRANCH   1  12
TORSDOF 16
ENDMDL
MODEL 6
REMARK VINA RESULT:    10.346      3.275      4.146
REMARK INTER + INTRA:          19.215
REMARK INTER:                  19.818
REMARK INTRA:                  -0.603
REMARK UNBOUND:                -0.808
REMARK SMILES CCCCCCCCCCCCCCCCCC(=O)[O-]
REMARK SMILES IDX 10 1 11 2 12 3 13 4 14 5 15 6 16 7 17 8 18 9 19 10 20 11
REMARK SMILES IDX 9 12 8 13 7 14 6 15 5 16 4 17 3 18 2 19 1 20
REMARK H PARENT
REMARK Flexibility Score: inf
ROOT
ATOM      1  C   UNL     1     -22.071   8.218 -18.729  1.00  0.00     0.000 C 
ENDROOT
BRANCH   1   2
ATOM      2  C   UNL     1     -23.429   8.663 -18.154  1.00  0.00     0.000 C 
BRANCH   2   3
ATOM      3  C   UNL     1     -23.620  10.194 -18.129  1.00  0.00     0.000 C 
BRANCH   3   4
ATOM      4  C   UNL     1     -23.322  10.848 -19.491  1.00  0.00     0.000 C 
BRANCH   4   5
ATOM      5  C   UNL     1     -24.566  11.491 -20.125  1.00  0.00     0.000 C 
BRANCH   5   6
ATOM      6  C   UNL     1     -24.543  13.028 -20.045  1.00  0.00     0.000 C 
BRANCH   6   7
ATOM      7  C   UNL     1     -23.119  13.584 -19.839  1.00  0.00     0.006 C 
BRANCH   7   8
ATOM      8  C   UNL     1     -23.055  15.120 -19.839  1.00  0.00     0.053 C 
BRANCH   8   9
ATOM      9  C   UNL     1     -21.659  15.631 -19.674  1.00  0.00     0.041 C 
ATOM     10  O   UNL     1     -20.688  14.830 -19.649  1.00  0.00    -0.550 OA
ATOM     11  O   UNL     1     -21.431  16.993 -19.522  1.00  0.00    -0.550 OA
ENDBRANCH   8   9
ENDBRANCH   7   8
ENDBRANCH   6   7
ENDBRANCH   5   6
ENDBRANCH   4   5
ENDBRANCH   3   4
ENDBRANCH   2   3
ENDBRANCH   1   2
BRANCH   1  12
ATOM     12  C   UNL     1     -21.806   6.703 -18.667  1.00  0.00     0.000 C 
BRANCH  12  13
ATOM     13  C   UNL     1     -20.588   6.216 -19.481  1.00  0.00    -0.000 C 
BRANCH  13  14
ATOM     14  C   UNL     1     -20.388   4.690 -19.509  1.00  0.00    -0.000 C 
BRANCH  14  15
ATOM     15  C   UNL     1     -18.961   4.281 -19.903  1.00  0.00    -0.000 C 
BRANCH  15  16
ATOM     16  C   UNL     1     -18.237   3.612 -18.729  1.00  0.00    -0.000 C 
BRANCH  16  17
ATOM     17  C   UNL     1     -16.832   3.153 -19.137  1.00  0.00    -0.000 C 
BRANCH  17  18
ATOM     18  C   UNL     1     -15.842   4.327 -19.113  1.00  0.00    -0.000 C 
BRANCH  18  19
ATOM     19  C   UNL     1     -14.414   3.887 -18.750  1.00  0.00    -0.003 C 
ATOM     20  C   UNL     1     -14.370   2.971 -17.528  1.00  0.00     0.004 C 
ENDBRANCH  18  19
ENDBRANCH  17  18
ENDBRANCH  16  17
ENDBRANCH  15  16
ENDBRANCH  14  15
ENDBRANCH  13  14
ENDBRANCH  12  13
ENDBRANCH   1  12
TORSDOF 16
ENDMDL
MODEL 7
REMARK VINA RESULT:    10.401      1.800      2.350
REMARK INTER + INTRA:          19.321
REMARK INTER:                  19.235
REMARK INTRA:                   0.085
REMARK UNBOUND:                -0.808
REMARK SMILES CCCCCCCCCCCCCCCCCC(=O)[O-]
REMARK SMILES IDX 10 1 11 2 12 3 13 4 14 5 15 6 16 7 17 8 18 9 19 10 20 11
REMARK SMILES IDX 9 12 8 13 7 14 6 15 5 16 4 17 3 18 2 19 1 20
REMARK H PARENT
REMARK Flexibility Score: inf
ROOT
ATOM      1  C   UNL     1     -20.380   5.933 -19.457  1.00  0.00     0.000 C 
ENDROOT
BRANCH   1   2
ATOM      2  C   UNL     1     -21.417   6.899 -20.062  1.00  0.00     0.000 C 
BRANCH   2   3
ATOM      3  C   UNL     1     -21.983   7.916 -19.047  1.00  0.00     0.000 C 
BRANCH   3   4
ATOM      4  C   UNL     1     -21.463   7.675 -17.619  1.00  0.00     0.000 C 
BRANCH   4   5
ATOM      5  C   UNL     1     -22.187   8.536 -16.571  1.00  0.00     0.000 C 
BRANCH   5   6
ATOM      6  C   UNL     1     -21.438   9.844 -16.261  1.00  0.00     0.000 C 
BRANCH   6   7
ATOM      7  C   UNL     1     -22.369  11.074 -16.282  1.00  0.00     0.006 C 
BRANCH   7   8
ATOM      8  C   UNL     1     -23.699  10.823 -17.013  1.00  0.00     0.053 C 
BRANCH   8   9
ATOM      9  C   UNL     1     -23.627  11.187 -18.462  1.00  0.00     0.041 C 
ATOM     10  O   UNL     1     -23.356  10.310 -19.324  1.00  0.00    -0.550 OA
ATOM     11  O   UNL     1     -23.836  12.502 -18.860  1.00  0.00    -0.550 OA
ENDBRANCH   8   9
ENDBRANCH   7   8
ENDBRANCH   6   7
ENDBRANCH   5   6
ENDBRANCH   4   5
ENDBRANCH   3   4
ENDBRANCH   2   3
ENDBRANCH   1   2
BRANCH   1  12
ATOM     12  C   UNL     1     -20.941   4.948 -18.416  1.00  0.00     0.000 C 
BRANCH  12  13
ATOM     13  C   UNL     1     -20.539   3.473 -18.626  1.00  0.00    -0.000 C 
BRANCH  13  14
ATOM     14  C   UNL     1     -19.162   3.084 -18.058  1.00  0.00    -0.000 C 
BRANCH  14  15
ATOM     15  C   UNL     1     -18.099   2.887 -19.149  1.00  0.00    -0.000 C 
BRANCH  15  16
ATOM     16  C   UNL     1     -16.947   3.884 -18.980  1.00  0.00    -0.000 C 
BRANCH  16  17
ATOM     17  C   UNL     1     -15.882   3.684 -20.064  1.00  0.00    -0.000 C 
BRANCH  17  18
ATOM     18  C   UNL     1     -14.599   3.083 -19.471  1.00  0.00    -0.000 C 
BRANCH  18  19
ATOM     19  C   UNL     1     -14.051   3.906 -18.295  1.00  0.00    -0.003 C 
ATOM     20  C   UNL     1     -13.875   3.076 -17.023  1.00  0.00     0.004 C 
ENDBRANCH  18  19
ENDBRANCH  17  18
ENDBRANCH  16  17
ENDBRANCH  15  16
ENDBRANCH  14  15
ENDBRANCH  13  14
ENDBRANCH  12  13
ENDBRANCH   1  12
TORSDOF 16
ENDMDL
