MODEL 1
REMARK VINA RESULT:    -3.951      0.000      0.000
REMARK INTER + INTRA:          -6.721
REMARK INTER:                  -6.030
REMARK INTRA:                  -0.691
REMARK UNBOUND:                -0.691
REMARK SMILES O=C([O-])CCCCCCCCC(=O)[O-]
REMARK SMILES IDX 7 1 6 2 5 3 4 4 2 5 1 6 3 7 8 8 9 9 10 10 11 11 12 12 13 13
REMARK SMILES IDX 14 14
REMARK H PARENT
REMARK Flexibility Score: inf
ROOT
ATOM      1  C   UNL     1     -52.549 122.104 -11.106  1.00  0.00     0.000 C 
ENDROOT
BRANCH   1   2
ATOM      2  C   UNL     1     -51.071 121.882 -11.459  1.00  0.00     0.000 C 
BRANCH   2   3
ATOM      3  C   UNL     1     -50.308 121.276 -10.274  1.00  0.00     0.006 C 
BRANCH   3   4
ATOM      4  C   UNL     1     -48.935 121.933 -10.110  1.00  0.00     0.053 C 
BRANCH   4   5
ATOM      5  C   UNL     1     -49.081 123.406  -9.895  1.00  0.00     0.041 C 
ATOM      6  O   UNL     1     -49.435 123.850  -8.772  1.00  0.00    -0.550 OA
ATOM      7  O   UNL     1     -48.875 124.286 -10.950  1.00  0.00    -0.550 OA
ENDBRANCH   4   5
ENDBRANCH   3   4
ENDBRANCH   2   3
ENDBRANCH   1   2
BRANCH   1   8
ATOM      8  C   UNL     1     -52.805 122.120  -9.589  1.00  0.00     0.000 C 
BRANCH   8   9
ATOM      9  C   UNL     1     -53.774 121.034  -9.078  1.00  0.00     0.000 C 
BRANCH   9  10
ATOM     10  C   UNL     1     -54.411 120.156 -10.175  1.00  0.00     0.006 C 
BRANCH  10  11
ATOM     11  C   UNL     1     -55.940 120.276 -10.274  1.00  0.00     0.053 C 
BRANCH  11  12
ATOM     12  C   UNL     1     -56.398 121.699 -10.194  1.00  0.00     0.041 C 
ATOM     13  O   UNL     1     -56.990 122.117  -9.165  1.00  0.00    -0.550 OA
ATOM     14  O   UNL     1     -56.201 122.556 -11.270  1.00  0.00    -0.550 OA
ENDBRANCH  11  12
ENDBRANCH  10  11
ENDBRANCH   9  10
ENDBRANCH   8   9
ENDBRANCH   1   8
TORSDOF 9
ENDMDL
MODEL 2
REMARK VINA RESULT:    -3.943      0.775      1.435
REMARK INTER + INTRA:          -6.708
REMARK INTER:                  -6.347
REMARK INTRA:                  -0.361
REMARK UNBOUND:                -0.691
REMARK SMILES O=C([O-])CCCCCCCCC(=O)[O-]
REMARK SMILES IDX 7 1 6 2 5 3 4 4 2 5 1 6 3 7 8 8 9 9 10 10 11 11 12 12 13 13
REMARK SMILES IDX 14 14
REMARK H PARENT
REMARK Flexibility Score: inf
ROOT
ATOM      1  C   UNL     1     -52.971 120.889  -9.121  1.00  0.00     0.000 C 
ENDROOT
BRANCH   1   2
ATOM      2  C   UNL     1     -52.284 121.975  -9.961  1.00  0.00     0.000 C 
BRANCH   2   3
ATOM      3  C   UNL     1     -51.088 121.400 -10.730  1.00  0.00     0.006 C 
BRANCH   3   4
ATOM      4  C   UNL     1     -49.785 121.599  -9.950  1.00  0.00     0.053 C 
BRANCH   4   5
ATOM      5  C   UNL     1     -49.369 123.035  -9.985  1.00  0.00     0.041 C 
ATOM      6  O   UNL     1     -49.330 123.709  -8.922  1.00  0.00    -0.550 OA
ATOM      7  O   UNL     1     -49.072 123.644 -11.198  1.00  0.00    -0.550 OA
ENDBRANCH   4   5
ENDBRANCH   3   4
ENDBRANCH   2   3
ENDBRANCH   1   2
BRANCH   1   8
ATOM      8  C   UNL     1     -53.533 119.739  -9.974  1.00  0.00     0.000 C 
BRANCH   8   9
ATOM      9  C   UNL     1     -54.252 120.175 -11.267  1.00  0.00     0.000 C 
BRANCH   9  10
ATOM     10  C   UNL     1     -55.739 119.777 -11.357  1.00  0.00     0.006 C 
BRANCH  10  11
ATOM     11  C   UNL     1     -56.561 120.110 -10.101  1.00  0.00     0.053 C 
BRANCH  11  12
ATOM     12  C   UNL     1     -56.487 121.564  -9.751  1.00  0.00     0.041 C 
ATOM     13  O   UNL     1     -56.531 121.928  -8.547  1.00  0.00    -0.550 OA
ATOM     14  O   UNL     1     -56.402 122.519 -10.756  1.00  0.00    -0.550 OA
ENDBRANCH  11  12
ENDBRANCH  10  11
ENDBRANCH   9  10
ENDBRANCH   8   9
ENDBRANCH   1   8
TORSDOF 9
ENDMDL
MODEL 3
REMARK VINA RESULT:    -3.873      1.770      6.497
REMARK INTER + INTRA:          -6.601
REMARK INTER:                  -5.964
REMARK INTRA:                  -0.637
REMARK UNBOUND:                -0.691
REMARK SMILES O=C([O-])CCCCCCCCC(=O)[O-]
REMARK SMILES IDX 7 1 6 2 5 3 4 4 2 5 1 6 3 7 8 8 9 9 10 10 11 11 12 12 13 13
REMARK SMILES IDX 14 14
REMARK H PARENT
REMARK Flexibility Score: inf
ROOT
ATOM      1  C   UNL     1     -52.959 120.534  -9.665  1.00  0.00     0.000 C 
ENDROOT
BRANCH   1   2
ATOM      2  C   UNL     1     -53.935 121.595  -9.137  1.00  0.00     0.000 C 
BRANCH   2   3
ATOM      3  C   UNL     1     -55.105 121.797 -10.108  1.00  0.00     0.006 C 
BRANCH   3   4
ATOM      4  C   UNL     1     -56.393 121.182  -9.552  1.00  0.00     0.053 C 
BRANCH   4   5
ATOM      5  C   UNL     1     -56.959 120.190 -10.517  1.00  0.00     0.041 C 
ATOM      6  O   UNL     1     -56.426 119.057 -10.649  1.00  0.00    -0.550 OA
ATOM      7  O   UNL     1     -58.047 120.535 -11.310  1.00  0.00    -0.550 OA
ENDBRANCH   4   5
ENDBRANCH   3   4
ENDBRANCH   2   3
ENDBRANCH   1   2
BRANCH   1   8
ATOM      8  C   UNL     1     -53.143 120.246 -11.165  1.00  0.00     0.000 C 
BRANCH   8   9
ATOM      9  C   UNL     1     -52.116 120.928 -12.092  1.00  0.00     0.000 C 
BRANCH   9  10
ATOM     10  C   UNL     1     -51.305 122.069 -11.445  1.00  0.00     0.006 C 
BRANCH  10  11
ATOM     11  C   UNL     1     -49.787 121.826 -11.408  1.00  0.00     0.053 C 
BRANCH  11  12
ATOM     12  C   UNL     1     -49.268 121.734 -10.006  1.00  0.00     0.041 C 
ATOM     13  O   UNL     1     -48.875 120.629  -9.548  1.00  0.00    -0.550 OA
ATOM     14  O   UNL     1     -49.248 122.862  -9.195  1.00  0.00    -0.550 OA
ENDBRANCH  11  12
ENDBRANCH  10  11
ENDBRANCH   9  10
ENDBRANCH   8   9
ENDBRANCH   1   8
TORSDOF 9
ENDMDL
MODEL 4
REMARK VINA RESULT:    -3.839      1.024      5.918
REMARK INTER + INTRA:          -6.550
REMARK INTER:                  -5.967
REMARK INTRA:                  -0.583
REMARK UNBOUND:                -0.691
REMARK SMILES O=C([O-])CCCCCCCCC(=O)[O-]
REMARK SMILES IDX 7 1 6 2 5 3 4 4 2 5 1 6 3 7 8 8 9 9 10 10 11 11 12 12 13 13
REMARK SMILES IDX 14 14
REMARK H PARENT
REMARK Flexibility Score: inf
ROOT
ATOM      1  C   UNL     1     -53.922 119.556 -10.096  1.00  0.00     0.000 C 
ENDROOT
BRANCH   1   2
ATOM      2  C   UNL     1     -53.985 120.265 -11.457  1.00  0.00     0.000 C 
BRANCH   2   3
ATOM      3  C   UNL     1     -55.357 120.071 -12.114  1.00  0.00     0.006 C 
BRANCH   3   4
ATOM      4  C   UNL     1     -56.487 120.269 -11.099  1.00  0.00     0.053 C 
BRANCH   4   5
ATOM      5  C   UNL     1     -56.508 121.680 -10.608  1.00  0.00     0.041 C 
ATOM      6  O   UNL     1     -56.750 121.927  -9.397  1.00  0.00    -0.550 OA
ATOM      7  O   UNL     1     -56.313 122.729 -11.498  1.00  0.00    -0.550 OA
ENDBRANCH   4   5
ENDBRANCH   3   4
ENDBRANCH   2   3
ENDBRANCH   1   2
BRANCH   1   8
ATOM      8  C   UNL     1     -52.989 120.262  -9.097  1.00  0.00     0.000 C 
BRANCH   8   9
ATOM      9  C   UNL     1     -53.227 121.777  -8.937  1.00  0.00     0.000 C 
BRANCH   9  10
ATOM     10  C   UNL     1     -52.058 122.676  -9.387  1.00  0.00     0.006 C 
BRANCH  10  11
ATOM     11  C   UNL     1     -50.939 121.934 -10.136  1.00  0.00     0.053 C 
BRANCH  11  12
ATOM     12  C   UNL     1     -49.675 122.735 -10.194  1.00  0.00     0.041 C 
ATOM     13  O   UNL     1     -49.023 122.965  -9.142  1.00  0.00    -0.550 OA
ATOM     14  O   UNL     1     -49.236 123.256 -11.404  1.00  0.00    -0.550 OA
ENDBRANCH  11  12
ENDBRANCH  10  11
ENDBRANCH   9  10
ENDBRANCH   8   9
ENDBRANCH   1   8
TORSDOF 9
ENDMDL
MODEL 5
REMARK VINA RESULT:    -3.745      1.562      1.821
REMARK INTER + INTRA:          -6.406
REMARK INTER:                  -5.953
REMARK INTRA:                  -0.453
REMARK UNBOUND:                -0.691
REMARK SMILES O=C([O-])CCCCCCCCC(=O)[O-]
REMARK SMILES IDX 7 1 6 2 5 3 4 4 2 5 1 6 3 7 8 8 9 9 10 10 11 11 12 12 13 13
REMARK SMILES IDX 14 14
REMARK H PARENT
REMARK Flexibility Score: inf
ROOT
ATOM      1  C   UNL     1     -52.327 121.380  -9.518  1.00  0.00     0.000 C 
ENDROOT
BRANCH   1   2
ATOM      2  C   UNL     1     -51.926 121.885 -10.912  1.00  0.00     0.000 C 
BRANCH   2   3
ATOM      3  C   UNL     1     -50.538 121.363 -11.306  1.00  0.00     0.006 C 
BRANCH   3   4
ATOM      4  C   UNL     1     -49.534 121.559 -10.167  1.00  0.00     0.053 C 
BRANCH   4   5
ATOM      5  C   UNL     1     -49.144 122.998 -10.053  1.00  0.00     0.041 C 
ATOM      6  O   UNL     1     -49.103 123.556  -8.925  1.00  0.00    -0.550 OA
ATOM      7  O   UNL     1     -48.875 123.738 -11.198  1.00  0.00    -0.550 OA
ENDBRANCH   4   5
ENDBRANCH   3   4
ENDBRANCH   2   3
ENDBRANCH   1   2
BRANCH   1   8
ATOM      8  C   UNL     1     -53.670 120.629  -9.518  1.00  0.00     0.000 C 
BRANCH   8   9
ATOM      9  C   UNL     1     -54.921 121.526  -9.617  1.00  0.00     0.000 C 
BRANCH   9  10
ATOM     10  C   UNL     1     -55.326 121.929 -11.050  1.00  0.00     0.006 C 
BRANCH  10  11
ATOM     11  C   UNL     1     -55.809 120.761 -11.925  1.00  0.00     0.053 C 
BRANCH  11  12
ATOM     12  C   UNL     1     -56.903 119.981 -11.265  1.00  0.00     0.041 C 
ATOM     13  O   UNL     1     -58.057 120.474 -11.159  1.00  0.00    -0.550 OA
ATOM     14  O   UNL     1     -56.642 118.723 -10.738  1.00  0.00    -0.550 OA
ENDBRANCH  11  12
ENDBRANCH  10  11
ENDBRANCH   9  10
ENDBRANCH   8   9
ENDBRANCH   1   8
TORSDOF 9
ENDMDL
MODEL 6
REMARK VINA RESULT:    -3.723      1.152      6.235
REMARK INTER + INTRA:          -6.373
REMARK INTER:                  -5.776
REMARK INTRA:                  -0.597
REMARK UNBOUND:                -0.691
REMARK SMILES O=C([O-])CCCCCCCCC(=O)[O-]
REMARK SMILES IDX 7 1 6 2 5 3 4 4 2 5 1 6 3 7 8 8 9 9 10 10 11 11 12 12 13 13
REMARK SMILES IDX 14 14
REMARK H PARENT
REMARK Flexibility Score: inf
ROOT
ATOM      1  C   UNL     1     -52.909 121.512  -9.643  1.00  0.00     0.000 C 
ENDROOT
BRANCH   1   2
ATOM      2  C   UNL     1     -53.460 120.086  -9.789  1.00  0.00     0.000 C 
BRANCH   2   3
ATOM      3  C   UNL     1     -54.602 120.040 -10.811  1.00  0.00     0.006 C 
BRANCH   3   4
ATOM      4  C   UNL     1     -55.964 120.155 -10.120  1.00  0.00     0.053 C 
BRANCH   4   5
ATOM      5  C   UNL     1     -56.343 121.591  -9.945  1.00  0.00     0.041 C 
ATOM      6  O   UNL     1     -56.334 122.374 -10.931  1.00  0.00    -0.550 OA
ATOM      7  O   UNL     1     -56.657 122.078  -8.682  1.00  0.00    -0.550 OA
ENDBRANCH   4   5
ENDBRANCH   3   4
ENDBRANCH   2   3
ENDBRANCH   1   2
BRANCH   1   8
ATOM      8  C   UNL     1     -52.601 122.175 -10.997  1.00  0.00     0.000 C 
BRANCH   8   9
ATOM      9  C   UNL     1     -51.423 121.554 -11.775  1.00  0.00     0.000 C 
BRANCH   9  10
ATOM     10  C   UNL     1     -50.222 122.493 -12.006  1.00  0.00     0.006 C 
BRANCH  10  11
ATOM     11  C   UNL     1     -48.886 121.958 -11.466  1.00  0.00     0.053 C 
BRANCH  11  12
ATOM     12  C   UNL     1     -48.911 121.782  -9.979  1.00  0.00     0.041 C 
ATOM     13  O   UNL     1     -48.875 120.628  -9.477  1.00  0.00    -0.550 OA
ATOM     14  O   UNL     1     -49.008 122.891  -9.148  1.00  0.00    -0.550 OA
ENDBRANCH  11  12
ENDBRANCH  10  11
ENDBRANCH   9  10
ENDBRANCH   8   9
ENDBRANCH   1   8
TORSDOF 9
ENDMDL
MODEL 7
REMARK VINA RESULT:    -3.590      2.316      5.537
REMARK INTER + INTRA:          -6.169
REMARK INTER:                  -5.465
REMARK INTRA:                  -0.704
REMARK UNBOUND:                -0.691
REMARK SMILES O=C([O-])CCCCCCCCC(=O)[O-]
REMARK SMILES IDX 7 1 6 2 5 3 4 4 2 5 1 6 3 7 8 8 9 9 10 10 11 11 12 12 13 13
REMARK SMILES IDX 14 14
REMARK H PARENT
REMARK Flexibility Score: inf
ROOT
ATOM      1  C   UNL     1     -52.796 120.008 -11.817  1.00  0.00     0.000 C 
ENDROOT
BRANCH   1   2
ATOM      2  C   UNL     1     -54.074 120.807 -12.112  1.00  0.00     0.000 C 
BRANCH   2   3
ATOM      3  C   UNL     1     -55.313 119.904 -12.046  1.00  0.00     0.006 C 
BRANCH   3   4
ATOM      4  C   UNL     1     -55.864 119.831 -10.619  1.00  0.00     0.053 C 
BRANCH   4   5
ATOM      5  C   UNL     1     -56.977 120.813 -10.436  1.00  0.00     0.041 C 
ATOM      6  O   UNL     1     -58.088 120.624 -10.998  1.00  0.00    -0.550 OA
ATOM      7  O   UNL     1     -56.772 121.964  -9.685  1.00  0.00    -0.550 OA
ENDBRANCH   4   5
ENDBRANCH   3   4
ENDBRANCH   2   3
ENDBRANCH   1   2
BRANCH   1   8
ATOM      8  C   UNL     1     -51.513 120.799 -12.125  1.00  0.00     0.000 C 
BRANCH   8   9
ATOM      9  C   UNL     1     -51.396 122.160 -11.410  1.00  0.00     0.000 C 
BRANCH   9  10
ATOM     10  C   UNL     1     -50.826 122.101  -9.978  1.00  0.00     0.006 C 
BRANCH  10  11
ATOM     11  C   UNL     1     -51.661 122.856  -8.931  1.00  0.00     0.053 C 
BRANCH  11  12
ATOM     12  C   UNL     1     -53.084 122.392  -8.908  1.00  0.00     0.041 C 
ATOM     13  O   UNL     1     -53.358 121.206  -8.586  1.00  0.00    -0.550 OA
ATOM     14  O   UNL     1     -54.106 123.258  -9.275  1.00  0.00    -0.550 OA
ENDBRANCH  11  12
ENDBRANCH  10  11
ENDBRANCH   9  10
ENDBRANCH   8   9
ENDBRANCH   1   8
TORSDOF 9
ENDMDL
MODEL 8
REMARK VINA RESULT:    -3.515      2.490      3.225
REMARK INTER + INTRA:          -6.055
REMARK INTER:                  -5.455
REMARK INTRA:                  -0.600
REMARK UNBOUND:                -0.691
REMARK SMILES O=C([O-])CCCCCCCCC(=O)[O-]
REMARK SMILES IDX 7 1 6 2 5 3 4 4 2 5 1 6 3 7 8 8 9 9 10 10 11 11 12 12 13 13
REMARK SMILES IDX 14 14
REMARK H PARENT
REMARK Flexibility Score: inf
ROOT
ATOM      1  C   UNL     1     -52.252 120.415 -12.120  1.00  0.00     0.000 C 
ENDROOT
BRANCH   1   2
ATOM      2  C   UNL     1     -51.505 121.650 -11.596  1.00  0.00     0.000 C 
BRANCH   2   3
ATOM      3  C   UNL     1     -51.104 121.467 -10.127  1.00  0.00     0.006 C 
BRANCH   3   4
ATOM      4  C   UNL     1     -51.674 122.591  -9.257  1.00  0.00     0.053 C 
BRANCH   4   5
ATOM      5  C   UNL     1     -53.082 122.285  -8.861  1.00  0.00     0.041 C 
ATOM      6  O   UNL     1     -53.951 123.197  -8.855  1.00  0.00    -0.550 OA
ATOM      7  O   UNL     1     -53.426 121.004  -8.450  1.00  0.00    -0.550 OA
ENDBRANCH   4   5
ENDBRANCH   3   4
ENDBRANCH   2   3
ENDBRANCH   1   2
BRANCH   1   8
ATOM      8  C   UNL     1     -53.777 120.521 -11.947  1.00  0.00     0.000 C 
BRANCH   8   9
ATOM      9  C   UNL     1     -54.358 121.938 -12.125  1.00  0.00     0.000 C 
BRANCH   9  10
ATOM     10  C   UNL     1     -55.860 122.076 -11.801  1.00  0.00     0.006 C 
BRANCH  10  11
ATOM     11  C   UNL     1     -56.657 120.767 -11.919  1.00  0.00     0.053 C 
BRANCH  11  12
ATOM     12  C   UNL     1     -56.696 120.016 -10.624  1.00  0.00     0.041 C 
ATOM     13  O   UNL     1     -56.737 118.757 -10.623  1.00  0.00    -0.550 OA
ATOM     14  O   UNL     1     -56.720 120.706  -9.419  1.00  0.00    -0.550 OA
ENDBRANCH  11  12
ENDBRANCH  10  11
ENDBRANCH   9  10
ENDBRANCH   8   9
ENDBRANCH   1   8
TORSDOF 9
ENDMDL
