MODEL 1
REMARK VINA RESULT:    -3.488      0.000      0.000
REMARK INTER + INTRA:          -3.590
REMARK INTER:                  -3.590
REMARK INTRA:                   0.000
REMARK UNBOUND:                 0.000
REMARK SMILES Nc1ncnc2nc[nH]c12
REMARK SMILES IDX 8 1 7 2 6 3 5 4 4 5 3 6 2 7 10 8 9 9 1 11
REMARK H PARENT 9 10 1 12 1 13
REMARK Flexibility Score: inf
ROOT
ATOM      1  C   UNL     1     133.876  51.881  20.359  1.00  0.00     0.199 A 
ATOM      2  N   UNL     1     134.209  50.819  21.143  1.00  0.00    -0.217 NA
ATOM      3  C   UNL     1     134.475  51.406  22.321  1.00  0.00     0.182 A 
ATOM      4  N   UNL     1     134.859  50.788  23.463  1.00  0.00    -0.215 NA
ATOM      5  C   UNL     1     135.085  51.559  24.570  1.00  0.00     0.226 A 
ATOM      6  N   UNL     1     134.924  52.920  24.515  1.00  0.00    -0.217 NA
ATOM      7  C   UNL     1     134.535  53.545  23.363  1.00  0.00     0.152 A 
ATOM      8  C   UNL     1     134.310  52.747  22.246  1.00  0.00     0.127 A 
ATOM      9  N   UNL     1     133.928  53.074  21.005  1.00  0.00    -0.340 N 
ATOM     10  H   UNL     1     133.718  54.019  20.614  1.00  0.00     0.168 HD
ENDROOT
BRANCH   7  11
ATOM     11  N   UNL     1     134.374  54.964  23.330  1.00  0.00    -0.382 N 
ATOM     12  H   UNL     1     133.590  55.413  23.853  1.00  0.00     0.158 HD
ATOM     13  H   UNL     1     135.028  55.573  22.791  1.00  0.00     0.158 HD
ENDBRANCH   7  11
TORSDOF 1
ENDMDL
MODEL 2
REMARK VINA RESULT:    -3.428      1.165      2.563
REMARK INTER + INTRA:          -3.528
REMARK INTER:                  -3.528
REMARK INTRA:                   0.000
REMARK UNBOUND:                 0.000
REMARK SMILES Nc1ncnc2nc[nH]c12
REMARK SMILES IDX 8 1 7 2 6 3 5 4 4 5 3 6 2 7 10 8 9 9 1 11
REMARK H PARENT 9 10 1 12 1 13
REMARK Flexibility Score: inf
ROOT
ATOM      1  C   UNL     1     135.388  51.186  20.012  1.00  0.00     0.199 A 
ATOM      2  N   UNL     1     134.816  52.420  19.995  1.00  0.00    -0.217 NA
ATOM      3  C   UNL     1     134.620  52.663  21.301  1.00  0.00     0.182 A 
ATOM      4  N   UNL     1     134.069  53.775  21.843  1.00  0.00    -0.215 NA
ATOM      5  C   UNL     1     133.951  53.839  23.203  1.00  0.00     0.226 A 
ATOM      6  N   UNL     1     134.381  52.802  23.990  1.00  0.00    -0.217 NA
ATOM      7  C   UNL     1     134.938  51.679  23.445  1.00  0.00     0.152 A 
ATOM      8  C   UNL     1     135.051  51.628  22.058  1.00  0.00     0.127 A 
ATOM      9  N   UNL     1     135.545  50.675  21.260  1.00  0.00    -0.340 N 
ATOM     10  H   UNL     1     135.957  49.751  21.521  1.00  0.00     0.168 HD
ENDROOT
BRANCH   7  11
ATOM     11  N   UNL     1     135.380  50.610  24.284  1.00  0.00    -0.382 N 
ATOM     12  H   UNL     1     135.755  50.815  25.236  1.00  0.00     0.158 HD
ATOM     13  H   UNL     1     135.335  49.617  23.968  1.00  0.00     0.158 HD
ENDBRANCH   7  11
TORSDOF 1
ENDMDL
MODEL 3
REMARK VINA RESULT:    -3.418      1.005      2.977
REMARK INTER + INTRA:          -3.518
REMARK INTER:                  -3.518
REMARK INTRA:                   0.000
REMARK UNBOUND:                 0.000
REMARK SMILES Nc1ncnc2nc[nH]c12
REMARK SMILES IDX 8 1 7 2 6 3 5 4 4 5 3 6 2 7 10 8 9 9 1 11
REMARK H PARENT 9 10 1 12 1 13
REMARK Flexibility Score: inf
ROOT
ATOM      1  C   UNL     1     134.987  52.111  25.528  1.00  0.00     0.199 A 
ATOM      2  N   UNL     1     134.744  51.150  24.596  1.00  0.00    -0.217 NA
ATOM      3  C   UNL     1     134.458  51.877  23.504  1.00  0.00     0.182 A 
ATOM      4  N   UNL     1     134.137  51.402  22.277  1.00  0.00    -0.215 NA
ATOM      5  C   UNL     1     133.875  52.303  21.283  1.00  0.00     0.226 A 
ATOM      6  N   UNL     1     133.939  53.651  21.531  1.00  0.00    -0.217 NA
ATOM      7  C   UNL     1     134.263  54.132  22.769  1.00  0.00     0.152 A 
ATOM      8  C   UNL     1     134.525  53.202  23.769  1.00  0.00     0.127 A 
ATOM      9  N   UNL     1     134.862  53.376  25.053  1.00  0.00    -0.340 N 
ATOM     10  H   UNL     1     134.998  54.268  25.578  1.00  0.00     0.168 HD
ENDROOT
BRANCH   7  11
ATOM     11  N   UNL     1     134.322  55.541  23.003  1.00  0.00    -0.382 N 
ATOM     12  H   UNL     1     135.177  56.078  22.740  1.00  0.00     0.158 HD
ATOM     13  H   UNL     1     133.523  56.054  23.435  1.00  0.00     0.158 HD
ENDBRANCH   7  11
TORSDOF 1
ENDMDL
MODEL 4
REMARK VINA RESULT:    -3.373      1.172      2.968
REMARK INTER + INTRA:          -3.472
REMARK INTER:                  -3.472
REMARK INTRA:                   0.000
REMARK UNBOUND:                 0.000
REMARK SMILES Nc1ncnc2nc[nH]c12
REMARK SMILES IDX 8 1 7 2 6 3 5 4 4 5 3 6 2 7 10 8 9 9 1 11
REMARK H PARENT 9 10 1 12 1 13
REMARK Flexibility Score: inf
ROOT
ATOM      1  C   UNL     1     133.922  54.118  23.177  1.00  0.00     0.199 A 
ATOM      2  N   UNL     1     133.875  53.017  23.975  1.00  0.00    -0.217 NA
ATOM      3  C   UNL     1     134.193  52.031  23.120  1.00  0.00     0.182 A 
ATOM      4  N   UNL     1     134.290  50.711  23.408  1.00  0.00    -0.215 NA
ATOM      5  C   UNL     1     134.627  49.853  22.398  1.00  0.00     0.226 A 
ATOM      6  N   UNL     1     134.859  50.325  21.131  1.00  0.00    -0.217 NA
ATOM      7  C   UNL     1     134.761  51.657  20.839  1.00  0.00     0.152 A 
ATOM      8  C   UNL     1     134.417  52.517  21.877  1.00  0.00     0.127 A 
ATOM      9  N   UNL     1     134.251  53.845  21.888  1.00  0.00    -0.340 N 
ATOM     10  H   UNL     1     134.348  54.523  21.100  1.00  0.00     0.168 HD
ENDROOT
BRANCH   7  11
ATOM     11  N   UNL     1     135.007  52.126  19.512  1.00  0.00    -0.382 N 
ATOM     12  H   UNL     1     134.310  52.740  19.037  1.00  0.00     0.158 HD
ATOM     13  H   UNL     1     135.878  51.867  18.997  1.00  0.00     0.158 HD
ENDBRANCH   7  11
TORSDOF 1
ENDMDL
MODEL 5
REMARK VINA RESULT:    -3.295      1.307      2.174
REMARK INTER + INTRA:          -3.392
REMARK INTER:                  -3.392
REMARK INTRA:                   0.000
REMARK UNBOUND:                 0.000
REMARK SMILES Nc1ncnc2nc[nH]c12
REMARK SMILES IDX 8 1 7 2 6 3 5 4 4 5 3 6 2 7 10 8 9 9 1 11
REMARK H PARENT 9 10 1 12 1 13
REMARK Flexibility Score: inf
ROOT
ATOM      1  C   UNL     1     134.145  54.126  22.172  1.00  0.00     0.199 A 
ATOM      2  N   UNL     1     134.213  52.858  21.680  1.00  0.00    -0.217 NA
ATOM      3  C   UNL     1     134.531  52.145  22.773  1.00  0.00     0.182 A 
ATOM      4  N   UNL     1     134.722  50.806  22.837  1.00  0.00    -0.215 NA
ATOM      5  C   UNL     1     135.042  50.256  24.047  1.00  0.00     0.226 A 
ATOM      6  N   UNL     1     135.164  51.048  25.161  1.00  0.00    -0.217 NA
ATOM      7  C   UNL     1     134.971  52.399  25.098  1.00  0.00     0.152 A 
ATOM      8  C   UNL     1     134.646  52.943  23.859  1.00  0.00     0.127 A 
ATOM      9  N   UNL     1     134.404  54.210  23.501  1.00  0.00    -0.340 N 
ATOM     10  H   UNL     1     134.411  55.070  24.094  1.00  0.00     0.168 HD
ENDROOT
BRANCH   7  11
ATOM     11  N   UNL     1     135.104  53.203  26.272  1.00  0.00    -0.382 N 
ATOM     12  H   UNL     1     135.763  54.013  26.279  1.00  0.00     0.158 HD
ATOM     13  H   UNL     1     134.553  53.001  27.134  1.00  0.00     0.158 HD
ENDBRANCH   7  11
TORSDOF 1
ENDMDL
MODEL 6
REMARK VINA RESULT:    -3.250      1.156      2.892
REMARK INTER + INTRA:          -3.345
REMARK INTER:                  -3.345
REMARK INTRA:                   0.000
REMARK UNBOUND:                 0.000
REMARK SMILES Nc1ncnc2nc[nH]c12
REMARK SMILES IDX 8 1 7 2 6 3 5 4 4 5 3 6 2 7 10 8 9 9 1 11
REMARK H PARENT 9 10 1 12 1 13
REMARK Flexibility Score: inf
ROOT
ATOM      1  C   UNL     1     134.247  49.429  22.881  1.00  0.00     0.199 A 
ATOM      2  N   UNL     1     134.361  50.330  23.894  1.00  0.00    -0.217 NA
ATOM      3  C   UNL     1     134.285  51.502  23.244  1.00  0.00     0.182 A 
ATOM      4  N   UNL     1     134.345  52.738  23.795  1.00  0.00    -0.215 NA
ATOM      5  C   UNL     1     134.250  53.820  22.965  1.00  0.00     0.226 A 
ATOM      6  N   UNL     1     134.097  53.649  21.612  1.00  0.00    -0.217 NA
ATOM      7  C   UNL     1     134.035  52.403  21.055  1.00  0.00     0.152 A 
ATOM      8  C   UNL     1     134.134  51.312  21.913  1.00  0.00     0.127 A 
ATOM      9  N   UNL     1     134.107  49.998  21.657  1.00  0.00    -0.340 N 
ATOM     10  H   UNL     1     134.003  49.513  20.738  1.00  0.00     0.168 HD
ENDROOT
BRANCH   7  11
ATOM     11  N   UNL     1     133.875  52.250  19.643  1.00  0.00    -0.382 N 
ATOM     12  H   UNL     1     133.791  53.092  19.033  1.00  0.00     0.158 HD
ATOM     13  H   UNL     1     133.840  51.306  19.200  1.00  0.00     0.158 HD
ENDBRANCH   7  11
TORSDOF 1
ENDMDL
MODEL 7
REMARK VINA RESULT:    -3.182      1.192      3.171
REMARK INTER + INTRA:          -3.275
REMARK INTER:                  -3.275
REMARK INTRA:                   0.000
REMARK UNBOUND:                 0.000
REMARK SMILES Nc1ncnc2nc[nH]c12
REMARK SMILES IDX 8 1 7 2 6 3 5 4 4 5 3 6 2 7 10 8 9 9 1 11
REMARK H PARENT 9 10 1 12 1 13
REMARK Flexibility Score: inf
ROOT
ATOM      1  C   UNL     1     134.288  54.133  23.083  1.00  0.00     0.199 A 
ATOM      2  N   UNL     1     133.930  53.677  21.852  1.00  0.00    -0.217 NA
ATOM      3  C   UNL     1     134.162  52.358  21.957  1.00  0.00     0.182 A 
ATOM      4  N   UNL     1     133.968  51.424  20.996  1.00  0.00    -0.215 NA
ATOM      5  C   UNL     1     134.264  50.122  21.291  1.00  0.00     0.226 A 
ATOM      6  N   UNL     1     134.742  49.781  22.530  1.00  0.00    -0.217 NA
ATOM      7  C   UNL     1     134.938  50.722  23.502  1.00  0.00     0.152 A 
ATOM      8  C   UNL     1     134.633  52.043  23.185  1.00  0.00     0.127 A 
ATOM      9  N   UNL     1     134.722  53.157  23.921  1.00  0.00    -0.340 N 
ATOM     10  H   UNL     1     135.046  53.265  24.908  1.00  0.00     0.168 HD
ENDROOT
BRANCH   7  11
ATOM     11  N   UNL     1     135.438  50.343  24.786  1.00  0.00    -0.382 N 
ATOM     12  H   UNL     1     136.397  49.943  24.875  1.00  0.00     0.158 HD
ATOM     13  H   UNL     1     134.862  50.457  25.648  1.00  0.00     0.158 HD
ENDBRANCH   7  11
TORSDOF 1
ENDMDL
MODEL 8
REMARK VINA RESULT:    -3.083      0.927      3.866
REMARK INTER + INTRA:          -3.173
REMARK INTER:                  -3.173
REMARK INTRA:                   0.000
REMARK UNBOUND:                 0.000
REMARK SMILES Nc1ncnc2nc[nH]c12
REMARK SMILES IDX 8 1 7 2 6 3 5 4 4 5 3 6 2 7 10 8 9 9 1 11
REMARK H PARENT 9 10 1 12 1 13
REMARK Flexibility Score: inf
ROOT
ATOM      1  C   UNL     1     134.626  52.387  24.769  1.00  0.00     0.199 A 
ATOM      2  N   UNL     1     134.405  53.425  23.917  1.00  0.00    -0.217 NA
ATOM      3  C   UNL     1     134.262  52.800  22.737  1.00  0.00     0.182 A 
ATOM      4  N   UNL     1     134.021  53.381  21.538  1.00  0.00    -0.215 NA
ATOM      5  C   UNL     1     133.906  52.574  20.440  1.00  0.00     0.226 A 
ATOM      6  N   UNL     1     134.033  51.214  20.559  1.00  0.00    -0.217 NA
ATOM      7  C   UNL     1     134.276  50.625  21.769  1.00  0.00     0.152 A 
ATOM      8  C   UNL     1     134.391  51.460  22.876  1.00  0.00     0.127 A 
ATOM      9  N   UNL     1     134.623  51.172  24.163  1.00  0.00    -0.340 N 
ATOM     10  H   UNL     1     134.769  50.239  24.608  1.00  0.00     0.168 HD
ENDROOT
BRANCH   7  11
ATOM     11  N   UNL     1     134.405  49.205  21.869  1.00  0.00    -0.382 N 
ATOM     12  H   UNL     1     133.771  48.667  22.499  1.00  0.00     0.158 HD
ATOM     13  H   UNL     1     135.124  48.685  21.320  1.00  0.00     0.158 HD
ENDBRANCH   7  11
TORSDOF 1
ENDMDL
MODEL 9
REMARK VINA RESULT:    -3.047      1.162      2.859
REMARK INTER + INTRA:          -3.136
REMARK INTER:                  -3.136
REMARK INTRA:                   0.000
REMARK UNBOUND:                 0.000
REMARK SMILES Nc1ncnc2nc[nH]c12
REMARK SMILES IDX 8 1 7 2 6 3 5 4 4 5 3 6 2 7 10 8 9 9 1 11
REMARK H PARENT 9 10 1 12 1 13
REMARK Flexibility Score: inf
ROOT
ATOM      1  C   UNL     1     134.044  53.733  21.880  1.00  0.00     0.199 A 
ATOM      2  N   UNL     1     134.292  53.809  23.216  1.00  0.00    -0.217 NA
ATOM      3  C   UNL     1     134.559  52.531  23.530  1.00  0.00     0.182 A 
ATOM      4  N   UNL     1     134.875  52.049  24.755  1.00  0.00    -0.215 NA
ATOM      5  C   UNL     1     135.115  50.709  24.880  1.00  0.00     0.226 A 
ATOM      6  N   UNL     1     135.035  49.883  23.788  1.00  0.00    -0.217 NA
ATOM      7  C   UNL     1     134.716  50.368  22.550  1.00  0.00     0.152 A 
ATOM      8  C   UNL     1     134.475  51.734  22.440  1.00  0.00     0.127 A 
ATOM      9  N   UNL     1     134.148  52.477  21.376  1.00  0.00    -0.340 N 
ATOM     10  H   UNL     1     134.004  52.174  20.387  1.00  0.00     0.168 HD
ENDROOT
BRANCH   7  11
ATOM     11  N   UNL     1     134.639  49.487  21.427  1.00  0.00    -0.382 N 
ATOM     12  H   UNL     1     134.111  49.775  20.574  1.00  0.00     0.158 HD
ATOM     13  H   UNL     1     135.103  48.553  21.437  1.00  0.00     0.158 HD
ENDBRANCH   7  11
TORSDOF 1
ENDMDL
