MODEL 1
REMARK VINA RESULT:    25.457      0.000      0.000
REMARK INTER + INTRA:          27.344
REMARK INTER:                  27.689
REMARK INTRA:                  -0.345
REMARK UNBOUND:                -0.345
REMARK SMILES C[C@H]1[C@H](C)CC[C@]2(C(=O)[O-])CC[C@@]3(C)C(=CC[C@@H]4[C@@]5(C)CC[C@H](O)C(C)(C)[C@H]5CC[C@]43C)[C@H]12
REMARK SMILES IDX 7 1 6 2 11 3 33 4 5 5 12 6 15 7 2 8 3 9 13 10 16 11 1 12
REMARK SMILES IDX 4 13 14 14 31 15 17 16 18 17 30 18 32 19 19 20 29 21 28 22
REMARK SMILES IDX 21 23 20 24 25 25 22 26 23 27 26 28 27 29 8 30 9 31 10 32
REMARK SMILES IDX 24 33
REMARK H PARENT 24 34
REMARK Flexibility Score: inf
ROOT
ATOM      1  C   UNL     1      20.344  53.946  54.049  1.00  0.00     0.017 C 
ATOM      2  C   UNL     1      19.428  52.971  54.835  1.00  0.00     0.014 C 
ATOM      3  C   UNL     1      19.719  54.078  52.615  1.00  0.00     0.014 C 
ATOM      4  C   UNL     1      21.849  53.436  53.953  1.00  0.00     0.030 C 
ATOM      5  C   UNL     1      20.057  52.462  56.125  1.00  0.00     0.004 C 
ATOM      6  C   UNL     1      20.614  54.794  51.574  1.00  0.00     0.013 C 
ATOM      7  C   UNL     1      22.210  53.097  52.496  1.00  0.00    -0.063 C 
ATOM      8  C   UNL     1      22.390  52.429  55.057  1.00  0.00    -0.003 C 
ATOM      9  C   UNL     1      21.309  51.624  55.845  1.00  0.00    -0.011 C 
ATOM     10  C   UNL     1      22.110  54.269  51.487  1.00  0.00    -0.006 C 
ATOM     11  C   UNL     1      22.111  51.818  52.072  1.00  0.00    -0.027 C 
ATOM     12  C   UNL     1      23.314  53.150  56.067  1.00  0.00     0.008 C 
ATOM     13  C   UNL     1      20.974  50.262  55.211  1.00  0.00     0.008 C 
ATOM     14  C   UNL     1      23.041  55.433  51.977  1.00  0.00     0.017 C 
ATOM     15  C   UNL     1      22.573  53.818  50.001  1.00  0.00    -0.020 C 
ATOM     16  C   UNL     1      22.239  51.386  50.647  1.00  0.00     0.032 C 
ATOM     17  C   UNL     1      21.883  52.482  49.609  1.00  0.00     0.006 C 
ATOM     18  C   UNL     1      22.137  54.860  48.942  1.00  0.00     0.008 C 
ATOM     19  C   UNL     1      24.125  53.652  49.959  1.00  0.00     0.012 C 
ATOM     20  C   UNL     1      22.014  52.002  48.066  1.00  0.00    -0.025 C 
ATOM     21  C   UNL     1      22.639  54.577  47.538  1.00  0.00     0.005 C 
ATOM     22  C   UNL     1      22.600  53.093  47.033  1.00  0.00     0.003 C 
ATOM     23  C   UNL     1      20.589  51.532  47.596  1.00  0.00     0.010 C 
ATOM     24  C   UNL     1      22.945  50.744  47.983  1.00  0.00     0.012 C 
ATOM     25  C   UNL     1      21.994  53.004  45.557  1.00  0.00    -0.006 C 
ATOM     26  C   UNL     1      19.790  52.655  46.929  1.00  0.00     0.033 C 
ATOM     27  C   UNL     1      20.431  53.163  45.615  1.00  0.00     0.120 C 
ATOM     28  C   UNL     1      22.594  54.113  44.630  1.00  0.00     0.014 C 
ATOM     29  C   UNL     1      22.402  51.674  44.850  1.00  0.00     0.014 C 
ENDROOT
BRANCH   1  30
ATOM     30  C   UNL     1      20.266  55.307  54.746  1.00  0.00     0.048 C 
ATOM     31  O   UNL     1      21.308  55.976  54.977  1.00  0.00    -0.550 OA
ATOM     32  O   UNL     1      19.052  55.789  55.223  1.00  0.00    -0.550 OA
ENDBRANCH   1  30
BRANCH  27  33
ATOM     33  O   UNL     1      19.809  52.527  44.525  1.00  0.00    -0.393 OA
ATOM     34  H   UNL     1      20.215  52.903  43.701  1.00  0.00     0.210 HD
ENDBRANCH  27  33
TORSDOF 2
ENDMDL
