MODEL 1
REMARK VINA RESULT:    -4.176      0.000      0.000
REMARK INTER + INTRA:          -4.477
REMARK INTER:                  -5.153
REMARK INTRA:                   0.676
REMARK UNBOUND:                 0.676
REMARK SMILES C=C1[C@H]2CC[C@@H]3[C@H]2C(C)(C)CCC[C@]13C
REMARK SMILES IDX 14 1 6 2 7 3 3 4 2 5 1 6 4 7 5 8 15 9 8 10 9 11 10 12 11 13
REMARK SMILES IDX 13 15 12 16
REMARK H PARENT
REMARK Flexibility Score: 80.00
ROOT
ATOM      1  C   UNL     1      30.021   9.854  33.104  1.00  0.00    -0.008 C 
ATOM      2  C   UNL     1      30.414   8.967  31.867  1.00  0.00     0.003 C 
ATOM      3  C   UNL     1      31.708   9.622  31.362  1.00  0.00     0.006 C 
ATOM      4  C   UNL     1      32.413   9.500  32.714  1.00  0.00     0.019 C 
ATOM      5  C   UNL     1      31.408  10.128  33.639  1.00  0.00    -0.068 C 
ATOM      6  C   UNL     1      31.709  10.747  34.789  1.00  0.00     0.009 C 
ATOM      7  C   UNL     1      32.336   7.982  32.968  1.00  0.00     0.008 C 
ATOM      8  C   UNL     1      30.985   7.597  32.329  1.00  0.00     0.005 C 
ATOM      9  C   UNL     1      29.170   9.096  34.156  1.00  0.00     0.016 C 
ENDROOT
BRANCH   3  10
ATOM     10  C   UNL     1      31.628  11.057  30.674  1.00  0.00    -0.032 C 
ATOM     11  C   UNL     1      32.274  12.211  31.494  1.00  0.00     0.011 C 
ATOM     12  C   UNL     1      32.470  10.990  29.369  1.00  0.00     0.011 C 
BRANCH  10  13
ATOM     13  C   UNL     1      30.181  11.445  30.226  1.00  0.00     0.007 CG0
ATOM     14  G   UNL     1      29.005  11.427  31.236  1.00  0.00     0.000 G0
ENDBRANCH  10  13
ENDBRANCH   3  10
BRANCH   1  15
ATOM     15  C   UNL     1      29.302  11.195  32.720  1.00  0.00     0.011 C 
BRANCH  15  16
ATOM     16  C   UNL     1      29.005  11.421  31.231  1.00  0.00     0.001 CG0
ATOM     17  G   UNL     1      30.185  11.447  30.226  1.00  0.00     0.000 G0
ENDBRANCH  15  16
ENDBRANCH   1  15
TORSDOF 0
ENDMDL
MODEL 2
REMARK VINA RESULT:    -4.119      2.215      4.665
REMARK INTER + INTRA:          -4.407
REMARK INTER:                  -5.079
REMARK INTRA:                   0.672
REMARK UNBOUND:                 0.676
REMARK SMILES C=C1[C@H]2CC[C@@H]3[C@H]2C(C)(C)CCC[C@]13C
REMARK SMILES IDX 14 1 6 2 7 3 3 4 2 5 1 6 4 7 5 8 15 9 8 10 9 11 10 12 11 13
REMARK SMILES IDX 13 15 12 16
REMARK H PARENT
REMARK Flexibility Score: 80.00
ROOT
ATOM      1  C   UNL     1      29.978  10.604  27.972  1.00  0.00    -0.008 C 
ATOM      2  C   UNL     1      30.356  12.117  28.172  1.00  0.00     0.003 C 
ATOM      3  C   UNL     1      31.588  12.053  29.087  1.00  0.00     0.006 C 
ATOM      4  C   UNL     1      32.364  11.133  28.142  1.00  0.00     0.019 C 
ATOM      5  C   UNL     1      31.373  10.025  27.915  1.00  0.00    -0.068 C 
ATOM      6  C   UNL     1      31.696   8.757  27.625  1.00  0.00     0.009 C 
ATOM      7  C   UNL     1      32.379  11.963  26.845  1.00  0.00     0.008 C 
ATOM      8  C   UNL     1      31.021  12.695  26.891  1.00  0.00     0.005 C 
ATOM      9  C   UNL     1      29.220  10.333  26.646  1.00  0.00     0.016 C 
ENDROOT
BRANCH   3  10
ATOM     10  C   UNL     1      31.399  11.599  30.603  1.00  0.00    -0.032 C 
ATOM     11  C   UNL     1      32.021  10.216  30.953  1.00  0.00     0.011 C 
ATOM     12  C   UNL     1      32.181  12.611  31.487  1.00  0.00     0.011 C 
BRANCH  10  13
ATOM     13  C   UNL     1      29.914  11.672  31.086  1.00  0.00     0.007 CG0
ATOM     14  G   UNL     1      28.787  10.950  30.304  1.00  0.00     0.000 G0
ENDBRANCH  10  13
ENDBRANCH   3  10
BRANCH   1  15
ATOM     15  C   UNL     1      29.171   9.989  29.168  1.00  0.00     0.011 C 
BRANCH  15  16
ATOM     16  C   UNL     1      28.782  10.942  30.306  1.00  0.00     0.001 CG0
ATOM     17  G   UNL     1      29.903  11.679  31.084  1.00  0.00     0.000 G0
ENDBRANCH  15  16
ENDBRANCH   1  15
TORSDOF 0
ENDMDL
MODEL 3
REMARK VINA RESULT:    -4.039      1.612      2.680
REMARK INTER + INTRA:          -4.308
REMARK INTER:                  -4.972
REMARK INTRA:                   0.664
REMARK UNBOUND:                 0.676
REMARK SMILES C=C1[C@H]2CC[C@@H]3[C@H]2C(C)(C)CCC[C@]13C
REMARK SMILES IDX 14 1 6 2 7 3 3 4 2 5 1 6 4 7 5 8 15 9 8 10 9 11 10 12 11 13
REMARK SMILES IDX 13 15 12 16
REMARK H PARENT
REMARK Flexibility Score: 80.00
ROOT
ATOM      1  C   UNL     1      30.919   9.283  32.325  1.00  0.00    -0.008 C 
ATOM      2  C   UNL     1      32.329   9.794  31.854  1.00  0.00     0.003 C 
ATOM      3  C   UNL     1      31.998  11.088  31.096  1.00  0.00     0.006 C 
ATOM      4  C   UNL     1      31.255  11.709  32.280  1.00  0.00     0.019 C 
ATOM      5  C   UNL     1      30.282  10.619  32.634  1.00  0.00    -0.068 C 
ATOM      6  C   UNL     1      29.088  10.815  33.208  1.00  0.00     0.009 C 
ATOM      7  C   UNL     1      32.339  11.683  33.374  1.00  0.00     0.008 C 
ATOM      8  C   UNL     1      33.125  10.396  33.048  1.00  0.00     0.005 C 
ATOM      9  C   UNL     1      30.981   8.400  33.599  1.00  0.00     0.016 C 
ENDROOT
BRANCH   3  10
ATOM     10  C   UNL     1      31.245  10.988  29.695  1.00  0.00    -0.032 C 
ATOM     11  C   UNL     1      29.787  11.528  29.698  1.00  0.00     0.011 C 
ATOM     12  C   UNL     1      32.000  11.915  28.700  1.00  0.00     0.011 C 
BRANCH  10  13
ATOM     13  C   UNL     1      31.301   9.557  29.068  1.00  0.00     0.007 CG0
ATOM     14  G   UNL     1      30.824   8.319  29.869  1.00  0.00     0.000 G0
ENDBRANCH  10  13
ENDBRANCH   3  10
BRANCH   1  15
ATOM     15  C   UNL     1      30.113   8.530  31.209  1.00  0.00     0.011 C 
BRANCH  15  16
ATOM     16  C   UNL     1      30.824   8.315  29.866  1.00  0.00     0.001 CG0
ATOM     17  G   UNL     1      31.310   9.552  29.067  1.00  0.00     0.000 G0
ENDBRANCH  15  16
ENDBRANCH   1  15
TORSDOF 0
ENDMDL
MODEL 4
REMARK VINA RESULT:    -3.902      1.820      3.385
REMARK INTER + INTRA:          -4.139
REMARK INTER:                  -4.790
REMARK INTRA:                   0.651
REMARK UNBOUND:                 0.676
REMARK SMILES C=C1[C@H]2CC[C@@H]3[C@H]2C(C)(C)CCC[C@]13C
REMARK SMILES IDX 14 1 6 2 7 3 3 4 2 5 1 6 4 7 5 8 15 9 8 10 9 11 10 12 11 13
REMARK SMILES IDX 13 15 12 16
REMARK H PARENT
REMARK Flexibility Score: 80.00
ROOT
ATOM      1  C   UNL     1      31.372   9.629  31.213  1.00  0.00    -0.008 C 
ATOM      2  C   UNL     1      32.370  10.667  30.582  1.00  0.00     0.003 C 
ATOM      3  C   UNL     1      31.440  11.755  30.026  1.00  0.00     0.006 C 
ATOM      4  C   UNL     1      30.752  11.993  31.371  1.00  0.00     0.019 C 
ATOM      5  C   UNL     1      30.347  10.598  31.758  1.00  0.00    -0.068 C 
ATOM      6  C   UNL     1      29.296  10.292  32.531  1.00  0.00     0.009 C 
ATOM      7  C   UNL     1      31.948  12.354  32.272  1.00  0.00     0.008 C 
ATOM      8  C   UNL     1      33.087  11.488  31.691  1.00  0.00     0.005 C 
ATOM      9  C   UNL     1      31.999   8.795  32.361  1.00  0.00     0.016 C 
ENDROOT
BRANCH   3  10
ATOM     10  C   UNL     1      30.533  11.419  28.759  1.00  0.00    -0.032 C 
ATOM     11  C   UNL     1      29.006  11.353  29.048  1.00  0.00     0.011 C 
ATOM     12  C   UNL     1      30.688  12.599  27.757  1.00  0.00     0.011 C 
BRANCH  10  13
ATOM     13  C   UNL     1      31.003  10.143  27.987  1.00  0.00     0.007 CG0
ATOM     14  G   UNL     1      31.195   8.793  28.726  1.00  0.00     0.000 G0
ENDBRANCH  10  13
ENDBRANCH   3  10
BRANCH   1  15
ATOM     15  C   UNL     1      30.717   8.662  30.165  1.00  0.00     0.011 C 
BRANCH  15  16
ATOM     16  C   UNL     1      31.196   8.786  28.713  1.00  0.00     0.001 CG0
ATOM     17  G   UNL     1      31.005  10.135  27.972  1.00  0.00     0.000 G0
ENDBRANCH  15  16
ENDBRANCH   1  15
TORSDOF 0
ENDMDL
MODEL 5
REMARK VINA RESULT:    -3.890      3.207      5.205
REMARK INTER + INTRA:          -4.123
REMARK INTER:                  -4.784
REMARK INTRA:                   0.661
REMARK UNBOUND:                 0.676
REMARK SMILES C=C1[C@H]2CC[C@@H]3[C@H]2C(C)(C)CCC[C@]13C
REMARK SMILES IDX 14 1 6 2 7 3 3 4 2 5 1 6 4 7 5 8 15 9 8 10 9 11 10 12 11 13
REMARK SMILES IDX 13 15 12 16
REMARK H PARENT
REMARK Flexibility Score: 80.00
ROOT
ATOM      1  C   UNL     1      30.419   9.363  26.642  1.00  0.00    -0.008 C 
ATOM      2  C   UNL     1      31.539   8.718  27.538  1.00  0.00     0.003 C 
ATOM      3  C   UNL     1      31.213   9.249  28.942  1.00  0.00     0.006 C 
ATOM      4  C   UNL     1      29.778   8.720  28.917  1.00  0.00     0.019 C 
ATOM      5  C   UNL     1      29.269   9.283  27.619  1.00  0.00    -0.068 C 
ATOM      6  C   UNL     1      27.987   9.577  27.364  1.00  0.00     0.009 C 
ATOM      7  C   UNL     1      30.007   7.217  28.668  1.00  0.00     0.008 C 
ATOM      8  C   UNL     1      31.260   7.205  27.767  1.00  0.00     0.005 C 
ATOM      9  C   UNL     1      30.108   8.540  25.364  1.00  0.00     0.016 C 
ENDROOT
BRANCH   3  10
ATOM     10  C   UNL     1      31.447  10.794  29.254  1.00  0.00    -0.032 C 
ATOM     11  C   UNL     1      30.147  11.618  29.483  1.00  0.00     0.011 C 
ATOM     12  C   UNL     1      32.204  10.880  30.610  1.00  0.00     0.011 C 
BRANCH  10  13
ATOM     13  C   UNL     1      32.369  11.500  28.208  1.00  0.00     0.007 CG0
ATOM     14  G   UNL     1      32.047  11.435  26.692  1.00  0.00     0.000 G0
ENDBRANCH  10  13
ENDBRANCH   3  10
BRANCH   1  15
ATOM     15  C   UNL     1      30.705  10.853  26.244  1.00  0.00     0.011 C 
BRANCH  15  16
ATOM     16  C   UNL     1      32.049  11.444  26.691  1.00  0.00     0.001 CG0
ATOM     17  G   UNL     1      32.378  11.499  28.205  1.00  0.00     0.000 G0
ENDBRANCH  15  16
ENDBRANCH   1  15
TORSDOF 0
ENDMDL
MODEL 6
REMARK VINA RESULT:    -3.850      1.526      3.789
REMARK INTER + INTRA:          -4.074
REMARK INTER:                  -4.727
REMARK INTRA:                   0.653
REMARK UNBOUND:                 0.676
REMARK SMILES C=C1[C@H]2CC[C@@H]3[C@H]2C(C)(C)CCC[C@]13C
REMARK SMILES IDX 14 1 6 2 7 3 3 4 2 5 1 6 4 7 5 8 15 9 8 10 9 11 10 12 11 13
REMARK SMILES IDX 13 15 12 16
REMARK H PARENT
REMARK Flexibility Score: 80.00
ROOT
ATOM      1  C   UNL     1      29.931  11.478  31.392  1.00  0.00    -0.008 C 
ATOM      2  C   UNL     1      31.299  11.436  32.166  1.00  0.00     0.003 C 
ATOM      3  C   UNL     1      31.855  10.047  31.821  1.00  0.00     0.006 C 
ATOM      4  C   UNL     1      31.774  10.281  30.311  1.00  0.00     0.019 C 
ATOM      5  C   UNL     1      30.348  10.728  30.148  1.00  0.00    -0.068 C 
ATOM      6  C   UNL     1      29.614  10.555  29.040  1.00  0.00     0.009 C 
ATOM      7  C   UNL     1      32.638  11.546  30.147  1.00  0.00     0.008 C 
ATOM      8  C   UNL     1      32.363  12.320  31.455  1.00  0.00     0.005 C 
ATOM      9  C   UNL     1      29.474  12.917  31.034  1.00  0.00     0.016 C 
ENDROOT
BRANCH   3  10
ATOM     10  C   UNL     1      31.139   8.759  32.428  1.00  0.00    -0.032 C 
ATOM     11  C   UNL     1      30.401   7.870  31.386  1.00  0.00     0.011 C 
ATOM     12  C   UNL     1      32.256   7.839  33.000  1.00  0.00     0.011 C 
BRANCH  10  13
ATOM     13  C   UNL     1      30.201   9.087  33.634  1.00  0.00     0.007 CG0
ATOM     14  G   UNL     1      29.083  10.153  33.504  1.00  0.00     0.000 G0
ENDBRANCH  10  13
ENDBRANCH   3  10
BRANCH   1  15
ATOM     15  C   UNL     1      28.764  10.729  32.125  1.00  0.00     0.011 C 
BRANCH  15  16
ATOM     16  C   UNL     1      29.076  10.149  33.512  1.00  0.00     0.001 CG0
ATOM     17  G   UNL     1      30.199   9.089  33.647  1.00  0.00     0.000 G0
ENDBRANCH  15  16
ENDBRANCH   1  15
TORSDOF 0
ENDMDL
MODEL 7
REMARK VINA RESULT:    -3.840      1.755      4.009
REMARK INTER + INTRA:          -4.062
REMARK INTER:                  -4.722
REMARK INTRA:                   0.660
REMARK UNBOUND:                 0.676
REMARK SMILES C=C1[C@H]2CC[C@@H]3[C@H]2C(C)(C)CCC[C@]13C
REMARK SMILES IDX 14 1 6 2 7 3 3 4 2 5 1 6 4 7 5 8 15 9 8 10 9 11 10 12 11 13
REMARK SMILES IDX 13 15 12 16
REMARK H PARENT
REMARK Flexibility Score: 80.00
ROOT
ATOM      1  C   UNL     1      31.024  11.377  29.807  1.00  0.00    -0.008 C 
ATOM      2  C   UNL     1      31.757  10.003  29.593  1.00  0.00     0.003 C 
ATOM      3  C   UNL     1      31.172   9.116  30.702  1.00  0.00     0.006 C 
ATOM      4  C   UNL     1      29.726   9.351  30.262  1.00  0.00     0.019 C 
ATOM      5  C   UNL     1      29.664  10.852  30.206  1.00  0.00    -0.068 C 
ATOM      6  C   UNL     1      28.555  11.580  30.396  1.00  0.00     0.009 C 
ATOM      7  C   UNL     1      29.765   8.871  28.799  1.00  0.00     0.008 C 
ATOM      8  C   UNL     1      31.189   9.261  28.349  1.00  0.00     0.005 C 
ATOM      9  C   UNL     1      30.923  12.226  28.511  1.00  0.00     0.016 C 
ENDROOT
BRANCH   3  10
ATOM     10  C   UNL     1      31.563   9.420  32.217  1.00  0.00    -0.032 C 
ATOM     11  C   UNL     1      30.397   9.953  33.098  1.00  0.00     0.011 C 
ATOM     12  C   UNL     1      31.954   8.065  32.872  1.00  0.00     0.011 C 
BRANCH  10  13
ATOM     13  C   UNL     1      32.821  10.337  32.355  1.00  0.00     0.007 CG0
ATOM     14  G   UNL     1      32.891  11.705  31.629  1.00  0.00     0.000 G0
ENDBRANCH  10  13
ENDBRANCH   3  10
BRANCH   1  15
ATOM     15  C   UNL     1      31.639  12.251  30.955  1.00  0.00     0.011 C 
BRANCH  15  16
ATOM     16  C   UNL     1      32.899  11.708  31.641  1.00  0.00     0.001 CG0
ATOM     17  G   UNL     1      32.831  10.336  32.360  1.00  0.00     0.000 G0
ENDBRANCH  15  16
ENDBRANCH   1  15
TORSDOF 0
ENDMDL
MODEL 8
REMARK VINA RESULT:    -3.814      3.236      5.101
REMARK INTER + INTRA:          -4.030
REMARK INTER:                  -4.700
REMARK INTRA:                   0.670
REMARK UNBOUND:                 0.676
REMARK SMILES C=C1[C@H]2CC[C@@H]3[C@H]2C(C)(C)CCC[C@]13C
REMARK SMILES IDX 14 1 6 2 7 3 3 4 2 5 1 6 4 7 5 8 15 9 8 10 9 11 10 12 11 13
REMARK SMILES IDX 13 15 12 16
REMARK H PARENT
REMARK Flexibility Score: 80.00
ROOT
ATOM      1  C   UNL     1      30.119  11.714  27.800  1.00  0.00    -0.008 C 
ATOM      2  C   UNL     1      29.931  11.159  29.258  1.00  0.00     0.003 C 
ATOM      3  C   UNL     1      30.906   9.973  29.311  1.00  0.00     0.006 C 
ATOM      4  C   UNL     1      32.113  10.821  28.905  1.00  0.00     0.019 C 
ATOM      5  C   UNL     1      31.608  11.495  27.660  1.00  0.00    -0.068 C 
ATOM      6  C   UNL     1      32.380  11.905  26.644  1.00  0.00     0.009 C 
ATOM      7  C   UNL     1      32.115  11.902  30.003  1.00  0.00     0.008 C 
ATOM      8  C   UNL     1      30.612  12.094  30.297  1.00  0.00     0.005 C 
ATOM      9  C   UNL     1      29.773  13.221  27.669  1.00  0.00     0.016 C 
ENDROOT
BRANCH   3  10
ATOM     10  C   UNL     1      30.576   8.667  28.459  1.00  0.00    -0.032 C 
ATOM     11  C   UNL     1      31.540   8.404  27.267  1.00  0.00     0.011 C 
ATOM     12  C   UNL     1      30.778   7.443  29.398  1.00  0.00     0.011 C 
BRANCH  10  13
ATOM     13  C   UNL     1      29.087   8.599  27.989  1.00  0.00     0.007 CG0
ATOM     14  G   UNL     1      28.449   9.770  27.197  1.00  0.00     0.000 G0
ENDBRANCH  10  13
ENDBRANCH   3  10
BRANCH   1  15
ATOM     15  C   UNL     1      29.335  10.904  26.707  1.00  0.00     0.011 C 
BRANCH  15  16
ATOM     16  C   UNL     1      28.446   9.755  27.201  1.00  0.00     0.001 CG0
ATOM     17  G   UNL     1      29.093   8.595  28.000  1.00  0.00     0.000 G0
ENDBRANCH  15  16
ENDBRANCH   1  15
TORSDOF 0
ENDMDL
MODEL 9
REMARK VINA RESULT:    -3.786      2.219      3.182
REMARK INTER + INTRA:          -3.996
REMARK INTER:                  -4.655
REMARK INTRA:                   0.659
REMARK UNBOUND:                 0.676
REMARK SMILES C=C1[C@H]2CC[C@@H]3[C@H]2C(C)(C)CCC[C@]13C
REMARK SMILES IDX 14 1 6 2 7 3 3 4 2 5 1 6 4 7 5 8 15 9 8 10 9 11 10 12 11 13
REMARK SMILES IDX 13 15 12 16
REMARK H PARENT
REMARK Flexibility Score: 80.00
ROOT
ATOM      1  C   UNL     1      29.312   9.033  35.937  1.00  0.00    -0.008 C 
ATOM      2  C   UNL     1      29.642   7.949  34.847  1.00  0.00     0.003 C 
ATOM      3  C   UNL     1      31.076   8.303  34.425  1.00  0.00     0.006 C 
ATOM      4  C   UNL     1      31.621   8.222  35.852  1.00  0.00     0.019 C 
ATOM      5  C   UNL     1      30.671   9.122  36.592  1.00  0.00    -0.068 C 
ATOM      6  C   UNL     1      30.976   9.813  37.699  1.00  0.00     0.009 C 
ATOM      7  C   UNL     1      31.241   6.783  36.249  1.00  0.00     0.008 C 
ATOM      8  C   UNL     1      29.905   6.565  35.506  1.00  0.00     0.005 C 
ATOM      9  C   UNL     1      28.242   8.566  36.960  1.00  0.00     0.016 C 
ENDROOT
BRANCH   3  10
ATOM     10  C   UNL     1      31.327   9.637  33.591  1.00  0.00    -0.032 C 
ATOM     11  C   UNL     1      32.106  10.747  34.353  1.00  0.00     0.011 C 
ATOM     12  C   UNL     1      32.250   9.266  32.395  1.00  0.00     0.011 C 
BRANCH  10  13
ATOM     13  C   UNL     1      30.022  10.219  32.955  1.00  0.00     0.007 CG0
ATOM     14  G   UNL     1      28.775  10.512  33.829  1.00  0.00     0.000 G0
ENDBRANCH  10  13
ENDBRANCH   3  10
BRANCH   1  15
ATOM     15  C   UNL     1      28.891  10.423  35.342  1.00  0.00     0.011 C 
BRANCH  15  16
ATOM     16  C   UNL     1      28.772  10.516  33.815  1.00  0.00     0.001 CG0
ATOM     17  G   UNL     1      30.021  10.220  32.945  1.00  0.00     0.000 G0
ENDBRANCH  15  16
ENDBRANCH   1  15
TORSDOF 0
ENDMDL
