MODEL 1
REMARK VINA RESULT:    -4.084      0.000      0.000
REMARK INTER + INTRA:          -4.457
REMARK INTER:                  -4.323
REMARK INTRA:                  -0.134
REMARK UNBOUND:                -0.134
REMARK SMILES C=C(C)[C@H]1CC=C(C)CC1
REMARK SMILES IDX 8 1 7 2 6 3 5 4 4 5 10 6 9 7 2 8 1 9 3 10
REMARK H PARENT
REMARK Flexibility Score: inf
ROOT
ATOM      1  C   UNL     1      76.382  -1.084  -1.133  1.00  0.00     0.039 C 
ATOM      2  C   UNL     1      76.268   0.323  -1.652  1.00  0.00    -0.077 C 
ATOM      3  C   UNL     1      77.125   0.740  -2.608  1.00  0.00    -0.027 C 
ATOM      4  C   UNL     1      77.125   2.148  -3.155  1.00  0.00     0.035 C 
ATOM      5  C   UNL     1      75.772   2.851  -2.950  1.00  0.00     0.018 C 
ATOM      6  C   UNL     1      75.304   2.672  -1.497  1.00  0.00     0.013 C 
ATOM      7  C   UNL     1      75.111   1.184  -1.182  1.00  0.00     0.031 C 
ENDROOT
BRANCH   5   8
ATOM      8  C   UNL     1      75.834   4.317  -3.349  1.00  0.00    -0.077 C 
ATOM      9  C   UNL     1      74.800   5.148  -3.129  1.00  0.00     0.008 C 
ATOM     10  C   UNL     1      77.082   4.830  -4.017  1.00  0.00     0.039 C 
ENDBRANCH   5   8
TORSDOF 1
ENDMDL
MODEL 2
REMARK VINA RESULT:    -4.067     14.663     15.641
REMARK INTER + INTRA:          -4.439
REMARK INTER:                  -4.313
REMARK INTRA:                  -0.126
REMARK UNBOUND:                -0.134
REMARK SMILES C=C(C)[C@H]1CC=C(C)CC1
REMARK SMILES IDX 8 1 7 2 6 3 5 4 4 5 10 6 9 7 2 8 1 9 3 10
REMARK H PARENT
REMARK Flexibility Score: inf
ROOT
ATOM      1  C   UNL     1      65.456  -3.006  -9.369  1.00  0.00     0.039 C 
ATOM      2  C   UNL     1      65.914  -4.331  -9.913  1.00  0.00    -0.077 C 
ATOM      3  C   UNL     1      66.197  -4.436 -11.229  1.00  0.00    -0.027 C 
ATOM      4  C   UNL     1      66.612  -5.734 -11.879  1.00  0.00     0.035 C 
ATOM      5  C   UNL     1      67.203  -6.729 -10.866  1.00  0.00     0.018 C 
ATOM      6  C   UNL     1      66.285  -6.833  -9.638  1.00  0.00     0.013 C 
ATOM      7  C   UNL     1      66.172  -5.470  -8.945  1.00  0.00     0.031 C 
ENDROOT
BRANCH   5   8
ATOM      8  C   UNL     1      67.461  -8.088 -11.497  1.00  0.00    -0.077 C 
ATOM      9  C   UNL     1      66.471  -8.794 -12.071  1.00  0.00     0.008 C 
ATOM     10  C   UNL     1      68.858  -8.648 -11.458  1.00  0.00     0.039 C 
ENDBRANCH   5   8
TORSDOF 1
ENDMDL
MODEL 3
REMARK VINA RESULT:    -3.993      1.576      5.232
REMARK INTER + INTRA:          -4.360
REMARK INTER:                  -4.229
REMARK INTRA:                  -0.131
REMARK UNBOUND:                -0.134
REMARK SMILES C=C(C)[C@H]1CC=C(C)CC1
REMARK SMILES IDX 8 1 7 2 6 3 5 4 4 5 10 6 9 7 2 8 1 9 3 10
REMARK H PARENT
REMARK Flexibility Score: inf
ROOT
ATOM      1  C   UNL     1      76.332   3.340  -2.710  1.00  0.00     0.039 C 
ATOM      2  C   UNL     1      76.013   1.929  -2.296  1.00  0.00    -0.077 C 
ATOM      3  C   UNL     1      74.728   1.593  -2.053  1.00  0.00    -0.027 C 
ATOM      4  C   UNL     1      74.313   0.220  -1.582  1.00  0.00     0.035 C 
ATOM      5  C   UNL     1      75.354  -0.855  -1.937  1.00  0.00     0.018 C 
ATOM      6  C   UNL     1      76.757  -0.379  -1.530  1.00  0.00     0.013 C 
ATOM      7  C   UNL     1      77.125   0.898  -2.295  1.00  0.00     0.031 C 
ENDROOT
BRANCH   5   8
ATOM      8  C   UNL     1      75.009  -2.199  -1.313  1.00  0.00    -0.077 C 
ATOM      9  C   UNL     1      75.963  -3.010  -0.823  1.00  0.00     0.008 C 
ATOM     10  C   UNL     1      73.565  -2.622  -1.263  1.00  0.00     0.039 C 
ENDBRANCH   5   8
TORSDOF 1
ENDMDL
MODEL 4
REMARK VINA RESULT:    -3.973      1.280      2.172
REMARK INTER + INTRA:          -4.338
REMARK INTER:                  -4.206
REMARK INTRA:                  -0.132
REMARK UNBOUND:                -0.134
REMARK SMILES C=C(C)[C@H]1CC=C(C)CC1
REMARK SMILES IDX 8 1 7 2 6 3 5 4 4 5 10 6 9 7 2 8 1 9 3 10
REMARK H PARENT
REMARK Flexibility Score: inf
ROOT
ATOM      1  C   UNL     1      75.992  -2.615  -0.997  1.00  0.00     0.039 C 
ATOM      2  C   UNL     1      75.821  -1.208  -1.497  1.00  0.00    -0.077 C 
ATOM      3  C   UNL     1      74.603  -0.809  -1.924  1.00  0.00    -0.027 C 
ATOM      4  C   UNL     1      74.342   0.565  -2.493  1.00  0.00     0.035 C 
ATOM      5  C   UNL     1      75.390   1.593  -2.035  1.00  0.00     0.018 C 
ATOM      6  C   UNL     1      76.803   1.021  -2.229  1.00  0.00     0.013 C 
ATOM      7  C   UNL     1      76.985  -0.243  -1.380  1.00  0.00     0.031 C 
ENDROOT
BRANCH   5   8
ATOM      8  C   UNL     1      75.217   2.928  -2.743  1.00  0.00    -0.077 C 
ATOM      9  C   UNL     1      74.006   3.498  -2.879  1.00  0.00     0.008 C 
ATOM     10  C   UNL     1      76.435   3.606  -3.312  1.00  0.00     0.039 C 
ENDBRANCH   5   8
TORSDOF 1
ENDMDL
MODEL 5
REMARK VINA RESULT:    -3.939      2.402      5.438
REMARK INTER + INTRA:          -4.303
REMARK INTER:                  -4.172
REMARK INTRA:                  -0.131
REMARK UNBOUND:                -0.134
REMARK SMILES C=C(C)[C@H]1CC=C(C)CC1
REMARK SMILES IDX 8 1 7 2 6 3 5 4 4 5 10 6 9 7 2 8 1 9 3 10
REMARK H PARENT
REMARK Flexibility Score: inf
ROOT
ATOM      1  C   UNL     1      76.535   2.316  -2.554  1.00  0.00     0.039 C 
ATOM      2  C   UNL     1      75.806   1.022  -2.316  1.00  0.00    -0.077 C 
ATOM      3  C   UNL     1      76.475  -0.015  -1.767  1.00  0.00    -0.027 C 
ATOM      4  C   UNL     1      75.848  -1.369  -1.537  1.00  0.00     0.035 C 
ATOM      5  C   UNL     1      74.314  -1.292  -1.458  1.00  0.00     0.018 C 
ATOM      6  C   UNL     1      73.769  -0.468  -2.636  1.00  0.00     0.013 C 
ATOM      7  C   UNL     1      74.313   0.964  -2.575  1.00  0.00     0.031 C 
ENDROOT
BRANCH   5   8
ATOM      8  C   UNL     1      73.684  -2.676  -1.397  1.00  0.00    -0.077 C 
ATOM      9  C   UNL     1      74.012  -3.553  -0.431  1.00  0.00     0.008 C 
ATOM     10  C   UNL     1      72.685  -3.061  -2.455  1.00  0.00     0.039 C 
ENDBRANCH   5   8
TORSDOF 1
ENDMDL
MODEL 6
REMARK VINA RESULT:    -3.923      3.589      5.853
REMARK INTER + INTRA:          -4.286
REMARK INTER:                  -4.154
REMARK INTRA:                  -0.132
REMARK UNBOUND:                -0.134
REMARK SMILES C=C(C)[C@H]1CC=C(C)CC1
REMARK SMILES IDX 8 1 7 2 6 3 5 4 4 5 10 6 9 7 2 8 1 9 3 10
REMARK H PARENT
REMARK Flexibility Score: inf
ROOT
ATOM      1  C   UNL     1      69.585  -1.537  -1.713  1.00  0.00     0.039 C 
ATOM      2  C   UNL     1      71.084  -1.524  -1.592  1.00  0.00    -0.077 C 
ATOM      3  C   UNL     1      71.780  -2.620  -1.963  1.00  0.00    -0.027 C 
ATOM      4  C   UNL     1      73.280  -2.724  -1.830  1.00  0.00     0.035 C 
ATOM      5  C   UNL     1      73.956  -1.344  -1.776  1.00  0.00     0.018 C 
ATOM      6  C   UNL     1      73.233  -0.446  -0.761  1.00  0.00     0.013 C 
ATOM      7  C   UNL     1      71.774  -0.236  -1.184  1.00  0.00     0.031 C 
ENDROOT
BRANCH   5   8
ATOM      8  C   UNL     1      75.443  -1.457  -1.474  1.00  0.00    -0.077 C 
ATOM      9  C   UNL     1      75.993  -2.622  -1.088  1.00  0.00     0.008 C 
ATOM     10  C   UNL     1      76.300  -0.226  -1.601  1.00  0.00     0.039 C 
ENDBRANCH   5   8
TORSDOF 1
ENDMDL
MODEL 7
REMARK VINA RESULT:    -3.910     10.860     12.325
REMARK INTER + INTRA:          -4.272
REMARK INTER:                  -4.146
REMARK INTRA:                  -0.126
REMARK UNBOUND:                -0.134
REMARK SMILES C=C(C)[C@H]1CC=C(C)CC1
REMARK SMILES IDX 8 1 7 2 6 3 5 4 4 5 10 6 9 7 2 8 1 9 3 10
REMARK H PARENT
REMARK Flexibility Score: inf
ROOT
ATOM      1  C   UNL     1      63.407  -4.455  -5.824  1.00  0.00     0.039 C 
ATOM      2  C   UNL     1      64.476  -4.180  -4.802  1.00  0.00    -0.077 C 
ATOM      3  C   UNL     1      65.110  -2.989  -4.822  1.00  0.00    -0.027 C 
ATOM      4  C   UNL     1      66.231  -2.639  -3.873  1.00  0.00     0.035 C 
ATOM      5  C   UNL     1      66.195  -3.489  -2.592  1.00  0.00     0.018 C 
ATOM      6  C   UNL     1      66.033  -4.974  -2.954  1.00  0.00     0.013 C 
ATOM      7  C   UNL     1      64.712  -5.196  -3.700  1.00  0.00     0.031 C 
ENDROOT
BRANCH   5   8
ATOM      8  C   UNL     1      67.420  -3.249  -1.723  1.00  0.00    -0.077 C 
ATOM      9  C   UNL     1      68.498  -4.049  -1.793  1.00  0.00     0.008 C 
ATOM     10  C   UNL     1      67.403  -2.093  -0.757  1.00  0.00     0.039 C 
ENDBRANCH   5   8
TORSDOF 1
ENDMDL
MODEL 8
REMARK VINA RESULT:    -3.867      2.530      5.742
REMARK INTER + INTRA:          -4.226
REMARK INTER:                  -4.100
REMARK INTRA:                  -0.126
REMARK UNBOUND:                -0.134
REMARK SMILES C=C(C)[C@H]1CC=C(C)CC1
REMARK SMILES IDX 8 1 7 2 6 3 5 4 4 5 10 6 9 7 2 8 1 9 3 10
REMARK H PARENT
REMARK Flexibility Score: inf
ROOT
ATOM      1  C   UNL     1      75.341   2.790  -1.101  1.00  0.00     0.039 C 
ATOM      2  C   UNL     1      74.866   1.365  -1.169  1.00  0.00    -0.077 C 
ATOM      3  C   UNL     1      73.618   1.070  -0.747  1.00  0.00    -0.027 C 
ATOM      4  C   UNL     1      73.068  -0.336  -0.726  1.00  0.00     0.035 C 
ATOM      5  C   UNL     1      73.806  -1.263  -1.707  1.00  0.00     0.018 C 
ATOM      6  C   UNL     1      75.325  -1.111  -1.528  1.00  0.00     0.013 C 
ATOM      7  C   UNL     1      75.753   0.329  -1.834  1.00  0.00     0.031 C 
ENDROOT
BRANCH   5   8
ATOM      8  C   UNL     1      73.360  -2.710  -1.557  1.00  0.00    -0.077 C 
ATOM      9  C   UNL     1      72.427  -3.243  -2.365  1.00  0.00     0.008 C 
ATOM     10  C   UNL     1      73.978  -3.545  -0.468  1.00  0.00     0.039 C 
ENDBRANCH   5   8
TORSDOF 1
ENDMDL
MODEL 9
REMARK VINA RESULT:    -3.856      8.835     10.503
REMARK INTER + INTRA:          -4.215
REMARK INTER:                  -4.089
REMARK INTRA:                  -0.126
REMARK UNBOUND:                -0.134
REMARK SMILES C=C(C)[C@H]1CC=C(C)CC1
REMARK SMILES IDX 8 1 7 2 6 3 5 4 4 5 10 6 9 7 2 8 1 9 3 10
REMARK H PARENT
REMARK Flexibility Score: inf
ROOT
ATOM      1  C   UNL     1      70.660  -1.099  -1.145  1.00  0.00     0.039 C 
ATOM      2  C   UNL     1      69.481  -1.902  -1.621  1.00  0.00    -0.077 C 
ATOM      3  C   UNL     1      69.608  -2.653  -2.736  1.00  0.00    -0.027 C 
ATOM      4  C   UNL     1      68.469  -3.452  -3.323  1.00  0.00     0.035 C 
ATOM      5  C   UNL     1      67.384  -3.769  -2.280  1.00  0.00     0.018 C 
ATOM      6  C   UNL     1      67.009  -2.493  -1.509  1.00  0.00     0.013 C 
ATOM      7  C   UNL     1      68.232  -1.948  -0.762  1.00  0.00     0.031 C 
ENDROOT
BRANCH   5   8
ATOM      8  C   UNL     1      66.167  -4.424  -2.915  1.00  0.00    -0.077 C 
ATOM      9  C   UNL     1      65.079  -3.707  -3.249  1.00  0.00     0.008 C 
ATOM     10  C   UNL     1      66.192  -5.910  -3.157  1.00  0.00     0.039 C 
ENDBRANCH   5   8
TORSDOF 1
ENDMDL
