MODEL 1
REMARK VINA RESULT:    -3.926      0.000      0.000
REMARK INTER + INTRA:          -3.926
REMARK INTER:                  -3.926
REMARK INTRA:                   0.000
REMARK UNBOUND:                 0.000
REMARK SMILES C=C1CC[C@@H]2C[C@H]1C2(C)C
REMARK SMILES IDX 9 1 8 2 5 3 4 4 3 5 2 6 1 7 7 8 6 9 10 10
REMARK H PARENT
REMARK Flexibility Score: inf
ROOT
ATOM      1  C   UNL     1      29.724  22.879  13.391  1.00  0.00     0.012 C 
ATOM      2  C   UNL     1      30.244  24.078  12.562  1.00  0.00    -0.026 C 
ATOM      3  C   UNL     1      30.371  23.731  11.057  1.00  0.00    -0.004 C 
ATOM      4  C   UNL     1      31.257  24.780  10.312  1.00  0.00     0.008 C 
ATOM      5  C   UNL     1      30.797  26.262  10.581  1.00  0.00     0.031 C 
ATOM      6  C   UNL     1      29.692  26.346  11.645  1.00  0.00    -0.074 C 
ATOM      7  C   UNL     1      29.266  27.523  12.115  1.00  0.00     0.008 C 
ATOM      8  C   UNL     1      29.100  25.030  12.138  1.00  0.00     0.021 C 
ATOM      9  C   UNL     1      28.911  24.180  10.871  1.00  0.00     0.012 C 
ATOM     10  C   UNL     1      31.473  24.684  13.293  1.00  0.00     0.012 C 
ENDROOT
TORSDOF 0
ENDMDL
MODEL 2
REMARK VINA RESULT:    -3.886      1.865      4.109
REMARK INTER + INTRA:          -3.886
REMARK INTER:                  -3.886
REMARK INTRA:                   0.000
REMARK UNBOUND:                 0.000
REMARK SMILES C=C1CC[C@@H]2C[C@H]1C2(C)C
REMARK SMILES IDX 9 1 8 2 5 3 4 4 3 5 2 6 1 7 7 8 6 9 10 10
REMARK H PARENT
REMARK Flexibility Score: inf
ROOT
ATOM      1  C   UNL     1      29.250  24.116  11.084  1.00  0.00     0.012 C 
ATOM      2  C   UNL     1      30.290  23.395  11.975  1.00  0.00    -0.026 C 
ATOM      3  C   UNL     1      30.751  24.281  13.161  1.00  0.00    -0.004 C 
ATOM      4  C   UNL     1      32.063  23.724  13.800  1.00  0.00     0.008 C 
ATOM      5  C   UNL     1      31.960  22.194  14.159  1.00  0.00     0.031 C 
ATOM      6  C   UNL     1      30.658  21.560  13.645  1.00  0.00    -0.074 C 
ATOM      7  C   UNL     1      30.445  20.243  13.726  1.00  0.00     0.008 C 
ATOM      8  C   UNL     1      29.617  22.500  13.043  1.00  0.00     0.021 C 
ATOM      9  C   UNL     1      29.585  23.713  13.988  1.00  0.00     0.012 C 
ATOM     10  C   UNL     1      31.368  22.761  11.055  1.00  0.00     0.012 C 
ENDROOT
TORSDOF 0
ENDMDL
MODEL 3
REMARK VINA RESULT:    -3.857      1.118      3.470
REMARK INTER + INTRA:          -3.857
REMARK INTER:                  -3.857
REMARK INTRA:                   0.000
REMARK UNBOUND:                 0.000
REMARK SMILES C=C1CC[C@@H]2C[C@H]1C2(C)C
REMARK SMILES IDX 9 1 8 2 5 3 4 4 3 5 2 6 1 7 7 8 6 9 10 10
REMARK H PARENT
REMARK Flexibility Score: inf
ROOT
ATOM      1  C   UNL     1      30.633  26.575  11.708  1.00  0.00     0.012 C 
ATOM      2  C   UNL     1      30.674  25.129  12.260  1.00  0.00    -0.026 C 
ATOM      3  C   UNL     1      29.258  24.597  12.597  1.00  0.00    -0.004 C 
ATOM      4  C   UNL     1      29.336  23.331  13.510  1.00  0.00     0.008 C 
ATOM      5  C   UNL     1      30.304  22.230  12.936  1.00  0.00     0.031 C 
ATOM      6  C   UNL     1      31.078  22.718  11.701  1.00  0.00    -0.074 C 
ATOM      7  C   UNL     1      32.050  21.982  11.152  1.00  0.00     0.008 C 
ATOM      8  C   UNL     1      30.685  24.076  11.127  1.00  0.00     0.021 C 
ATOM      9  C   UNL     1      29.148  24.087  11.150  1.00  0.00     0.012 C 
ATOM     10  C   UNL     1      31.778  25.051  13.350  1.00  0.00     0.012 C 
ENDROOT
TORSDOF 0
ENDMDL
MODEL 4
REMARK VINA RESULT:    -3.823      1.137      3.054
REMARK INTER + INTRA:          -3.823
REMARK INTER:                  -3.823
REMARK INTRA:                   0.000
REMARK UNBOUND:                 0.000
REMARK SMILES C=C1CC[C@@H]2C[C@H]1C2(C)C
REMARK SMILES IDX 9 1 8 2 5 3 4 4 3 5 2 6 1 7 7 8 6 9 10 10
REMARK H PARENT
REMARK Flexibility Score: inf
ROOT
ATOM      1  C   UNL     1      28.467  26.714  11.843  1.00  0.00     0.012 C 
ATOM      2  C   UNL     1      29.231  25.368  11.869  1.00  0.00    -0.026 C 
ATOM      3  C   UNL     1      30.133  25.188  10.621  1.00  0.00    -0.004 C 
ATOM      4  C   UNL     1      30.570  23.698  10.454  1.00  0.00     0.008 C 
ATOM      5  C   UNL     1      31.188  23.097  11.771  1.00  0.00     0.031 C 
ATOM      6  C   UNL     1      31.066  24.057  12.965  1.00  0.00    -0.074 C 
ATOM      7  C   UNL     1      31.405  23.677  14.201  1.00  0.00     0.008 C 
ATOM      8  C   UNL     1      30.547  25.462  12.676  1.00  0.00     0.021 C 
ATOM      9  C   UNL     1      31.265  25.893  11.387  1.00  0.00     0.012 C 
ATOM     10  C   UNL     1      28.225  24.241  12.229  1.00  0.00     0.012 C 
ENDROOT
TORSDOF 0
ENDMDL
MODEL 5
REMARK VINA RESULT:    -3.753      1.080      3.138
REMARK INTER + INTRA:          -3.753
REMARK INTER:                  -3.753
REMARK INTRA:                   0.000
REMARK UNBOUND:                 0.000
REMARK SMILES C=C1CC[C@@H]2C[C@H]1C2(C)C
REMARK SMILES IDX 9 1 8 2 5 3 4 4 3 5 2 6 1 7 7 8 6 9 10 10
REMARK H PARENT
REMARK Flexibility Score: inf
ROOT
ATOM      1  C   UNL     1      31.740  25.721   9.974  1.00  0.00     0.012 C 
ATOM      2  C   UNL     1      31.009  24.836  11.012  1.00  0.00    -0.026 C 
ATOM      3  C   UNL     1      31.439  25.171  12.464  1.00  0.00    -0.004 C 
ATOM      4  C   UNL     1      31.021  24.033  13.449  1.00  0.00     0.008 C 
ATOM      5  C   UNL     1      29.501  23.644  13.315  1.00  0.00     0.031 C 
ATOM      6  C   UNL     1      28.819  24.351  12.133  1.00  0.00    -0.074 C 
ATOM      7  C   UNL     1      27.569  24.048  11.767  1.00  0.00     0.008 C 
ATOM      8  C   UNL     1      29.628  25.417  11.400  1.00  0.00     0.021 C 
ATOM      9  C   UNL     1      30.319  26.225  12.511  1.00  0.00     0.012 C 
ATOM     10  C   UNL     1      31.081  23.360  10.536  1.00  0.00     0.012 C 
ENDROOT
TORSDOF 0
ENDMDL
MODEL 6
REMARK VINA RESULT:    -3.728      1.275      2.489
REMARK INTER + INTRA:          -3.728
REMARK INTER:                  -3.728
REMARK INTRA:                   0.000
REMARK UNBOUND:                 0.000
REMARK SMILES C=C1CC[C@@H]2C[C@H]1C2(C)C
REMARK SMILES IDX 9 1 8 2 5 3 4 4 3 5 2 6 1 7 7 8 6 9 10 10
REMARK H PARENT
REMARK Flexibility Score: inf
ROOT
ATOM      1  C   UNL     1      30.619  23.876  10.469  1.00  0.00     0.012 C 
ATOM      2  C   UNL     1      30.450  25.134  11.355  1.00  0.00    -0.026 C 
ATOM      3  C   UNL     1      31.777  25.923  11.501  1.00  0.00    -0.004 C 
ATOM      4  C   UNL     1      31.702  26.931  12.691  1.00  0.00     0.008 C 
ATOM      5  C   UNL     1      30.424  27.850  12.628  1.00  0.00     0.031 C 
ATOM      6  C   UNL     1      29.460  27.433  11.507  1.00  0.00    -0.074 C 
ATOM      7  C   UNL     1      28.256  27.999  11.378  1.00  0.00     0.008 C 
ATOM      8  C   UNL     1      29.939  26.349  10.545  1.00  0.00     0.021 C 
ATOM      9  C   UNL     1      31.400  26.712  10.235  1.00  0.00     0.012 C 
ATOM     10  C   UNL     1      29.680  24.728  12.641  1.00  0.00     0.012 C 
ENDROOT
TORSDOF 0
ENDMDL
MODEL 7
REMARK VINA RESULT:    -3.721      1.422      2.524
REMARK INTER + INTRA:          -3.721
REMARK INTER:                  -3.721
REMARK INTRA:                   0.000
REMARK UNBOUND:                 0.000
REMARK SMILES C=C1CC[C@@H]2C[C@H]1C2(C)C
REMARK SMILES IDX 9 1 8 2 5 3 4 4 3 5 2 6 1 7 7 8 6 9 10 10
REMARK H PARENT
REMARK Flexibility Score: inf
ROOT
ATOM      1  C   UNL     1      30.671  21.123  13.387  1.00  0.00     0.012 C 
ATOM      2  C   UNL     1      30.625  22.516  12.712  1.00  0.00    -0.026 C 
ATOM      3  C   UNL     1      29.172  23.026  12.535  1.00  0.00    -0.004 C 
ATOM      4  C   UNL     1      29.112  24.207  11.515  1.00  0.00     0.008 C 
ATOM      5  C   UNL     1      30.145  25.348  11.849  1.00  0.00     0.031 C 
ATOM      6  C   UNL     1      31.089  24.963  12.998  1.00  0.00    -0.074 C 
ATOM      7  C   UNL     1      32.125  25.738  13.338  1.00  0.00     0.008 C 
ATOM      8  C   UNL     1      30.791  23.663  13.738  1.00  0.00     0.021 C 
ATOM      9  C   UNL     1      29.266  23.660  13.934  1.00  0.00     0.012 C 
ATOM     10  C   UNL     1      31.562  22.493  11.474  1.00  0.00     0.012 C 
ENDROOT
TORSDOF 0
ENDMDL
MODEL 8
REMARK VINA RESULT:    -3.712      2.055      3.503
REMARK INTER + INTRA:          -3.712
REMARK INTER:                  -3.712
REMARK INTRA:                   0.000
REMARK UNBOUND:                 0.000
REMARK SMILES C=C1CC[C@@H]2C[C@H]1C2(C)C
REMARK SMILES IDX 9 1 8 2 5 3 4 4 3 5 2 6 1 7 7 8 6 9 10 10
REMARK H PARENT
REMARK Flexibility Score: inf
ROOT
ATOM      1  C   UNL     1      27.635  27.323  11.874  1.00  0.00     0.012 C 
ATOM      2  C   UNL     1      29.148  27.651  11.856  1.00  0.00    -0.026 C 
ATOM      3  C   UNL     1      30.013  26.420  12.229  1.00  0.00    -0.004 C 
ATOM      4  C   UNL     1      31.468  26.848  12.600  1.00  0.00     0.008 C 
ATOM      5  C   UNL     1      32.125  27.772  11.506  1.00  0.00     0.031 C 
ATOM      6  C   UNL     1      31.128  28.179  10.410  1.00  0.00    -0.074 C 
ATOM      7  C   UNL     1      31.453  29.072   9.470  1.00  0.00     0.008 C 
ATOM      8  C   UNL     1      29.754  27.515  10.439  1.00  0.00     0.021 C 
ATOM      9  C   UNL     1      30.036  26.034  10.740  1.00  0.00     0.012 C 
ATOM     10  C   UNL     1      29.371  28.979  12.629  1.00  0.00     0.012 C 
ENDROOT
TORSDOF 0
ENDMDL
