MODEL 1
REMARK VINA RESULT:    -2.766      0.000      0.000
REMARK INTER + INTRA:          -4.438
REMARK INTER:                  -4.059
REMARK INTRA:                  -0.379
REMARK UNBOUND:                -0.379
REMARK SMILES O=C([O-])CCCCCCCC(=O)[O-]
REMARK SMILES IDX 7 1 6 2 5 3 4 4 2 5 1 6 3 7 8 8 9 9 10 10 11 11 12 12 13 13
REMARK H PARENT
REMARK Flexibility Score: inf
ROOT
ATOM      1  C   UNL     1       4.325  18.260   5.966  1.00  0.00     0.000 C 
ENDROOT
BRANCH   1   2
ATOM      2  C   UNL     1       3.264  18.622   7.017  1.00  0.00     0.000 C 
BRANCH   2   3
ATOM      3  C   UNL     1       2.246  19.649   6.501  1.00  0.00     0.006 C 
BRANCH   3   4
ATOM      4  C   UNL     1       2.758  20.431   5.284  1.00  0.00     0.053 C 
BRANCH   4   5
ATOM      5  C   UNL     1       1.690  21.334   4.756  1.00  0.00     0.041 C 
ATOM      6  O   UNL     1       1.896  22.020   3.720  1.00  0.00    -0.550 OA
ATOM      7  O   UNL     1       0.449  21.383   5.378  1.00  0.00    -0.550 OA
ENDBRANCH   4   5
ENDBRANCH   3   4
ENDBRANCH   2   3
ENDBRANCH   1   2
BRANCH   1   8
ATOM      8  C   UNL     1       4.882  16.853   6.211  1.00  0.00     0.000 C 
BRANCH   8   9
ATOM      9  C   UNL     1       4.609  16.395   7.652  1.00  0.00     0.006 C 
BRANCH   9  10
ATOM     10  C   UNL     1       3.813  15.085   7.704  1.00  0.00     0.053 C 
BRANCH  10  11
ATOM     11  C   UNL     1       4.480  13.996   6.920  1.00  0.00     0.041 C 
ATOM     12  O   UNL     1       5.609  13.563   7.272  1.00  0.00    -0.550 OA
ATOM     13  O   UNL     1       3.839  13.436   5.822  1.00  0.00    -0.550 OA
ENDBRANCH  10  11
ENDBRANCH   9  10
ENDBRANCH   8   9
ENDBRANCH   1   8
TORSDOF 8
ENDMDL
MODEL 2
REMARK VINA RESULT:    -2.758      1.116      6.836
REMARK INTER + INTRA:          -4.427
REMARK INTER:                  -4.108
REMARK INTRA:                  -0.319
REMARK UNBOUND:                -0.379
REMARK SMILES O=C([O-])CCCCCCCC(=O)[O-]
REMARK SMILES IDX 7 1 6 2 5 3 4 4 2 5 1 6 3 7 8 8 9 9 10 10 11 11 12 12 13 13
REMARK H PARENT
REMARK Flexibility Score: inf
ROOT
ATOM      1  C   UNL     1       4.019  17.582   7.693  1.00  0.00     0.000 C 
ENDROOT
BRANCH   1   2
ATOM      2  C   UNL     1       4.640  16.233   8.091  1.00  0.00     0.000 C 
BRANCH   2   3
ATOM      3  C   UNL     1       3.836  15.035   7.565  1.00  0.00     0.006 C 
BRANCH   3   4
ATOM      4  C   UNL     1       4.603  14.223   6.514  1.00  0.00     0.053 C 
BRANCH   4   5
ATOM      5  C   UNL     1       4.263  12.771   6.626  1.00  0.00     0.041 C 
ATOM      6  O   UNL     1       4.764  12.073   7.547  1.00  0.00    -0.550 OA
ATOM      7  O   UNL     1       3.355  12.198   5.744  1.00  0.00    -0.550 OA
ENDBRANCH   4   5
ENDBRANCH   3   4
ENDBRANCH   2   3
ENDBRANCH   1   2
BRANCH   1   8
ATOM      8  C   UNL     1       4.382  17.947   6.248  1.00  0.00     0.000 C 
BRANCH   8   9
ATOM      9  C   UNL     1       3.731  19.276   5.836  1.00  0.00     0.006 C 
BRANCH   9  10
ATOM     10  C   UNL     1       2.436  19.553   6.610  1.00  0.00     0.053 C 
BRANCH  10  11
ATOM     11  C   UNL     1       1.503  20.436   5.839  1.00  0.00     0.041 C 
ATOM     12  O   UNL     1       1.891  20.993   4.778  1.00  0.00    -0.550 OA
ATOM     13  O   UNL     1       0.196  20.615   6.273  1.00  0.00    -0.550 OA
ENDBRANCH  10  11
ENDBRANCH   9  10
ENDBRANCH   8   9
ENDBRANCH   1   8
TORSDOF 8
ENDMDL
MODEL 3
REMARK VINA RESULT:    -2.743      2.060      7.026
REMARK INTER + INTRA:          -4.404
REMARK INTER:                  -4.134
REMARK INTRA:                  -0.270
REMARK UNBOUND:                -0.379
REMARK SMILES O=C([O-])CCCCCCCC(=O)[O-]
REMARK SMILES IDX 7 1 6 2 5 3 4 4 2 5 1 6 3 7 8 8 9 9 10 10 11 11 12 12 13 13
REMARK H PARENT
REMARK Flexibility Score: inf
ROOT
ATOM      1  C   UNL     1       2.228  19.563   6.462  1.00  0.00     0.000 C 
ENDROOT
BRANCH   1   2
ATOM      2  C   UNL     1       3.571  18.824   6.359  1.00  0.00     0.000 C 
BRANCH   2   3
ATOM      3  C   UNL     1       3.758  17.779   7.469  1.00  0.00     0.006 C 
BRANCH   3   4
ATOM      4  C   UNL     1       4.589  16.573   7.013  1.00  0.00     0.053 C 
BRANCH   4   5
ATOM      5  C   UNL     1       4.163  15.339   7.743  1.00  0.00     0.041 C 
ATOM      6  O   UNL     1       3.684  14.362   7.110  1.00  0.00    -0.550 OA
ATOM      7  O   UNL     1       4.341  15.248   9.118  1.00  0.00    -0.550 OA
ENDBRANCH   4   5
ENDBRANCH   3   4
ENDBRANCH   2   3
ENDBRANCH   1   2
BRANCH   1   8
ATOM      8  C   UNL     1       2.038  20.524   5.282  1.00  0.00     0.000 C 
BRANCH   8   9
ATOM      9  C   UNL     1       0.800  21.410   5.487  1.00  0.00     0.006 C 
BRANCH   9  10
ATOM     10  C   UNL     1      -0.329  20.671   6.217  1.00  0.00     0.053 C 
BRANCH  10  11
ATOM     11  C   UNL     1      -0.806  21.429   7.418  1.00  0.00     0.041 C 
ATOM     12  O   UNL     1      -1.879  22.086   7.366  1.00  0.00    -0.550 OA
ATOM     13  O   UNL     1      -0.085  21.381   8.604  1.00  0.00    -0.550 OA
ENDBRANCH  10  11
ENDBRANCH   9  10
ENDBRANCH   8   9
ENDBRANCH   1   8
TORSDOF 8
ENDMDL
MODEL 4
REMARK VINA RESULT:    -2.727      1.835      2.424
REMARK INTER + INTRA:          -4.381
REMARK INTER:                  -3.971
REMARK INTRA:                  -0.410
REMARK UNBOUND:                -0.379
REMARK SMILES O=C([O-])CCCCCCCC(=O)[O-]
REMARK SMILES IDX 7 1 6 2 5 3 4 4 2 5 1 6 3 7 8 8 9 9 10 10 11 11 12 12 13 13
REMARK H PARENT
REMARK Flexibility Score: inf
ROOT
ATOM      1  C   UNL     1       3.459  19.216   6.089  1.00  0.00     0.000 C 
ENDROOT
BRANCH   1   2
ATOM      2  C   UNL     1       3.095  20.354   5.122  1.00  0.00     0.000 C 
BRANCH   2   3
ATOM      3  C   UNL     1       1.672  20.888   5.346  1.00  0.00     0.006 C 
BRANCH   3   4
ATOM      4  C   UNL     1       0.952  20.185   6.503  1.00  0.00     0.053 C 
BRANCH   4   5
ATOM      5  C   UNL     1       0.654  21.155   7.601  1.00  0.00     0.041 C 
ATOM      6  O   UNL     1       1.579  21.847   8.103  1.00  0.00    -0.550 OA
ATOM      7  O   UNL     1      -0.653  21.335   8.036  1.00  0.00    -0.550 OA
ENDBRANCH   4   5
ENDBRANCH   3   4
ENDBRANCH   2   3
ENDBRANCH   1   2
BRANCH   1   8
ATOM      8  C   UNL     1       4.734  18.496   5.632  1.00  0.00     0.000 C 
BRANCH   8   9
ATOM      9  C   UNL     1       4.765  17.050   6.151  1.00  0.00     0.006 C 
BRANCH   9  10
ATOM     10  C   UNL     1       4.053  16.902   7.501  1.00  0.00     0.053 C 
BRANCH  10  11
ATOM     11  C   UNL     1       4.076  15.486   7.991  1.00  0.00     0.041 C 
ATOM     12  O   UNL     1       4.458  15.228   9.162  1.00  0.00    -0.550 OA
ATOM     13  O   UNL     1       3.642  14.457   7.166  1.00  0.00    -0.550 OA
ENDBRANCH  10  11
ENDBRANCH   9  10
ENDBRANCH   8   9
ENDBRANCH   1   8
TORSDOF 8
ENDMDL
MODEL 5
REMARK VINA RESULT:    -2.696      1.627      6.444
REMARK INTER + INTRA:          -4.336
REMARK INTER:                  -3.940
REMARK INTRA:                  -0.396
REMARK UNBOUND:                -0.379
REMARK SMILES O=C([O-])CCCCCCCC(=O)[O-]
REMARK SMILES IDX 7 1 6 2 5 3 4 4 2 5 1 6 3 7 8 8 9 9 10 10 11 11 12 12 13 13
REMARK H PARENT
REMARK Flexibility Score: inf
ROOT
ATOM      1  C   UNL     1       3.431  19.184   8.105  1.00  0.00     0.000 C 
ENDROOT
BRANCH   1   2
ATOM      2  C   UNL     1       4.105  17.878   8.552  1.00  0.00     0.000 C 
BRANCH   2   3
ATOM      3  C   UNL     1       4.193  16.842   7.422  1.00  0.00     0.006 C 
BRANCH   3   4
ATOM      4  C   UNL     1       4.109  15.398   7.934  1.00  0.00     0.053 C 
BRANCH   4   5
ATOM      5  C   UNL     1       4.408  14.434   6.830  1.00  0.00     0.041 C 
ATOM      6  O   UNL     1       3.624  13.477   6.597  1.00  0.00    -0.550 OA
ATOM      7  O   UNL     1       5.525  14.621   6.026  1.00  0.00    -0.550 OA
ENDBRANCH   4   5
ENDBRANCH   3   4
ENDBRANCH   2   3
ENDBRANCH   1   2
BRANCH   1   8
ATOM      8  C   UNL     1       2.830  19.039   6.702  1.00  0.00     0.000 C 
BRANCH   8   9
ATOM      9  C   UNL     1       1.902  20.219   6.375  1.00  0.00     0.006 C 
BRANCH   9  10
ATOM     10  C   UNL     1       2.174  20.804   4.983  1.00  0.00     0.053 C 
BRANCH  10  11
ATOM     11  C   UNL     1       3.627  21.104   4.779  1.00  0.00     0.041 C 
ATOM     12  O   UNL     1       4.261  20.554   3.839  1.00  0.00    -0.550 OA
ATOM     13  O   UNL     1       4.273  22.016   5.603  1.00  0.00    -0.550 OA
ENDBRANCH  10  11
ENDBRANCH   9  10
ENDBRANCH   8   9
ENDBRANCH   1   8
TORSDOF 8
ENDMDL
MODEL 6
REMARK VINA RESULT:    -2.673      1.501      2.058
REMARK INTER + INTRA:          -4.302
REMARK INTER:                  -3.814
REMARK INTRA:                  -0.488
REMARK UNBOUND:                -0.379
REMARK SMILES O=C([O-])CCCCCCCC(=O)[O-]
REMARK SMILES IDX 7 1 6 2 5 3 4 4 2 5 1 6 3 7 8 8 9 9 10 10 11 11 12 12 13 13
REMARK H PARENT
REMARK Flexibility Score: inf
ROOT
ATOM      1  C   UNL     1       4.267  18.091   8.710  1.00  0.00     0.000 C 
ENDROOT
BRANCH   1   2
ATOM      2  C   UNL     1       3.256  19.159   9.154  1.00  0.00     0.000 C 
BRANCH   2   3
ATOM      3  C   UNL     1       2.511  19.796   7.971  1.00  0.00     0.006 C 
BRANCH   3   4
ATOM      4  C   UNL     1       2.904  19.180   6.623  1.00  0.00     0.053 C 
BRANCH   4   5
ATOM      5  C   UNL     1       2.688  20.163   5.517  1.00  0.00     0.041 C 
ATOM      6  O   UNL     1       1.554  20.684   5.346  1.00  0.00    -0.550 OA
ATOM      7  O   UNL     1       3.749  20.542   4.705  1.00  0.00    -0.550 OA
ENDBRANCH   4   5
ENDBRANCH   3   4
ENDBRANCH   2   3
ENDBRANCH   1   2
BRANCH   1   8
ATOM      8  C   UNL     1       4.436  17.013   9.788  1.00  0.00     0.000 C 
BRANCH   8   9
ATOM      9  C   UNL     1       4.293  15.606   9.188  1.00  0.00     0.006 C 
BRANCH   9  10
ATOM     10  C   UNL     1       4.061  15.642   7.672  1.00  0.00     0.053 C 
BRANCH  10  11
ATOM     11  C   UNL     1       4.577  14.406   7.000  1.00  0.00     0.041 C 
ATOM     12  O   UNL     1       5.810  14.150   7.008  1.00  0.00    -0.550 OA
ATOM     13  O   UNL     1       3.693  13.521   6.396  1.00  0.00    -0.550 OA
ENDBRANCH  10  11
ENDBRANCH   9  10
ENDBRANCH   8   9
ENDBRANCH   1   8
TORSDOF 8
ENDMDL
MODEL 7
REMARK VINA RESULT:    -2.671      1.702      2.218
REMARK INTER + INTRA:          -4.299
REMARK INTER:                  -3.933
REMARK INTRA:                  -0.366
REMARK UNBOUND:                -0.379
REMARK SMILES O=C([O-])CCCCCCCC(=O)[O-]
REMARK SMILES IDX 7 1 6 2 5 3 4 4 2 5 1 6 3 7 8 8 9 9 10 10 11 11 12 12 13 13
REMARK H PARENT
REMARK Flexibility Score: inf
ROOT
ATOM      1  C   UNL     1       3.537  19.120   7.937  1.00  0.00     0.000 C 
ENDROOT
BRANCH   1   2
ATOM      2  C   UNL     1       2.927  18.949   6.537  1.00  0.00     0.000 C 
BRANCH   2   3
ATOM      3  C   UNL     1       2.273  20.237   6.015  1.00  0.00     0.006 C 
BRANCH   3   4
ATOM      4  C   UNL     1       0.789  20.341   6.388  1.00  0.00     0.053 C 
BRANCH   4   5
ATOM      5  C   UNL     1       0.598  21.313   7.508  1.00  0.00     0.041 C 
ATOM      6  O   UNL     1      -0.469  21.307   8.176  1.00  0.00    -0.550 OA
ATOM      7  O   UNL     1       1.619  22.191   7.849  1.00  0.00    -0.550 OA
ENDBRANCH   4   5
ENDBRANCH   3   4
ENDBRANCH   2   3
ENDBRANCH   1   2
BRANCH   1   8
ATOM      8  C   UNL     1       4.031  17.777   8.488  1.00  0.00     0.000 C 
BRANCH   8   9
ATOM      9  C   UNL     1       4.278  16.773   7.351  1.00  0.00     0.006 C 
BRANCH   9  10
ATOM     10  C   UNL     1       3.960  15.332   7.770  1.00  0.00     0.053 C 
BRANCH  10  11
ATOM     11  C   UNL     1       4.424  14.339   6.749  1.00  0.00     0.041 C 
ATOM     12  O   UNL     1       5.553  14.470   6.207  1.00  0.00    -0.550 OA
ATOM     13  O   UNL     1       3.625  13.252   6.421  1.00  0.00    -0.550 OA
ENDBRANCH  10  11
ENDBRANCH   9  10
ENDBRANCH   8   9
ENDBRANCH   1   8
TORSDOF 8
ENDMDL
MODEL 8
REMARK VINA RESULT:    -2.645      1.031      6.934
REMARK INTER + INTRA:          -4.261
REMARK INTER:                  -3.943
REMARK INTRA:                  -0.318
REMARK UNBOUND:                -0.379
REMARK SMILES O=C([O-])CCCCCCCC(=O)[O-]
REMARK SMILES IDX 7 1 6 2 5 3 4 4 2 5 1 6 3 7 8 8 9 9 10 10 11 11 12 12 13 13
REMARK H PARENT
REMARK Flexibility Score: inf
ROOT
ATOM      1  C   UNL     1       4.323  18.622   5.970  1.00  0.00     0.000 C 
ENDROOT
BRANCH   1   2
ATOM      2  C   UNL     1       4.796  17.222   6.392  1.00  0.00     0.000 C 
BRANCH   2   3
ATOM      3  C   UNL     1       3.941  16.625   7.520  1.00  0.00     0.006 C 
BRANCH   3   4
ATOM      4  C   UNL     1       4.589  15.393   8.165  1.00  0.00     0.053 C 
BRANCH   4   5
ATOM      5  C   UNL     1       4.671  14.270   7.181  1.00  0.00     0.041 C 
ATOM      6  O   UNL     1       3.619  13.780   6.691  1.00  0.00    -0.550 OA
ATOM      7  O   UNL     1       5.909  13.797   6.765  1.00  0.00    -0.550 OA
ENDBRANCH   4   5
ENDBRANCH   3   4
ENDBRANCH   2   3
ENDBRANCH   1   2
BRANCH   1   8
ATOM      8  C   UNL     1       3.024  19.002   6.691  1.00  0.00     0.000 C 
BRANCH   8   9
ATOM      9  C   UNL     1       2.239  20.055   5.893  1.00  0.00     0.006 C 
BRANCH   9  10
ATOM     10  C   UNL     1       0.870  20.354   6.517  1.00  0.00     0.053 C 
BRANCH  10  11
ATOM     11  C   UNL     1       0.056  21.275   5.660  1.00  0.00     0.041 C 
ATOM     12  O   UNL     1      -1.145  21.515   5.952  1.00  0.00    -0.550 OA
ATOM     13  O   UNL     1       0.635  21.896   4.560  1.00  0.00    -0.550 OA
ENDBRANCH  10  11
ENDBRANCH   9  10
ENDBRANCH   8   9
ENDBRANCH   1   8
TORSDOF 8
ENDMDL
MODEL 9
REMARK VINA RESULT:    -2.604      2.714      5.990
REMARK INTER + INTRA:          -4.200
REMARK INTER:                  -3.541
REMARK INTRA:                  -0.659
REMARK UNBOUND:                -0.379
REMARK SMILES O=C([O-])CCCCCCCC(=O)[O-]
REMARK SMILES IDX 7 1 6 2 5 3 4 4 2 5 1 6 3 7 8 8 9 9 10 10 11 11 12 12 13 13
REMARK H PARENT
REMARK Flexibility Score: inf
ROOT
ATOM      1  C   UNL     1       5.011  18.609   5.964  1.00  0.00     0.000 C 
ENDROOT
BRANCH   1   2
ATOM      2  C   UNL     1       4.844  17.088   5.821  1.00  0.00     0.000 C 
BRANCH   2   3
ATOM      3  C   UNL     1       5.194  16.331   7.111  1.00  0.00     0.006 C 
BRANCH   3   4
ATOM      4  C   UNL     1       4.059  15.415   7.586  1.00  0.00     0.053 C 
BRANCH   4   5
ATOM      5  C   UNL     1       4.288  14.014   7.118  1.00  0.00     0.041 C 
ATOM      6  O   UNL     1       3.838  13.636   6.004  1.00  0.00    -0.550 OA
ATOM      7  O   UNL     1       5.042  13.137   7.888  1.00  0.00    -0.550 OA
ENDBRANCH   4   5
ENDBRANCH   3   4
ENDBRANCH   2   3
ENDBRANCH   1   2
BRANCH   1   8
ATOM      8  C   UNL     1       3.669  19.327   5.782  1.00  0.00     0.000 C 
BRANCH   8   9
ATOM      9  C   UNL     1       2.806  19.212   7.048  1.00  0.00     0.006 C 
BRANCH   9  10
ATOM     10  C   UNL     1       3.494  19.819   8.277  1.00  0.00     0.053 C 
BRANCH  10  11
ATOM     11  C   UNL     1       3.153  19.073   9.531  1.00  0.00     0.041 C 
ATOM     12  O   UNL     1       3.868  18.107   9.906  1.00  0.00    -0.550 OA
ATOM     13  O   UNL     1       2.068  19.468  10.303  1.00  0.00    -0.550 OA
ENDBRANCH  10  11
ENDBRANCH   9  10
ENDBRANCH   8   9
ENDBRANCH   1   8
TORSDOF 8
ENDMDL
