MODEL 1
REMARK VINA RESULT:    -2.613      0.000      0.000
REMARK INTER + INTRA:          -2.842
REMARK INTER:                  -2.842
REMARK INTRA:                   0.000
REMARK UNBOUND:                 0.000
REMARK SMILES Cc1cc(O)c2c(c1)C(=O)c1cc(O)cc(O)c1C2=O
REMARK SMILES IDX 1 1 2 2 8 3 7 4 6 5 4 6 3 7 19 8 20 9 18 10 11 11 9 12 10 13
REMARK SMILES IDX 12 14 13 15 15 16 16 17 5 18 17 20 14 22
REMARK H PARENT 5 19 17 21 14 23
REMARK Flexibility Score: inf
ROOT
ATOM      1  C   UNL     1      20.937   1.758 -31.821  1.00  0.00     0.044 C 
ATOM      2  C   UNL     1      21.621   1.476 -30.515  1.00  0.00    -0.047 A 
ATOM      3  C   UNL     1      21.820   0.156 -30.094  1.00  0.00     0.016 A 
ATOM      4  C   UNL     1      22.426  -0.117 -28.855  1.00  0.00     0.038 A 
ATOM      5  C   UNL     1      22.834   0.947 -28.024  1.00  0.00     0.076 A 
ATOM      6  C   UNL     1      22.607   2.279 -28.440  1.00  0.00     0.127 A 
ATOM      7  C   UNL     1      22.000   2.532 -29.678  1.00  0.00     0.050 A 
ATOM      8  C   UNL     1      23.511   0.640 -26.735  1.00  0.00     0.201 C 
ATOM      9  O   UNL     1      24.194   1.534 -26.167  1.00  0.00    -0.288 OA
ATOM     10  C   UNL     1      23.478  -0.743 -26.183  1.00  0.00     0.076 A 
ATOM     11  C   UNL     1      23.124  -1.804 -27.049  1.00  0.00     0.041 A 
ATOM     12  C   UNL     1      22.639  -1.516 -28.420  1.00  0.00     0.194 C 
ATOM     13  O   UNL     1      22.389  -2.466 -29.213  1.00  0.00    -0.289 OA
ATOM     14  C   UNL     1      23.223  -3.133 -26.604  1.00  0.00     0.059 A 
ATOM     15  C   UNL     1      23.654  -3.417 -25.306  1.00  0.00     0.120 A 
ATOM     16  C   UNL     1      23.959  -2.375 -24.435  1.00  0.00     0.093 A 
ATOM     17  C   UNL     1      23.843  -1.042 -24.842  1.00  0.00     0.131 A 
ENDROOT
BRANCH   6  18
ATOM     18  O   UNL     1      22.972   3.351 -27.626  1.00  0.00    -0.507 OA
ATOM     19  H   UNL     1      23.883   3.401 -27.186  1.00  0.00     0.293 HD
ENDBRANCH   6  18
BRANCH  17  20
ATOM     20  O   UNL     1      24.064  -0.059 -23.875  1.00  0.00    -0.507 OA
ATOM     21  H   UNL     1      23.638   0.856 -23.897  1.00  0.00     0.293 HD
ENDBRANCH  17  20
BRANCH  15  22
ATOM     22  O   UNL     1      23.768  -4.736 -24.868  1.00  0.00    -0.508 OA
ATOM     23  H   UNL     1      24.650  -5.234 -24.911  1.00  0.00     0.293 HD
ENDBRANCH  15  22
TORSDOF 3
ENDMDL
MODEL 2
REMARK VINA RESULT:    -2.568      1.023      1.187
REMARK INTER + INTRA:          -2.794
REMARK INTER:                  -2.794
REMARK INTRA:                   0.000
REMARK UNBOUND:                 0.000
REMARK SMILES Cc1cc(O)c2c(c1)C(=O)c1cc(O)cc(O)c1C2=O
REMARK SMILES IDX 1 1 2 2 8 3 7 4 6 5 4 6 3 7 19 8 20 9 18 10 11 11 9 12 10 13
REMARK SMILES IDX 12 14 13 15 15 16 16 17 5 18 17 20 14 22
REMARK H PARENT 5 19 17 21 14 23
REMARK Flexibility Score: inf
ROOT
ATOM      1  C   UNL     1      20.917   3.301 -31.421  1.00  0.00     0.044 C 
ATOM      2  C   UNL     1      21.751   2.854 -30.255  1.00  0.00    -0.047 A 
ATOM      3  C   UNL     1      21.778   1.504 -29.885  1.00  0.00     0.016 A 
ATOM      4  C   UNL     1      22.526   1.082 -28.772  1.00  0.00     0.038 A 
ATOM      5  C   UNL     1      23.254   2.024 -28.017  1.00  0.00     0.076 A 
ATOM      6  C   UNL     1      23.203   3.390 -28.378  1.00  0.00     0.127 A 
ATOM      7  C   UNL     1      22.450   3.793 -29.490  1.00  0.00     0.050 A 
ATOM      8  C   UNL     1      24.073   1.555 -26.868  1.00  0.00     0.201 C 
ATOM      9  O   UNL     1      24.992   2.292 -26.421  1.00  0.00    -0.288 OA
ATOM     10  C   UNL     1      23.886   0.179 -26.328  1.00  0.00     0.076 A 
ATOM     11  C   UNL     1      23.205  -0.770 -27.127  1.00  0.00     0.041 A 
ATOM     12  C   UNL     1      22.554  -0.349 -28.391  1.00  0.00     0.194 C 
ATOM     13  O   UNL     1      22.007  -1.209 -29.135  1.00  0.00    -0.289 OA
ATOM     14  C   UNL     1      23.138  -2.112 -26.715  1.00  0.00     0.059 A 
ATOM     15  C   UNL     1      23.724  -2.516 -25.514  1.00  0.00     0.120 A 
ATOM     16  C   UNL     1      24.356  -1.579 -24.702  1.00  0.00     0.093 A 
ATOM     17  C   UNL     1      24.414  -0.231 -25.073  1.00  0.00     0.131 A 
ENDROOT
BRANCH   6  18
ATOM     18  O   UNL     1      23.887   4.349 -27.632  1.00  0.00    -0.507 OA
ATOM     19  H   UNL     1      24.830   4.191 -27.295  1.00  0.00     0.293 HD
ENDBRANCH   6  18
BRANCH  17  20
ATOM     20  O   UNL     1      24.969   0.660 -24.152  1.00  0.00    -0.507 OA
ATOM     21  H   UNL     1      25.620   0.388 -23.430  1.00  0.00     0.293 HD
ENDBRANCH  17  20
BRANCH  15  22
ATOM     22  O   UNL     1      23.673  -3.850 -25.112  1.00  0.00    -0.508 OA
ATOM     23  H   UNL     1      23.232  -4.561 -25.686  1.00  0.00     0.293 HD
ENDBRANCH  15  22
TORSDOF 3
ENDMDL
MODEL 3
REMARK VINA RESULT:    -2.514      1.945      2.913
REMARK INTER + INTRA:          -2.735
REMARK INTER:                  -2.735
REMARK INTRA:                   0.000
REMARK UNBOUND:                 0.000
REMARK SMILES Cc1cc(O)c2c(c1)C(=O)c1cc(O)cc(O)c1C2=O
REMARK SMILES IDX 1 1 2 2 8 3 7 4 6 5 4 6 3 7 19 8 20 9 18 10 11 11 9 12 10 13
REMARK SMILES IDX 12 14 13 15 15 16 16 17 5 18 17 20 14 22
REMARK H PARENT 5 19 17 21 14 23
REMARK Flexibility Score: inf
ROOT
ATOM      1  C   UNL     1      20.880   5.326 -32.389  1.00  0.00     0.044 C 
ATOM      2  C   UNL     1      21.622   4.716 -31.236  1.00  0.00    -0.047 A 
ATOM      3  C   UNL     1      21.599   3.330 -31.038  1.00  0.00     0.016 A 
ATOM      4  C   UNL     1      22.260   2.753 -29.939  1.00  0.00     0.038 A 
ATOM      5  C   UNL     1      22.949   3.574 -29.024  1.00  0.00     0.076 A 
ATOM      6  C   UNL     1      22.948   4.975 -29.212  1.00  0.00     0.127 A 
ATOM      7  C   UNL     1      22.282   5.533 -30.312  1.00  0.00     0.050 A 
ATOM      8  C   UNL     1      23.677   2.943 -27.890  1.00  0.00     0.201 C 
ATOM      9  O   UNL     1      24.575   3.594 -27.293  1.00  0.00    -0.288 OA
ATOM     10  C   UNL     1      23.429   1.516 -27.543  1.00  0.00     0.076 A 
ATOM     11  C   UNL     1      22.788   0.693 -28.499  1.00  0.00     0.041 A 
ATOM     12  C   UNL     1      22.236   1.286 -29.741  1.00  0.00     0.194 C 
ATOM     13  O   UNL     1      21.727   0.540 -30.623  1.00  0.00    -0.289 OA
ATOM     14  C   UNL     1      22.669  -0.688 -28.266  1.00  0.00     0.059 A 
ATOM     15  C   UNL     1      23.162  -1.254 -27.089  1.00  0.00     0.120 A 
ATOM     16  C   UNL     1      23.751  -0.442 -26.123  1.00  0.00     0.093 A 
ATOM     17  C   UNL     1      23.859   0.939 -26.317  1.00  0.00     0.131 A 
ENDROOT
BRANCH   6  18
ATOM     18  O   UNL     1      23.594   5.816 -28.306  1.00  0.00    -0.507 OA
ATOM     19  H   UNL     1      24.137   5.450 -27.532  1.00  0.00     0.293 HD
ENDBRANCH   6  18
BRANCH  17  20
ATOM     20  O   UNL     1      24.363   1.694 -25.255  1.00  0.00    -0.507 OA
ATOM     21  H   UNL     1      25.148   2.325 -25.338  1.00  0.00     0.293 HD
ENDBRANCH  17  20
BRANCH  15  22
ATOM     22  O   UNL     1      23.059  -2.626 -26.862  1.00  0.00    -0.508 OA
ATOM     23  H   UNL     1      22.883  -3.277 -27.620  1.00  0.00     0.293 HD
ENDBRANCH  15  22
TORSDOF 3
ENDMDL
MODEL 4
REMARK VINA RESULT:    -2.411      3.036      6.914
REMARK INTER + INTRA:          -2.622
REMARK INTER:                  -2.622
REMARK INTRA:                   0.000
REMARK UNBOUND:                 0.000
REMARK SMILES Cc1cc(O)c2c(c1)C(=O)c1cc(O)cc(O)c1C2=O
REMARK SMILES IDX 1 1 2 2 8 3 7 4 6 5 4 6 3 7 19 8 20 9 18 10 11 11 9 12 10 13
REMARK SMILES IDX 12 14 13 15 15 16 16 17 5 18 17 20 14 22
REMARK H PARENT 5 19 17 21 14 23
REMARK Flexibility Score: inf
ROOT
ATOM      1  C   UNL     1      28.571   2.781 -24.367  1.00  0.00     0.044 C 
ATOM      2  C   UNL     1      27.327   2.476 -25.150  1.00  0.00    -0.047 A 
ATOM      3  C   UNL     1      26.789   3.432 -26.019  1.00  0.00     0.016 A 
ATOM      4  C   UNL     1      25.604   3.170 -26.728  1.00  0.00     0.038 A 
ATOM      5  C   UNL     1      24.944   1.935 -26.560  1.00  0.00     0.076 A 
ATOM      6  C   UNL     1      25.475   0.982 -25.661  1.00  0.00     0.127 A 
ATOM      7  C   UNL     1      26.658   1.262 -24.962  1.00  0.00     0.050 A 
ATOM      8  C   UNL     1      23.714   1.657 -27.349  1.00  0.00     0.201 C 
ATOM      9  O   UNL     1      23.327   0.467 -27.494  1.00  0.00    -0.288 OA
ATOM     10  C   UNL     1      23.015   2.764 -28.058  1.00  0.00     0.076 A 
ATOM     11  C   UNL     1      23.714   3.976 -28.269  1.00  0.00     0.041 A 
ATOM     12  C   UNL     1      25.046   4.184 -27.651  1.00  0.00     0.194 C 
ATOM     13  O   UNL     1      25.697   5.237 -27.897  1.00  0.00    -0.289 OA
ATOM     14  C   UNL     1      23.141   4.987 -29.059  1.00  0.00     0.059 A 
ATOM     15  C   UNL     1      21.877   4.814 -29.626  1.00  0.00     0.120 A 
ATOM     16  C   UNL     1      21.163   3.643 -29.384  1.00  0.00     0.093 A 
ATOM     17  C   UNL     1      21.698   2.631 -28.579  1.00  0.00     0.131 A 
ENDROOT
BRANCH   6  18
ATOM     18  O   UNL     1      24.829  -0.236 -25.450  1.00  0.00    -0.507 OA
ATOM     19  H   UNL     1      25.097  -1.076 -25.950  1.00  0.00     0.293 HD
ENDBRANCH   6  18
BRANCH  17  20
ATOM     20  O   UNL     1      20.875   1.539 -28.298  1.00  0.00    -0.507 OA
ATOM     21  H   UNL     1      21.085   0.591 -28.577  1.00  0.00     0.293 HD
ENDBRANCH  17  20
BRANCH  15  22
ATOM     22  O   UNL     1      21.313   5.808 -30.424  1.00  0.00    -0.508 OA
ATOM     23  H   UNL     1      21.620   6.773 -30.365  1.00  0.00     0.293 HD
ENDBRANCH  15  22
TORSDOF 3
ENDMDL
MODEL 5
REMARK VINA RESULT:    -2.378      2.020      4.184
REMARK INTER + INTRA:          -2.586
REMARK INTER:                  -2.586
REMARK INTRA:                   0.000
REMARK UNBOUND:                 0.000
REMARK SMILES Cc1cc(O)c2c(c1)C(=O)c1cc(O)cc(O)c1C2=O
REMARK SMILES IDX 1 1 2 2 8 3 7 4 6 5 4 6 3 7 19 8 20 9 18 10 11 11 9 12 10 13
REMARK SMILES IDX 12 14 13 15 15 16 16 17 5 18 17 20 14 22
REMARK H PARENT 5 19 17 21 14 23
REMARK Flexibility Score: inf
ROOT
ATOM      1  C   UNL     1      22.306  -2.333 -32.530  1.00  0.00     0.044 C 
ATOM      2  C   UNL     1      22.397  -2.394 -31.033  1.00  0.00    -0.047 A 
ATOM      3  C   UNL     1      22.735  -1.250 -30.300  1.00  0.00     0.016 A 
ATOM      4  C   UNL     1      22.859  -1.307 -28.901  1.00  0.00     0.038 A 
ATOM      5  C   UNL     1      22.647  -2.527 -28.226  1.00  0.00     0.076 A 
ATOM      6  C   UNL     1      22.333  -3.686 -28.972  1.00  0.00     0.127 A 
ATOM      7  C   UNL     1      22.215  -3.611 -30.367  1.00  0.00     0.050 A 
ATOM      8  C   UNL     1      22.742  -2.560 -26.743  1.00  0.00     0.201 C 
ATOM      9  O   UNL     1      22.213  -3.513 -26.110  1.00  0.00    -0.288 OA
ATOM     10  C   UNL     1      23.353  -1.419 -26.006  1.00  0.00     0.076 A 
ATOM     11  C   UNL     1      23.503  -0.185 -26.682  1.00  0.00     0.041 A 
ATOM     12  C   UNL     1      23.210  -0.091 -28.133  1.00  0.00     0.194 C 
ATOM     13  O   UNL     1      23.278   1.025 -28.718  1.00  0.00    -0.289 OA
ATOM     14  C   UNL     1      23.939   0.951 -25.979  1.00  0.00     0.059 A 
ATOM     15  C   UNL     1      24.243   0.869 -24.618  1.00  0.00     0.120 A 
ATOM     16  C   UNL     1      24.142  -0.352 -23.958  1.00  0.00     0.093 A 
ATOM     17  C   UNL     1      23.737  -1.505 -24.640  1.00  0.00     0.131 A 
ENDROOT
BRANCH   6  18
ATOM     18  O   UNL     1      22.149  -4.913 -28.336  1.00  0.00    -0.507 OA
ATOM     19  H   UNL     1      21.662  -5.680 -28.787  1.00  0.00     0.293 HD
ENDBRANCH   6  18
BRANCH  17  20
ATOM     20  O   UNL     1      23.767  -2.708 -23.931  1.00  0.00    -0.507 OA
ATOM     21  H   UNL     1      23.208  -2.890 -23.111  1.00  0.00     0.293 HD
ENDBRANCH  17  20
BRANCH  15  22
ATOM     22  O   UNL     1      24.660   1.998 -23.915  1.00  0.00    -0.508 OA
ATOM     23  H   UNL     1      23.997   2.609 -23.450  1.00  0.00     0.293 HD
ENDBRANCH  15  22
TORSDOF 3
ENDMDL
MODEL 6
REMARK VINA RESULT:    -2.375     17.060     18.213
REMARK INTER + INTRA:          -2.583
REMARK INTER:                  -2.583
REMARK INTRA:                   0.000
REMARK UNBOUND:                 0.000
REMARK SMILES Cc1cc(O)c2c(c1)C(=O)c1cc(O)cc(O)c1C2=O
REMARK SMILES IDX 1 1 2 2 8 3 7 4 6 5 4 6 3 7 19 8 20 9 18 10 11 11 9 12 10 13
REMARK SMILES IDX 12 14 13 15 15 16 16 17 5 18 17 20 14 22
REMARK H PARENT 5 19 17 21 14 23
REMARK Flexibility Score: inf
ROOT
ATOM      1  C   UNL     1      30.541  -3.643 -40.334  1.00  0.00     0.044 C 
ATOM      2  C   UNL     1      31.416  -4.859 -40.428  1.00  0.00    -0.047 A 
ATOM      3  C   UNL     1      32.083  -5.336 -39.293  1.00  0.00     0.016 A 
ATOM      4  C   UNL     1      32.934  -6.452 -39.379  1.00  0.00     0.038 A 
ATOM      5  C   UNL     1      33.126  -7.095 -40.619  1.00  0.00     0.076 A 
ATOM      6  C   UNL     1      32.472  -6.593 -41.768  1.00  0.00     0.127 A 
ATOM      7  C   UNL     1      31.628  -5.479 -41.664  1.00  0.00     0.050 A 
ATOM      8  C   UNL     1      33.997  -8.298 -40.684  1.00  0.00     0.201 C 
ATOM      9  O   UNL     1      33.896  -9.083 -41.664  1.00  0.00    -0.288 OA
ATOM     10  C   UNL     1      34.897  -8.633 -39.545  1.00  0.00     0.076 A 
ATOM     11  C   UNL     1      34.652  -8.022 -38.293  1.00  0.00     0.041 A 
ATOM     12  C   UNL     1      33.630  -6.954 -38.173  1.00  0.00     0.194 C 
ATOM     13  O   UNL     1      33.365  -6.460 -37.042  1.00  0.00    -0.289 OA
ATOM     14  C   UNL     1      35.386  -8.422 -37.163  1.00  0.00     0.059 A 
ATOM     15  C   UNL     1      36.369  -9.408 -37.268  1.00  0.00     0.120 A 
ATOM     16  C   UNL     1      36.647  -9.980 -38.507  1.00  0.00     0.093 A 
ATOM     17  C   UNL     1      35.951  -9.581 -39.653  1.00  0.00     0.131 A 
ENDROOT
BRANCH   6  18
ATOM     18  O   UNL     1      32.667  -7.189 -43.014  1.00  0.00    -0.507 OA
ATOM     19  H   UNL     1      32.699  -6.642 -43.868  1.00  0.00     0.293 HD
ENDBRANCH   6  18
BRANCH  17  20
ATOM     20  O   UNL     1      36.365 -10.124 -40.871  1.00  0.00    -0.507 OA
ATOM     21  H   UNL     1      36.623 -11.093 -40.995  1.00  0.00     0.293 HD
ENDBRANCH  17  20
BRANCH  15  22
ATOM     22  O   UNL     1      37.087  -9.818 -36.146  1.00  0.00    -0.508 OA
ATOM     23  H   UNL     1      38.010  -9.452 -35.944  1.00  0.00     0.293 HD
ENDBRANCH  15  22
TORSDOF 3
ENDMDL
MODEL 7
REMARK VINA RESULT:    -2.356      1.539      6.129
REMARK INTER + INTRA:          -2.562
REMARK INTER:                  -2.562
REMARK INTRA:                   0.000
REMARK UNBOUND:                 0.000
REMARK SMILES Cc1cc(O)c2c(c1)C(=O)c1cc(O)cc(O)c1C2=O
REMARK SMILES IDX 1 1 2 2 8 3 7 4 6 5 4 6 3 7 19 8 20 9 18 10 11 11 9 12 10 13
REMARK SMILES IDX 12 14 13 15 15 16 16 17 5 18 17 20 14 22
REMARK H PARENT 5 19 17 21 14 23
REMARK Flexibility Score: inf
ROOT
ATOM      1  C   UNL     1      23.419  -5.238 -24.693  1.00  0.00     0.044 C 
ATOM      2  C   UNL     1      23.179  -4.260 -25.806  1.00  0.00    -0.047 A 
ATOM      3  C   UNL     1      23.474  -2.903 -25.627  1.00  0.00     0.016 A 
ATOM      4  C   UNL     1      23.218  -1.974 -26.650  1.00  0.00     0.038 A 
ATOM      5  C   UNL     1      22.653  -2.407 -27.867  1.00  0.00     0.076 A 
ATOM      6  C   UNL     1      22.330  -3.774 -28.034  1.00  0.00     0.127 A 
ATOM      7  C   UNL     1      22.591  -4.686 -27.002  1.00  0.00     0.050 A 
ATOM      8  C   UNL     1      22.426  -1.418 -28.954  1.00  0.00     0.201 C 
ATOM      9  O   UNL     1      22.275  -1.822 -30.138  1.00  0.00    -0.288 OA
ATOM     10  C   UNL     1      22.494   0.042 -28.663  1.00  0.00     0.076 A 
ATOM     11  C   UNL     1      23.119   0.460 -27.465  1.00  0.00     0.041 A 
ATOM     12  C   UNL     1      23.540  -0.542 -26.456  1.00  0.00     0.194 C 
ATOM     13  O   UNL     1      24.158  -0.171 -25.420  1.00  0.00    -0.289 OA
ATOM     14  C   UNL     1      23.331   1.829 -27.227  1.00  0.00     0.059 A 
ATOM     15  C   UNL     1      22.917   2.784 -28.157  1.00  0.00     0.120 A 
ATOM     16  C   UNL     1      22.260   2.381 -29.317  1.00  0.00     0.093 A 
ATOM     17  C   UNL     1      22.010   1.027 -29.567  1.00  0.00     0.131 A 
ENDROOT
BRANCH   6  18
ATOM     18  O   UNL     1      21.741  -4.227 -29.214  1.00  0.00    -0.507 OA
ATOM     19  H   UNL     1      21.891  -3.758 -30.100  1.00  0.00     0.293 HD
ENDBRANCH   6  18
BRANCH  17  20
ATOM     20  O   UNL     1      21.252   0.717 -30.697  1.00  0.00    -0.507 OA
ATOM     21  H   UNL     1      20.333   0.298 -30.660  1.00  0.00     0.293 HD
ENDBRANCH  17  20
BRANCH  15  22
ATOM     22  O   UNL     1      23.141   4.141 -27.931  1.00  0.00    -0.508 OA
ATOM     23  H   UNL     1      23.289   4.789 -28.697  1.00  0.00     0.293 HD
ENDBRANCH  15  22
TORSDOF 3
ENDMDL
MODEL 8
REMARK VINA RESULT:    -2.335     17.729     18.859
REMARK INTER + INTRA:          -2.540
REMARK INTER:                  -2.540
REMARK INTRA:                   0.000
REMARK UNBOUND:                 0.000
REMARK SMILES Cc1cc(O)c2c(c1)C(=O)c1cc(O)cc(O)c1C2=O
REMARK SMILES IDX 1 1 2 2 8 3 7 4 6 5 4 6 3 7 19 8 20 9 18 10 11 11 9 12 10 13
REMARK SMILES IDX 12 14 13 15 15 16 16 17 5 18 17 20 14 22
REMARK H PARENT 5 19 17 21 14 23
REMARK Flexibility Score: inf
ROOT
ATOM      1  C   UNL     1      32.044  -2.442 -41.597  1.00  0.00     0.044 C 
ATOM      2  C   UNL     1      32.613  -3.819 -41.417  1.00  0.00    -0.047 A 
ATOM      3  C   UNL     1      33.525  -4.076 -40.387  1.00  0.00     0.016 A 
ATOM      4  C   UNL     1      34.093  -5.353 -40.234  1.00  0.00     0.038 A 
ATOM      5  C   UNL     1      33.746  -6.386 -41.129  1.00  0.00     0.076 A 
ATOM      6  C   UNL     1      32.846  -6.116 -42.185  1.00  0.00     0.127 A 
ATOM      7  C   UNL     1      32.291  -4.836 -42.322  1.00  0.00     0.050 A 
ATOM      8  C   UNL     1      34.324  -7.742 -40.928  1.00  0.00     0.201 C 
ATOM      9  O   UNL     1      33.768  -8.737 -41.465  1.00  0.00    -0.288 OA
ATOM     10  C   UNL     1      35.478  -7.935 -40.007  1.00  0.00     0.076 A 
ATOM     11  C   UNL     1      35.774  -6.911 -39.076  1.00  0.00     0.041 A 
ATOM     12  C   UNL     1      35.051  -5.618 -39.137  1.00  0.00     0.194 C 
ATOM     13  O   UNL     1      35.267  -4.733 -38.264  1.00  0.00    -0.289 OA
ATOM     14  C   UNL     1      36.760  -7.119 -38.096  1.00  0.00     0.059 A 
ATOM     15  C   UNL     1      37.465  -8.323 -38.043  1.00  0.00     0.120 A 
ATOM     16  C   UNL     1      37.212  -9.316 -38.986  1.00  0.00     0.093 A 
ATOM     17  C   UNL     1      36.255  -9.126 -39.989  1.00  0.00     0.131 A 
ENDROOT
BRANCH   6  18
ATOM     18  O   UNL     1      32.509  -7.109 -43.104  1.00  0.00    -0.507 OA
ATOM     19  H   UNL     1      32.779  -7.048 -44.079  1.00  0.00     0.293 HD
ENDBRANCH   6  18
BRANCH  17  20
ATOM     20  O   UNL     1      36.140 -10.125 -40.957  1.00  0.00    -0.507 OA
ATOM     21  H   UNL     1      35.436 -10.849 -40.936  1.00  0.00     0.293 HD
ENDBRANCH  17  20
BRANCH  15  22
ATOM     22  O   UNL     1      38.432  -8.538 -37.063  1.00  0.00    -0.508 OA
ATOM     23  H   UNL     1      39.331  -8.070 -37.093  1.00  0.00     0.293 HD
ENDBRANCH  15  22
TORSDOF 3
ENDMDL
MODEL 9
REMARK VINA RESULT:    -2.237      1.478      5.441
REMARK INTER + INTRA:          -2.433
REMARK INTER:                  -2.433
REMARK INTRA:                   0.000
REMARK UNBOUND:                 0.000
REMARK SMILES Cc1cc(O)c2c(c1)C(=O)c1cc(O)cc(O)c1C2=O
REMARK SMILES IDX 1 1 2 2 8 3 7 4 6 5 4 6 3 7 19 8 20 9 18 10 11 11 9 12 10 13
REMARK SMILES IDX 12 14 13 15 15 16 16 17 5 18 17 20 14 22
REMARK H PARENT 5 19 17 21 14 23
REMARK Flexibility Score: inf
ROOT
ATOM      1  C   UNL     1      23.401  -5.108 -27.608  1.00  0.00     0.044 C 
ATOM      2  C   UNL     1      23.432  -3.621 -27.408  1.00  0.00    -0.047 A 
ATOM      3  C   UNL     1      22.738  -2.778 -28.284  1.00  0.00     0.016 A 
ATOM      4  C   UNL     1      22.791  -1.382 -28.127  1.00  0.00     0.038 A 
ATOM      5  C   UNL     1      23.554  -0.822 -27.082  1.00  0.00     0.076 A 
ATOM      6  C   UNL     1      24.275  -1.675 -26.216  1.00  0.00     0.127 A 
ATOM      7  C   UNL     1      24.212  -3.065 -26.389  1.00  0.00     0.050 A 
ATOM      8  C   UNL     1      23.566   0.655 -26.905  1.00  0.00     0.201 C 
ATOM      9  O   UNL     1      23.923   1.143 -25.800  1.00  0.00    -0.288 OA
ATOM     10  C   UNL     1      23.049   1.542 -27.985  1.00  0.00     0.076 A 
ATOM     11  C   UNL     1      22.236   0.972 -28.992  1.00  0.00     0.041 A 
ATOM     12  C   UNL     1      22.048  -0.498 -29.054  1.00  0.00     0.194 C 
ATOM     13  O   UNL     1      21.268  -0.998 -29.910  1.00  0.00    -0.289 OA
ATOM     14  C   UNL     1      21.613   1.800 -29.941  1.00  0.00     0.059 A 
ATOM     15  C   UNL     1      21.802   3.183 -29.909  1.00  0.00     0.120 A 
ATOM     16  C   UNL     1      22.639   3.746 -28.949  1.00  0.00     0.093 A 
ATOM     17  C   UNL     1      23.294   2.943 -28.009  1.00  0.00     0.131 A 
ENDROOT
BRANCH   6  18
ATOM     18  O   UNL     1      25.064  -1.149 -25.193  1.00  0.00    -0.507 OA
ATOM     19  H   UNL     1      24.655  -0.741 -24.361  1.00  0.00     0.293 HD
ENDBRANCH   6  18
BRANCH  17  20
ATOM     20  O   UNL     1      24.197   3.573 -27.152  1.00  0.00    -0.507 OA
ATOM     21  H   UNL     1      24.585   3.139 -26.326  1.00  0.00     0.293 HD
ENDBRANCH  17  20
BRANCH  15  22
ATOM     22  O   UNL     1      21.172   4.008 -30.839  1.00  0.00    -0.508 OA
ATOM     23  H   UNL     1      20.161   4.072 -30.893  1.00  0.00     0.293 HD
ENDBRANCH  15  22
TORSDOF 3
ENDMDL
