MODEL 1
REMARK VINA RESULT:    -2.149      0.000      0.000
REMARK INTER + INTRA:          -2.634
REMARK INTER:                  -2.526
REMARK INTRA:                  -0.107
REMARK UNBOUND:                -0.107
REMARK SMILES CCCCC(=O)[O-]
REMARK SMILES IDX 4 1 5 2 6 3 7 4 3 5 2 6 1 7
REMARK H PARENT
REMARK Flexibility Score: inf
ROOT
ATOM      1  C   UNL     1      56.639 -36.741  22.760  1.00  0.00     0.053 C 
ENDROOT
BRANCH   1   2
ATOM      2  C   UNL     1      58.019 -36.185  22.611  1.00  0.00     0.041 C 
ATOM      3  O   UNL     1      58.859 -36.761  21.871  1.00  0.00    -0.550 OA
ATOM      4  O   UNL     1      58.394 -35.055  23.327  1.00  0.00    -0.550 OA
ENDBRANCH   1   2
BRANCH   1   5
ATOM      5  C   UNL     1      55.633 -35.902  21.968  1.00  0.00     0.006 C 
BRANCH   5   6
ATOM      6  C   UNL     1      54.613 -35.241  22.902  1.00  0.00    -0.003 C 
ATOM      7  C   UNL     1      55.034 -33.818  23.259  1.00  0.00     0.004 C 
ENDBRANCH   5   6
ENDBRANCH   1   5
TORSDOF 3
ENDMDL
MODEL 2
REMARK VINA RESULT:    -2.141      0.156      1.233
REMARK INTER + INTRA:          -2.624
REMARK INTER:                  -2.521
REMARK INTRA:                  -0.103
REMARK UNBOUND:                -0.107
REMARK SMILES CCCCC(=O)[O-]
REMARK SMILES IDX 4 1 5 2 6 3 7 4 3 5 2 6 1 7
REMARK H PARENT
REMARK Flexibility Score: inf
ROOT
ATOM      1  C   UNL     1      56.740 -36.733  22.904  1.00  0.00     0.053 C 
ENDROOT
BRANCH   1   2
ATOM      2  C   UNL     1      58.121 -36.198  22.696  1.00  0.00     0.041 C 
ATOM      3  O   UNL     1      58.469 -35.114  23.235  1.00  0.00    -0.550 OA
ATOM      4  O   UNL     1      59.009 -36.871  21.868  1.00  0.00    -0.550 OA
ENDBRANCH   1   2
BRANCH   1   5
ATOM      5  C   UNL     1      55.739 -35.998  22.008  1.00  0.00     0.006 C 
BRANCH   5   6
ATOM      6  C   UNL     1      54.614 -35.371  22.839  1.00  0.00    -0.003 C 
ATOM      7  C   UNL     1      54.991 -33.969  23.307  1.00  0.00     0.004 C 
ENDBRANCH   5   6
ENDBRANCH   1   5
TORSDOF 3
ENDMDL
MODEL 3
REMARK VINA RESULT:    -2.093      2.498      3.970
REMARK INTER + INTRA:          -2.568
REMARK INTER:                  -2.523
REMARK INTRA:                  -0.045
REMARK UNBOUND:                -0.107
REMARK SMILES CCCCC(=O)[O-]
REMARK SMILES IDX 4 1 5 2 6 3 7 4 3 5 2 6 1 7
REMARK H PARENT
REMARK Flexibility Score: inf
ROOT
ATOM      1  C   UNL     1      56.287 -35.626  23.235  1.00  0.00     0.053 C 
ENDROOT
BRANCH   1   2
ATOM      2  C   UNL     1      54.940 -35.669  22.587  1.00  0.00     0.041 C 
ATOM      3  O   UNL     1      53.904 -35.417  23.258  1.00  0.00    -0.550 OA
ATOM      4  O   UNL     1      54.822 -36.035  21.253  1.00  0.00    -0.550 OA
ENDBRANCH   1   2
BRANCH   1   5
ATOM      5  C   UNL     1      57.130 -36.829  22.802  1.00  0.00     0.006 C 
BRANCH   5   6
ATOM      6  C   UNL     1      58.457 -36.375  22.184  1.00  0.00    -0.003 C 
ATOM      7  C   UNL     1      59.635 -37.125  22.797  1.00  0.00     0.004 C 
ENDBRANCH   5   6
ENDBRANCH   1   5
TORSDOF 3
ENDMDL
MODEL 4
REMARK VINA RESULT:    -2.028      3.260      4.203
REMARK INTER + INTRA:          -2.491
REMARK INTER:                  -2.411
REMARK INTRA:                  -0.080
REMARK UNBOUND:                -0.107
REMARK SMILES CCCCC(=O)[O-]
REMARK SMILES IDX 4 1 5 2 6 3 7 4 3 5 2 6 1 7
REMARK H PARENT
REMARK Flexibility Score: inf
ROOT
ATOM      1  C   UNL     1      54.613 -34.808  23.036  1.00  0.00     0.053 C 
ENDROOT
BRANCH   1   2
ATOM      2  C   UNL     1      53.297 -35.226  23.610  1.00  0.00     0.041 C 
ATOM      3  O   UNL     1      52.223 -34.899  23.038  1.00  0.00    -0.550 OA
ATOM      4  O   UNL     1      53.252 -35.935  24.803  1.00  0.00    -0.550 OA
ENDBRANCH   1   2
BRANCH   1   5
ATOM      5  C   UNL     1      55.068 -35.797  21.960  1.00  0.00     0.006 C 
BRANCH   5   6
ATOM      6  C   UNL     1      56.386 -36.472  22.355  1.00  0.00    -0.003 C 
ATOM      7  C   UNL     1      56.960 -35.857  23.628  1.00  0.00     0.004 C 
ENDBRANCH   5   6
ENDBRANCH   1   5
TORSDOF 3
ENDMDL
MODEL 5
REMARK VINA RESULT:    -2.023      2.418      3.510
REMARK INTER + INTRA:          -2.485
REMARK INTER:                  -2.371
REMARK INTRA:                  -0.114
REMARK UNBOUND:                -0.107
REMARK SMILES CCCCC(=O)[O-]
REMARK SMILES IDX 4 1 5 2 6 3 7 4 3 5 2 6 1 7
REMARK H PARENT
REMARK Flexibility Score: inf
ROOT
ATOM      1  C   UNL     1      54.371 -35.359  22.874  1.00  0.00     0.053 C 
ENDROOT
BRANCH   1   2
ATOM      2  C   UNL     1      54.865 -34.199  23.679  1.00  0.00     0.041 C 
ATOM      3  O   UNL     1      55.294 -33.164  23.104  1.00  0.00    -0.550 OA
ATOM      4  O   UNL     1      54.896 -34.278  25.065  1.00  0.00    -0.550 OA
ENDBRANCH   1   2
BRANCH   1   5
ATOM      5  C   UNL     1      55.479 -35.889  21.961  1.00  0.00     0.006 C 
BRANCH   5   6
ATOM      6  C   UNL     1      56.495 -36.718  22.754  1.00  0.00    -0.003 C 
ATOM      7  C   UNL     1      57.925 -36.322  22.402  1.00  0.00     0.004 C 
ENDBRANCH   5   6
ENDBRANCH   1   5
TORSDOF 3
ENDMDL
MODEL 6
REMARK VINA RESULT:    -2.015      2.507      3.137
REMARK INTER + INTRA:          -2.475
REMARK INTER:                  -2.418
REMARK INTRA:                  -0.058
REMARK UNBOUND:                -0.107
REMARK SMILES CCCCC(=O)[O-]
REMARK SMILES IDX 4 1 5 2 6 3 7 4 3 5 2 6 1 7
REMARK H PARENT
REMARK Flexibility Score: inf
ROOT
ATOM      1  C   UNL     1      54.910 -34.836  23.449  1.00  0.00     0.053 C 
ENDROOT
BRANCH   1   2
ATOM      2  C   UNL     1      55.485 -35.717  22.386  1.00  0.00     0.041 C 
ATOM      3  O   UNL     1      56.644 -36.193  22.515  1.00  0.00    -0.550 OA
ATOM      4  O   UNL     1      54.761 -35.975  21.230  1.00  0.00    -0.550 OA
ENDBRANCH   1   2
BRANCH   1   5
ATOM      5  C   UNL     1      53.532 -35.346  23.880  1.00  0.00     0.006 C 
BRANCH   5   6
ATOM      6  C   UNL     1      52.441 -34.318  23.558  1.00  0.00    -0.003 C 
ATOM      7  C   UNL     1      51.134 -35.003  23.171  1.00  0.00     0.004 C 
ENDBRANCH   5   6
ENDBRANCH   1   5
TORSDOF 3
ENDMDL
MODEL 7
REMARK VINA RESULT:    -1.981      2.097      2.682
REMARK INTER + INTRA:          -2.435
REMARK INTER:                  -2.368
REMARK INTRA:                  -0.067
REMARK UNBOUND:                -0.107
REMARK SMILES CCCCC(=O)[O-]
REMARK SMILES IDX 4 1 5 2 6 3 7 4 3 5 2 6 1 7
REMARK H PARENT
REMARK Flexibility Score: inf
ROOT
ATOM      1  C   UNL     1      54.767 -35.519  23.612  1.00  0.00     0.053 C 
ENDROOT
BRANCH   1   2
ATOM      2  C   UNL     1      55.454 -35.982  22.367  1.00  0.00     0.041 C 
ATOM      3  O   UNL     1      54.835 -36.003  21.270  1.00  0.00    -0.550 OA
ATOM      4  O   UNL     1      56.765 -36.438  22.426  1.00  0.00    -0.550 OA
ENDBRANCH   1   2
BRANCH   1   5
ATOM      5  C   UNL     1      53.332 -35.086  23.302  1.00  0.00     0.006 C 
BRANCH   5   6
ATOM      6  C   UNL     1      53.048 -33.686  23.860  1.00  0.00    -0.003 C 
ATOM      7  C   UNL     1      54.241 -32.758  23.652  1.00  0.00     0.004 C 
ENDBRANCH   5   6
ENDBRANCH   1   5
TORSDOF 3
ENDMDL
MODEL 8
REMARK VINA RESULT:    -1.938      1.124      1.713
REMARK INTER + INTRA:          -2.385
REMARK INTER:                  -2.356
REMARK INTRA:                  -0.029
REMARK UNBOUND:                -0.107
REMARK SMILES CCCCC(=O)[O-]
REMARK SMILES IDX 4 1 5 2 6 3 7 4 3 5 2 6 1 7
REMARK H PARENT
REMARK Flexibility Score: inf
ROOT
ATOM      1  C   UNL     1      56.947 -35.528  23.503  1.00  0.00     0.053 C 
ENDROOT
BRANCH   1   2
ATOM      2  C   UNL     1      58.441 -35.584  23.554  1.00  0.00     0.041 C 
ATOM      3  O   UNL     1      59.117 -34.521  23.532  1.00  0.00    -0.550 OA
ATOM      4  O   UNL     1      59.091 -36.811  23.578  1.00  0.00    -0.550 OA
ENDBRANCH   1   2
BRANCH   1   5
ATOM      5  C   UNL     1      56.417 -36.396  22.359  1.00  0.00     0.006 C 
BRANCH   5   6
ATOM      6  C   UNL     1      55.068 -35.874  21.853  1.00  0.00    -0.003 C 
ATOM      7  C   UNL     1      54.250 -35.268  22.990  1.00  0.00     0.004 C 
ENDBRANCH   5   6
ENDBRANCH   1   5
TORSDOF 3
ENDMDL
MODEL 9
REMARK VINA RESULT:    -1.934      3.672      4.915
REMARK INTER + INTRA:          -2.380
REMARK INTER:                  -2.362
REMARK INTRA:                  -0.018
REMARK UNBOUND:                -0.107
REMARK SMILES CCCCC(=O)[O-]
REMARK SMILES IDX 4 1 5 2 6 3 7 4 3 5 2 6 1 7
REMARK H PARENT
REMARK Flexibility Score: inf
ROOT
ATOM      1  C   UNL     1      53.463 -35.324  23.559  1.00  0.00     0.053 C 
ENDROOT
BRANCH   1   2
ATOM      2  C   UNL     1      52.536 -34.150  23.560  1.00  0.00     0.041 C 
ATOM      3  O   UNL     1      52.887 -33.064  24.093  1.00  0.00    -0.550 OA
ATOM      4  O   UNL     1      51.263 -34.270  23.017  1.00  0.00    -0.550 OA
ENDBRANCH   1   2
BRANCH   1   5
ATOM      5  C   UNL     1      54.833 -34.924  23.004  1.00  0.00     0.006 C 
BRANCH   5   6
ATOM      6  C   UNL     1      55.392 -36.013  22.083  1.00  0.00    -0.003 C 
ATOM      7  C   UNL     1      56.674 -36.613  22.652  1.00  0.00     0.004 C 
ENDBRANCH   5   6
ENDBRANCH   1   5
TORSDOF 3
ENDMDL
