MODEL 1
REMARK VINA RESULT:    66.752      0.000      0.000
REMARK INTER + INTRA:          74.434
REMARK INTER:                  72.605
REMARK INTRA:                   1.829
REMARK UNBOUND:                 1.829
REMARK SMILES CC1(C)CC[C@@]2(C(=O)[O-])CC[C@]3(C)C(=CC[C@@H]4[C@]5(C)CC[C@@H](O)C(C)(C)[C@H]5CC[C@@]43C)[C@@H]2C1
REMARK SMILES IDX 6 1 5 2 10 3 32 4 4 5 11 6 14 7 33 8 2 9 12 10 15 11 1 12
REMARK SMILES IDX 3 13 13 14 30 15 16 16 17 17 29 18 31 19 18 20 28 21 27 22
REMARK SMILES IDX 20 23 19 24 24 25 21 26 22 27 25 28 26 29 7 30 8 31 9 32
REMARK SMILES IDX 23 33
REMARK H PARENT 23 34
REMARK Flexibility Score: inf
ROOT
ATOM      1  C   UNL     1      -6.327  17.053 -13.287  1.00  0.00     0.017 C 
ATOM      2  C   UNL     1      -5.286  18.189 -13.434  1.00  0.00     0.014 C 
ATOM      3  C   UNL     1      -5.597  15.716 -13.106  1.00  0.00     0.014 C 
ATOM      4  C   UNL     1      -7.128  17.290 -11.973  1.00  0.00     0.028 C 
ATOM      5  C   UNL     1      -5.960  19.570 -13.499  1.00  0.00     0.007 C 
ATOM      6  C   UNL     1      -6.577  14.537 -13.090  1.00  0.00     0.013 C 
ATOM      7  C   UNL     1      -7.994  16.085 -11.541  1.00  0.00    -0.064 C 
ATOM      8  C   UNL     1      -7.838  18.682 -11.978  1.00  0.00     0.015 C 
ATOM      9  C   UNL     1      -6.868  19.869 -12.275  1.00  0.00    -0.035 C 
ATOM     10  C   UNL     1      -7.870  14.677 -12.169  1.00  0.00    -0.006 C 
ATOM     11  C   UNL     1      -8.742  16.229 -10.431  1.00  0.00    -0.027 C 
ATOM     12  C   UNL     1      -5.997  20.181 -11.032  1.00  0.00     0.011 C 
ATOM     13  C   UNL     1      -7.710  21.125 -12.585  1.00  0.00     0.011 C 
ATOM     14  C   UNL     1      -9.122  14.514 -13.085  1.00  0.00     0.017 C 
ATOM     15  C   UNL     1      -7.883  13.537 -11.027  1.00  0.00    -0.020 C 
ATOM     16  C   UNL     1      -9.525  15.147  -9.762  1.00  0.00     0.032 C 
ATOM     17  C   UNL     1      -9.185  13.659 -10.112  1.00  0.00     0.006 C 
ATOM     18  C   UNL     1      -6.622  13.690 -10.109  1.00  0.00     0.008 C 
ATOM     19  C   UNL     1      -7.854  12.130 -11.732  1.00  0.00     0.012 C 
ATOM     20  C   UNL     1      -9.201  12.710  -8.812  1.00  0.00    -0.025 C 
ATOM     21  C   UNL     1      -6.618  12.800  -8.851  1.00  0.00     0.005 C 
ATOM     22  C   UNL     1      -7.890  12.996  -7.984  1.00  0.00     0.003 C 
ATOM     23  C   UNL     1     -10.469  12.993  -7.923  1.00  0.00     0.010 C 
ATOM     24  C   UNL     1      -9.333  11.212  -9.253  1.00  0.00     0.012 C 
ATOM     25  C   UNL     1      -7.822  12.347  -6.541  1.00  0.00    -0.006 C 
ATOM     26  C   UNL     1     -10.422  12.326  -6.539  1.00  0.00     0.033 C 
ATOM     27  C   UNL     1      -9.140  12.698  -5.772  1.00  0.00     0.120 C 
ATOM     28  C   UNL     1      -6.648  12.981  -5.742  1.00  0.00     0.014 C 
ATOM     29  C   UNL     1      -7.571  10.816  -6.566  1.00  0.00     0.014 C 
ENDROOT
BRANCH   1  30
ATOM     30  C   UNL     1      -7.150  17.006 -14.577  1.00  0.00     0.048 C 
ATOM     31  O   UNL     1      -7.469  15.920 -15.125  1.00  0.00    -0.550 OA
ATOM     32  O   UNL     1      -7.631  18.190 -15.125  1.00  0.00    -0.550 OA
ENDBRANCH   1  30
BRANCH  27  33
ATOM     33  O   UNL     1      -9.159  12.144  -4.476  1.00  0.00    -0.393 OA
ATOM     34  H   UNL     1      -9.627  12.779  -3.875  1.00  0.00     0.210 HD
ENDBRANCH  27  33
TORSDOF 2
ENDMDL
