MODEL 1
REMARK VINA RESULT:    -4.506      0.000      0.000
REMARK INTER + INTRA:          -8.579
REMARK INTER:                  -6.877
REMARK INTRA:                  -1.702
REMARK UNBOUND:                -1.702
REMARK SMILES CC(=O)CCC=C(C)CCC=C(C)CCC=C(C)C
REMARK SMILES IDX 10 1 11 2 12 3 13 4 14 5 15 6 16 7 18 8 17 9 19 10 9 11 7 12
REMARK SMILES IDX 6 13 8 14 5 15 4 16 2 17 3 18 1 19
REMARK H PARENT
REMARK Flexibility Score: inf
ROOT
ATOM      1  C   UNL     1      13.256  61.949  24.581  1.00  0.00     0.032 C 
ENDROOT
BRANCH   1   2
ATOM      2  C   UNL     1      14.269  61.921  23.463  1.00  0.00    -0.028 C 
ATOM      3  C   UNL     1      14.807  60.792  22.947  1.00  0.00    -0.077 C 
ATOM      4  C   UNL     1      14.467  59.424  23.494  1.00  0.00     0.039 C 
BRANCH   3   5
ATOM      5  C   UNL     1      15.783  60.906  21.797  1.00  0.00     0.034 C 
BRANCH   5   6
ATOM      6  C   UNL     1      15.138  60.444  20.486  1.00  0.00     0.032 C 
BRANCH   6   7
ATOM      7  C   UNL     1      14.248  61.521  19.917  1.00  0.00    -0.028 C 
ATOM      8  C   UNL     1      12.147  60.213  20.301  1.00  0.00     0.039 C 
ATOM      9  C   UNL     1      12.905  61.422  19.804  1.00  0.00    -0.080 C 
ATOM     10  C   UNL     1      12.151  62.567  19.180  1.00  0.00     0.039 C 
ENDBRANCH   6   7
ENDBRANCH   5   6
ENDBRANCH   3   5
ENDBRANCH   1   2
BRANCH   1  11
ATOM     11  C   UNL     1      11.885  62.397  24.062  1.00  0.00     0.034 C 
BRANCH  11  12
ATOM     12  C   UNL     1      11.565  63.795  24.542  1.00  0.00    -0.077 C 
ATOM     13  C   UNL     1      11.788  64.839  23.711  1.00  0.00    -0.028 C 
ATOM     14  C   UNL     1      11.003  63.984  25.931  1.00  0.00     0.039 C 
BRANCH  13  15
ATOM     15  C   UNL     1      11.455  66.279  24.026  1.00  0.00     0.035 C 
BRANCH  15  16
ATOM     16  C   UNL     1      12.723  67.121  24.204  1.00  0.00     0.079 C 
BRANCH  16  17
ATOM     17  C   UNL     1      13.407  66.831  25.515  1.00  0.00     0.130 C 
ATOM     18  O   UNL     1      12.781  66.938  26.559  1.00  0.00    -0.300 OA
ATOM     19  C   UNL     1      14.845  66.410  25.565  1.00  0.00     0.087 C 
ENDBRANCH  16  17
ENDBRANCH  15  16
ENDBRANCH  13  15
ENDBRANCH  11  12
ENDBRANCH   1  11
TORSDOF 9
ENDMDL
MODEL 2
REMARK VINA RESULT:    -4.465      9.638     12.578
REMARK INTER + INTRA:          -8.516
REMARK INTER:                  -6.258
REMARK INTRA:                  -2.258
REMARK UNBOUND:                -1.702
REMARK SMILES CC(=O)CCC=C(C)CCC=C(C)CCC=C(C)C
REMARK SMILES IDX 10 1 11 2 12 3 13 4 14 5 15 6 16 7 18 8 17 9 19 10 9 11 7 12
REMARK SMILES IDX 6 13 8 14 5 15 4 16 2 17 3 18 1 19
REMARK H PARENT
REMARK Flexibility Score: inf
ROOT
ATOM      1  C   UNL     1      14.233  63.298  37.432  1.00  0.00     0.032 C 
ENDROOT
BRANCH   1   2
ATOM      2  C   UNL     1      14.347  64.538  36.582  1.00  0.00    -0.028 C 
ATOM      3  C   UNL     1      13.335  65.061  35.854  1.00  0.00    -0.077 C 
ATOM      4  C   UNL     1      11.976  64.403  35.787  1.00  0.00     0.039 C 
BRANCH   3   5
ATOM      5  C   UNL     1      13.575  66.337  35.077  1.00  0.00     0.034 C 
BRANCH   5   6
ATOM      6  C   UNL     1      12.961  66.247  33.676  1.00  0.00     0.032 C 
BRANCH   6   7
ATOM      7  C   UNL     1      14.000  65.838  32.661  1.00  0.00    -0.028 C 
ATOM      8  C   UNL     1      13.073  63.524  32.410  1.00  0.00     0.039 C 
ATOM      9  C   UNL     1      14.078  64.610  32.102  1.00  0.00    -0.080 C 
ATOM     10  C   UNL     1      15.195  64.335  31.128  1.00  0.00     0.039 C 
ENDBRANCH   6   7
ENDBRANCH   5   6
ENDBRANCH   3   5
ENDBRANCH   1   2
BRANCH   1  11
ATOM     11  C   UNL     1      15.297  62.268  37.038  1.00  0.00     0.034 C 
BRANCH  11  12
ATOM     12  C   UNL     1      15.079  61.791  35.620  1.00  0.00    -0.077 C 
ATOM     13  C   UNL     1      16.044  62.017  34.697  1.00  0.00    -0.028 C 
ATOM     14  C   UNL     1      13.795  61.075  35.275  1.00  0.00     0.039 C 
BRANCH  13  15
ATOM     15  C   UNL     1      15.995  61.541  33.265  1.00  0.00     0.035 C 
BRANCH  15  16
ATOM     16  C   UNL     1      17.335  60.939  32.829  1.00  0.00     0.079 C 
BRANCH  16  17
ATOM     17  C   UNL     1      17.314  59.433  32.874  1.00  0.00     0.130 C 
ATOM     18  O   UNL     1      18.335  58.808  32.631  1.00  0.00    -0.300 OA
ATOM     19  C   UNL     1      16.061  58.684  33.213  1.00  0.00     0.087 C 
ENDBRANCH  16  17
ENDBRANCH  15  16
ENDBRANCH  13  15
ENDBRANCH  11  12
ENDBRANCH   1  11
TORSDOF 9
ENDMDL
MODEL 3
REMARK VINA RESULT:    -4.454      1.938      3.281
REMARK INTER + INTRA:          -8.500
REMARK INTER:                  -6.965
REMARK INTRA:                  -1.535
REMARK UNBOUND:                -1.702
REMARK SMILES CC(=O)CCC=C(C)CCC=C(C)CCC=C(C)C
REMARK SMILES IDX 10 1 11 2 12 3 13 4 14 5 15 6 16 7 18 8 17 9 19 10 9 11 7 12
REMARK SMILES IDX 6 13 8 14 5 15 4 16 2 17 3 18 1 19
REMARK H PARENT
REMARK Flexibility Score: inf
ROOT
ATOM      1  C   UNL     1      12.520  61.290  22.968  1.00  0.00     0.032 C 
ENDROOT
BRANCH   1   2
ATOM      2  C   UNL     1      13.948  61.505  22.533  1.00  0.00    -0.028 C 
ATOM      3  C   UNL     1      14.341  61.650  21.247  1.00  0.00    -0.077 C 
ATOM      4  C   UNL     1      13.363  61.560  20.098  1.00  0.00     0.039 C 
BRANCH   3   5
ATOM      5  C   UNL     1      15.804  61.902  20.953  1.00  0.00     0.034 C 
BRANCH   5   6
ATOM      6  C   UNL     1      16.422  60.717  20.203  1.00  0.00     0.032 C 
BRANCH   6   7
ATOM      7  C   UNL     1      17.124  59.785  21.159  1.00  0.00    -0.028 C 
ATOM      8  C   UNL     1      15.339  58.034  21.016  1.00  0.00     0.039 C 
ATOM      9  C   UNL     1      16.639  58.587  21.553  1.00  0.00    -0.080 C 
ATOM     10  C   UNL     1      17.437  57.780  22.545  1.00  0.00     0.039 C 
ENDBRANCH   6   7
ENDBRANCH   5   6
ENDBRANCH   3   5
ENDBRANCH   1   2
BRANCH   1  11
ATOM     11  C   UNL     1      12.281  61.877  24.363  1.00  0.00     0.034 C 
BRANCH  11  12
ATOM     12  C   UNL     1      12.395  63.385  24.334  1.00  0.00    -0.077 C 
ATOM     13  C   UNL     1      11.472  64.098  23.647  1.00  0.00    -0.028 C 
ATOM     14  C   UNL     1      13.532  64.050  25.072  1.00  0.00     0.039 C 
BRANCH  13  15
ATOM     15  C   UNL     1      11.419  65.606  23.584  1.00  0.00     0.035 C 
BRANCH  15  16
ATOM     16  C   UNL     1      10.021  66.131  23.925  1.00  0.00     0.079 C 
BRANCH  16  17
ATOM     17  C   UNL     1       9.967  66.722  25.310  1.00  0.00     0.130 C 
ATOM     18  O   UNL     1       8.886  66.874  25.859  1.00  0.00    -0.300 OA
ATOM     19  C   UNL     1      11.217  67.125  26.032  1.00  0.00     0.087 C 
ENDBRANCH  16  17
ENDBRANCH  15  16
ENDBRANCH  13  15
ENDBRANCH  11  12
ENDBRANCH   1  11
TORSDOF 9
ENDMDL
MODEL 4
REMARK VINA RESULT:    -4.366      2.320      6.081
REMARK INTER + INTRA:          -8.364
REMARK INTER:                  -6.734
REMARK INTRA:                  -1.630
REMARK UNBOUND:                -1.702
REMARK SMILES CC(=O)CCC=C(C)CCC=C(C)CCC=C(C)C
REMARK SMILES IDX 10 1 11 2 12 3 13 4 14 5 15 6 16 7 18 8 17 9 19 10 9 11 7 12
REMARK SMILES IDX 6 13 8 14 5 15 4 16 2 17 3 18 1 19
REMARK H PARENT
REMARK Flexibility Score: inf
ROOT
ATOM      1  C   UNL     1      12.020  59.540  22.208  1.00  0.00     0.032 C 
ENDROOT
BRANCH   1   2
ATOM      2  C   UNL     1      11.767  60.826  22.954  1.00  0.00    -0.028 C 
ATOM      3  C   UNL     1      12.575  61.321  23.919  1.00  0.00    -0.077 C 
ATOM      4  C   UNL     1      13.810  60.584  24.382  1.00  0.00     0.039 C 
BRANCH   3   5
ATOM      5  C   UNL     1      12.224  62.647  24.559  1.00  0.00     0.034 C 
BRANCH   5   6
ATOM      6  C   UNL     1      12.110  63.750  23.501  1.00  0.00     0.032 C 
BRANCH   6   7
ATOM      7  C   UNL     1      10.933  64.649  23.789  1.00  0.00    -0.028 C 
ATOM      8  C   UNL     1      12.368  66.653  24.232  1.00  0.00     0.039 C 
ATOM      9  C   UNL     1      11.034  65.949  24.142  1.00  0.00    -0.080 C 
ATOM     10  C   UNL     1       9.769  66.714  24.436  1.00  0.00     0.039 C 
ENDBRANCH   6   7
ENDBRANCH   5   6
ENDBRANCH   3   5
ENDBRANCH   1   2
BRANCH   1  11
ATOM     11  C   UNL     1      12.156  59.801  20.704  1.00  0.00     0.034 C 
BRANCH  11  12
ATOM     12  C   UNL     1      13.326  60.717  20.425  1.00  0.00    -0.077 C 
ATOM     13  C   UNL     1      14.578  60.284  20.703  1.00  0.00    -0.028 C 
ATOM     14  C   UNL     1      13.065  62.086  19.844  1.00  0.00     0.039 C 
BRANCH  13  15
ATOM     15  C   UNL     1      15.842  61.058  20.416  1.00  0.00     0.035 C 
BRANCH  15  16
ATOM     16  C   UNL     1      16.391  61.723  21.684  1.00  0.00     0.079 C 
BRANCH  16  17
ATOM     17  C   UNL     1      17.331  60.812  22.431  1.00  0.00     0.130 C 
ATOM     18  O   UNL     1      17.131  60.579  23.614  1.00  0.00    -0.300 OA
ATOM     19  C   UNL     1      18.508  60.182  21.749  1.00  0.00     0.087 C 
ENDBRANCH  16  17
ENDBRANCH  15  16
ENDBRANCH  13  15
ENDBRANCH  11  12
ENDBRANCH   1  11
TORSDOF 9
ENDMDL
MODEL 5
REMARK VINA RESULT:    -4.353      1.741      3.644
REMARK INTER + INTRA:          -8.345
REMARK INTER:                  -6.259
REMARK INTRA:                  -2.087
REMARK UNBOUND:                -1.702
REMARK SMILES CC(=O)CCC=C(C)CCC=C(C)CCC=C(C)C
REMARK SMILES IDX 10 1 11 2 12 3 13 4 14 5 15 6 16 7 18 8 17 9 19 10 9 11 7 12
REMARK SMILES IDX 6 13 8 14 5 15 4 16 2 17 3 18 1 19
REMARK H PARENT
REMARK Flexibility Score: inf
ROOT
ATOM      1  C   UNL     1      12.285  59.905  22.366  1.00  0.00     0.032 C 
ENDROOT
BRANCH   1   2
ATOM      2  C   UNL     1      13.445  59.828  21.406  1.00  0.00    -0.028 C 
ATOM      3  C   UNL     1      13.808  60.824  20.566  1.00  0.00    -0.077 C 
ATOM      4  C   UNL     1      13.032  62.118  20.478  1.00  0.00     0.039 C 
BRANCH   3   5
ATOM      5  C   UNL     1      15.021  60.630  19.682  1.00  0.00     0.034 C 
BRANCH   5   6
ATOM      6  C   UNL     1      16.249  60.247  20.517  1.00  0.00     0.032 C 
BRANCH   6   7
ATOM      7  C   UNL     1      16.717  61.415  21.348  1.00  0.00    -0.028 C 
ATOM      8  C   UNL     1      16.949  60.044  23.432  1.00  0.00     0.039 C 
ATOM      9  C   UNL     1      17.012  61.345  22.665  1.00  0.00    -0.080 C 
ATOM     10  C   UNL     1      17.433  62.607  23.374  1.00  0.00     0.039 C 
ENDBRANCH   6   7
ENDBRANCH   5   6
ENDBRANCH   3   5
ENDBRANCH   1   2
BRANCH   1  11
ATOM     11  C   UNL     1      12.780  59.972  23.815  1.00  0.00     0.034 C 
BRANCH  11  12
ATOM     12  C   UNL     1      12.909  61.409  24.269  1.00  0.00    -0.077 C 
ATOM     13  C   UNL     1      11.904  62.274  23.999  1.00  0.00    -0.028 C 
ATOM     14  C   UNL     1      14.154  61.836  25.010  1.00  0.00     0.039 C 
BRANCH  13  15
ATOM     15  C   UNL     1      11.863  63.716  24.447  1.00  0.00     0.035 C 
BRANCH  15  16
ATOM     16  C   UNL     1      11.316  64.629  23.344  1.00  0.00     0.079 C 
BRANCH  16  17
ATOM     17  C   UNL     1      10.859  65.956  23.892  1.00  0.00     0.130 C 
ATOM     18  O   UNL     1       9.663  66.188  23.989  1.00  0.00    -0.300 OA
ATOM     19  C   UNL     1      11.845  66.999  24.323  1.00  0.00     0.087 C 
ENDBRANCH  16  17
ENDBRANCH  15  16
ENDBRANCH  13  15
ENDBRANCH  11  12
ENDBRANCH   1  11
TORSDOF 9
ENDMDL
MODEL 6
REMARK VINA RESULT:    -4.297     14.081     16.205
REMARK INTER + INTRA:          -8.260
REMARK INTER:                  -6.543
REMARK INTRA:                  -1.717
REMARK UNBOUND:                -1.702
REMARK SMILES CC(=O)CCC=C(C)CCC=C(C)CCC=C(C)C
REMARK SMILES IDX 10 1 11 2 12 3 13 4 14 5 15 6 16 7 18 8 17 9 19 10 9 11 7 12
REMARK SMILES IDX 6 13 8 14 5 15 4 16 2 17 3 18 1 19
REMARK H PARENT
REMARK Flexibility Score: inf
ROOT
ATOM      1  C   UNL     1      16.724  51.929  35.379  1.00  0.00     0.032 C 
ENDROOT
BRANCH   1   2
ATOM      2  C   UNL     1      15.316  52.171  34.899  1.00  0.00    -0.028 C 
ATOM      3  C   UNL     1      14.942  52.180  33.599  1.00  0.00    -0.077 C 
ATOM      4  C   UNL     1      15.941  51.990  32.481  1.00  0.00     0.039 C 
BRANCH   3   5
ATOM      5  C   UNL     1      13.484  52.394  33.258  1.00  0.00     0.034 C 
BRANCH   5   6
ATOM      6  C   UNL     1      12.980  51.304  32.306  1.00  0.00     0.032 C 
BRANCH   6   7
ATOM      7  C   UNL     1      12.796  49.997  33.037  1.00  0.00    -0.028 C 
ATOM      8  C   UNL     1      14.210  48.710  31.419  1.00  0.00     0.039 C 
ATOM      9  C   UNL     1      13.322  48.818  32.637  1.00  0.00    -0.080 C 
ATOM     10  C   UNL     1      13.022  47.586  33.451  1.00  0.00     0.039 C 
ENDBRANCH   6   7
ENDBRANCH   5   6
ENDBRANCH   3   5
ENDBRANCH   1   2
BRANCH   1  11
ATOM     11  C   UNL     1      17.366  53.234  35.865  1.00  0.00     0.034 C 
BRANCH  11  12
ATOM     12  C   UNL     1      18.433  53.696  34.898  1.00  0.00    -0.077 C 
ATOM     13  C   UNL     1      19.437  52.848  34.578  1.00  0.00    -0.028 C 
ATOM     14  C   UNL     1      18.344  55.088  34.318  1.00  0.00     0.039 C 
BRANCH  13  15
ATOM     15  C   UNL     1      20.531  53.146  33.580  1.00  0.00     0.035 C 
BRANCH  15  16
ATOM     16  C   UNL     1      20.237  52.505  32.219  1.00  0.00     0.079 C 
BRANCH  16  17
ATOM     17  C   UNL     1      20.631  53.407  31.078  1.00  0.00     0.130 C 
ATOM     18  O   UNL     1      21.207  52.936  30.109  1.00  0.00    -0.300 OA
ATOM     19  C   UNL     1      20.326  54.874  31.108  1.00  0.00     0.087 C 
ENDBRANCH  16  17
ENDBRANCH  15  16
ENDBRANCH  13  15
ENDBRANCH  11  12
ENDBRANCH   1  11
TORSDOF 9
ENDMDL
MODEL 7
REMARK VINA RESULT:    -4.258     10.035     11.679
REMARK INTER + INTRA:          -8.200
REMARK INTER:                  -6.756
REMARK INTRA:                  -1.444
REMARK UNBOUND:                -1.702
REMARK SMILES CC(=O)CCC=C(C)CCC=C(C)CCC=C(C)C
REMARK SMILES IDX 10 1 11 2 12 3 13 4 14 5 15 6 16 7 18 8 17 9 19 10 9 11 7 12
REMARK SMILES IDX 6 13 8 14 5 15 4 16 2 17 3 18 1 19
REMARK H PARENT
REMARK Flexibility Score: inf
ROOT
ATOM      1  C   UNL     1      15.010  62.123  36.802  1.00  0.00     0.032 C 
ENDROOT
BRANCH   1   2
ATOM      2  C   UNL     1      15.658  62.251  35.447  1.00  0.00    -0.028 C 
ATOM      3  C   UNL     1      15.163  61.712  34.309  1.00  0.00    -0.077 C 
ATOM      4  C   UNL     1      13.908  60.870  34.305  1.00  0.00     0.039 C 
BRANCH   3   5
ATOM      5  C   UNL     1      15.894  61.953  33.007  1.00  0.00     0.034 C 
BRANCH   5   6
ATOM      6  C   UNL     1      17.287  61.313  33.036  1.00  0.00     0.032 C 
BRANCH   6   7
ATOM      7  C   UNL     1      17.192  59.815  32.887  1.00  0.00    -0.028 C 
ATOM      8  C   UNL     1      19.516  59.597  31.981  1.00  0.00     0.039 C 
ATOM      9  C   UNL     1      18.176  59.033  32.391  1.00  0.00    -0.080 C 
ATOM     10  C   UNL     1      17.923  57.552  32.268  1.00  0.00     0.039 C 
ENDBRANCH   6   7
ENDBRANCH   5   6
ENDBRANCH   3   5
ENDBRANCH   1   2
BRANCH   1  11
ATOM     11  C   UNL     1      14.654  63.503  37.368  1.00  0.00     0.034 C 
BRANCH  11  12
ATOM     12  C   UNL     1      13.587  64.166  36.525  1.00  0.00    -0.077 C 
ATOM     13  C   UNL     1      13.875  65.332  35.904  1.00  0.00    -0.028 C 
ATOM     14  C   UNL     1      12.234  63.505  36.402  1.00  0.00     0.039 C 
BRANCH  13  15
ATOM     15  C   UNL     1      12.936  66.072  34.980  1.00  0.00     0.035 C 
BRANCH  15  16
ATOM     16  C   UNL     1      13.686  67.099  34.125  1.00  0.00     0.079 C 
BRANCH  16  17
ATOM     17  C   UNL     1      14.252  66.480  32.874  1.00  0.00     0.130 C 
ATOM     18  O   UNL     1      15.019  67.125  32.175  1.00  0.00    -0.300 OA
ATOM     19  C   UNL     1      13.894  65.081  32.468  1.00  0.00     0.087 C 
ENDBRANCH  16  17
ENDBRANCH  15  16
ENDBRANCH  13  15
ENDBRANCH  11  12
ENDBRANCH   1  11
TORSDOF 9
ENDMDL
MODEL 8
REMARK VINA RESULT:    -4.247     11.540     14.348
REMARK INTER + INTRA:          -8.183
REMARK INTER:                  -6.840
REMARK INTRA:                  -1.343
REMARK UNBOUND:                -1.702
REMARK SMILES CC(=O)CCC=C(C)CCC=C(C)CCC=C(C)C
REMARK SMILES IDX 10 1 11 2 12 3 13 4 14 5 15 6 16 7 18 8 17 9 19 10 9 11 7 12
REMARK SMILES IDX 6 13 8 14 5 15 4 16 2 17 3 18 1 19
REMARK H PARENT
REMARK Flexibility Score: inf
ROOT
ATOM      1  C   UNL     1      15.619  61.252  33.426  1.00  0.00     0.032 C 
ENDROOT
BRANCH   1   2
ATOM      2  C   UNL     1      15.829  61.887  34.778  1.00  0.00    -0.028 C 
ATOM      3  C   UNL     1      15.060  61.644  35.864  1.00  0.00    -0.077 C 
ATOM      4  C   UNL     1      13.861  60.726  35.804  1.00  0.00     0.039 C 
BRANCH   3   5
ATOM      5  C   UNL     1      15.408  62.318  37.173  1.00  0.00     0.034 C 
BRANCH   5   6
ATOM      6  C   UNL     1      14.320  63.318  37.578  1.00  0.00     0.032 C 
BRANCH   6   7
ATOM      7  C   UNL     1      14.368  64.546  36.703  1.00  0.00    -0.028 C 
ATOM      8  C   UNL     1      12.054  64.196  35.810  1.00  0.00     0.039 C 
ATOM      9  C   UNL     1      13.367  64.940  35.885  1.00  0.00    -0.080 C 
ATOM     10  C   UNL     1      13.573  66.171  35.040  1.00  0.00     0.039 C 
ENDBRANCH   6   7
ENDBRANCH   5   6
ENDBRANCH   3   5
ENDBRANCH   1   2
BRANCH   1  11
ATOM     11  C   UNL     1      16.849  60.438  33.011  1.00  0.00     0.034 C 
BRANCH  11  12
ATOM     12  C   UNL     1      16.568  58.955  33.116  1.00  0.00    -0.077 C 
ATOM     13  C   UNL     1      17.608  58.090  33.116  1.00  0.00    -0.028 C 
ATOM     14  C   UNL     1      15.136  58.485  33.221  1.00  0.00     0.039 C 
BRANCH  13  15
ATOM     15  C   UNL     1      17.485  56.594  33.282  1.00  0.00     0.035 C 
BRANCH  15  16
ATOM     16  C   UNL     1      18.212  56.109  34.541  1.00  0.00     0.079 C 
BRANCH  16  17
ATOM     17  C   UNL     1      18.563  54.646  34.457  1.00  0.00     0.130 C 
ATOM     18  O   UNL     1      19.429  54.278  33.677  1.00  0.00    -0.300 OA
ATOM     19  C   UNL     1      17.870  53.630  35.314  1.00  0.00     0.087 C 
ENDBRANCH  16  17
ENDBRANCH  15  16
ENDBRANCH  13  15
ENDBRANCH  11  12
ENDBRANCH   1  11
TORSDOF 9
ENDMDL
MODEL 9
REMARK VINA RESULT:    -4.243     14.179     15.889
REMARK INTER + INTRA:          -8.177
REMARK INTER:                  -6.042
REMARK INTRA:                  -2.135
REMARK UNBOUND:                -1.702
REMARK SMILES CC(=O)CCC=C(C)CCC=C(C)CCC=C(C)C
REMARK SMILES IDX 10 1 11 2 12 3 13 4 14 5 15 6 16 7 18 8 17 9 19 10 9 11 7 12
REMARK SMILES IDX 6 13 8 14 5 15 4 16 2 17 3 18 1 19
REMARK H PARENT
REMARK Flexibility Score: inf
ROOT
ATOM      1  C   UNL     1      13.423  52.226  33.528  1.00  0.00     0.032 C 
ENDROOT
BRANCH   1   2
ATOM      2  C   UNL     1      13.986  51.309  32.470  1.00  0.00    -0.028 C 
ATOM      3  C   UNL     1      13.822  49.967  32.457  1.00  0.00    -0.077 C 
ATOM      4  C   UNL     1      13.081  49.242  33.558  1.00  0.00     0.039 C 
BRANCH   3   5
ATOM      5  C   UNL     1      14.406  49.170  31.311  1.00  0.00     0.034 C 
BRANCH   5   6
ATOM      6  C   UNL     1      15.212  50.073  30.372  1.00  0.00     0.032 C 
BRANCH   6   7
ATOM      7  C   UNL     1      16.687  49.978  30.673  1.00  0.00    -0.028 C 
ATOM      8  C   UNL     1      17.014  52.462  30.653  1.00  0.00     0.039 C 
ATOM      9  C   UNL     1      17.515  51.041  30.777  1.00  0.00    -0.080 C 
ATOM     10  C   UNL     1      18.977  50.789  31.045  1.00  0.00     0.039 C 
ENDBRANCH   6   7
ENDBRANCH   5   6
ENDBRANCH   3   5
ENDBRANCH   1   2
BRANCH   1  11
ATOM     11  C   UNL     1      14.496  53.196  34.034  1.00  0.00     0.034 C 
BRANCH  11  12
ATOM     12  C   UNL     1      15.613  52.444  34.724  1.00  0.00    -0.077 C 
ATOM     13  C   UNL     1      16.845  52.445  34.166  1.00  0.00    -0.028 C 
ATOM     14  C   UNL     1      15.319  51.718  36.016  1.00  0.00     0.039 C 
BRANCH  13  15
ATOM     15  C   UNL     1      18.067  51.797  34.773  1.00  0.00     0.035 C 
BRANCH  15  16
ATOM     16  C   UNL     1      19.155  52.831  35.080  1.00  0.00     0.079 C 
BRANCH  16  17
ATOM     17  C   UNL     1      19.835  53.317  33.826  1.00  0.00     0.130 C 
ATOM     18  O   UNL     1      20.742  52.660  33.338  1.00  0.00    -0.300 OA
ATOM     19  C   UNL     1      19.416  54.593  33.160  1.00  0.00     0.087 C 
ENDBRANCH  16  17
ENDBRANCH  15  16
ENDBRANCH  13  15
ENDBRANCH  11  12
ENDBRANCH   1  11
TORSDOF 9
ENDMDL
