MODEL 1
REMARK VINA RESULT:    -9.056      0.000      0.000
REMARK INTER + INTRA:          -9.850
REMARK INTER:                  -9.850
REMARK INTRA:                   0.000
REMARK UNBOUND:                 0.000
REMARK SMILES Cc1cc(O)c2c(c1)C(=O)c1cc(O)cc(O)c1C2=O
REMARK SMILES IDX 1 1 2 2 8 3 7 4 6 5 4 6 3 7 19 8 20 9 18 10 11 11 9 12 10 13
REMARK SMILES IDX 12 14 13 15 15 16 16 17 5 18 17 20 14 22
REMARK H PARENT 5 19 17 21 14 23
REMARK Flexibility Score: inf
ROOT
ATOM      1  C   UNL     1       8.165  16.129  26.646  1.00  0.00     0.044 C 
ATOM      2  C   UNL     1       8.381  16.419  25.190  1.00  0.00    -0.047 A 
ATOM      3  C   UNL     1       7.682  15.697  24.217  1.00  0.00     0.016 A 
ATOM      4  C   UNL     1       7.897  15.942  22.850  1.00  0.00     0.038 A 
ATOM      5  C   UNL     1       8.829  16.925  22.451  1.00  0.00     0.076 A 
ATOM      6  C   UNL     1       9.596  17.594  23.440  1.00  0.00     0.127 A 
ATOM      7  C   UNL     1       9.349  17.348  24.794  1.00  0.00     0.050 A 
ATOM      8  C   UNL     1       8.922  17.258  21.006  1.00  0.00     0.201 C 
ATOM      9  O   UNL     1       9.251  18.423  20.652  1.00  0.00    -0.288 OA
ATOM     10  C   UNL     1       8.448  16.283  19.991  1.00  0.00     0.076 A 
ATOM     11  C   UNL     1       7.518  15.298  20.395  1.00  0.00     0.041 A 
ATOM     12  C   UNL     1       7.157  15.166  21.826  1.00  0.00     0.194 C 
ATOM     13  O   UNL     1       6.236  14.377  22.175  1.00  0.00    -0.289 OA
ATOM     14  C   UNL     1       6.943  14.445  19.437  1.00  0.00     0.059 A 
ATOM     15  C   UNL     1       7.297  14.552  18.089  1.00  0.00     0.120 A 
ATOM     16  C   UNL     1       8.244  15.495  17.694  1.00  0.00     0.093 A 
ATOM     17  C   UNL     1       8.845  16.343  18.630  1.00  0.00     0.131 A 
ENDROOT
BRANCH   6  18
ATOM     18  O   UNL     1      10.631  18.476  23.123  1.00  0.00    -0.507 OA
ATOM     19  H   UNL     1      11.501  18.524  23.637  1.00  0.00     0.293 HD
ENDBRANCH   6  18
BRANCH  17  20
ATOM     20  O   UNL     1       9.851  17.197  18.172  1.00  0.00    -0.507 OA
ATOM     21  H   UNL     1       9.954  18.154  18.481  1.00  0.00     0.293 HD
ENDBRANCH  17  20
BRANCH  15  22
ATOM     22  O   UNL     1       6.719  13.716  17.135  1.00  0.00    -0.508 OA
ATOM     23  H   UNL     1       6.787  12.707  17.204  1.00  0.00     0.293 HD
ENDBRANCH  15  22
TORSDOF 3
ENDMDL
MODEL 2
REMARK VINA RESULT:    -8.861      2.258      4.938
REMARK INTER + INTRA:          -9.638
REMARK INTER:                  -9.638
REMARK INTRA:                   0.000
REMARK UNBOUND:                 0.000
REMARK SMILES Cc1cc(O)c2c(c1)C(=O)c1cc(O)cc(O)c1C2=O
REMARK SMILES IDX 1 1 2 2 8 3 7 4 6 5 4 6 3 7 19 8 20 9 18 10 11 11 9 12 10 13
REMARK SMILES IDX 12 14 13 15 15 16 16 17 5 18 17 20 14 22
REMARK H PARENT 5 19 17 21 14 23
REMARK Flexibility Score: inf
ROOT
ATOM      1  C   UNL     1       9.557  18.144  17.637  1.00  0.00     0.044 C 
ATOM      2  C   UNL     1       9.046  17.336  18.794  1.00  0.00    -0.047 A 
ATOM      3  C   UNL     1       8.186  16.255  18.574  1.00  0.00     0.016 A 
ATOM      4  C   UNL     1       7.681  15.510  19.653  1.00  0.00     0.038 A 
ATOM      5  C   UNL     1       8.042  15.853  20.974  1.00  0.00     0.076 A 
ATOM      6  C   UNL     1       8.846  17.001  21.196  1.00  0.00     0.127 A 
ATOM      7  C   UNL     1       9.353  17.715  20.106  1.00  0.00     0.050 A 
ATOM      8  C   UNL     1       7.609  14.956  22.076  1.00  0.00     0.201 C 
ATOM      9  O   UNL     1       8.316  14.853  23.115  1.00  0.00    -0.288 OA
ATOM     10  C   UNL     1       6.453  14.045  21.876  1.00  0.00     0.076 A 
ATOM     11  C   UNL     1       6.093  13.706  20.551  1.00  0.00     0.041 A 
ATOM     12  C   UNL     1       6.764  14.370  19.410  1.00  0.00     0.194 C 
ATOM     13  O   UNL     1       6.538  13.982  18.230  1.00  0.00    -0.289 OA
ATOM     14  C   UNL     1       5.095  12.742  20.324  1.00  0.00     0.059 A 
ATOM     15  C   UNL     1       4.444  12.128  21.398  1.00  0.00     0.120 A 
ATOM     16  C   UNL     1       4.769  12.490  22.704  1.00  0.00     0.093 A 
ATOM     17  C   UNL     1       5.744  13.460  22.957  1.00  0.00     0.131 A 
ENDROOT
BRANCH   6  18
ATOM     18  O   UNL     1       9.132  17.488  22.473  1.00  0.00    -0.507 OA
ATOM     19  H   UNL     1       8.770  17.075  23.322  1.00  0.00     0.293 HD
ENDBRANCH   6  18
BRANCH  17  20
ATOM     20  O   UNL     1       5.948  13.835  24.287  1.00  0.00    -0.507 OA
ATOM     21  H   UNL     1       6.754  13.553  24.829  1.00  0.00     0.293 HD
ENDBRANCH  17  20
BRANCH  15  22
ATOM     22  O   UNL     1       3.463  11.163  21.175  1.00  0.00    -0.508 OA
ATOM     23  H   UNL     1       2.477  11.388  21.227  1.00  0.00     0.293 HD
ENDBRANCH  15  22
TORSDOF 3
ENDMDL
MODEL 3
REMARK VINA RESULT:    -8.713      1.949      5.114
REMARK INTER + INTRA:          -9.477
REMARK INTER:                  -9.477
REMARK INTRA:                   0.000
REMARK UNBOUND:                 0.000
REMARK SMILES Cc1cc(O)c2c(c1)C(=O)c1cc(O)cc(O)c1C2=O
REMARK SMILES IDX 1 1 2 2 8 3 7 4 6 5 4 6 3 7 19 8 20 9 18 10 11 11 9 12 10 13
REMARK SMILES IDX 12 14 13 15 15 16 16 17 5 18 17 20 14 22
REMARK H PARENT 5 19 17 21 14 23
REMARK Flexibility Score: inf
ROOT
ATOM      1  C   UNL     1       9.497  17.739  17.765  1.00  0.00     0.044 C 
ATOM      2  C   UNL     1       9.270  17.400  19.209  1.00  0.00    -0.047 A 
ATOM      3  C   UNL     1       8.364  16.394  19.562  1.00  0.00     0.016 A 
ATOM      4  C   UNL     1       8.125  16.087  20.912  1.00  0.00     0.038 A 
ATOM      5  C   UNL     1       8.803  16.800  21.925  1.00  0.00     0.076 A 
ATOM      6  C   UNL     1       9.655  17.875  21.564  1.00  0.00     0.127 A 
ATOM      7  C   UNL     1       9.894  18.148  20.213  1.00  0.00     0.050 A 
ATOM      8  C   UNL     1       8.636  16.350  23.332  1.00  0.00     0.201 C 
ATOM      9  O   UNL     1       9.572  16.519  24.159  1.00  0.00    -0.288 OA
ATOM     10  C   UNL     1       7.450  15.540  23.712  1.00  0.00     0.076 A 
ATOM     11  C   UNL     1       6.773  14.830  22.695  1.00  0.00     0.041 A 
ATOM     12  C   UNL     1       7.157  15.024  21.277  1.00  0.00     0.194 C 
ATOM     13  O   UNL     1       6.644  14.302  20.378  1.00  0.00    -0.289 OA
ATOM     14  C   UNL     1       5.733  13.946  23.033  1.00  0.00     0.059 A 
ATOM     15  C   UNL     1       5.354  13.775  24.367  1.00  0.00     0.120 A 
ATOM     16  C   UNL     1       5.993  14.504  25.369  1.00  0.00     0.093 A 
ATOM     17  C   UNL     1       7.017  15.405  25.057  1.00  0.00     0.131 A 
ENDROOT
BRANCH   6  18
ATOM     18  O   UNL     1      10.252  18.715  22.506  1.00  0.00    -0.507 OA
ATOM     19  H   UNL     1      11.198  19.061  22.426  1.00  0.00     0.293 HD
ENDBRANCH   6  18
BRANCH  17  20
ATOM     20  O   UNL     1       7.545  16.165  26.102  1.00  0.00    -0.507 OA
ATOM     21  H   UNL     1       8.459  16.004  26.503  1.00  0.00     0.293 HD
ENDBRANCH  17  20
BRANCH  15  22
ATOM     22  O   UNL     1       4.332  12.890  24.706  1.00  0.00    -0.508 OA
ATOM     23  H   UNL     1       4.058  12.742  25.670  1.00  0.00     0.293 HD
ENDBRANCH  15  22
TORSDOF 3
ENDMDL
MODEL 4
REMARK VINA RESULT:    -8.704      1.730      6.521
REMARK INTER + INTRA:          -9.468
REMARK INTER:                  -9.468
REMARK INTRA:                   0.000
REMARK UNBOUND:                 0.000
REMARK SMILES Cc1cc(O)c2c(c1)C(=O)c1cc(O)cc(O)c1C2=O
REMARK SMILES IDX 1 1 2 2 8 3 7 4 6 5 4 6 3 7 19 8 20 9 18 10 11 11 9 12 10 13
REMARK SMILES IDX 12 14 13 15 15 16 16 17 5 18 17 20 14 22
REMARK H PARENT 5 19 17 21 14 23
REMARK Flexibility Score: inf
ROOT
ATOM      1  C   UNL     1       8.218  15.795  17.489  1.00  0.00     0.044 C 
ATOM      2  C   UNL     1       7.732  15.458  18.868  1.00  0.00    -0.047 A 
ATOM      3  C   UNL     1       8.221  16.156  19.978  1.00  0.00     0.016 A 
ATOM      4  C   UNL     1       7.793  15.829  21.275  1.00  0.00     0.038 A 
ATOM      5  C   UNL     1       6.859  14.786  21.465  1.00  0.00     0.076 A 
ATOM      6  C   UNL     1       6.432  14.028  20.346  1.00  0.00     0.127 A 
ATOM      7  C   UNL     1       6.856  14.385  19.062  1.00  0.00     0.050 A 
ATOM      8  C   UNL     1       6.319  14.567  22.833  1.00  0.00     0.201 C 
ATOM      9  O   UNL     1       5.154  14.110  22.980  1.00  0.00    -0.288 OA
ATOM     10  C   UNL     1       7.074  15.062  24.013  1.00  0.00     0.076 A 
ATOM     11  C   UNL     1       8.009  16.104  23.818  1.00  0.00     0.041 A 
ATOM     12  C   UNL     1       8.322  16.569  22.447  1.00  0.00     0.194 C 
ATOM     13  O   UNL     1       9.058  17.580  22.274  1.00  0.00    -0.289 OA
ATOM     14  C   UNL     1       8.643  16.690  24.927  1.00  0.00     0.059 A 
ATOM     15  C   UNL     1       8.366  16.240  26.221  1.00  0.00     0.120 A 
ATOM     16  C   UNL     1       7.475  15.186  26.413  1.00  0.00     0.093 A 
ATOM     17  C   UNL     1       6.847  14.572  25.325  1.00  0.00     0.131 A 
ENDROOT
BRANCH   6  18
ATOM     18  O   UNL     1       5.622  12.896  20.464  1.00  0.00    -0.507 OA
ATOM     19  H   UNL     1       5.947  11.955  20.288  1.00  0.00     0.293 HD
ENDBRANCH   6  18
BRANCH  17  20
ATOM     20  O   UNL     1       6.039  13.464  25.590  1.00  0.00    -0.507 OA
ATOM     21  H   UNL     1       5.158  13.520  26.082  1.00  0.00     0.293 HD
ENDBRANCH  17  20
BRANCH  15  22
ATOM     22  O   UNL     1       8.983  16.829  27.324  1.00  0.00    -0.508 OA
ATOM     23  H   UNL     1       9.526  17.680  27.236  1.00  0.00     0.293 HD
ENDBRANCH  15  22
TORSDOF 3
ENDMDL
MODEL 5
REMARK VINA RESULT:    -8.669      1.850      3.790
REMARK INTER + INTRA:          -9.430
REMARK INTER:                  -9.430
REMARK INTRA:                   0.000
REMARK UNBOUND:                 0.000
REMARK SMILES Cc1cc(O)c2c(c1)C(=O)c1cc(O)cc(O)c1C2=O
REMARK SMILES IDX 1 1 2 2 8 3 7 4 6 5 4 6 3 7 19 8 20 9 18 10 11 11 9 12 10 13
REMARK SMILES IDX 12 14 13 15 15 16 16 17 5 18 17 20 14 22
REMARK H PARENT 5 19 17 21 14 23
REMARK Flexibility Score: inf
ROOT
ATOM      1  C   UNL     1       7.415  15.503  26.813  1.00  0.00     0.044 C 
ATOM      2  C   UNL     1       7.083  15.058  25.419  1.00  0.00    -0.047 A 
ATOM      3  C   UNL     1       7.983  15.287  24.373  1.00  0.00     0.016 A 
ATOM      4  C   UNL     1       7.670  14.899  23.059  1.00  0.00     0.038 A 
ATOM      5  C   UNL     1       6.434  14.271  22.789  1.00  0.00     0.076 A 
ATOM      6  C   UNL     1       5.491  14.118  23.837  1.00  0.00     0.127 A 
ATOM      7  C   UNL     1       5.833  14.494  25.140  1.00  0.00     0.050 A 
ATOM      8  C   UNL     1       6.200  13.743  21.419  1.00  0.00     0.201 C 
ATOM      9  O   UNL     1       5.458  12.737  21.254  1.00  0.00    -0.288 OA
ATOM     10  C   UNL     1       6.984  14.278  20.277  1.00  0.00     0.076 A 
ATOM     11  C   UNL     1       8.219  14.909  20.552  1.00  0.00     0.041 A 
ATOM     12  C   UNL     1       8.627  15.152  21.956  1.00  0.00     0.194 C 
ATOM     13  O   UNL     1       9.780  15.598  22.210  1.00  0.00    -0.289 OA
ATOM     14  C   UNL     1       9.052  15.306  19.492  1.00  0.00     0.059 A 
ATOM     15  C   UNL     1       8.661  15.097  18.167  1.00  0.00     0.120 A 
ATOM     16  C   UNL     1       7.426  14.512  17.892  1.00  0.00     0.093 A 
ATOM     17  C   UNL     1       6.570  14.126  18.928  1.00  0.00     0.131 A 
ENDROOT
BRANCH   6  18
ATOM     18  O   UNL     1       4.197  13.636  23.625  1.00  0.00    -0.507 OA
ATOM     19  H   UNL     1       3.766  13.575  22.713  1.00  0.00     0.293 HD
ENDBRANCH   6  18
BRANCH  17  20
ATOM     20  O   UNL     1       5.312  13.633  18.573  1.00  0.00    -0.507 OA
ATOM     21  H   UNL     1       4.920  12.781  18.950  1.00  0.00     0.293 HD
ENDBRANCH  17  20
BRANCH  15  22
ATOM     22  O   UNL     1       9.491  15.478  17.114  1.00  0.00    -0.508 OA
ATOM     23  H   UNL     1      10.383  15.930  17.279  1.00  0.00     0.293 HD
ENDBRANCH  15  22
TORSDOF 3
ENDMDL
MODEL 6
REMARK VINA RESULT:    -8.635      1.820      5.067
REMARK INTER + INTRA:          -9.392
REMARK INTER:                  -9.392
REMARK INTRA:                   0.000
REMARK UNBOUND:                 0.000
REMARK SMILES Cc1cc(O)c2c(c1)C(=O)c1cc(O)cc(O)c1C2=O
REMARK SMILES IDX 1 1 2 2 8 3 7 4 6 5 4 6 3 7 19 8 20 9 18 10 11 11 9 12 10 13
REMARK SMILES IDX 12 14 13 15 15 16 16 17 5 18 17 20 14 22
REMARK H PARENT 5 19 17 21 14 23
REMARK Flexibility Score: inf
ROOT
ATOM      1  C   UNL     1       3.883  11.749  21.673  1.00  0.00     0.044 C 
ATOM      2  C   UNL     1       4.956  12.649  21.136  1.00  0.00    -0.047 A 
ATOM      3  C   UNL     1       5.709  13.444  22.007  1.00  0.00     0.016 A 
ATOM      4  C   UNL     1       6.698  14.311  21.511  1.00  0.00     0.038 A 
ATOM      5  C   UNL     1       6.935  14.384  20.121  1.00  0.00     0.076 A 
ATOM      6  C   UNL     1       6.111  13.641  19.238  1.00  0.00     0.127 A 
ATOM      7  C   UNL     1       5.148  12.769  19.756  1.00  0.00     0.050 A 
ATOM      8  C   UNL     1       8.084  15.200  19.647  1.00  0.00     0.201 C 
ATOM      9  O   UNL     1       8.685  14.877  18.587  1.00  0.00    -0.288 OA
ATOM     10  C   UNL     1       8.637  16.271  20.514  1.00  0.00     0.076 A 
ATOM     11  C   UNL     1       8.395  16.195  21.905  1.00  0.00     0.041 A 
ATOM     12  C   UNL     1       7.487  15.155  22.441  1.00  0.00     0.194 C 
ATOM     13  O   UNL     1       7.366  15.002  23.689  1.00  0.00    -0.289 OA
ATOM     14  C   UNL     1       9.014  17.112  22.773  1.00  0.00     0.059 A 
ATOM     15  C   UNL     1       9.855  18.107  22.269  1.00  0.00     0.120 A 
ATOM     16  C   UNL     1      10.064  18.210  20.895  1.00  0.00     0.093 A 
ATOM     17  C   UNL     1       9.444  17.323  20.008  1.00  0.00     0.131 A 
ENDROOT
BRANCH   6  18
ATOM     18  O   UNL     1       6.188  13.763  17.849  1.00  0.00    -0.507 OA
ATOM     19  H   UNL     1       5.411  13.582  17.228  1.00  0.00     0.293 HD
ENDBRANCH   6  18
BRANCH  17  20
ATOM     20  O   UNL     1       9.628  17.546  18.642  1.00  0.00    -0.507 OA
ATOM     21  H   UNL     1       8.943  17.302  17.940  1.00  0.00     0.293 HD
ENDBRANCH  17  20
BRANCH  15  22
ATOM     22  O   UNL     1      10.481  19.010  23.128  1.00  0.00    -0.508 OA
ATOM     23  H   UNL     1      11.470  18.942  23.340  1.00  0.00     0.293 HD
ENDBRANCH  15  22
TORSDOF 3
ENDMDL
MODEL 7
REMARK VINA RESULT:    -8.531      1.746      5.972
REMARK INTER + INTRA:          -9.279
REMARK INTER:                  -9.279
REMARK INTRA:                   0.000
REMARK UNBOUND:                 0.000
REMARK SMILES Cc1cc(O)c2c(c1)C(=O)c1cc(O)cc(O)c1C2=O
REMARK SMILES IDX 1 1 2 2 8 3 7 4 6 5 4 6 3 7 19 8 20 9 18 10 11 11 9 12 10 13
REMARK SMILES IDX 12 14 13 15 15 16 16 17 5 18 17 20 14 22
REMARK H PARENT 5 19 17 21 14 23
REMARK Flexibility Score: inf
ROOT
ATOM      1  C   UNL     1       9.857  18.134  17.504  1.00  0.00     0.044 C 
ATOM      2  C   UNL     1       9.096  17.155  18.350  1.00  0.00    -0.047 A 
ATOM      3  C   UNL     1       9.090  17.284  19.743  1.00  0.00     0.016 A 
ATOM      4  C   UNL     1       8.404  16.357  20.546  1.00  0.00     0.038 A 
ATOM      5  C   UNL     1       7.713  15.282  19.943  1.00  0.00     0.076 A 
ATOM      6  C   UNL     1       7.793  15.109  18.538  1.00  0.00     0.127 A 
ATOM      7  C   UNL     1       8.465  16.056  17.758  1.00  0.00     0.050 A 
ATOM      8  C   UNL     1       6.879  14.410  20.811  1.00  0.00     0.201 C 
ATOM      9  O   UNL     1       5.852  13.854  20.336  1.00  0.00    -0.288 OA
ATOM     10  C   UNL     1       7.148  14.346  22.270  1.00  0.00     0.076 A 
ATOM     11  C   UNL     1       7.842  15.422  22.869  1.00  0.00     0.041 A 
ATOM     12  C   UNL     1       8.409  16.497  22.022  1.00  0.00     0.194 C 
ATOM     13  O   UNL     1       8.918  17.521  22.557  1.00  0.00    -0.289 OA
ATOM     14  C   UNL     1       7.995  15.464  24.265  1.00  0.00     0.059 A 
ATOM     15  C   UNL     1       7.480  14.441  25.066  1.00  0.00     0.120 A 
ATOM     16  C   UNL     1       6.830  13.359  24.476  1.00  0.00     0.093 A 
ATOM     17  C   UNL     1       6.682  13.283  23.087  1.00  0.00     0.131 A 
ENDROOT
BRANCH   6  18
ATOM     18  O   UNL     1       7.257  13.999  17.882  1.00  0.00    -0.507 OA
ATOM     19  H   UNL     1       6.415  14.033  17.323  1.00  0.00     0.293 HD
ENDBRANCH   6  18
BRANCH  17  20
ATOM     20  O   UNL     1       6.102  12.125  22.564  1.00  0.00    -0.507 OA
ATOM     21  H   UNL     1       6.411  11.191  22.800  1.00  0.00     0.293 HD
ENDBRANCH  17  20
BRANCH  15  22
ATOM     22  O   UNL     1       7.619  14.487  26.452  1.00  0.00    -0.508 OA
ATOM     23  H   UNL     1       7.178  13.799  27.052  1.00  0.00     0.293 HD
ENDBRANCH  15  22
TORSDOF 3
ENDMDL
MODEL 8
REMARK VINA RESULT:    -8.502      1.221      3.400
REMARK INTER + INTRA:          -9.248
REMARK INTER:                  -9.248
REMARK INTRA:                   0.000
REMARK UNBOUND:                 0.000
REMARK SMILES Cc1cc(O)c2c(c1)C(=O)c1cc(O)cc(O)c1C2=O
REMARK SMILES IDX 1 1 2 2 8 3 7 4 6 5 4 6 3 7 19 8 20 9 18 10 11 11 9 12 10 13
REMARK SMILES IDX 12 14 13 15 15 16 16 17 5 18 17 20 14 22
REMARK H PARENT 5 19 17 21 14 23
REMARK Flexibility Score: inf
ROOT
ATOM      1  C   UNL     1       8.729  16.608  27.069  1.00  0.00     0.044 C 
ATOM      2  C   UNL     1       8.407  16.232  25.653  1.00  0.00    -0.047 A 
ATOM      3  C   UNL     1       8.979  16.938  24.589  1.00  0.00     0.016 A 
ATOM      4  C   UNL     1       8.662  16.611  23.260  1.00  0.00     0.038 A 
ATOM      5  C   UNL     1       7.758  15.560  22.991  1.00  0.00     0.076 A 
ATOM      6  C   UNL     1       7.117  14.905  24.073  1.00  0.00     0.127 A 
ATOM      7  C   UNL     1       7.464  15.233  25.388  1.00  0.00     0.050 A 
ATOM      8  C   UNL     1       7.561  15.148  21.577  1.00  0.00     0.201 C 
ATOM      9  O   UNL     1       7.270  13.951  21.308  1.00  0.00    -0.288 OA
ATOM     10  C   UNL     1       7.890  16.093  20.479  1.00  0.00     0.076 A 
ATOM     11  C   UNL     1       8.793  17.145  20.753  1.00  0.00     0.041 A 
ATOM     12  C   UNL     1       9.267  17.370  22.138  1.00  0.00     0.194 C 
ATOM     13  O   UNL     1      10.168  18.224  22.368  1.00  0.00    -0.289 OA
ATOM     14  C   UNL     1       9.235  17.976  19.708  1.00  0.00     0.059 A 
ATOM     15  C   UNL     1       8.775  17.780  18.404  1.00  0.00     0.120 A 
ATOM     16  C   UNL     1       7.853  16.769  18.138  1.00  0.00     0.093 A 
ATOM     17  C   UNL     1       7.383  15.941  19.162  1.00  0.00     0.131 A 
ENDROOT
BRANCH   6  18
ATOM     18  O   UNL     1       6.110  13.954  23.892  1.00  0.00    -0.507 OA
ATOM     19  H   UNL     1       5.478  13.953  23.103  1.00  0.00     0.293 HD
ENDBRANCH   6  18
BRANCH  17  20
ATOM     20  O   UNL     1       6.392  15.012  18.835  1.00  0.00    -0.507 OA
ATOM     21  H   UNL     1       5.521  15.260  18.386  1.00  0.00     0.293 HD
ENDBRANCH  17  20
BRANCH  15  22
ATOM     22  O   UNL     1       9.221  18.594  17.364  1.00  0.00    -0.508 OA
ATOM     23  H   UNL     1      10.136  18.469  16.947  1.00  0.00     0.293 HD
ENDBRANCH  15  22
TORSDOF 3
ENDMDL
MODEL 9
REMARK VINA RESULT:    -8.476      1.395      1.711
REMARK INTER + INTRA:          -9.219
REMARK INTER:                  -9.219
REMARK INTRA:                   0.000
REMARK UNBOUND:                 0.000
REMARK SMILES Cc1cc(O)c2c(c1)C(=O)c1cc(O)cc(O)c1C2=O
REMARK SMILES IDX 1 1 2 2 8 3 7 4 6 5 4 6 3 7 19 8 20 9 18 10 11 11 9 12 10 13
REMARK SMILES IDX 12 14 13 15 15 16 16 17 5 18 17 20 14 22
REMARK H PARENT 5 19 17 21 14 23
REMARK Flexibility Score: inf
ROOT
ATOM      1  C   UNL     1       8.746  16.550  27.027  1.00  0.00     0.044 C 
ATOM      2  C   UNL     1       8.558  16.497  25.539  1.00  0.00    -0.047 A 
ATOM      3  C   UNL     1       7.656  15.588  24.975  1.00  0.00     0.016 A 
ATOM      4  C   UNL     1       7.493  15.511  23.581  1.00  0.00     0.038 A 
ATOM      5  C   UNL     1       8.247  16.358  22.739  1.00  0.00     0.076 A 
ATOM      6  C   UNL     1       9.221  17.216  23.311  1.00  0.00     0.127 A 
ATOM      7  C   UNL     1       9.350  17.289  24.702  1.00  0.00     0.050 A 
ATOM      8  C   UNL     1       7.943  16.352  21.284  1.00  0.00     0.201 C 
ATOM      9  O   UNL     1       8.120  17.398  20.603  1.00  0.00    -0.288 OA
ATOM     10  C   UNL     1       7.256  15.182  20.677  1.00  0.00     0.076 A 
ATOM     11  C   UNL     1       6.505  14.336  21.525  1.00  0.00     0.041 A 
ATOM     12  C   UNL     1       6.540  14.541  22.992  1.00  0.00     0.194 C 
ATOM     13  O   UNL     1       5.775  13.872  23.742  1.00  0.00    -0.289 OA
ATOM     14  C   UNL     1       5.732  13.301  20.971  1.00  0.00     0.059 A 
ATOM     15  C   UNL     1       5.713  13.092  19.590  1.00  0.00     0.120 A 
ATOM     16  C   UNL     1       6.484  13.899  18.755  1.00  0.00     0.093 A 
ATOM     17  C   UNL     1       7.278  14.923  19.283  1.00  0.00     0.131 A 
ENDROOT
BRANCH   6  18
ATOM     18  O   UNL     1      10.101  17.979  22.541  1.00  0.00    -0.507 OA
ATOM     19  H   UNL     1      11.004  18.291  22.870  1.00  0.00     0.293 HD
ENDBRANCH   6  18
BRANCH  17  20
ATOM     20  O   UNL     1       8.092  15.628  18.394  1.00  0.00    -0.507 OA
ATOM     21  H   UNL     1       7.743  16.100  17.571  1.00  0.00     0.293 HD
ENDBRANCH  17  20
BRANCH  15  22
ATOM     22  O   UNL     1       4.937  12.074  19.037  1.00  0.00    -0.508 OA
ATOM     23  H   UNL     1       4.010  11.864  19.387  1.00  0.00     0.293 HD
ENDBRANCH  15  22
TORSDOF 3
ENDMDL
