MODEL 1
REMARK VINA RESULT:    -4.479      0.000      0.000
REMARK INTER + INTRA:          -5.280
REMARK INTER:                  -5.264
REMARK INTRA:                  -0.016
REMARK UNBOUND:                -0.016
REMARK SMILES CCCCC(=O)[O-]
REMARK SMILES IDX 4 1 5 2 6 3 7 4 3 5 2 6 1 7
REMARK H PARENT
REMARK Flexibility Score: inf
ROOT
ATOM      1  C   UNL     1      -2.243   4.646   5.216  1.00  0.00     0.053 C 
ENDROOT
BRANCH   1   2
ATOM      2  C   UNL     1      -2.492   3.329   5.884  1.00  0.00     0.041 C 
ATOM      3  O   UNL     1      -2.554   3.256   7.139  1.00  0.00    -0.550 OA
ATOM      4  O   UNL     1      -2.623   2.175   5.121  1.00  0.00    -0.550 OA
ENDBRANCH   1   2
BRANCH   1   5
ATOM      5  C   UNL     1      -3.486   5.550   5.246  1.00  0.00     0.006 C 
BRANCH   5   6
ATOM      6  C   UNL     1      -3.372   6.810   4.370  1.00  0.00    -0.003 C 
ATOM      7  C   UNL     1      -3.949   8.055   5.042  1.00  0.00     0.004 C 
ENDBRANCH   5   6
ENDBRANCH   1   5
TORSDOF 3
ENDMDL
MODEL 2
REMARK VINA RESULT:    -4.211      3.183      4.447
REMARK INTER + INTRA:          -4.966
REMARK INTER:                  -4.940
REMARK INTRA:                  -0.026
REMARK UNBOUND:                -0.016
REMARK SMILES CCCCC(=O)[O-]
REMARK SMILES IDX 4 1 5 2 6 3 7 4 3 5 2 6 1 7
REMARK H PARENT
REMARK Flexibility Score: inf
ROOT
ATOM      1  C   UNL     1      -3.301   6.634   4.406  1.00  0.00     0.053 C 
ENDROOT
BRANCH   1   2
ATOM      2  C   UNL     1      -3.936   7.881   4.940  1.00  0.00     0.041 C 
ATOM      3  O   UNL     1      -4.232   7.968   6.161  1.00  0.00    -0.550 OA
ATOM      4  O   UNL     1      -4.228   8.935   4.084  1.00  0.00    -0.550 OA
ENDBRANCH   1   2
BRANCH   1   5
ATOM      5  C   UNL     1      -3.494   5.439   5.353  1.00  0.00     0.006 C 
BRANCH   5   6
ATOM      6  C   UNL     1      -2.365   4.395   5.289  1.00  0.00    -0.003 C 
ATOM      7  C   UNL     1      -2.390   3.420   6.466  1.00  0.00     0.004 C 
ENDBRANCH   5   6
ENDBRANCH   1   5
TORSDOF 3
ENDMDL
MODEL 3
REMARK VINA RESULT:    -4.012      3.727      4.277
REMARK INTER + INTRA:          -4.732
REMARK INTER:                  -4.710
REMARK INTRA:                  -0.021
REMARK UNBOUND:                -0.016
REMARK SMILES CCCCC(=O)[O-]
REMARK SMILES IDX 4 1 5 2 6 3 7 4 3 5 2 6 1 7
REMARK H PARENT
REMARK Flexibility Score: inf
ROOT
ATOM      1  C   UNL     1      -4.247   6.413   5.816  1.00  0.00     0.053 C 
ENDROOT
BRANCH   1   2
ATOM      2  C   UNL     1      -3.499   7.197   4.781  1.00  0.00     0.041 C 
ATOM      3  O   UNL     1      -3.868   8.364   4.481  1.00  0.00    -0.550 OA
ATOM      4  O   UNL     1      -2.415   6.628   4.126  1.00  0.00    -0.550 OA
ENDBRANCH   1   2
BRANCH   1   5
ATOM      5  C   UNL     1      -4.919   7.326   6.854  1.00  0.00     0.006 C 
BRANCH   5   6
ATOM      6  C   UNL     1      -5.929   6.606   7.765  1.00  0.00    -0.003 C 
ATOM      7  C   UNL     1      -6.215   7.371   9.057  1.00  0.00     0.004 C 
ENDBRANCH   5   6
ENDBRANCH   1   5
TORSDOF 3
ENDMDL
MODEL 4
REMARK VINA RESULT:    -3.924      7.265      7.885
REMARK INTER + INTRA:          -4.628
REMARK INTER:                  -4.567
REMARK INTRA:                  -0.060
REMARK UNBOUND:                -0.016
REMARK SMILES CCCCC(=O)[O-]
REMARK SMILES IDX 4 1 5 2 6 3 7 4 3 5 2 6 1 7
REMARK H PARENT
REMARK Flexibility Score: inf
ROOT
ATOM      1  C   UNL     1      -0.282   4.979  -1.774  1.00  0.00     0.053 C 
ENDROOT
BRANCH   1   2
ATOM      2  C   UNL     1      -0.845   6.110  -0.970  1.00  0.00     0.041 C 
ATOM      3  O   UNL     1      -0.972   5.999   0.278  1.00  0.00    -0.550 OA
ATOM      4  O   UNL     1      -1.257   7.276  -1.602  1.00  0.00    -0.550 OA
ENDBRANCH   1   2
BRANCH   1   5
ATOM      5  C   UNL     1      -1.282   4.464  -2.821  1.00  0.00     0.006 C 
BRANCH   5   6
ATOM      6  C   UNL     1      -2.718   4.296  -2.293  1.00  0.00    -0.003 C 
ATOM      7  C   UNL     1      -3.719   5.219  -2.987  1.00  0.00     0.004 C 
ENDBRANCH   5   6
ENDBRANCH   1   5
TORSDOF 3
ENDMDL
MODEL 5
REMARK VINA RESULT:    -3.777      3.354      4.143
REMARK INTER + INTRA:          -4.456
REMARK INTER:                  -4.423
REMARK INTRA:                  -0.032
REMARK UNBOUND:                -0.016
REMARK SMILES CCCCC(=O)[O-]
REMARK SMILES IDX 4 1 5 2 6 3 7 4 3 5 2 6 1 7
REMARK H PARENT
REMARK Flexibility Score: inf
ROOT
ATOM      1  C   UNL     1      -4.863   7.428   6.855  1.00  0.00     0.053 C 
ENDROOT
BRANCH   1   2
ATOM      2  C   UNL     1      -5.816   7.032   7.940  1.00  0.00     0.041 C 
ATOM      3  O   UNL     1      -5.956   7.759   8.958  1.00  0.00    -0.550 OA
ATOM      4  O   UNL     1      -6.528   5.842   7.841  1.00  0.00    -0.550 OA
ENDBRANCH   1   2
BRANCH   1   5
ATOM      5  C   UNL     1      -4.314   6.208   6.098  1.00  0.00     0.006 C 
BRANCH   5   6
ATOM      6  C   UNL     1      -3.702   6.541   4.726  1.00  0.00    -0.003 C 
ATOM      7  C   UNL     1      -3.533   8.043   4.499  1.00  0.00     0.004 C 
ENDBRANCH   5   6
ENDBRANCH   1   5
TORSDOF 3
ENDMDL
MODEL 6
REMARK VINA RESULT:    -3.704      1.461      2.011
REMARK INTER + INTRA:          -4.369
REMARK INTER:                  -4.384
REMARK INTRA:                   0.015
REMARK UNBOUND:                -0.016
REMARK SMILES CCCCC(=O)[O-]
REMARK SMILES IDX 4 1 5 2 6 3 7 4 3 5 2 6 1 7
REMARK H PARENT
REMARK Flexibility Score: inf
ROOT
ATOM      1  C   UNL     1      -3.732   5.895   4.531  1.00  0.00     0.053 C 
ENDROOT
BRANCH   1   2
ATOM      2  C   UNL     1      -2.801   4.996   5.286  1.00  0.00     0.041 C 
ATOM      3  O   UNL     1      -3.177   4.448   6.356  1.00  0.00    -0.550 OA
ATOM      4  O   UNL     1      -1.508   4.787   4.824  1.00  0.00    -0.550 OA
ENDBRANCH   1   2
BRANCH   1   5
ATOM      5  C   UNL     1      -3.186   7.328   4.424  1.00  0.00     0.006 C 
BRANCH   5   6
ATOM      6  C   UNL     1      -3.906   8.346   5.326  1.00  0.00    -0.003 C 
ATOM      7  C   UNL     1      -4.577   7.698   6.536  1.00  0.00     0.004 C 
ENDBRANCH   5   6
ENDBRANCH   1   5
TORSDOF 3
ENDMDL
MODEL 7
REMARK VINA RESULT:    -3.528     16.615     17.512
REMARK INTER + INTRA:          -4.163
REMARK INTER:                  -4.064
REMARK INTRA:                  -0.099
REMARK UNBOUND:                -0.016
REMARK SMILES CCCCC(=O)[O-]
REMARK SMILES IDX 4 1 5 2 6 3 7 4 3 5 2 6 1 7
REMARK H PARENT
REMARK Flexibility Score: inf
ROOT
ATOM      1  C   UNL     1       2.116  -5.023  -6.747  1.00  0.00     0.053 C 
ENDROOT
BRANCH   1   2
ATOM      2  C   UNL     1       2.301  -5.001  -8.234  1.00  0.00     0.041 C 
ATOM      3  O   UNL     1       2.894  -5.949  -8.813  1.00  0.00    -0.550 OA
ATOM      4  O   UNL     1       1.848  -3.918  -8.976  1.00  0.00    -0.550 OA
ENDBRANCH   1   2
BRANCH   1   5
ATOM      5  C   UNL     1       0.647  -5.248  -6.354  1.00  0.00     0.006 C 
BRANCH   5   6
ATOM      6  C   UNL     1       0.102  -6.639  -6.722  1.00  0.00    -0.003 C 
ATOM      7  C   UNL     1      -0.915  -6.597  -7.861  1.00  0.00     0.004 C 
ENDBRANCH   5   6
ENDBRANCH   1   5
TORSDOF 3
ENDMDL
MODEL 8
REMARK VINA RESULT:    -3.396     15.585     15.865
REMARK INTER + INTRA:          -4.007
REMARK INTER:                  -3.992
REMARK INTRA:                  -0.015
REMARK UNBOUND:                -0.016
REMARK SMILES CCCCC(=O)[O-]
REMARK SMILES IDX 4 1 5 2 6 3 7 4 3 5 2 6 1 7
REMARK H PARENT
REMARK Flexibility Score: inf
ROOT
ATOM      1  C   UNL     1       0.121  -4.265  -6.386  1.00  0.00     0.053 C 
ENDROOT
BRANCH   1   2
ATOM      2  C   UNL     1       0.944  -5.516  -6.390  1.00  0.00     0.041 C 
ATOM      3  O   UNL     1       2.201  -5.449  -6.446  1.00  0.00    -0.550 OA
ATOM      4  O   UNL     1       0.323  -6.758  -6.364  1.00  0.00    -0.550 OA
ENDBRANCH   1   2
BRANCH   1   5
ATOM      5  C   UNL     1      -0.155  -3.753  -7.808  1.00  0.00     0.006 C 
BRANCH   5   6
ATOM      6  C   UNL     1      -0.891  -2.403  -7.861  1.00  0.00    -0.003 C 
ATOM      7  C   UNL     1      -0.116  -1.333  -8.629  1.00  0.00     0.004 C 
ENDBRANCH   5   6
ENDBRANCH   1   5
TORSDOF 3
ENDMDL
MODEL 9
REMARK VINA RESULT:    -3.324     16.166     17.049
REMARK INTER + INTRA:          -3.923
REMARK INTER:                  -3.812
REMARK INTRA:                  -0.111
REMARK UNBOUND:                -0.016
REMARK SMILES CCCCC(=O)[O-]
REMARK SMILES IDX 4 1 5 2 6 3 7 4 3 5 2 6 1 7
REMARK H PARENT
REMARK Flexibility Score: inf
ROOT
ATOM      1  C   UNL     1       0.054  -4.256  -8.326  1.00  0.00     0.053 C 
ENDROOT
BRANCH   1   2
ATOM      2  C   UNL     1       1.366  -3.812  -8.897  1.00  0.00     0.041 C 
ATOM      3  O   UNL     1       1.484  -2.661  -9.394  1.00  0.00    -0.550 OA
ATOM      4  O   UNL     1       2.450  -4.681  -8.909  1.00  0.00    -0.550 OA
ENDBRANCH   1   2
BRANCH   1   5
ATOM      5  C   UNL     1      -0.004  -4.064  -6.802  1.00  0.00     0.006 C 
BRANCH   5   6
ATOM      6  C   UNL     1       0.466  -5.286  -5.994  1.00  0.00    -0.003 C 
ATOM      7  C   UNL     1       0.180  -6.611  -6.700  1.00  0.00     0.004 C 
ENDBRANCH   5   6
ENDBRANCH   1   5
TORSDOF 3
ENDMDL
