MODEL 1
REMARK VINA RESULT:     2.982      0.000      0.000
REMARK INTER + INTRA:           3.468
REMARK INTER:                   3.505
REMARK INTRA:                  -0.037
REMARK UNBOUND:                -0.037
REMARK SMILES O=C([O-])CCC(=O)[O-]
REMARK SMILES IDX 4 1 2 2 1 3 3 4 5 5 6 6 7 7 8 8
REMARK H PARENT
REMARK Flexibility Score: inf
ROOT
ATOM      1  C   UNL     1       7.350  17.850  26.184  1.00  0.00     0.059 C 
ENDROOT
BRANCH   1   2
ATOM      2  C   UNL     1       5.924  18.303  26.153  1.00  0.00     0.042 C 
ATOM      3  O   UNL     1       5.494  18.976  25.179  1.00  0.00    -0.550 OA
ATOM      4  O   UNL     1       5.057  17.937  27.173  1.00  0.00    -0.550 OA
ENDBRANCH   1   2
BRANCH   1   5
ATOM      5  C   UNL     1       7.651  17.117  27.492  1.00  0.00     0.059 C 
BRANCH   5   6
ATOM      6  C   UNL     1       9.103  17.236  27.835  1.00  0.00     0.042 C 
ATOM      7  O   UNL     1       9.514  18.210  28.518  1.00  0.00    -0.550 OA
ATOM      8  O   UNL     1       9.994  16.245  27.443  1.00  0.00    -0.550 OA
ENDBRANCH   5   6
ENDBRANCH   1   5
TORSDOF 3
ENDMDL
MODEL 2
REMARK VINA RESULT:     2.983      0.021      4.229
REMARK INTER + INTRA:           3.470
REMARK INTER:                   3.507
REMARK INTRA:                  -0.038
REMARK UNBOUND:                -0.037
REMARK SMILES O=C([O-])CCC(=O)[O-]
REMARK SMILES IDX 4 1 2 2 1 3 3 4 5 5 6 6 7 7 8 8
REMARK H PARENT
REMARK Flexibility Score: inf
ROOT
ATOM      1  C   UNL     1       7.658  17.120  27.495  1.00  0.00     0.059 C 
ENDROOT
BRANCH   1   2
ATOM      2  C   UNL     1       9.107  17.255  27.843  1.00  0.00     0.042 C 
ATOM      3  O   UNL     1       9.508  18.240  28.518  1.00  0.00    -0.550 OA
ATOM      4  O   UNL     1      10.007  16.267  27.467  1.00  0.00    -0.550 OA
ENDBRANCH   1   2
BRANCH   1   5
ATOM      5  C   UNL     1       7.353  17.840  26.181  1.00  0.00     0.059 C 
BRANCH   5   6
ATOM      6  C   UNL     1       5.930  18.300  26.154  1.00  0.00     0.042 C 
ATOM      7  O   UNL     1       5.498  18.966  25.177  1.00  0.00    -0.550 OA
ATOM      8  O   UNL     1       5.067  17.952  27.186  1.00  0.00    -0.550 OA
ENDBRANCH   5   6
ENDBRANCH   1   5
TORSDOF 3
ENDMDL
MODEL 3
REMARK VINA RESULT:     2.997      3.485      5.035
REMARK INTER + INTRA:           3.486
REMARK INTER:                   3.519
REMARK INTRA:                  -0.033
REMARK UNBOUND:                -0.037
REMARK SMILES O=C([O-])CCC(=O)[O-]
REMARK SMILES IDX 4 1 2 2 1 3 3 4 5 5 6 6 7 7 8 8
REMARK H PARENT
REMARK Flexibility Score: inf
ROOT
ATOM      1  C   UNL     1       8.881  17.498  31.213  1.00  0.00     0.059 C 
ENDROOT
BRANCH   1   2
ATOM      2  C   UNL     1       8.109  17.381  32.489  1.00  0.00     0.042 C 
ATOM      3  O   UNL     1       7.921  16.252  33.015  1.00  0.00    -0.550 OA
ATOM      4  O   UNL     1       7.641  18.523  33.125  1.00  0.00    -0.550 OA
ENDBRANCH   1   2
BRANCH   1   5
ATOM      5  C   UNL     1       7.940  17.425  30.009  1.00  0.00     0.059 C 
BRANCH   5   6
ATOM      6  C   UNL     1       8.717  17.497  28.732  1.00  0.00     0.042 C 
ATOM      7  O   UNL     1       9.922  17.862  28.745  1.00  0.00    -0.550 OA
ATOM      8  O   UNL     1       8.125  17.115  27.535  1.00  0.00    -0.550 OA
ENDBRANCH   5   6
ENDBRANCH   1   5
TORSDOF 3
ENDMDL
MODEL 4
REMARK VINA RESULT:     3.007      3.501      4.794
REMARK INTER + INTRA:           3.497
REMARK INTER:                   3.531
REMARK INTRA:                  -0.033
REMARK UNBOUND:                -0.037
REMARK SMILES O=C([O-])CCC(=O)[O-]
REMARK SMILES IDX 4 1 2 2 1 3 3 4 5 5 6 6 7 7 8 8
REMARK H PARENT
REMARK Flexibility Score: inf
ROOT
ATOM      1  C   UNL     1       7.957  17.446  30.030  1.00  0.00     0.059 C 
ENDROOT
BRANCH   1   2
ATOM      2  C   UNL     1       8.745  17.490  28.759  1.00  0.00     0.042 C 
ATOM      3  O   UNL     1       9.954  17.841  28.775  1.00  0.00    -0.550 OA
ATOM      4  O   UNL     1       8.159  17.094  27.564  1.00  0.00    -0.550 OA
ENDBRANCH   1   2
BRANCH   1   5
ATOM      5  C   UNL     1       8.891  17.490  31.241  1.00  0.00     0.059 C 
BRANCH   5   6
ATOM      6  C   UNL     1       8.108  17.362  32.510  1.00  0.00     0.042 C 
ATOM      7  O   UNL     1       7.955  16.233  33.047  1.00  0.00    -0.550 OA
ATOM      8  O   UNL     1       7.589  18.493  33.125  1.00  0.00    -0.550 OA
ENDBRANCH   5   6
ENDBRANCH   1   5
TORSDOF 3
ENDMDL
