MODEL 1
REMARK VINA RESULT:    -5.309      0.000      0.000
REMARK INTER + INTRA:          -5.937
REMARK INTER:                  -5.620
REMARK INTRA:                  -0.317
REMARK UNBOUND:                -0.317
REMARK SMILES c1ccc(-c2ccccc2)cc1
REMARK SMILES IDX 1 1 2 2 3 3 4 4 11 5 12 6 5 7 6 8 10 9 7 10 9 11 8 12
REMARK H PARENT
REMARK Flexibility Score: inf
ROOT
ATOM      1  C   UNL     1       4.277  59.025 132.813  1.00  0.00     0.000 A 
ATOM      2  C   UNL     1       4.702  57.817 133.372  1.00  0.00     0.001 A 
ATOM      3  C   UNL     1       6.060  57.484 133.373  1.00  0.00     0.009 A 
ATOM      4  C   UNL     1       7.010  58.359 132.812  1.00  0.00    -0.018 A 
ATOM      5  C   UNL     1       6.568  59.574 132.252  1.00  0.00     0.009 A 
ATOM      6  C   UNL     1       5.209  59.900 132.253  1.00  0.00     0.001 A 
ENDROOT
BRANCH   4   7
ATOM      7  C   UNL     1       8.453  58.008 132.812  1.00  0.00    -0.018 A 
ATOM      8  C   UNL     1       8.966  57.087 133.745  1.00  0.00     0.009 A 
ATOM      9  C   UNL     1       9.332  58.591 131.880  1.00  0.00     0.009 A 
ATOM     10  C   UNL     1      10.324  56.758 133.743  1.00  0.00     0.001 A 
ATOM     11  C   UNL     1      10.691  58.259 131.882  1.00  0.00     0.001 A 
ATOM     12  C   UNL     1      11.186  57.342 132.813  1.00  0.00     0.000 A 
ENDBRANCH   4   7
TORSDOF 1
ENDMDL
MODEL 2
REMARK VINA RESULT:    -5.294      0.080      4.762
REMARK INTER + INTRA:          -5.921
REMARK INTER:                  -5.603
REMARK INTRA:                  -0.318
REMARK UNBOUND:                -0.317
REMARK SMILES c1ccc(-c2ccccc2)cc1
REMARK SMILES IDX 1 1 2 2 3 3 4 4 11 5 12 6 5 7 6 8 10 9 7 10 9 11 8 12
REMARK H PARENT
REMARK Flexibility Score: inf
ROOT
ATOM      1  C   UNL     1      11.144  57.399 132.805  1.00  0.00     0.000 A 
ATOM      2  C   UNL     1      10.275  56.810 133.726  1.00  0.00     0.001 A 
ATOM      3  C   UNL     1       8.916  57.140 133.721  1.00  0.00     0.009 A 
ATOM      4  C   UNL     1       8.411  58.067 132.789  1.00  0.00    -0.018 A 
ATOM      5  C   UNL     1       9.298  58.655 131.865  1.00  0.00     0.009 A 
ATOM      6  C   UNL     1      10.656  58.321 131.877  1.00  0.00     0.001 A 
ENDROOT
BRANCH   4   7
ATOM      7  C   UNL     1       6.969  58.420 132.780  1.00  0.00    -0.018 A 
ATOM      8  C   UNL     1       6.014  57.545 133.332  1.00  0.00     0.009 A 
ATOM      9  C   UNL     1       6.532  59.635 132.219  1.00  0.00     0.009 A 
ATOM     10  C   UNL     1       4.657  57.880 133.323  1.00  0.00     0.001 A 
ATOM     11  C   UNL     1       5.173  59.964 132.211  1.00  0.00     0.001 A 
ATOM     12  C   UNL     1       4.236  59.087 132.764  1.00  0.00     0.000 A 
ENDBRANCH   4   7
TORSDOF 1
ENDMDL
MODEL 3
REMARK VINA RESULT:    -5.294      0.060      1.399
REMARK INTER + INTRA:          -5.921
REMARK INTER:                  -5.603
REMARK INTRA:                  -0.318
REMARK UNBOUND:                -0.317
REMARK SMILES c1ccc(-c2ccccc2)cc1
REMARK SMILES IDX 1 1 2 2 3 3 4 4 11 5 12 6 5 7 6 8 10 9 7 10 9 11 8 12
REMARK H PARENT
REMARK Flexibility Score: inf
ROOT
ATOM      1  C   UNL     1       4.219  59.018 132.806  1.00  0.00     0.000 A 
ATOM      2  C   UNL     1       4.651  57.810 133.358  1.00  0.00     0.001 A 
ATOM      3  C   UNL     1       6.011  57.486 133.361  1.00  0.00     0.009 A 
ATOM      4  C   UNL     1       6.957  58.370 132.807  1.00  0.00    -0.018 A 
ATOM      5  C   UNL     1       6.508  59.585 132.252  1.00  0.00     0.009 A 
ATOM      6  C   UNL     1       5.147  59.903 132.253  1.00  0.00     0.001 A 
ENDROOT
BRANCH   4   7
ATOM      7  C   UNL     1       8.402  58.029 132.808  1.00  0.00    -0.018 A 
ATOM      8  C   UNL     1       9.283  58.637 131.893  1.00  0.00     0.009 A 
ATOM      9  C   UNL     1       8.915  57.091 133.723  1.00  0.00     0.009 A 
ATOM     10  C   UNL     1      10.642  58.314 131.897  1.00  0.00     0.001 A 
ATOM     11  C   UNL     1      10.277  56.770 133.722  1.00  0.00     0.001 A 
ATOM     12  C   UNL     1      11.140  57.382 132.809  1.00  0.00     0.000 A 
ENDBRANCH   4   7
TORSDOF 1
ENDMDL
MODEL 4
REMARK VINA RESULT:    -5.265      1.981      5.845
REMARK INTER + INTRA:          -5.890
REMARK INTER:                  -5.576
REMARK INTRA:                  -0.313
REMARK UNBOUND:                -0.317
REMARK SMILES c1ccc(-c2ccccc2)cc1
REMARK SMILES IDX 1 1 2 2 3 3 4 4 11 5 12 6 5 7 6 8 10 9 7 10 9 11 8 12
REMARK H PARENT
REMARK Flexibility Score: inf
ROOT
ATOM      1  C   UNL     1       9.187  59.544 133.109  1.00  0.00     0.000 A 
ATOM      2  C   UNL     1       8.778  60.862 133.324  1.00  0.00     0.001 A 
ATOM      3  C   UNL     1       7.441  61.224 133.126  1.00  0.00     0.009 A 
ATOM      4  C   UNL     1       6.497  60.266 132.708  1.00  0.00    -0.018 A 
ATOM      5  C   UNL     1       6.923  58.940 132.493  1.00  0.00     0.009 A 
ATOM      6  C   UNL     1       8.261  58.586 132.693  1.00  0.00     0.001 A 
ENDROOT
BRANCH   4   7
ATOM      7  C   UNL     1       5.078  60.647 132.496  1.00  0.00    -0.018 A 
ATOM      8  C   UNL     1       4.294  59.985 131.532  1.00  0.00     0.009 A 
ATOM      9  C   UNL     1       4.492  61.676 133.257  1.00  0.00     0.009 A 
ATOM     10  C   UNL     1       2.958  60.345 131.336  1.00  0.00     0.001 A 
ATOM     11  C   UNL     1       3.155  62.033 133.057  1.00  0.00     0.001 A 
ATOM     12  C   UNL     1       2.388  61.367 132.096  1.00  0.00     0.000 A 
ENDBRANCH   4   7
TORSDOF 1
ENDMDL
MODEL 5
REMARK VINA RESULT:    -5.257      2.023      3.429
REMARK INTER + INTRA:          -5.882
REMARK INTER:                  -5.567
REMARK INTRA:                  -0.315
REMARK UNBOUND:                -0.317
REMARK SMILES c1ccc(-c2ccccc2)cc1
REMARK SMILES IDX 1 1 2 2 3 3 4 4 11 5 12 6 5 7 6 8 10 9 7 10 9 11 8 12
REMARK H PARENT
REMARK Flexibility Score: inf
ROOT
ATOM      1  C   UNL     1       2.350  61.136 132.044  1.00  0.00     0.000 A 
ATOM      2  C   UNL     1       3.063  61.848 133.011  1.00  0.00     0.001 A 
ATOM      3  C   UNL     1       4.425  61.595 133.207  1.00  0.00     0.009 A 
ATOM      4  C   UNL     1       5.088  60.622 132.434  1.00  0.00    -0.018 A 
ATOM      5  C   UNL     1       4.358  59.911 131.463  1.00  0.00     0.009 A 
ATOM      6  C   UNL     1       2.996  60.168 131.272  1.00  0.00     0.001 A 
ENDROOT
BRANCH   4   7
ATOM      7  C   UNL     1       6.534  60.352 132.640  1.00  0.00    -0.018 A 
ATOM      8  C   UNL     1       7.388  61.357 133.134  1.00  0.00     0.009 A 
ATOM      9  C   UNL     1       7.074  59.086 132.345  1.00  0.00     0.009 A 
ATOM     10  C   UNL     1       8.747  61.099 133.327  1.00  0.00     0.001 A 
ATOM     11  C   UNL     1       8.436  58.834 132.539  1.00  0.00     0.001 A 
ATOM     12  C   UNL     1       9.272  59.840 133.031  1.00  0.00     0.000 A 
ENDBRANCH   4   7
TORSDOF 1
ENDMDL
MODEL 6
REMARK VINA RESULT:    -5.229      1.933      5.710
REMARK INTER + INTRA:          -5.852
REMARK INTER:                  -5.535
REMARK INTRA:                  -0.317
REMARK UNBOUND:                -0.317
REMARK SMILES c1ccc(-c2ccccc2)cc1
REMARK SMILES IDX 1 1 2 2 3 3 4 4 11 5 12 6 5 7 6 8 10 9 7 10 9 11 8 12
REMARK H PARENT
REMARK Flexibility Score: inf
ROOT
ATOM      1  C   UNL     1       9.156  59.635 133.126  1.00  0.00     0.000 A 
ATOM      2  C   UNL     1       8.266  58.618 132.771  1.00  0.00     0.001 A 
ATOM      3  C   UNL     1       6.912  58.908 132.573  1.00  0.00     0.009 A 
ATOM      4  C   UNL     1       6.433  60.223 132.729  1.00  0.00    -0.018 A 
ATOM      5  C   UNL     1       7.341  61.239 133.088  1.00  0.00     0.009 A 
ATOM      6  C   UNL     1       8.693  60.943 133.285  1.00  0.00     0.001 A 
ENDROOT
BRANCH   4   7
ATOM      7  C   UNL     1       4.997  60.534 132.520  1.00  0.00    -0.018 A 
ATOM      8  C   UNL     1       4.417  61.675 133.106  1.00  0.00     0.009 A 
ATOM      9  C   UNL     1       4.190  59.693 131.730  1.00  0.00     0.009 A 
ATOM     10  C   UNL     1       3.065  61.965 132.907  1.00  0.00     0.001 A 
ATOM     11  C   UNL     1       2.837  59.987 131.534  1.00  0.00     0.001 A 
ATOM     12  C   UNL     1       2.275  61.123 132.122  1.00  0.00     0.000 A 
ENDBRANCH   4   7
TORSDOF 1
ENDMDL
MODEL 7
REMARK VINA RESULT:    -5.068      5.903      8.028
REMARK INTER + INTRA:          -5.681
REMARK INTER:                  -5.374
REMARK INTRA:                  -0.308
REMARK UNBOUND:                -0.317
REMARK SMILES c1ccc(-c2ccccc2)cc1
REMARK SMILES IDX 1 1 2 2 3 3 4 4 11 5 12 6 5 7 6 8 10 9 7 10 9 11 8 12
REMARK H PARENT
REMARK Flexibility Score: inf
ROOT
ATOM      1  C   UNL     1       3.824  62.198 132.999  1.00  0.00     0.000 A 
ATOM      2  C   UNL     1       3.791  61.523 134.221  1.00  0.00     0.001 A 
ATOM      3  C   UNL     1       2.767  60.608 134.491  1.00  0.00     0.009 A 
ATOM      4  C   UNL     1       1.762  60.361 133.536  1.00  0.00    -0.018 A 
ATOM      5  C   UNL     1       1.807  61.049 132.308  1.00  0.00     0.009 A 
ATOM      6  C   UNL     1       2.833  61.962 132.045  1.00  0.00     0.001 A 
ENDROOT
BRANCH   4   7
ATOM      7  C   UNL     1       0.674  59.391 133.819  1.00  0.00    -0.018 A 
ATOM      8  C   UNL     1       0.950  58.177 134.476  1.00  0.00     0.009 A 
ATOM      9  C   UNL     1      -0.651  59.669 133.435  1.00  0.00     0.009 A 
ATOM     10  C   UNL     1      -0.077  57.266 134.742  1.00  0.00     0.001 A 
ATOM     11  C   UNL     1      -1.674  58.754 133.702  1.00  0.00     0.001 A 
ATOM     12  C   UNL     1      -1.387  57.553 134.356  1.00  0.00     0.000 A 
ENDBRANCH   4   7
TORSDOF 1
ENDMDL
MODEL 8
REMARK VINA RESULT:    -5.068      6.041      7.399
REMARK INTER + INTRA:          -5.681
REMARK INTER:                  -5.376
REMARK INTRA:                  -0.305
REMARK UNBOUND:                -0.317
REMARK SMILES c1ccc(-c2ccccc2)cc1
REMARK SMILES IDX 1 1 2 2 3 3 4 4 11 5 12 6 5 7 6 8 10 9 7 10 9 11 8 12
REMARK H PARENT
REMARK Flexibility Score: inf
ROOT
ATOM      1  C   UNL     1      -1.198  57.259 134.536  1.00  0.00     0.000 A 
ATOM      2  C   UNL     1      -1.601  58.443 133.915  1.00  0.00     0.001 A 
ATOM      3  C   UNL     1      -0.657  59.425 133.596  1.00  0.00     0.009 A 
ATOM      4  C   UNL     1       0.705  59.231 133.899  1.00  0.00    -0.018 A 
ATOM      5  C   UNL     1       1.097  58.032 134.527  1.00  0.00     0.009 A 
ATOM      6  C   UNL     1       0.149  57.055 134.843  1.00  0.00     0.001 A 
ENDROOT
BRANCH   4   7
ATOM      7  C   UNL     1       1.709  60.271 133.563  1.00  0.00    -0.018 A 
ATOM      8  C   UNL     1       1.688  60.907 132.307  1.00  0.00     0.009 A 
ATOM      9  C   UNL     1       2.698  60.639 134.494  1.00  0.00     0.009 A 
ATOM     10  C   UNL     1       2.634  61.887 131.993  1.00  0.00     0.001 A 
ATOM     11  C   UNL     1       3.643  61.620 134.175  1.00  0.00     0.001 A 
ATOM     12  C   UNL     1       3.611  62.243 132.925  1.00  0.00     0.000 A 
ENDBRANCH   4   7
TORSDOF 1
ENDMDL
MODEL 9
REMARK VINA RESULT:    -5.015      0.862      5.118
REMARK INTER + INTRA:          -5.626
REMARK INTER:                  -5.320
REMARK INTRA:                  -0.306
REMARK UNBOUND:                -0.317
REMARK SMILES c1ccc(-c2ccccc2)cc1
REMARK SMILES IDX 1 1 2 2 3 3 4 4 11 5 12 6 5 7 6 8 10 9 7 10 9 11 8 12
REMARK H PARENT
REMARK Flexibility Score: inf
ROOT
ATOM      1  C   UNL     1      10.476  57.390 134.122  1.00  0.00     0.000 A 
ATOM      2  C   UNL     1      10.199  57.866 132.838  1.00  0.00     0.001 A 
ATOM      3  C   UNL     1       8.887  58.186 132.476  1.00  0.00     0.009 A 
ATOM      4  C   UNL     1       7.834  58.030 133.399  1.00  0.00    -0.018 A 
ATOM      5  C   UNL     1       8.127  57.549 134.689  1.00  0.00     0.009 A 
ATOM      6  C   UNL     1       9.441  57.230 135.045  1.00  0.00     0.001 A 
ENDROOT
BRANCH   4   7
ATOM      7  C   UNL     1       6.439  58.369 133.017  1.00  0.00    -0.018 A 
ATOM      8  C   UNL     1       6.162  59.532 132.274  1.00  0.00     0.009 A 
ATOM      9  C   UNL     1       5.371  57.532 133.392  1.00  0.00     0.009 A 
ATOM     10  C   UNL     1       4.849  59.848 131.915  1.00  0.00     0.001 A 
ATOM     11  C   UNL     1       4.059  57.853 133.032  1.00  0.00     0.001 A 
ATOM     12  C   UNL     1       3.798  59.010 132.293  1.00  0.00     0.000 A 
ENDBRANCH   4   7
TORSDOF 1
ENDMDL
