MODEL 1
REMARK VINA RESULT:    -3.409      0.000      0.000
REMARK INTER + INTRA:          -4.828
REMARK INTER:                  -4.406
REMARK INTRA:                  -0.422
REMARK UNBOUND:                -0.422
REMARK SMILES C=CC(=O)CCCCC
REMARK SMILES IDX 6 1 7 2 8 3 9 4 5 5 3 6 4 7 2 8 1 9
REMARK H PARENT
REMARK Flexibility Score: inf
ROOT
ATOM      1  C   UNL     1       1.409  27.085  53.983  1.00  0.00     0.008 C 
ENDROOT
BRANCH   1   2
ATOM      2  C   UNL     1       1.648  26.819  55.477  1.00  0.00     0.000 C 
BRANCH   2   3
ATOM      3  C   UNL     1       0.767  25.686  56.025  1.00  0.00    -0.003 C 
ATOM      4  C   UNL     1      -0.316  26.231  56.951  1.00  0.00     0.004 C 
ENDBRANCH   2   3
ENDBRANCH   1   2
BRANCH   1   5
ATOM      5  C   UNL     1       0.342  28.162  53.739  1.00  0.00     0.080 C 
BRANCH   5   6
ATOM      6  C   UNL     1      -0.996  27.528  53.494  1.00  0.00     0.155 C 
ATOM      7  O   UNL     1      -2.030  28.062  53.981  1.00  0.00    -0.295 OA
BRANCH   6   8
ATOM      8  C   UNL     1      -1.090  26.268  52.731  1.00  0.00     0.039 C 
ATOM      9  C   UNL     1      -1.659  26.200  51.530  1.00  0.00     0.012 C 
ENDBRANCH   6   8
ENDBRANCH   5   6
ENDBRANCH   1   5
TORSDOF 5
ENDMDL
MODEL 2
REMARK VINA RESULT:    -3.365      1.711      4.398
REMARK INTER + INTRA:          -4.771
REMARK INTER:                  -4.514
REMARK INTRA:                  -0.256
REMARK UNBOUND:                -0.422
REMARK SMILES C=CC(=O)CCCCC
REMARK SMILES IDX 6 1 7 2 8 3 9 4 5 5 3 6 4 7 2 8 1 9
REMARK H PARENT
REMARK Flexibility Score: inf
ROOT
ATOM      1  C   UNL     1      -0.563  27.285  53.542  1.00  0.00     0.008 C 
ENDROOT
BRANCH   1   2
ATOM      2  C   UNL     1      -1.791  26.621  52.900  1.00  0.00     0.000 C 
BRANCH   2   3
ATOM      3  C   UNL     1      -1.657  26.476  51.377  1.00  0.00    -0.003 C 
ATOM      4  C   UNL     1      -1.728  27.835  50.688  1.00  0.00     0.004 C 
ENDBRANCH   2   3
ENDBRANCH   1   2
BRANCH   1   5
ATOM      5  C   UNL     1       0.615  26.314  53.704  1.00  0.00     0.080 C 
BRANCH   5   6
ATOM      6  C   UNL     1       1.120  26.333  55.117  1.00  0.00     0.155 C 
ATOM      7  O   UNL     1       2.056  27.118  55.428  1.00  0.00    -0.295 OA
BRANCH   6   8
ATOM      8  C   UNL     1       0.555  25.406  56.116  1.00  0.00     0.039 C 
ATOM      9  C   UNL     1      -0.269  25.810  57.082  1.00  0.00     0.012 C 
ENDBRANCH   6   8
ENDBRANCH   5   6
ENDBRANCH   1   5
TORSDOF 5
ENDMDL
MODEL 3
REMARK VINA RESULT:    -3.292      1.526      4.589
REMARK INTER + INTRA:          -4.676
REMARK INTER:                  -4.468
REMARK INTRA:                  -0.209
REMARK UNBOUND:                -0.422
REMARK SMILES C=CC(=O)CCCCC
REMARK SMILES IDX 6 1 7 2 8 3 9 4 5 5 3 6 4 7 2 8 1 9
REMARK H PARENT
REMARK Flexibility Score: inf
ROOT
ATOM      1  C   UNL     1      -1.560  26.730  52.819  1.00  0.00     0.008 C 
ENDROOT
BRANCH   1   2
ATOM      2  C   UNL     1      -1.732  26.574  51.299  1.00  0.00     0.000 C 
BRANCH   2   3
ATOM      3  C   UNL     1      -1.709  27.920  50.561  1.00  0.00    -0.003 C 
ATOM      4  C   UNL     1      -3.088  28.572  50.565  1.00  0.00     0.004 C 
ENDBRANCH   2   3
ENDBRANCH   1   2
BRANCH   1   5
ATOM      5  C   UNL     1      -0.153  26.346  53.296  1.00  0.00     0.080 C 
BRANCH   5   6
ATOM      6  C   UNL     1       0.599  27.565  53.745  1.00  0.00     0.155 C 
ATOM      7  O   UNL     1       0.158  28.707  53.445  1.00  0.00    -0.295 OA
BRANCH   6   8
ATOM      8  C   UNL     1       1.865  27.420  54.489  1.00  0.00     0.039 C 
ATOM      9  C   UNL     1       1.937  26.802  55.666  1.00  0.00     0.012 C 
ENDBRANCH   6   8
ENDBRANCH   5   6
ENDBRANCH   1   5
TORSDOF 5
ENDMDL
MODEL 4
REMARK VINA RESULT:    -3.289      1.854      3.792
REMARK INTER + INTRA:          -4.673
REMARK INTER:                  -4.170
REMARK INTRA:                  -0.503
REMARK UNBOUND:                -0.422
REMARK SMILES C=CC(=O)CCCCC
REMARK SMILES IDX 6 1 7 2 8 3 9 4 5 5 3 6 4 7 2 8 1 9
REMARK H PARENT
REMARK Flexibility Score: inf
ROOT
ATOM      1  C   UNL     1      -0.493  26.416  53.368  1.00  0.00     0.008 C 
ENDROOT
BRANCH   1   2
ATOM      2  C   UNL     1      -0.834  27.789  52.767  1.00  0.00     0.000 C 
BRANCH   2   3
ATOM      3  C   UNL     1      -0.911  28.896  53.828  1.00  0.00    -0.003 C 
ATOM      4  C   UNL     1      -1.813  28.484  54.987  1.00  0.00     0.004 C 
ENDBRANCH   2   3
ENDBRANCH   1   2
BRANCH   1   5
ATOM      5  C   UNL     1       0.998  26.271  53.701  1.00  0.00     0.080 C 
BRANCH   5   6
ATOM      6  C   UNL     1       1.206  26.269  55.187  1.00  0.00     0.155 C 
ATOM      7  O   UNL     1       2.058  27.050  55.691  1.00  0.00    -0.295 OA
BRANCH   6   8
ATOM      8  C   UNL     1       0.454  25.327  56.038  1.00  0.00     0.039 C 
ATOM      9  C   UNL     1      -0.248  25.725  57.097  1.00  0.00     0.012 C 
ENDBRANCH   6   8
ENDBRANCH   5   6
ENDBRANCH   1   5
TORSDOF 5
ENDMDL
MODEL 5
REMARK VINA RESULT:    -3.146      1.695      2.472
REMARK INTER + INTRA:          -4.487
REMARK INTER:                  -4.226
REMARK INTRA:                  -0.260
REMARK UNBOUND:                -0.422
REMARK SMILES C=CC(=O)CCCCC
REMARK SMILES IDX 6 1 7 2 8 3 9 4 5 5 3 6 4 7 2 8 1 9
REMARK H PARENT
REMARK Flexibility Score: inf
ROOT
ATOM      1  C   UNL     1       0.043  26.177  53.294  1.00  0.00     0.008 C 
ENDROOT
BRANCH   1   2
ATOM      2  C   UNL     1       0.136  26.227  54.827  1.00  0.00     0.000 C 
BRANCH   2   3
ATOM      3  C   UNL     1       1.456  26.837  55.319  1.00  0.00    -0.003 C 
ATOM      4  C   UNL     1       2.192  27.542  54.185  1.00  0.00     0.004 C 
ENDBRANCH   2   3
ENDBRANCH   1   2
BRANCH   1   5
ATOM      5  C   UNL     1      -1.339  26.596  52.772  1.00  0.00     0.080 C 
BRANCH   5   6
ATOM      6  C   UNL     1      -1.258  27.926  52.081  1.00  0.00     0.155 C 
ATOM      7  O   UNL     1      -0.871  28.935  52.731  1.00  0.00    -0.295 OA
BRANCH   6   8
ATOM      8  C   UNL     1      -1.674  28.054  50.672  1.00  0.00     0.039 C 
ATOM      9  C   UNL     1      -1.258  29.049  49.891  1.00  0.00     0.012 C 
ENDBRANCH   6   8
ENDBRANCH   5   6
ENDBRANCH   1   5
TORSDOF 5
ENDMDL
MODEL 6
REMARK VINA RESULT:    -3.136      1.495      2.588
REMARK INTER + INTRA:          -4.474
REMARK INTER:                  -4.155
REMARK INTRA:                  -0.319
REMARK UNBOUND:                -0.422
REMARK SMILES C=CC(=O)CCCCC
REMARK SMILES IDX 6 1 7 2 8 3 9 4 5 5 3 6 4 7 2 8 1 9
REMARK H PARENT
REMARK Flexibility Score: inf
ROOT
ATOM      1  C   UNL     1      -0.522  26.289  53.310  1.00  0.00     0.008 C 
ENDROOT
BRANCH   1   2
ATOM      2  C   UNL     1       0.166  27.643  53.541  1.00  0.00     0.000 C 
BRANCH   2   3
ATOM      3  C   UNL     1       1.604  27.495  54.058  1.00  0.00    -0.003 C 
ATOM      4  C   UNL     1       1.631  26.806  55.418  1.00  0.00     0.004 C 
ENDBRANCH   2   3
ENDBRANCH   1   2
BRANCH   1   5
ATOM      5  C   UNL     1      -1.281  26.232  51.977  1.00  0.00     0.080 C 
BRANCH   5   6
ATOM      6  C   UNL     1      -2.416  27.215  51.977  1.00  0.00     0.155 C 
ATOM      7  O   UNL     1      -3.309  27.126  52.862  1.00  0.00    -0.295 OA
BRANCH   6   8
ATOM      8  C   UNL     1      -2.505  28.241  50.921  1.00  0.00     0.039 C 
ATOM      9  C   UNL     1      -1.443  28.650  50.229  1.00  0.00     0.012 C 
ENDBRANCH   6   8
ENDBRANCH   5   6
ENDBRANCH   1   5
TORSDOF 5
ENDMDL
MODEL 7
REMARK VINA RESULT:    -3.135     16.092     17.049
REMARK INTER + INTRA:          -4.473
REMARK INTER:                  -4.206
REMARK INTRA:                  -0.267
REMARK UNBOUND:                -0.422
REMARK SMILES C=CC(=O)CCCCC
REMARK SMILES IDX 6 1 7 2 8 3 9 4 5 5 3 6 4 7 2 8 1 9
REMARK H PARENT
REMARK Flexibility Score: inf
ROOT
ATOM      1  C   UNL     1       2.014  41.863  49.605  1.00  0.00     0.008 C 
ENDROOT
BRANCH   1   2
ATOM      2  C   UNL     1       0.807  42.544  48.941  1.00  0.00     0.000 C 
BRANCH   2   3
ATOM      3  C   UNL     1       0.802  42.383  47.415  1.00  0.00    -0.003 C 
ATOM      4  C   UNL     1      -0.623  42.302  46.875  1.00  0.00     0.004 C 
ENDBRANCH   2   3
ENDBRANCH   1   2
BRANCH   1   5
ATOM      5  C   UNL     1       3.236  42.787  49.700  1.00  0.00     0.080 C 
BRANCH   5   6
ATOM      6  C   UNL     1       4.437  42.136  49.079  1.00  0.00     0.155 C 
ATOM      7  O   UNL     1       5.401  41.793  49.816  1.00  0.00    -0.295 OA
BRANCH   6   8
ATOM      8  C   UNL     1       4.502  41.944  47.618  1.00  0.00     0.039 C 
ATOM      9  C   UNL     1       5.616  41.560  46.996  1.00  0.00     0.012 C 
ENDBRANCH   6   8
ENDBRANCH   5   6
ENDBRANCH   1   5
TORSDOF 5
ENDMDL
MODEL 8
REMARK VINA RESULT:    -3.121      2.269      4.010
REMARK INTER + INTRA:          -4.455
REMARK INTER:                  -3.917
REMARK INTRA:                  -0.538
REMARK UNBOUND:                -0.422
REMARK SMILES C=CC(=O)CCCCC
REMARK SMILES IDX 6 1 7 2 8 3 9 4 5 5 3 6 4 7 2 8 1 9
REMARK H PARENT
REMARK Flexibility Score: inf
ROOT
ATOM      1  C   UNL     1      -1.139  29.055  53.717  1.00  0.00     0.008 C 
ENDROOT
BRANCH   1   2
ATOM      2  C   UNL     1      -1.033  30.299  52.821  1.00  0.00     0.000 C 
BRANCH   2   3
ATOM      3  C   UNL     1      -0.095  30.088  51.624  1.00  0.00    -0.003 C 
ATOM      4  C   UNL     1      -0.857  29.541  50.420  1.00  0.00     0.004 C 
ENDBRANCH   2   3
ENDBRANCH   1   2
BRANCH   1   5
ATOM      5  C   UNL     1       0.172  28.258  53.778  1.00  0.00     0.080 C 
BRANCH   5   6
ATOM      6  C   UNL     1      -0.065  26.829  53.385  1.00  0.00     0.155 C 
ATOM      7  O   UNL     1       0.878  25.998  53.486  1.00  0.00    -0.295 OA
BRANCH   6   8
ATOM      8  C   UNL     1      -1.374  26.418  52.843  1.00  0.00     0.039 C 
ATOM      9  C   UNL     1      -1.548  26.094  51.563  1.00  0.00     0.012 C 
ENDBRANCH   6   8
ENDBRANCH   5   6
ENDBRANCH   1   5
TORSDOF 5
ENDMDL
MODEL 9
REMARK VINA RESULT:    -3.105      1.642      4.359
REMARK INTER + INTRA:          -4.434
REMARK INTER:                  -4.269
REMARK INTRA:                  -0.166
REMARK UNBOUND:                -0.422
REMARK SMILES C=CC(=O)CCCCC
REMARK SMILES IDX 6 1 7 2 8 3 9 4 5 5 3 6 4 7 2 8 1 9
REMARK H PARENT
REMARK Flexibility Score: inf
ROOT
ATOM      1  C   UNL     1      -0.663  26.246  52.827  1.00  0.00     0.008 C 
ENDROOT
BRANCH   1   2
ATOM      2  C   UNL     1      -1.700  26.538  51.731  1.00  0.00     0.000 C 
BRANCH   2   3
ATOM      3  C   UNL     1      -1.525  27.930  51.108  1.00  0.00    -0.003 C 
ATOM      4  C   UNL     1      -2.859  28.482  50.613  1.00  0.00     0.004 C 
ENDBRANCH   2   3
ENDBRANCH   1   2
BRANCH   1   5
ATOM      5  C   UNL     1      -0.498  27.413  53.810  1.00  0.00     0.080 C 
BRANCH   5   6
ATOM      6  C   UNL     1       0.276  26.976  55.019  1.00  0.00     0.155 C 
ATOM      7  O   UNL     1      -0.348  26.598  56.048  1.00  0.00    -0.295 OA
BRANCH   6   8
ATOM      8  C   UNL     1       1.750  27.035  55.015  1.00  0.00     0.039 C 
ATOM      9  C   UNL     1       2.443  27.513  53.983  1.00  0.00     0.012 C 
ENDBRANCH   6   8
ENDBRANCH   5   6
ENDBRANCH   1   5
TORSDOF 5
ENDMDL
