MODEL 1
REMARK VINA RESULT:    -3.424      0.000      0.000
REMARK INTER + INTRA:          -3.973
REMARK INTER:                  -3.924
REMARK INTRA:                  -0.049
REMARK UNBOUND:                -0.049
REMARK SMILES CC(C)[C@@H]([NH3+])C(=O)[O-]
REMARK SMILES IDX 4 1 5 2 6 6 7 7 8 8 2 9 1 10 3 11
REMARK H PARENT 5 3 5 4 5 5
REMARK Flexibility Score: inf
ROOT
ATOM      1  C   UNL     1      27.966   7.326  27.925  1.00  0.00     0.230 C 
ENDROOT
BRANCH   1   2
ATOM      2  N   UNL     1      26.729   7.820  27.300  1.00  0.00    -0.350 N 
ATOM      3  H   UNL     1      26.486   7.270  26.445  1.00  0.00     0.345 HD
ATOM      4  H   UNL     1      25.939   7.737  27.982  1.00  0.00     0.345 HD
ATOM      5  H   UNL     1      26.824   8.828  27.049  1.00  0.00     0.345 HD
ENDBRANCH   1   2
BRANCH   1   6
ATOM      6  C   UNL     1      27.787   7.170  29.416  1.00  0.00     0.099 C 
ATOM      7  O   UNL     1      28.748   6.776  30.127  1.00  0.00    -0.544 OA
ATOM      8  O   UNL     1      26.554   7.412  30.012  1.00  0.00    -0.544 OA
ENDBRANCH   1   6
BRANCH   1   9
ATOM      9  C   UNL     1      28.484   6.001  27.287  1.00  0.00     0.047 C 
ATOM     10  C   UNL     1      27.432   5.278  26.430  1.00  0.00     0.014 C 
ATOM     11  C   UNL     1      29.769   6.221  26.475  1.00  0.00     0.014 C 
ENDBRANCH   1   9
TORSDOF 3
ENDMDL
MODEL 2
REMARK VINA RESULT:    -3.332      1.292      1.613
REMARK INTER + INTRA:          -3.868
REMARK INTER:                  -3.803
REMARK INTRA:                  -0.065
REMARK UNBOUND:                -0.049
REMARK SMILES CC(C)[C@@H]([NH3+])C(=O)[O-]
REMARK SMILES IDX 4 1 5 2 6 6 7 7 8 8 2 9 1 10 3 11
REMARK H PARENT 5 3 5 4 5 5
REMARK Flexibility Score: inf
ROOT
ATOM      1  C   UNL     1      27.388   8.158  28.337  1.00  0.00     0.230 C 
ENDROOT
BRANCH   1   2
ATOM      2  N   UNL     1      26.633   8.325  27.085  1.00  0.00    -0.350 N 
ATOM      3  H   UNL     1      26.106   9.227  27.074  1.00  0.00     0.345 HD
ATOM      4  H   UNL     1      27.297   8.320  26.276  1.00  0.00     0.345 HD
ATOM      5  H   UNL     1      25.968   7.531  26.952  1.00  0.00     0.345 HD
ENDBRANCH   1   2
BRANCH   1   6
ATOM      6  C   UNL     1      26.466   8.221  29.530  1.00  0.00     0.099 C 
ATOM      7  O   UNL     1      26.578   7.376  30.456  1.00  0.00    -0.544 OA
ATOM      8  O   UNL     1      25.458   9.176  29.599  1.00  0.00    -0.544 OA
ENDBRANCH   1   6
BRANCH   1   9
ATOM      9  C   UNL     1      28.243   6.854  28.364  1.00  0.00     0.047 C 
ATOM     10  C   UNL     1      27.746   5.772  27.391  1.00  0.00     0.014 C 
ATOM     11  C   UNL     1      29.732   7.140  28.123  1.00  0.00     0.014 C 
ENDBRANCH   1   9
TORSDOF 3
ENDMDL
MODEL 3
REMARK VINA RESULT:    -3.236      1.551      2.155
REMARK INTER + INTRA:          -3.758
REMARK INTER:                  -3.698
REMARK INTRA:                  -0.060
REMARK UNBOUND:                -0.049
REMARK SMILES CC(C)[C@@H]([NH3+])C(=O)[O-]
REMARK SMILES IDX 4 1 5 2 6 6 7 7 8 8 2 9 1 10 3 11
REMARK H PARENT 5 3 5 4 5 5
REMARK Flexibility Score: inf
ROOT
ATOM      1  C   UNL     1      28.249   6.692  28.582  1.00  0.00     0.230 C 
ENDROOT
BRANCH   1   2
ATOM      2  N   UNL     1      29.522   7.232  29.085  1.00  0.00    -0.350 N 
ATOM      3  H   UNL     1      30.283   7.142  28.374  1.00  0.00     0.345 HD
ATOM      4  H   UNL     1      29.402   8.246  29.315  1.00  0.00     0.345 HD
ATOM      5  H   UNL     1      29.806   6.742  29.962  1.00  0.00     0.345 HD
ENDBRANCH   1   2
BRANCH   1   6
ATOM      6  C   UNL     1      27.103   7.609  28.934  1.00  0.00     0.099 C 
ATOM      7  O   UNL     1      26.734   8.494  28.118  1.00  0.00    -0.544 OA
ATOM      8  O   UNL     1      26.477   7.521  30.172  1.00  0.00    -0.544 OA
ENDBRANCH   1   6
BRANCH   1   9
ATOM      9  C   UNL     1      28.275   6.396  27.052  1.00  0.00     0.047 C 
ATOM     10  C   UNL     1      29.694   6.295  26.468  1.00  0.00     0.014 C 
ATOM     11  C   UNL     1      27.465   5.141  26.696  1.00  0.00     0.014 C 
ENDBRANCH   1   9
TORSDOF 3
ENDMDL
MODEL 4
REMARK VINA RESULT:    -3.179      2.036      2.619
REMARK INTER + INTRA:          -3.693
REMARK INTER:                  -3.641
REMARK INTRA:                  -0.052
REMARK UNBOUND:                -0.049
REMARK SMILES CC(C)[C@@H]([NH3+])C(=O)[O-]
REMARK SMILES IDX 4 1 5 2 6 6 7 7 8 8 2 9 1 10 3 11
REMARK H PARENT 5 3 5 4 5 5
REMARK Flexibility Score: inf
ROOT
ATOM      1  C   UNL     1      28.111   6.909  29.069  1.00  0.00     0.230 C 
ENDROOT
BRANCH   1   2
ATOM      2  N   UNL     1      28.489   6.645  30.466  1.00  0.00    -0.350 N 
ATOM      3  H   UNL     1      27.971   5.825  30.855  1.00  0.00     0.345 HD
ATOM      4  H   UNL     1      29.515   6.442  30.516  1.00  0.00     0.345 HD
ATOM      5  H   UNL     1      28.306   7.485  31.059  1.00  0.00     0.345 HD
ENDBRANCH   1   2
BRANCH   1   6
ATOM      6  C   UNL     1      26.984   7.910  29.000  1.00  0.00     0.099 C 
ATOM      7  O   UNL     1      26.833   8.616  27.969  1.00  0.00    -0.544 OA
ATOM      8  O   UNL     1      26.134   8.098  30.084  1.00  0.00    -0.544 OA
ENDBRANCH   1   6
BRANCH   1   9
ATOM      9  C   UNL     1      29.314   7.365  28.189  1.00  0.00     0.047 C 
ATOM     10  C   UNL     1      30.644   7.447  28.957  1.00  0.00     0.014 C 
ATOM     11  C   UNL     1      29.477   6.486  26.940  1.00  0.00     0.014 C 
ENDBRANCH   1   9
TORSDOF 3
ENDMDL
MODEL 5
REMARK VINA RESULT:    -3.112      1.912      1.964
REMARK INTER + INTRA:          -3.616
REMARK INTER:                  -3.569
REMARK INTRA:                  -0.047
REMARK UNBOUND:                -0.049
REMARK SMILES CC(C)[C@@H]([NH3+])C(=O)[O-]
REMARK SMILES IDX 4 1 5 2 6 6 7 7 8 8 2 9 1 10 3 11
REMARK H PARENT 5 3 5 4 5 5
REMARK Flexibility Score: inf
ROOT
ATOM      1  C   UNL     1      28.159   6.869  27.997  1.00  0.00     0.230 C 
ENDROOT
BRANCH   1   2
ATOM      2  N   UNL     1      27.610   6.227  29.202  1.00  0.00    -0.350 N 
ATOM      3  H   UNL     1      27.584   5.188  29.103  1.00  0.00     0.345 HD
ATOM      4  H   UNL     1      28.209   6.467  30.026  1.00  0.00     0.345 HD
ATOM      5  H   UNL     1      26.648   6.582  29.398  1.00  0.00     0.345 HD
ENDBRANCH   1   2
BRANCH   1   6
ATOM      6  C   UNL     1      29.331   7.752  28.348  1.00  0.00     0.099 C 
ATOM      7  O   UNL     1      30.289   7.287  29.020  1.00  0.00    -0.544 OA
ATOM      8  O   UNL     1      29.346   9.093  27.979  1.00  0.00    -0.544 OA
ENDBRANCH   1   6
BRANCH   1   9
ATOM      9  C   UNL     1      28.546   5.847  26.885  1.00  0.00     0.047 C 
ATOM     10  C   UNL     1      27.359   5.014  26.374  1.00  0.00     0.014 C 
ATOM     11  C   UNL     1      29.264   6.524  25.709  1.00  0.00     0.014 C 
ENDBRANCH   1   9
TORSDOF 3
ENDMDL
MODEL 6
REMARK VINA RESULT:    -3.072      2.424      3.392
REMARK INTER + INTRA:          -3.570
REMARK INTER:                  -3.523
REMARK INTRA:                  -0.047
REMARK UNBOUND:                -0.049
REMARK SMILES CC(C)[C@@H]([NH3+])C(=O)[O-]
REMARK SMILES IDX 4 1 5 2 6 6 7 7 8 8 2 9 1 10 3 11
REMARK H PARENT 5 3 5 4 5 5
REMARK Flexibility Score: inf
ROOT
ATOM      1  C   UNL     1      27.916   7.557  28.966  1.00  0.00     0.230 C 
ENDROOT
BRANCH   1   2
ATOM      2  N   UNL     1      27.496   6.776  30.140  1.00  0.00    -0.350 N 
ATOM      3  H   UNL     1      26.865   5.988  29.869  1.00  0.00     0.345 HD
ATOM      4  H   UNL     1      28.340   6.376  30.611  1.00  0.00     0.345 HD
ATOM      5  H   UNL     1      27.009   7.388  30.831  1.00  0.00     0.345 HD
ENDBRANCH   1   2
BRANCH   1   6
ATOM      6  C   UNL     1      28.293   6.645  27.824  1.00  0.00     0.099 C 
ATOM      7  O   UNL     1      29.273   6.932  27.088  1.00  0.00    -0.544 OA
ATOM      8  O   UNL     1      27.538   5.512  27.541  1.00  0.00    -0.544 OA
ENDBRANCH   1   6
BRANCH   1   9
ATOM      9  C   UNL     1      26.850   8.601  28.516  1.00  0.00     0.047 C 
ATOM     10  C   UNL     1      25.816   8.935  29.604  1.00  0.00     0.014 C 
ATOM     11  C   UNL     1      27.497   9.889  27.987  1.00  0.00     0.014 C 
ENDBRANCH   1   9
TORSDOF 3
ENDMDL
MODEL 7
REMARK VINA RESULT:    -3.029      1.324      2.047
REMARK INTER + INTRA:          -3.520
REMARK INTER:                  -3.463
REMARK INTRA:                  -0.057
REMARK UNBOUND:                -0.049
REMARK SMILES CC(C)[C@@H]([NH3+])C(=O)[O-]
REMARK SMILES IDX 4 1 5 2 6 6 7 7 8 8 2 9 1 10 3 11
REMARK H PARENT 5 3 5 4 5 5
REMARK Flexibility Score: inf
ROOT
ATOM      1  C   UNL     1      28.085   6.984  28.209  1.00  0.00     0.230 C 
ENDROOT
BRANCH   1   2
ATOM      2  N   UNL     1      27.463   5.792  27.611  1.00  0.00    -0.350 N 
ATOM      3  H   UNL     1      28.081   5.360  26.888  1.00  0.00     0.345 HD
ATOM      4  H   UNL     1      27.282   5.083  28.358  1.00  0.00     0.345 HD
ATOM      5  H   UNL     1      26.544   6.038  27.180  1.00  0.00     0.345 HD
ENDBRANCH   1   2
BRANCH   1   6
ATOM      6  C   UNL     1      27.893   6.993  29.706  1.00  0.00     0.099 C 
ATOM      7  O   UNL     1      26.760   7.248  30.192  1.00  0.00    -0.544 OA
ATOM      8  O   UNL     1      28.966   6.771  30.561  1.00  0.00    -0.544 OA
ENDBRANCH   1   6
BRANCH   1   9
ATOM      9  C   UNL     1      29.592   7.134  27.841  1.00  0.00     0.047 C 
ATOM     10  C   UNL     1      30.009   6.318  26.605  1.00  0.00     0.014 C 
ATOM     11  C   UNL     1      29.996   8.605  27.666  1.00  0.00     0.014 C 
ENDBRANCH   1   9
TORSDOF 3
ENDMDL
MODEL 8
REMARK VINA RESULT:    -2.985      2.233      3.375
REMARK INTER + INTRA:          -3.471
REMARK INTER:                  -3.420
REMARK INTRA:                  -0.051
REMARK UNBOUND:                -0.049
REMARK SMILES CC(C)[C@@H]([NH3+])C(=O)[O-]
REMARK SMILES IDX 4 1 5 2 6 6 7 7 8 8 2 9 1 10 3 11
REMARK H PARENT 5 3 5 4 5 5
REMARK Flexibility Score: inf
ROOT
ATOM      1  C   UNL     1      27.702   7.141  27.803  1.00  0.00     0.230 C 
ENDROOT
BRANCH   1   2
ATOM      2  N   UNL     1      28.521   8.338  27.555  1.00  0.00    -0.350 N 
ATOM      3  H   UNL     1      28.144   8.901  26.760  1.00  0.00     0.345 HD
ATOM      4  H   UNL     1      28.526   8.938  28.412  1.00  0.00     0.345 HD
ATOM      5  H   UNL     1      29.509   8.069  27.353  1.00  0.00     0.345 HD
ENDBRANCH   1   2
BRANCH   1   6
ATOM      6  C   UNL     1      28.207   5.970  26.995  1.00  0.00     0.099 C 
ATOM      7  O   UNL     1      29.405   5.945  26.608  1.00  0.00    -0.544 OA
ATOM      8  O   UNL     1      27.351   4.938  26.630  1.00  0.00    -0.544 OA
ENDBRANCH   1   6
BRANCH   1   9
ATOM      9  C   UNL     1      27.604   6.772  29.315  1.00  0.00     0.047 C 
ATOM     10  C   UNL     1      28.955   6.817  30.048  1.00  0.00     0.014 C 
ATOM     11  C   UNL     1      26.573   7.639  30.051  1.00  0.00     0.014 C 
ENDBRANCH   1   9
TORSDOF 3
ENDMDL
MODEL 9
REMARK VINA RESULT:    -2.965      1.993      3.286
REMARK INTER + INTRA:          -3.447
REMARK INTER:                  -3.388
REMARK INTRA:                  -0.059
REMARK UNBOUND:                -0.049
REMARK SMILES CC(C)[C@@H]([NH3+])C(=O)[O-]
REMARK SMILES IDX 4 1 5 2 6 6 7 7 8 8 2 9 1 10 3 11
REMARK H PARENT 5 3 5 4 5 5
REMARK Flexibility Score: inf
ROOT
ATOM      1  C   UNL     1      27.743   6.729  27.745  1.00  0.00     0.230 C 
ENDROOT
BRANCH   1   2
ATOM      2  N   UNL     1      26.942   6.787  26.512  1.00  0.00    -0.350 N 
ATOM      3  H   UNL     1      27.544   6.718  25.661  1.00  0.00     0.345 HD
ATOM      4  H   UNL     1      26.263   5.991  26.502  1.00  0.00     0.345 HD
ATOM      5  H   UNL     1      26.390   7.673  26.477  1.00  0.00     0.345 HD
ENDBRANCH   1   2
BRANCH   1   6
ATOM      6  C   UNL     1      29.217   6.667  27.422  1.00  0.00     0.099 C 
ATOM      7  O   UNL     1      29.620   5.955  26.465  1.00  0.00    -0.544 OA
ATOM      8  O   UNL     1      30.144   7.349  28.202  1.00  0.00    -0.544 OA
ENDBRANCH   1   6
BRANCH   1   9
ATOM      9  C   UNL     1      27.438   7.902  28.725  1.00  0.00     0.047 C 
ATOM     10  C   UNL     1      26.538   8.993  28.120  1.00  0.00     0.014 C 
ATOM     11  C   UNL     1      26.847   7.402  30.051  1.00  0.00     0.014 C 
ENDBRANCH   1   9
TORSDOF 3
ENDMDL
