MODEL 1
REMARK VINA RESULT:     1.703      0.000      0.000
REMARK INTER + INTRA:           2.354
REMARK INTER:                   2.499
REMARK INTRA:                  -0.146
REMARK UNBOUND:                -0.146
REMARK SMILES CC(C)(O)CC[C@@H](O)[C@](C)(O)[C@@H]1CC[C@@]2(O)C3=CC(=O)[C@H]4C[C@@H](O)[C@H](O)C[C@]4(C)[C@H]3CC[C@@]12C
REMARK SMILES IDX 6 1 7 2 9 3 10 4 12 5 34 6 33 7 32 8 15 9 31 10 17 11 14 12
REMARK SMILES IDX 13 13 30 14 18 15 28 16 19 17 21 18 27 19 29 20 20 21 22 22
REMARK SMILES IDX 25 23 23 24 16 25 26 27 24 29 11 31 8 33 5 35 2 36 1 37 3 38
REMARK SMILES IDX 4 39
REMARK H PARENT 16 26 26 28 24 30 11 32 8 34 4 40
REMARK Flexibility Score: inf
ROOT
ATOM      1  C   UNL     1       7.510  18.431  73.865  1.00  0.00     0.038 C 
ENDROOT
BRANCH   1   2
ATOM      2  C   UNL     1       8.693  18.077  72.920  1.00  0.00     0.146 C 
BRANCH   2   3
ATOM      3  C   UNL     1       8.351  17.885  71.386  1.00  0.00     0.091 C 
ATOM      4  C   UNL     1       7.592  19.125  70.847  1.00  0.00     0.045 C 
BRANCH   3   5
ATOM      5  C   UNL     1       9.599  17.562  70.434  1.00  0.00     0.032 C 
ATOM      6  C   UNL     1       8.686  15.319  69.450  1.00  0.00     0.015 C 
ATOM      7  C   UNL     1       9.949  16.140  69.817  1.00  0.00     0.006 C 
ATOM      8  C   UNL     1      10.756  15.275  70.839  1.00  0.00     0.011 C 
ATOM      9  C   UNL     1      10.789  16.485  68.492  1.00  0.00     0.092 C 
ATOM     10  C   UNL     1      12.249  15.579  70.844  1.00  0.00     0.009 C 
ATOM     11  C   UNL     1      12.199  15.869  68.363  1.00  0.00    -0.031 C 
ATOM     12  C   UNL     1      10.948  18.014  68.507  1.00  0.00     0.041 C 
ATOM     13  C   UNL     1       9.755  18.540  69.274  1.00  0.00     0.010 C 
ATOM     14  C   UNL     1      12.858  15.120  69.513  1.00  0.00     0.025 C 
ATOM     15  C   UNL     1      12.842  15.971  67.181  1.00  0.00     0.050 C 
ATOM     16  C   UNL     1      14.434  15.200  69.476  1.00  0.00    -0.013 C 
ATOM     17  C   UNL     1      14.185  15.408  66.968  1.00  0.00     0.159 C 
ATOM     18  C   UNL     1      14.881  14.667  68.083  1.00  0.00     0.070 C 
ATOM     19  C   UNL     1      15.044  14.287  70.599  1.00  0.00     0.042 C 
ATOM     20  C   UNL     1      14.899  16.674  69.683  1.00  0.00     0.013 C 
ATOM     21  O   UNL     1      14.704  15.479  65.820  1.00  0.00    -0.295 OA
ATOM     22  C   UNL     1      16.419  14.652  67.905  1.00  0.00     0.047 C 
ATOM     23  C   UNL     1      16.354  13.528  70.252  1.00  0.00     0.143 C 
ATOM     24  C   UNL     1      17.217  14.192  69.150  1.00  0.00     0.143 C 
BRANCH   9  25
ATOM     25  O   UNL     1      10.043  16.171  67.331  1.00  0.00    -0.385 OA
ATOM     26  H   UNL     1      10.632  15.663  66.712  1.00  0.00     0.211 HD
ENDBRANCH   9  25
BRANCH  23  27
ATOM     27  O   UNL     1      16.094  12.177  69.951  1.00  0.00    -0.390 OA
ATOM     28  H   UNL     1      15.938  11.691  70.797  1.00  0.00     0.211 HD
ENDBRANCH  23  27
BRANCH  24  29
ATOM     29  O   UNL     1      17.919  15.288  69.686  1.00  0.00    -0.390 OA
ATOM     30  H   UNL     1      18.264  15.816  68.920  1.00  0.00     0.211 HD
ENDBRANCH  24  29
ENDBRANCH   3   5
BRANCH   3  31
ATOM     31  O   UNL     1       7.470  16.782  71.304  1.00  0.00    -0.387 OA
ATOM     32  H   UNL     1       6.871  16.899  70.520  1.00  0.00     0.211 HD
ENDBRANCH   3  31
ENDBRANCH   2   3
BRANCH   2  33
ATOM     33  O   UNL     1       9.414  16.994  73.452  1.00  0.00    -0.390 OA
ATOM     34  H   UNL     1       9.103  16.838  74.378  1.00  0.00     0.211 HD
ENDBRANCH   2  33
ENDBRANCH   1   2
BRANCH   1  35
ATOM     35  C   UNL     1       7.547  17.765  75.260  1.00  0.00     0.037 C 
BRANCH  35  36
ATOM     36  C   UNL     1       6.922  16.340  75.292  1.00  0.00     0.059 C 
ATOM     37  C   UNL     1       6.292  16.102  76.674  1.00  0.00     0.042 C 
ATOM     38  C   UNL     1       5.810  16.186  74.225  1.00  0.00     0.042 C 
BRANCH  36  39
ATOM     39  O   UNL     1       7.922  15.361  75.120  1.00  0.00    -0.390 OA
ATOM     40  H   UNL     1       7.508  14.545  74.735  1.00  0.00     0.211 HD
ENDBRANCH  36  39
ENDBRANCH  35  36
ENDBRANCH   1  35
TORSDOF 11
ENDMDL
MODEL 2
REMARK VINA RESULT:     3.678      2.570      8.477
REMARK INTER + INTRA:           5.252
REMARK INTER:                   5.502
REMARK INTRA:                  -0.250
REMARK UNBOUND:                -0.146
REMARK SMILES CC(C)(O)CC[C@@H](O)[C@](C)(O)[C@@H]1CC[C@@]2(O)C3=CC(=O)[C@H]4C[C@@H](O)[C@H](O)C[C@]4(C)[C@H]3CC[C@@]12C
REMARK SMILES IDX 6 1 7 2 9 3 10 4 12 5 34 6 33 7 32 8 15 9 31 10 17 11 14 12
REMARK SMILES IDX 13 13 30 14 18 15 28 16 19 17 21 18 27 19 29 20 20 21 22 22
REMARK SMILES IDX 25 23 23 24 16 25 26 27 24 29 11 31 8 33 5 35 2 36 1 37 3 38
REMARK SMILES IDX 4 39
REMARK H PARENT 16 26 26 28 24 30 11 32 8 34 4 40
REMARK Flexibility Score: inf
ROOT
ATOM      1  C   UNL     1      11.596  12.989  69.507  1.00  0.00     0.038 C 
ENDROOT
BRANCH   1   2
ATOM      2  C   UNL     1      12.157  14.196  68.701  1.00  0.00     0.146 C 
BRANCH   2   3
ATOM      3  C   UNL     1      12.254  15.581  69.462  1.00  0.00     0.091 C 
ATOM      4  C   UNL     1      12.800  16.677  68.511  1.00  0.00     0.045 C 
BRANCH   3   5
ATOM      5  C   UNL     1      10.898  16.090  70.148  1.00  0.00     0.032 C 
ATOM      6  C   UNL     1      11.864  18.284  71.190  1.00  0.00     0.015 C 
ATOM      7  C   UNL     1      10.798  17.165  71.313  1.00  0.00     0.006 C 
ATOM      8  C   UNL     1      11.021  16.496  72.708  1.00  0.00     0.011 C 
ATOM      9  C   UNL     1       9.324  17.785  71.147  1.00  0.00     0.092 C 
ATOM     10  C   UNL     1       9.765  15.844  73.275  1.00  0.00     0.009 C 
ATOM     11  C   UNL     1       8.383  17.720  72.370  1.00  0.00    -0.031 C 
ATOM     12  C   UNL     1       8.676  16.972  70.015  1.00  0.00     0.041 C 
ATOM     13  C   UNL     1       9.819  16.495  69.148  1.00  0.00     0.010 C 
ATOM     14  C   UNL     1       8.748  16.939  73.624  1.00  0.00     0.025 C 
ATOM     15  C   UNL     1       7.224  18.409  72.328  1.00  0.00     0.050 C 
ATOM     16  C   UNL     1       7.484  16.404  74.404  1.00  0.00    -0.013 C 
ATOM     17  C   UNL     1       6.271  18.407  73.450  1.00  0.00     0.159 C 
ATOM     18  C   UNL     1       6.585  17.638  74.710  1.00  0.00     0.070 C 
ATOM     19  C   UNL     1       7.929  15.741  75.757  1.00  0.00     0.042 C 
ATOM     20  C   UNL     1       6.720  15.362  73.532  1.00  0.00     0.013 C 
ATOM     21  O   UNL     1       5.236  19.125  73.375  1.00  0.00    -0.295 OA
ATOM     22  C   UNL     1       5.309  17.276  75.508  1.00  0.00     0.047 C 
ATOM     23  C   UNL     1       6.999  15.955  76.982  1.00  0.00     0.143 C 
ATOM     24  C   UNL     1       5.515  16.230  76.632  1.00  0.00     0.143 C 
BRANCH   9  25
ATOM     25  O   UNL     1       9.393  19.123  70.691  1.00  0.00    -0.385 OA
ATOM     26  H   UNL     1      10.179  19.205  70.088  1.00  0.00     0.211 HD
ENDBRANCH   9  25
BRANCH  23  27
ATOM     27  O   UNL     1       7.512  16.945  77.843  1.00  0.00    -0.390 OA
ATOM     28  H   UNL     1       6.771  17.297  78.395  1.00  0.00     0.211 HD
ENDBRANCH  23  27
BRANCH  24  29
ATOM     29  O   UNL     1       4.875  15.029  76.276  1.00  0.00    -0.390 OA
ATOM     30  H   UNL     1       3.898  15.202  76.294  1.00  0.00     0.211 HD
ENDBRANCH  24  29
ENDBRANCH   3   5
BRANCH   3  31
ATOM     31  O   UNL     1      13.203  15.408  70.496  1.00  0.00    -0.387 OA
ATOM     32  H   UNL     1      13.478  14.454  70.533  1.00  0.00     0.211 HD
ENDBRANCH   3  31
ENDBRANCH   2   3
BRANCH   2  33
ATOM     33  O   UNL     1      11.479  14.301  67.475  1.00  0.00    -0.390 OA
ATOM     34  H   UNL     1      10.612  14.750  67.636  1.00  0.00     0.211 HD
ENDBRANCH   2  33
ENDBRANCH   1   2
BRANCH   1  35
ATOM     35  C   UNL     1      11.344  11.701  68.690  1.00  0.00     0.037 C 
BRANCH  35  36
ATOM     36  C   UNL     1       9.929  11.632  68.045  1.00  0.00     0.059 C 
ATOM     37  C   UNL     1       9.274  10.293  68.416  1.00  0.00     0.042 C 
ATOM     38  C   UNL     1       9.017  12.772  68.561  1.00  0.00     0.042 C 
BRANCH  36  39
ATOM     39  O   UNL     1      10.029  11.667  66.638  1.00  0.00    -0.390 OA
ATOM     40  H   UNL     1       9.145  11.436  66.249  1.00  0.00     0.211 HD
ENDBRANCH  36  39
ENDBRANCH  35  36
ENDBRANCH   1  35
TORSDOF 11
ENDMDL
MODEL 3
REMARK VINA RESULT:     4.057      2.589      8.950
REMARK INTER + INTRA:           5.809
REMARK INTER:                   5.958
REMARK INTRA:                  -0.149
REMARK UNBOUND:                -0.146
REMARK SMILES CC(C)(O)CC[C@@H](O)[C@](C)(O)[C@@H]1CC[C@@]2(O)C3=CC(=O)[C@H]4C[C@@H](O)[C@H](O)C[C@]4(C)[C@H]3CC[C@@]12C
REMARK SMILES IDX 6 1 7 2 9 3 10 4 12 5 34 6 33 7 32 8 15 9 31 10 17 11 14 12
REMARK SMILES IDX 13 13 30 14 18 15 28 16 19 17 21 18 27 19 29 20 20 21 22 22
REMARK SMILES IDX 25 23 23 24 16 25 26 27 24 29 11 31 8 33 5 35 2 36 1 37 3 38
REMARK SMILES IDX 4 39
REMARK H PARENT 16 26 26 28 24 30 11 32 8 34 4 40
REMARK Flexibility Score: inf
ROOT
ATOM      1  C   UNL     1      13.298  15.670  65.905  1.00  0.00     0.038 C 
ENDROOT
BRANCH   1   2
ATOM      2  C   UNL     1      12.843  17.148  66.065  1.00  0.00     0.146 C 
BRANCH   2   3
ATOM      3  C   UNL     1      11.364  17.391  66.575  1.00  0.00     0.091 C 
ATOM      4  C   UNL     1      10.380  16.452  65.831  1.00  0.00     0.045 C 
BRANCH   3   5
ATOM      5  C   UNL     1      11.147  17.255  68.157  1.00  0.00     0.032 C 
ATOM      6  C   UNL     1      10.560  14.708  68.187  1.00  0.00     0.015 C 
ATOM      7  C   UNL     1      10.367  16.078  68.886  1.00  0.00     0.006 C 
ATOM      8  C   UNL     1       8.828  16.354  68.896  1.00  0.00     0.011 C 
ATOM      9  C   UNL     1      11.004  16.041  70.360  1.00  0.00     0.092 C 
ATOM     10  C   UNL     1       8.386  17.275  70.028  1.00  0.00     0.009 C 
ATOM     11  C   UNL     1      10.039  16.191  71.556  1.00  0.00    -0.031 C 
ATOM     12  C   UNL     1      11.984  17.226  70.400  1.00  0.00     0.041 C 
ATOM     13  C   UNL     1      12.424  17.439  68.970  1.00  0.00     0.010 C 
ATOM     14  C   UNL     1       8.572  16.547  71.366  1.00  0.00     0.025 C 
ATOM     15  C   UNL     1      10.512  15.959  72.799  1.00  0.00     0.050 C 
ATOM     16  C   UNL     1       7.963  17.323  72.599  1.00  0.00    -0.013 C 
ATOM     17  C   UNL     1       9.661  16.073  73.994  1.00  0.00     0.159 C 
ATOM     18  C   UNL     1       8.203  16.435  73.855  1.00  0.00     0.070 C 
ATOM     19  C   UNL     1       6.418  17.525  72.395  1.00  0.00     0.042 C 
ATOM     20  C   UNL     1       8.660  18.708  72.755  1.00  0.00     0.013 C 
ATOM     21  O   UNL     1      10.147  15.780  75.122  1.00  0.00    -0.295 OA
ATOM     22  C   UNL     1       7.626  17.052  75.152  1.00  0.00     0.047 C 
ATOM     23  C   UNL     1       5.524  17.413  73.660  1.00  0.00     0.143 C 
ATOM     24  C   UNL     1       6.243  17.732  74.995  1.00  0.00     0.143 C 
BRANCH   9  25
ATOM     25  O   UNL     1      11.782  14.872  70.540  1.00  0.00    -0.385 OA
ATOM     26  H   UNL     1      11.268  14.101  70.181  1.00  0.00     0.211 HD
ENDBRANCH   9  25
BRANCH  23  27
ATOM     27  O   UNL     1       4.876  16.163  73.716  1.00  0.00    -0.390 OA
ATOM     28  H   UNL     1       3.976  16.293  74.103  1.00  0.00     0.211 HD
ENDBRANCH  23  27
BRANCH  24  29
ATOM     29  O   UNL     1       6.386  19.124  75.142  1.00  0.00    -0.390 OA
ATOM     30  H   UNL     1       5.482  19.522  75.048  1.00  0.00     0.211 HD
ENDBRANCH  24  29
ENDBRANCH   3   5
BRANCH   3  31
ATOM     31  O   UNL     1      11.028  18.719  66.222  1.00  0.00    -0.387 OA
ATOM     32  H   UNL     1      10.887  18.771  65.240  1.00  0.00     0.211 HD
ENDBRANCH   3  31
ENDBRANCH   2   3
BRANCH   2  33
ATOM     33  O   UNL     1      13.130  17.860  64.887  1.00  0.00    -0.390 OA
ATOM     34  H   UNL     1      12.989  17.256  64.116  1.00  0.00     0.211 HD
ENDBRANCH   2  33
ENDBRANCH   1   2
BRANCH   1  35
ATOM     35  C   UNL     1      14.811  15.413  66.094  1.00  0.00     0.037 C 
BRANCH  35  36
ATOM     36  C   UNL     1      15.587  15.222  64.758  1.00  0.00     0.059 C 
ATOM     37  C   UNL     1      16.002  16.600  64.220  1.00  0.00     0.042 C 
ATOM     38  C   UNL     1      16.871  14.381  64.966  1.00  0.00     0.042 C 
BRANCH  36  39
ATOM     39  O   UNL     1      14.754  14.632  63.786  1.00  0.00    -0.390 OA
ATOM     40  H   UNL     1      13.807  14.819  64.020  1.00  0.00     0.211 HD
ENDBRANCH  36  39
ENDBRANCH  35  36
ENDBRANCH   1  35
TORSDOF 11
ENDMDL
MODEL 4
REMARK VINA RESULT:     4.491      1.892      8.826
REMARK INTER + INTRA:           6.445
REMARK INTER:                   6.296
REMARK INTRA:                   0.149
REMARK UNBOUND:                -0.146
REMARK SMILES CC(C)(O)CC[C@@H](O)[C@](C)(O)[C@@H]1CC[C@@]2(O)C3=CC(=O)[C@H]4C[C@@H](O)[C@H](O)C[C@]4(C)[C@H]3CC[C@@]12C
REMARK SMILES IDX 6 1 7 2 9 3 10 4 12 5 34 6 33 7 32 8 15 9 31 10 17 11 14 12
REMARK SMILES IDX 13 13 30 14 18 15 28 16 19 17 21 18 27 19 29 20 20 21 22 22
REMARK SMILES IDX 25 23 23 24 16 25 26 27 24 29 11 31 8 33 5 35 2 36 1 37 3 38
REMARK SMILES IDX 4 39
REMARK H PARENT 16 26 26 28 24 30 11 32 8 34 4 40
REMARK Flexibility Score: inf
ROOT
ATOM      1  C   UNL     1      14.532  14.516  70.282  1.00  0.00     0.038 C 
ENDROOT
BRANCH   1   2
ATOM      2  C   UNL     1      13.079  13.990  70.109  1.00  0.00     0.146 C 
BRANCH   2   3
ATOM      3  C   UNL     1      12.108  14.853  69.204  1.00  0.00     0.091 C 
ATOM      4  C   UNL     1      11.613  14.013  67.998  1.00  0.00     0.045 C 
BRANCH   3   5
ATOM      5  C   UNL     1      10.853  15.503  69.959  1.00  0.00     0.032 C 
ATOM      6  C   UNL     1      12.102  17.583  70.934  1.00  0.00     0.015 C 
ATOM      7  C   UNL     1      10.931  16.584  71.121  1.00  0.00     0.006 C 
ATOM      8  C   UNL     1      11.157  15.895  72.506  1.00  0.00     0.011 C 
ATOM      9  C   UNL     1       9.525  17.356  71.031  1.00  0.00     0.092 C 
ATOM     10  C   UNL     1       9.872  15.380  73.143  1.00  0.00     0.009 C 
ATOM     11  C   UNL     1       8.650  17.392  72.303  1.00  0.00    -0.031 C 
ATOM     12  C   UNL     1       8.733  16.617  69.940  1.00  0.00     0.041 C 
ATOM     13  C   UNL     1       9.771  16.021  69.016  1.00  0.00     0.010 C 
ATOM     14  C   UNL     1       8.997  16.577  73.541  1.00  0.00     0.025 C 
ATOM     15  C   UNL     1       7.570  18.200  72.320  1.00  0.00     0.050 C 
ATOM     16  C   UNL     1       7.728  16.180  74.391  1.00  0.00    -0.013 C 
ATOM     17  C   UNL     1       6.684  18.300  73.492  1.00  0.00     0.159 C 
ATOM     18  C   UNL     1       6.984  17.503  74.737  1.00  0.00     0.070 C 
ATOM     19  C   UNL     1       8.173  15.473  75.722  1.00  0.00     0.042 C 
ATOM     20  C   UNL     1       6.812  15.224  73.568  1.00  0.00     0.013 C 
ATOM     21  O   UNL     1       5.729  19.124  73.468  1.00  0.00    -0.295 OA
ATOM     22  C   UNL     1       5.721  17.278  75.605  1.00  0.00     0.047 C 
ATOM     23  C   UNL     1       7.339  15.786  76.994  1.00  0.00     0.143 C 
ATOM     24  C   UNL     1       5.876  16.217  76.723  1.00  0.00     0.143 C 
BRANCH   9  25
ATOM     25  O   UNL     1       9.710  18.680  70.564  1.00  0.00    -0.385 OA
ATOM     26  H   UNL     1       8.893  19.202  70.783  1.00  0.00     0.211 HD
ENDBRANCH   9  25
BRANCH  23  27
ATOM     27  O   UNL     1       8.000  16.715  77.820  1.00  0.00    -0.390 OA
ATOM     28  H   UNL     1       8.935  16.801  77.512  1.00  0.00     0.211 HD
ENDBRANCH  23  27
BRANCH  24  29
ATOM     29  O   UNL     1       5.094  15.090  76.409  1.00  0.00    -0.390 OA
ATOM     30  H   UNL     1       4.154  15.400  76.335  1.00  0.00     0.211 HD
ENDBRANCH  24  29
ENDBRANCH   3   5
BRANCH   3  31
ATOM     31  O   UNL     1      12.880  15.919  68.686  1.00  0.00    -0.387 OA
ATOM     32  H   UNL     1      13.331  16.391  69.436  1.00  0.00     0.211 HD
ENDBRANCH   3  31
ENDBRANCH   2   3
BRANCH   2  33
ATOM     33  O   UNL     1      12.528  13.705  71.371  1.00  0.00    -0.390 OA
ATOM     34  H   UNL     1      12.745  14.452  71.982  1.00  0.00     0.211 HD
ENDBRANCH   2  33
ENDBRANCH   1   2
BRANCH   1  35
ATOM     35  C   UNL     1      15.557  13.996  69.247  1.00  0.00     0.037 C 
BRANCH  35  36
ATOM     36  C   UNL     1      16.996  13.828  69.817  1.00  0.00     0.059 C 
ATOM     37  C   UNL     1      17.644  12.589  69.181  1.00  0.00     0.042 C 
ATOM     38  C   UNL     1      17.881  15.055  69.489  1.00  0.00     0.042 C 
BRANCH  36  39
ATOM     39  O   UNL     1      16.949  13.602  71.209  1.00  0.00    -0.390 OA
ATOM     40  H   UNL     1      17.499  12.803  71.422  1.00  0.00     0.211 HD
ENDBRANCH  36  39
ENDBRANCH  35  36
ENDBRANCH   1  35
TORSDOF 11
ENDMDL
