MODEL 1
REMARK VINA RESULT:    -0.356      0.000      0.000
REMARK INTER + INTRA:          -0.439
REMARK INTER:                  -0.398
REMARK INTRA:                  -0.041
REMARK UNBOUND:                -0.041
REMARK SMILES O=C([O-])c1ccc(O)c(O)c1
REMARK SMILES IDX 4 1 11 2 5 3 9 4 6 5 7 6 2 7 1 8 3 9 10 10 8 12
REMARK H PARENT 10 11 8 13
REMARK Flexibility Score: inf
ROOT
ATOM      1  C   UNL     1      47.470  43.231  -6.964  1.00  0.00     0.001 A 
ATOM      2  C   UNL     1      47.638  42.095  -7.778  1.00  0.00     0.060 A 
ATOM      3  C   UNL     1      47.102  44.448  -7.562  1.00  0.00     0.014 A 
ATOM      4  C   UNL     1      47.441  42.175  -9.164  1.00  0.00     0.158 A 
ATOM      5  C   UNL     1      46.906  44.529  -8.943  1.00  0.00     0.051 A 
ATOM      6  C   UNL     1      47.074  43.394  -9.747  1.00  0.00     0.157 A 
ENDROOT
BRANCH   1   7
ATOM      7  C   UNL     1      47.677  43.149  -5.501  1.00  0.00     0.072 C 
ATOM      8  O   UNL     1      48.571  42.402  -5.021  1.00  0.00    -0.545 OA
ATOM      9  O   UNL     1      46.887  43.897  -4.635  1.00  0.00    -0.545 OA
ENDBRANCH   1   7
BRANCH   4  10
ATOM     10  O   UNL     1      47.607  41.049  -9.967  1.00  0.00    -0.504 OA
ATOM     11  H   UNL     1      47.817  41.128 -10.956  1.00  0.00     0.293 HD
ENDBRANCH   4  10
BRANCH   6  12
ATOM     12  O   UNL     1      46.879  43.470 -11.125  1.00  0.00    -0.504 OA
ATOM     13  H   UNL     1      46.770  44.361 -11.596  1.00  0.00     0.293 HD
ENDBRANCH   6  12
TORSDOF 3
ENDMDL
MODEL 2
REMARK VINA RESULT:    -0.162      1.073      4.573
REMARK INTER + INTRA:          -0.222
REMARK INTER:                  -0.178
REMARK INTRA:                  -0.044
REMARK UNBOUND:                -0.041
REMARK SMILES O=C([O-])c1ccc(O)c(O)c1
REMARK SMILES IDX 4 1 11 2 5 3 9 4 6 5 7 6 2 7 1 8 3 9 10 10 8 12
REMARK H PARENT 10 11 8 13
REMARK Flexibility Score: inf
ROOT
ATOM      1  C   UNL     1      47.120  42.389  -8.554  1.00  0.00     0.001 A 
ATOM      2  C   UNL     1      46.958  43.706  -8.089  1.00  0.00     0.060 A 
ATOM      3  C   UNL     1      47.430  41.374  -7.633  1.00  0.00     0.014 A 
ATOM      4  C   UNL     1      47.103  44.004  -6.725  1.00  0.00     0.158 A 
ATOM      5  C   UNL     1      47.575  41.669  -6.276  1.00  0.00     0.051 A 
ATOM      6  C   UNL     1      47.412  42.983  -5.818  1.00  0.00     0.157 A 
ENDROOT
BRANCH   1   7
ATOM      7  C   UNL     1      46.967  42.072  -9.992  1.00  0.00     0.072 C 
ATOM      8  O   UNL     1      46.916  40.876 -10.384  1.00  0.00    -0.545 OA
ATOM      9  O   UNL     1      46.876  43.093 -10.932  1.00  0.00    -0.545 OA
ENDBRANCH   1   7
BRANCH   4  10
ATOM     10  O   UNL     1      46.942  45.310  -6.267  1.00  0.00    -0.504 OA
ATOM     11  H   UNL     1      46.608  46.049  -6.875  1.00  0.00     0.293 HD
ENDBRANCH   4  10
BRANCH   6  12
ATOM     12  O   UNL     1      47.556  43.282  -4.464  1.00  0.00    -0.504 OA
ATOM     13  H   UNL     1      48.016  42.643  -3.827  1.00  0.00     0.293 HD
ENDBRANCH   6  12
TORSDOF 3
ENDMDL
MODEL 3
REMARK VINA RESULT:     0.179      0.833      2.010
REMARK INTER + INTRA:           0.159
REMARK INTER:                   0.198
REMARK INTRA:                  -0.039
REMARK UNBOUND:                -0.041
REMARK SMILES O=C([O-])c1ccc(O)c(O)c1
REMARK SMILES IDX 4 1 11 2 5 3 9 4 6 5 7 6 2 7 1 8 3 9 10 10 8 12
REMARK H PARENT 10 11 8 13
REMARK Flexibility Score: inf
ROOT
ATOM      1  C   UNL     1      47.580  43.193  -6.746  1.00  0.00     0.001 A 
ATOM      2  C   UNL     1      47.344  44.354  -7.505  1.00  0.00     0.060 A 
ATOM      3  C   UNL     1      47.577  41.944  -7.391  1.00  0.00     0.014 A 
ATOM      4  C   UNL     1      47.110  44.267  -8.886  1.00  0.00     0.158 A 
ATOM      5  C   UNL     1      47.343  41.858  -8.765  1.00  0.00     0.051 A 
ATOM      6  C   UNL     1      47.110  43.017  -9.516  1.00  0.00     0.157 A 
ENDROOT
BRANCH   1   7
ATOM      7  C   UNL     1      47.827  43.282  -5.289  1.00  0.00     0.072 C 
ATOM      8  O   UNL     1      48.858  42.765  -4.781  1.00  0.00    -0.545 OA
ATOM      9  O   UNL     1      46.924  43.938  -4.460  1.00  0.00    -0.545 OA
ENDBRANCH   1   7
BRANCH   4  10
ATOM     10  O   UNL     1      46.877  45.418  -9.636  1.00  0.00    -0.504 OA
ATOM     11  H   UNL     1      46.136  45.461 -10.327  1.00  0.00     0.293 HD
ENDBRANCH   4  10
BRANCH   6  12
ATOM     12  O   UNL     1      46.877  42.935 -10.888  1.00  0.00    -0.504 OA
ATOM     13  H   UNL     1      47.331  42.233 -11.461  1.00  0.00     0.293 HD
ENDBRANCH   6  12
TORSDOF 3
ENDMDL
MODEL 4
REMARK VINA RESULT:     1.751      1.494      4.269
REMARK INTER + INTRA:           1.914
REMARK INTER:                   1.959
REMARK INTRA:                  -0.044
REMARK UNBOUND:                -0.041
REMARK SMILES O=C([O-])c1ccc(O)c(O)c1
REMARK SMILES IDX 4 1 11 2 5 3 9 4 6 5 7 6 2 7 1 8 3 9 10 10 8 12
REMARK H PARENT 10 11 8 13
REMARK Flexibility Score: inf
ROOT
ATOM      1  C   UNL     1      47.043  44.057  -8.861  1.00  0.00     0.001 A 
ATOM      2  C   UNL     1      47.259  44.307  -7.494  1.00  0.00     0.060 A 
ATOM      3  C   UNL     1      46.905  42.729  -9.298  1.00  0.00     0.014 A 
ATOM      4  C   UNL     1      47.335  43.246  -6.579  1.00  0.00     0.158 A 
ATOM      5  C   UNL     1      46.981  41.672  -8.387  1.00  0.00     0.051 A 
ATOM      6  C   UNL     1      47.194  41.928  -7.027  1.00  0.00     0.157 A 
ENDROOT
BRANCH   1   7
ATOM      7  C   UNL     1      46.963  45.174  -9.829  1.00  0.00     0.072 C 
ATOM      8  O   UNL     1      46.880  44.947 -11.065  1.00  0.00    -0.545 OA
ATOM      9  O   UNL     1      46.977  46.492  -9.386  1.00  0.00    -0.545 OA
ENDBRANCH   1   7
BRANCH   4  10
ATOM     10  O   UNL     1      47.548  43.496  -5.224  1.00  0.00    -0.504 OA
ATOM     11  H   UNL     1      46.835  43.924  -4.645  1.00  0.00     0.293 HD
ENDBRANCH   4  10
BRANCH   6  12
ATOM     12  O   UNL     1      47.270  40.876  -6.115  1.00  0.00    -0.504 OA
ATOM     13  H   UNL     1      46.899  40.961  -5.176  1.00  0.00     0.293 HD
ENDBRANCH   6  12
TORSDOF 3
ENDMDL
