MODEL 1
REMARK VINA RESULT:    -2.452      0.000      0.000
REMARK INTER + INTRA:          -2.452
REMARK INTER:                  -2.452
REMARK INTRA:                   0.000
REMARK UNBOUND:                 0.000
REMARK SMILES CC(=O)[O-]
REMARK SMILES IDX 1 1 2 2 3 3 4 4
REMARK H PARENT
REMARK Flexibility Score: inf
ROOT
ATOM      1  C   UNL     1       7.614  25.795 107.018  1.00  0.00     0.063 C 
ATOM      2  C   UNL     1       6.684  26.557 107.900  1.00  0.00     0.038 C 
ATOM      3  O   UNL     1       5.606  27.012 107.436  1.00  0.00    -0.550 OA
ATOM      4  O   UNL     1       6.978  26.719 109.247  1.00  0.00    -0.550 OA
ENDROOT
TORSDOF 0
ENDMDL
MODEL 2
REMARK VINA RESULT:    -2.382      2.725      3.391
REMARK INTER + INTRA:          -2.382
REMARK INTER:                  -2.382
REMARK INTRA:                   0.000
REMARK UNBOUND:                 0.000
REMARK SMILES CC(=O)[O-]
REMARK SMILES IDX 1 1 2 2 3 3 4 4
REMARK H PARENT
REMARK Flexibility Score: inf
ROOT
ATOM      1  C   UNL     1       7.798  25.842 109.229  1.00  0.00     0.063 C 
ATOM      2  C   UNL     1       8.031  26.303 110.628  1.00  0.00     0.038 C 
ATOM      3  O   UNL     1       8.722  25.605 111.415  1.00  0.00    -0.550 OA
ATOM      4  O   UNL     1       7.533  27.529 111.050  1.00  0.00    -0.550 OA
ENDROOT
TORSDOF 0
ENDMDL
MODEL 3
REMARK VINA RESULT:    -2.367      1.089      1.803
REMARK INTER + INTRA:          -2.367
REMARK INTER:                  -2.367
REMARK INTRA:                   0.000
REMARK UNBOUND:                 0.000
REMARK SMILES CC(=O)[O-]
REMARK SMILES IDX 1 1 2 2 3 3 4 4
REMARK H PARENT
REMARK Flexibility Score: inf
ROOT
ATOM      1  C   UNL     1       7.255  26.040 106.909  1.00  0.00     0.063 C 
ATOM      2  C   UNL     1       7.263  26.097 108.400  1.00  0.00     0.038 C 
ATOM      3  O   UNL     1       8.227  25.608 109.044  1.00  0.00    -0.550 OA
ATOM      4  O   UNL     1       6.235  26.738 109.077  1.00  0.00    -0.550 OA
ENDROOT
TORSDOF 0
ENDMDL
MODEL 4
REMARK VINA RESULT:    -2.363      2.522      3.207
REMARK INTER + INTRA:          -2.363
REMARK INTER:                  -2.363
REMARK INTRA:                   0.000
REMARK UNBOUND:                 0.000
REMARK SMILES CC(=O)[O-]
REMARK SMILES IDX 1 1 2 2 3 3 4 4
REMARK H PARENT
REMARK Flexibility Score: inf
ROOT
ATOM      1  C   UNL     1       8.268  25.553 110.839  1.00  0.00     0.063 C 
ATOM      2  C   UNL     1       7.429  26.741 110.509  1.00  0.00     0.038 C 
ATOM      3  O   UNL     1       7.422  27.740 111.274  1.00  0.00    -0.550 OA
ATOM      4  O   UNL     1       6.695  26.769 109.331  1.00  0.00    -0.550 OA
ENDROOT
TORSDOF 0
ENDMDL
MODEL 5
REMARK VINA RESULT:    -2.262      7.997      8.521
REMARK INTER + INTRA:          -2.262
REMARK INTER:                  -2.262
REMARK INTRA:                   0.000
REMARK UNBOUND:                 0.000
REMARK SMILES CC(=O)[O-]
REMARK SMILES IDX 1 1 2 2 3 3 4 4
REMARK H PARENT
REMARK Flexibility Score: inf
ROOT
ATOM      1  C   UNL     1       5.974  31.590 113.886  1.00  0.00     0.063 C 
ATOM      2  C   UNL     1       7.381  31.825 114.319  1.00  0.00     0.038 C 
ATOM      3  O   UNL     1       8.324  31.696 113.495  1.00  0.00    -0.550 OA
ATOM      4  O   UNL     1       7.651  32.239 115.617  1.00  0.00    -0.550 OA
ENDROOT
TORSDOF 0
ENDMDL
MODEL 6
REMARK VINA RESULT:    -2.230      8.410      8.942
REMARK INTER + INTRA:          -2.230
REMARK INTER:                  -2.230
REMARK INTRA:                   0.000
REMARK UNBOUND:                 0.000
REMARK SMILES CC(=O)[O-]
REMARK SMILES IDX 1 1 2 2 3 3 4 4
REMARK H PARENT
REMARK Flexibility Score: inf
ROOT
ATOM      1  C   UNL     1       7.340  33.008 115.546  1.00  0.00     0.063 C 
ATOM      2  C   UNL     1       7.521  31.766 114.740  1.00  0.00     0.038 C 
ATOM      3  O   UNL     1       7.001  30.685 115.123  1.00  0.00    -0.550 OA
ATOM      4  O   UNL     1       8.217  31.810 113.540  1.00  0.00    -0.550 OA
ENDROOT
TORSDOF 0
ENDMDL
MODEL 7
REMARK VINA RESULT:    -2.193      3.543      4.060
REMARK INTER + INTRA:          -2.193
REMARK INTER:                  -2.193
REMARK INTRA:                   0.000
REMARK UNBOUND:                 0.000
REMARK SMILES CC(=O)[O-]
REMARK SMILES IDX 1 1 2 2 3 3 4 4
REMARK H PARENT
REMARK Flexibility Score: inf
ROOT
ATOM      1  C   UNL     1       3.200  25.833 110.685  1.00  0.00     0.063 C 
ATOM      2  C   UNL     1       3.925  26.975 110.058  1.00  0.00     0.038 C 
ATOM      3  O   UNL     1       5.022  26.779 109.470  1.00  0.00    -0.550 OA
ATOM      4  O   UNL     1       3.369  28.247 110.072  1.00  0.00    -0.550 OA
ENDROOT
TORSDOF 0
ENDMDL
MODEL 8
REMARK VINA RESULT:    -2.153      4.113      4.447
REMARK INTER + INTRA:          -2.153
REMARK INTER:                  -2.153
REMARK INTRA:                   0.000
REMARK UNBOUND:                 0.000
REMARK SMILES CC(=O)[O-]
REMARK SMILES IDX 1 1 2 2 3 3 4 4
REMARK H PARENT
REMARK Flexibility Score: inf
ROOT
ATOM      1  C   UNL     1       7.516  25.868 110.539  1.00  0.00     0.063 C 
ATOM      2  C   UNL     1       7.936  24.946 111.633  1.00  0.00     0.038 C 
ATOM      3  O   UNL     1       7.202  23.976 111.957  1.00  0.00    -0.550 OA
ATOM      4  O   UNL     1       9.163  25.122 112.260  1.00  0.00    -0.550 OA
ENDROOT
TORSDOF 0
ENDMDL
MODEL 9
REMARK VINA RESULT:    -2.147     14.327     14.656
REMARK INTER + INTRA:          -2.147
REMARK INTER:                  -2.147
REMARK INTRA:                   0.000
REMARK UNBOUND:                 0.000
REMARK SMILES CC(=O)[O-]
REMARK SMILES IDX 1 1 2 2 3 3 4 4
REMARK H PARENT
REMARK Flexibility Score: inf
ROOT
ATOM      1  C   UNL     1      13.725  26.059 121.554  1.00  0.00     0.063 C 
ATOM      2  C   UNL     1      14.263  26.662 120.301  1.00  0.00     0.038 C 
ATOM      3  O   UNL     1      14.679  25.920 119.372  1.00  0.00    -0.550 OA
ATOM      4  O   UNL     1      14.257  28.040 120.132  1.00  0.00    -0.550 OA
ENDROOT
TORSDOF 0
ENDMDL
