MODEL 1
REMARK VINA RESULT:    13.168      0.000      0.000
REMARK INTER + INTRA:          22.307
REMARK INTER:                  20.096
REMARK INTRA:                   2.211
REMARK UNBOUND:                 2.211
REMARK SMILES CC1=CCC[C@@H](C)C(=O)C[C@@H](C(C)C)C(=O)C1
REMARK SMILES IDX 8 1 9 2 6 3 7 4 5 5 4 6 3 7 2 8 1 9 10 11 11 12 15 13 16 14
REMARK SMILES IDX 17 15 12 17 13 18 14 19
REMARK H PARENT
REMARK Flexibility Score: 70.00
ROOT
ATOM      1  C   UNL     1     145.054  57.642  15.345  1.00  0.00     0.136 C 
ATOM      2  O   UNL     1     144.419  58.196  16.231  1.00  0.00    -0.299 OA
ENDROOT
BRANCH   1   3
ATOM      3  C   UNL     1     144.341  56.690  14.395  1.00  0.00     0.053 C 
ATOM      4  C   UNL     1     142.875  57.095  14.159  1.00  0.00     0.016 C 
BRANCH   3   5
ATOM      5  C   UNL     1     144.425  55.231  14.904  1.00  0.00     0.015 C 
BRANCH   5   6
ATOM      6  C   UNL     1     145.874  54.693  14.904  1.00  0.00     0.028 C 
BRANCH   6   7
ATOM      7  C   UNL     1     146.183  53.877  16.136  1.00  0.00    -0.028 C 
ATOM      8  C   UNL     1     146.073  54.324  17.410  1.00  0.00    -0.070 CG0
ATOM      9  C   UNL     1     146.428  53.375  18.526  1.00  0.00     0.039 C 
ATOM     10  G   UNL     1     145.583  55.717  17.769  1.00  0.00     0.000 G0
ENDBRANCH   6   7
ENDBRANCH   5   6
ENDBRANCH   3   5
ENDBRANCH   1   3
BRANCH   1  11
ATOM     11  C   UNL     1     146.557  57.857  15.309  1.00  0.00     0.087 C 
BRANCH  11  12
ATOM     12  C   UNL     1     147.383  56.943  16.269  1.00  0.00     0.066 C 
BRANCH  12  13
ATOM     13  C   UNL     1     146.631  56.787  17.584  1.00  0.00     0.140 C 
ATOM     14  O   UNL     1     146.941  57.492  18.536  1.00  0.00    -0.299 OA
BRANCH  13  15
ATOM     15  C   UNL     1     145.581  55.715  17.770  1.00  0.00     0.106 CG0
ATOM     16  G   UNL     1     146.103  54.338  17.399  1.00  0.00     0.000 G0
ENDBRANCH  13  15
ENDBRANCH  12  13
BRANCH  12  17
ATOM     17  C   UNL     1     148.826  57.499  16.508  1.00  0.00    -0.006 C 
ATOM     18  C   UNL     1     149.917  56.515  16.037  1.00  0.00     0.008 C 
ATOM     19  C   UNL     1     149.044  58.840  15.779  1.00  0.00     0.008 C 
ENDBRANCH  12  17
ENDBRANCH  11  12
ENDBRANCH   1  11
TORSDOF 1
ENDMDL
MODEL 2
REMARK VINA RESULT:    13.529      1.730      4.436
REMARK INTER + INTRA:          22.859
REMARK INTER:                  20.190
REMARK INTRA:                   2.669
REMARK UNBOUND:                 2.211
REMARK SMILES CC1=CCC[C@@H](C)C(=O)C[C@@H](C(C)C)C(=O)C1
REMARK SMILES IDX 8 1 9 2 6 3 7 4 5 5 4 6 3 7 2 8 1 9 10 11 11 12 15 13 16 14
REMARK SMILES IDX 17 15 12 17 13 18 14 19
REMARK H PARENT
REMARK Flexibility Score: 70.00
ROOT
ATOM      1  C   UNL     1     146.868  57.100  17.408  1.00  0.00     0.136 C 
ATOM      2  O   UNL     1     147.048  57.928  18.290  1.00  0.00    -0.299 OA
ENDROOT
BRANCH   1   3
ATOM      3  C   UNL     1     147.518  57.301  16.047  1.00  0.00     0.053 C 
ATOM      4  C   UNL     1     148.951  57.848  16.163  1.00  0.00     0.016 C 
BRANCH   3   5
ATOM      5  C   UNL     1     146.656  58.223  15.151  1.00  0.00     0.015 C 
BRANCH   5   6
ATOM      6  C   UNL     1     145.256  58.480  15.752  1.00  0.00     0.028 C 
BRANCH   6   7
ATOM      7  C   UNL     1     144.191  57.621  15.113  1.00  0.00    -0.028 C 
ATOM      8  C   UNL     1     144.386  56.367  14.641  1.00  0.00    -0.070 CG0
ATOM      9  C   UNL     1     143.211  55.650  14.027  1.00  0.00     0.039 C 
ATOM     10  G   UNL     1     145.717  55.638  14.728  1.00  0.00     0.000 G0
ENDBRANCH   6   7
ENDBRANCH   5   6
ENDBRANCH   3   5
ENDBRANCH   1   3
BRANCH   1  11
ATOM     11  C   UNL     1     145.908  55.958  17.694  1.00  0.00     0.087 C 
BRANCH  11  12
ATOM     12  C   UNL     1     146.311  54.580  17.077  1.00  0.00     0.066 C 
BRANCH  12  13
ATOM     13  C   UNL     1     145.720  54.466  15.677  1.00  0.00     0.140 C 
ATOM     14  O   UNL     1     145.299  53.381  15.294  1.00  0.00    -0.299 OA
BRANCH  13  15
ATOM     15  C   UNL     1     145.733  55.633  14.717  1.00  0.00     0.106 CG0
ATOM     16  G   UNL     1     144.391  56.344  14.669  1.00  0.00     0.000 G0
ENDBRANCH  13  15
ENDBRANCH  12  13
BRANCH  12  17
ATOM     17  C   UNL     1     145.862  53.382  17.977  1.00  0.00    -0.006 C 
ATOM     18  C   UNL     1     147.051  52.719  18.703  1.00  0.00     0.008 C 
ATOM     19  C   UNL     1     144.839  53.827  19.042  1.00  0.00     0.008 C 
ENDBRANCH  12  17
ENDBRANCH  11  12
ENDBRANCH   1  11
TORSDOF 1
ENDMDL
MODEL 3
REMARK VINA RESULT:    14.610      1.628      3.722
REMARK INTER + INTRA:          24.509
REMARK INTER:                  21.847
REMARK INTRA:                   2.662
REMARK UNBOUND:                 2.211
REMARK SMILES CC1=CCC[C@@H](C)C(=O)C[C@@H](C(C)C)C(=O)C1
REMARK SMILES IDX 8 1 9 2 6 3 7 4 5 5 4 6 3 7 2 8 1 9 10 11 11 12 15 13 16 14
REMARK SMILES IDX 17 15 12 17 13 18 14 19
REMARK H PARENT
REMARK Flexibility Score: 70.00
ROOT
ATOM      1  C   UNL     1     145.008  55.628  14.556  1.00  0.00     0.136 C 
ATOM      2  O   UNL     1     145.465  55.846  13.442  1.00  0.00    -0.299 OA
ENDROOT
BRANCH   1   3
ATOM      3  C   UNL     1     144.121  56.672  15.220  1.00  0.00     0.053 C 
ATOM      4  C   UNL     1     143.010  57.172  14.280  1.00  0.00     0.016 C 
BRANCH   3   5
ATOM      5  C   UNL     1     144.962  57.860  15.747  1.00  0.00     0.015 C 
BRANCH   5   6
ATOM      6  C   UNL     1     146.077  58.271  14.759  1.00  0.00     0.028 C 
BRANCH   6   7
ATOM      7  C   UNL     1     147.405  58.475  15.449  1.00  0.00    -0.028 C 
ATOM      8  C   UNL     1     148.147  57.492  16.010  1.00  0.00    -0.070 CG0
ATOM      9  C   UNL     1     149.451  57.874  16.663  1.00  0.00     0.039 C 
ATOM     10  G   UNL     1     147.749  56.026  15.987  1.00  0.00     0.000 G0
ENDBRANCH   6   7
ENDBRANCH   5   6
ENDBRANCH   3   5
ENDBRANCH   1   3
BRANCH   1  11
ATOM     11  C   UNL     1     145.442  54.357  15.264  1.00  0.00     0.087 C 
BRANCH  11  12
ATOM     12  C   UNL     1     145.745  54.515  16.789  1.00  0.00     0.066 C 
BRANCH  12  13
ATOM     13  C   UNL     1     146.687  55.695  16.992  1.00  0.00     0.140 C 
ATOM     14  O   UNL     1     146.520  56.433  17.956  1.00  0.00    -0.299 OA
BRANCH  13  15
ATOM     15  C   UNL     1     147.756  56.035  15.980  1.00  0.00     0.106 CG0
ATOM     16  G   UNL     1     148.146  57.502  16.037  1.00  0.00     0.000 G0
ENDBRANCH  13  15
ENDBRANCH  12  13
BRANCH  12  17
ATOM     17  C   UNL     1     146.341  53.206  17.406  1.00  0.00    -0.006 C 
ATOM     18  C   UNL     1     147.825  53.007  17.032  1.00  0.00     0.008 C 
ATOM     19  C   UNL     1     146.230  53.204  18.944  1.00  0.00     0.008 C 
ENDBRANCH  12  17
ENDBRANCH  11  12
ENDBRANCH   1  11
TORSDOF 1
ENDMDL
MODEL 4
REMARK VINA RESULT:    14.621      2.038      4.114
REMARK INTER + INTRA:          24.525
REMARK INTER:                  22.632
REMARK INTRA:                   1.893
REMARK UNBOUND:                 2.211
REMARK SMILES CC1=CCC[C@@H](C)C(=O)C[C@@H](C(C)C)C(=O)C1
REMARK SMILES IDX 8 1 9 2 6 3 7 4 5 5 4 6 3 7 2 8 1 9 10 11 11 12 15 13 16 14
REMARK SMILES IDX 17 15 12 17 13 18 14 19
REMARK H PARENT
REMARK Flexibility Score: 70.00
ROOT
ATOM      1  C   UNL     1     145.888  57.480  17.422  1.00  0.00     0.136 C 
ATOM      2  O   UNL     1     147.090  57.621  17.248  1.00  0.00    -0.299 OA
ENDROOT
BRANCH   1   3
ATOM      3  C   UNL     1     144.941  58.616  17.062  1.00  0.00     0.053 C 
ATOM      4  C   UNL     1     143.757  58.717  18.040  1.00  0.00     0.016 C 
BRANCH   3   5
ATOM      5  C   UNL     1     144.432  58.475  15.607  1.00  0.00     0.015 C 
BRANCH   5   6
ATOM      6  C   UNL     1     143.664  57.153  15.381  1.00  0.00     0.028 C 
BRANCH   6   7
ATOM      7  C   UNL     1     144.197  56.375  14.202  1.00  0.00    -0.028 C 
ATOM      8  C   UNL     1     145.421  55.799  14.141  1.00  0.00    -0.070 CG0
ATOM      9  C   UNL     1     145.794  55.061  12.880  1.00  0.00     0.039 C 
ATOM     10  G   UNL     1     146.419  55.832  15.287  1.00  0.00     0.000 G0
ENDBRANCH   6   7
ENDBRANCH   5   6
ENDBRANCH   3   5
ENDBRANCH   1   3
BRANCH   1  11
ATOM     11  C   UNL     1     145.412  56.204  18.092  1.00  0.00     0.087 C 
BRANCH  11  12
ATOM     12  C   UNL     1     146.243  54.924  17.752  1.00  0.00     0.066 C 
BRANCH  12  13
ATOM     13  C   UNL     1     146.193  54.679  16.250  1.00  0.00     0.140 C 
ATOM     14  O   UNL     1     146.032  53.538  15.836  1.00  0.00    -0.299 OA
BRANCH  13  15
ATOM     15  C   UNL     1     146.438  55.795  15.260  1.00  0.00     0.106 CG0
ATOM     16  G   UNL     1     145.407  55.799  14.143  1.00  0.00     0.000 G0
ENDBRANCH  13  15
ENDBRANCH  12  13
BRANCH  12  17
ATOM     17  C   UNL     1     145.740  53.672  18.545  1.00  0.00    -0.006 C 
ATOM     18  C   UNL     1     146.888  52.937  19.266  1.00  0.00     0.008 C 
ATOM     19  C   UNL     1     144.681  54.057  19.598  1.00  0.00     0.008 C 
ENDBRANCH  12  17
ENDBRANCH  11  12
ENDBRANCH   1  11
TORSDOF 1
ENDMDL
MODEL 5
REMARK VINA RESULT:    14.949      2.007      4.083
REMARK INTER + INTRA:          25.026
REMARK INTER:                  24.249
REMARK INTRA:                   0.777
REMARK UNBOUND:                 2.211
REMARK SMILES CC1=CCC[C@@H](C)C(=O)C[C@@H](C(C)C)C(=O)C1
REMARK SMILES IDX 8 1 9 2 6 3 7 4 5 5 4 6 3 7 2 8 1 9 10 11 11 12 15 13 16 14
REMARK SMILES IDX 17 15 12 17 13 18 14 19
REMARK H PARENT
REMARK Flexibility Score: 70.00
ROOT
ATOM      1  C   UNL     1     145.729  54.157  15.053  1.00  0.00     0.136 C 
ATOM      2  O   UNL     1     145.559  52.978  14.773  1.00  0.00    -0.299 OA
ENDROOT
BRANCH   1   3
ATOM      3  C   UNL     1     145.206  55.234  14.113  1.00  0.00     0.053 C 
ATOM      4  C   UNL     1     146.241  56.346  13.872  1.00  0.00     0.016 C 
BRANCH   3   5
ATOM      5  C   UNL     1     143.879  55.832  14.639  1.00  0.00     0.015 C 
BRANCH   5   6
ATOM      6  C   UNL     1     143.782  57.354  14.385  1.00  0.00     0.028 C 
BRANCH   6   7
ATOM      7  C   UNL     1     143.640  58.141  15.666  1.00  0.00    -0.028 C 
ATOM      8  C   UNL     1     144.604  58.269  16.608  1.00  0.00    -0.070 CG0
ATOM      9  C   UNL     1     144.292  59.090  17.833  1.00  0.00     0.039 C 
ATOM     10  G   UNL     1     145.989  57.656  16.478  1.00  0.00     0.000 G0
ENDBRANCH   6   7
ENDBRANCH   5   6
ENDBRANCH   3   5
ENDBRANCH   1   3
BRANCH   1  11
ATOM     11  C   UNL     1     146.554  54.480  16.286  1.00  0.00     0.087 C 
BRANCH  11  12
ATOM     12  C   UNL     1     145.777  55.197  17.438  1.00  0.00     0.066 C 
BRANCH  12  13
ATOM     13  C   UNL     1     146.273  56.632  17.559  1.00  0.00     0.140 C 
ATOM     14  O   UNL     1     146.834  56.984  18.590  1.00  0.00    -0.299 OA
BRANCH  13  15
ATOM     15  C   UNL     1     146.001  57.656  16.481  1.00  0.00     0.106 CG0
ATOM     16  G   UNL     1     144.614  58.263  16.612  1.00  0.00     0.000 G0
ENDBRANCH  13  15
ENDBRANCH  12  13
BRANCH  12  17
ATOM     17  C   UNL     1     145.914  54.436  18.798  1.00  0.00    -0.006 C 
ATOM     18  C   UNL     1     144.543  54.125  19.434  1.00  0.00     0.008 C 
ATOM     19  C   UNL     1     146.676  53.106  18.628  1.00  0.00     0.008 C 
ENDBRANCH  12  17
ENDBRANCH  11  12
ENDBRANCH   1  11
TORSDOF 1
ENDMDL
MODEL 6
REMARK VINA RESULT:    15.439      2.007      4.078
REMARK INTER + INTRA:          25.773
REMARK INTER:                  24.725
REMARK INTRA:                   1.049
REMARK UNBOUND:                 2.211
REMARK SMILES CC1=CCC[C@@H](C)C(=O)C[C@@H](C(C)C)C(=O)C1
REMARK SMILES IDX 8 1 9 2 6 3 7 4 5 5 4 6 3 7 2 8 1 9 10 11 11 12 15 13 16 14
REMARK SMILES IDX 17 15 12 17 13 18 14 19
REMARK H PARENT
REMARK Flexibility Score: 70.00
ROOT
ATOM      1  C   UNL     1     146.149  55.356  18.753  1.00  0.00     0.136 C 
ATOM      2  O   UNL     1     146.220  55.255  19.970  1.00  0.00    -0.299 OA
ENDROOT
BRANCH   1   3
ATOM      3  C   UNL     1     145.865  54.119  17.913  1.00  0.00     0.053 C 
ATOM      4  C   UNL     1     145.674  52.861  18.779  1.00  0.00     0.016 C 
BRANCH   3   5
ATOM      5  C   UNL     1     146.980  53.892  16.864  1.00  0.00     0.015 C 
BRANCH   5   6
ATOM      6  C   UNL     1     146.429  53.318  15.539  1.00  0.00     0.028 C 
BRANCH   6   7
ATOM      7  C   UNL     1     145.195  54.050  15.067  1.00  0.00    -0.028 C 
ATOM      8  C   UNL     1     145.182  55.314  14.581  1.00  0.00    -0.070 CG0
ATOM      9  C   UNL     1     143.858  55.896  14.157  1.00  0.00     0.039 C 
ATOM     10  G   UNL     1     146.434  56.159  14.413  1.00  0.00     0.000 G0
ENDBRANCH   6   7
ENDBRANCH   5   6
ENDBRANCH   3   5
ENDBRANCH   1   3
BRANCH   1  11
ATOM     11  C   UNL     1     146.455  56.709  18.135  1.00  0.00     0.087 C 
BRANCH  11  12
ATOM     12  C   UNL     1     145.668  57.036  16.825  1.00  0.00     0.066 C 
BRANCH  12  13
ATOM     13  C   UNL     1     146.636  57.054  15.650  1.00  0.00     0.140 C 
ATOM     14  O   UNL     1     147.565  57.853  15.653  1.00  0.00    -0.299 OA
BRANCH  13  15
ATOM     15  C   UNL     1     146.420  56.181  14.435  1.00  0.00     0.106 CG0
ATOM     16  G   UNL     1     145.189  55.302  14.580  1.00  0.00     0.000 G0
ENDBRANCH  13  15
ENDBRANCH  12  13
BRANCH  12  17
ATOM     17  C   UNL     1     144.887  58.388  16.933  1.00  0.00    -0.006 C 
ATOM     18  C   UNL     1     144.534  58.971  15.550  1.00  0.00     0.008 C 
ATOM     19  C   UNL     1     143.579  58.223  17.733  1.00  0.00     0.008 C 
ENDBRANCH  12  17
ENDBRANCH  11  12
ENDBRANCH   1  11
TORSDOF 1
ENDMDL
MODEL 7
REMARK VINA RESULT:    15.520      2.438      4.489
REMARK INTER + INTRA:          25.897
REMARK INTER:                  25.180
REMARK INTRA:                   0.717
REMARK UNBOUND:                 2.211
REMARK SMILES CC1=CCC[C@@H](C)C(=O)C[C@@H](C(C)C)C(=O)C1
REMARK SMILES IDX 8 1 9 2 6 3 7 4 5 5 4 6 3 7 2 8 1 9 10 11 11 12 15 13 16 14
REMARK SMILES IDX 17 15 12 17 13 18 14 19
REMARK H PARENT
REMARK Flexibility Score: 70.00
ROOT
ATOM      1  C   UNL     1     146.760  56.952  16.545  1.00  0.00     0.136 C 
ATOM      2  O   UNL     1     147.975  56.833  16.456  1.00  0.00    -0.299 OA
ENDROOT
BRANCH   1   3
ATOM      3  C   UNL     1     145.883  55.708  16.546  1.00  0.00     0.053 C 
ATOM      4  C   UNL     1     146.319  54.692  17.616  1.00  0.00     0.016 C 
BRANCH   3   5
ATOM      5  C   UNL     1     145.859  55.046  15.147  1.00  0.00     0.015 C 
BRANCH   5   6
ATOM      6  C   UNL     1     145.481  56.047  14.032  1.00  0.00     0.028 C 
BRANCH   6   7
ATOM      7  C   UNL     1     143.990  56.105  13.796  1.00  0.00    -0.028 C 
ATOM      8  C   UNL     1     143.175  57.098  14.225  1.00  0.00    -0.070 CG0
ATOM      9  C   UNL     1     141.705  56.996  13.905  1.00  0.00     0.039 C 
ATOM     10  G   UNL     1     143.671  58.320  14.981  1.00  0.00     0.000 G0
ENDBRANCH   6   7
ENDBRANCH   5   6
ENDBRANCH   3   5
ENDBRANCH   1   3
BRANCH   1  11
ATOM     11  C   UNL     1     146.184  58.357  16.545  1.00  0.00     0.087 C 
BRANCH  11  12
ATOM     12  C   UNL     1     144.856  58.531  17.350  1.00  0.00     0.066 C 
BRANCH  12  13
ATOM     13  C   UNL     1     143.686  58.062  16.495  1.00  0.00     0.140 C 
ATOM     14  O   UNL     1     142.795  57.401  17.013  1.00  0.00    -0.299 OA
BRANCH  13  15
ATOM     15  C   UNL     1     143.650  58.308  15.004  1.00  0.00     0.106 CG0
ATOM     16  G   UNL     1     143.154  57.092  14.239  1.00  0.00     0.000 G0
ENDBRANCH  13  15
ENDBRANCH  12  13
BRANCH  12  17
ATOM     17  C   UNL     1     144.649  60.008  17.826  1.00  0.00    -0.006 C 
ATOM     18  C   UNL     1     144.514  60.989  16.643  1.00  0.00     0.008 C 
ATOM     19  C   UNL     1     143.393  60.147  18.710  1.00  0.00     0.008 C 
ENDBRANCH  12  17
ENDBRANCH  11  12
ENDBRANCH   1  11
TORSDOF 1
ENDMDL
MODEL 8
REMARK VINA RESULT:    15.683      1.746      3.728
REMARK INTER + INTRA:          26.145
REMARK INTER:                  24.059
REMARK INTRA:                   2.086
REMARK UNBOUND:                 2.211
REMARK SMILES CC1=CCC[C@@H](C)C(=O)C[C@@H](C(C)C)C(=O)C1
REMARK SMILES IDX 8 1 9 2 6 3 7 4 5 5 4 6 3 7 2 8 1 9 10 11 11 12 15 13 16 14
REMARK SMILES IDX 17 15 12 17 13 18 14 19
REMARK H PARENT
REMARK Flexibility Score: 70.00
ROOT
ATOM      1  C   UNL     1     144.589  57.363  16.628  1.00  0.00     0.136 C 
ATOM      2  O   UNL     1     144.765  58.413  17.231  1.00  0.00    -0.299 OA
ENDROOT
BRANCH   1   3
ATOM      3  C   UNL     1     144.314  57.396  15.131  1.00  0.00     0.053 C 
ATOM      4  C   UNL     1     142.841  57.093  14.805  1.00  0.00     0.016 C 
BRANCH   3   5
ATOM      5  C   UNL     1     145.249  56.421  14.374  1.00  0.00     0.015 C 
BRANCH   5   6
ATOM      6  C   UNL     1     146.525  57.121  13.854  1.00  0.00     0.028 C 
BRANCH   6   7
ATOM      7  C   UNL     1     147.322  57.760  14.966  1.00  0.00    -0.028 C 
ATOM      8  C   UNL     1     147.942  57.085  15.964  1.00  0.00    -0.070 CG0
ATOM      9  C   UNL     1     148.693  57.884  16.999  1.00  0.00     0.039 C 
ATOM     10  G   UNL     1     147.946  55.570  16.072  1.00  0.00     0.000 G0
ENDBRANCH   6   7
ENDBRANCH   5   6
ENDBRANCH   3   5
ENDBRANCH   1   3
BRANCH   1  11
ATOM     11  C   UNL     1     144.550  56.079  17.437  1.00  0.00     0.087 C 
BRANCH  11  12
ATOM     12  C   UNL     1     145.947  55.493  17.823  1.00  0.00     0.066 C 
BRANCH  12  13
ATOM     13  C   UNL     1     146.644  54.989  16.566  1.00  0.00     0.140 C 
ATOM     14  O   UNL     1     146.162  54.044  15.954  1.00  0.00    -0.299 OA
BRANCH  13  15
ATOM     15  C   UNL     1     147.967  55.562  16.114  1.00  0.00     0.106 CG0
ATOM     16  G   UNL     1     147.906  57.071  15.948  1.00  0.00     0.000 G0
ENDBRANCH  13  15
ENDBRANCH  12  13
BRANCH  12  17
ATOM     17  C   UNL     1     145.829  54.359  18.895  1.00  0.00    -0.006 C 
ATOM     18  C   UNL     1     144.370  54.113  19.328  1.00  0.00     0.008 C 
ATOM     19  C   UNL     1     146.406  53.027  18.375  1.00  0.00     0.008 C 
ENDBRANCH  12  17
ENDBRANCH  11  12
ENDBRANCH   1  11
TORSDOF 1
ENDMDL
MODEL 9
REMARK VINA RESULT:    15.736      1.828      4.433
REMARK INTER + INTRA:          26.227
REMARK INTER:                  21.756
REMARK INTRA:                   4.470
REMARK UNBOUND:                 2.211
REMARK SMILES CC1=CCC[C@@H](C)C(=O)C[C@@H](C(C)C)C(=O)C1
REMARK SMILES IDX 8 1 9 2 6 3 7 4 5 5 4 6 3 7 2 8 1 9 10 11 11 12 15 13 16 14
REMARK SMILES IDX 17 15 12 17 13 18 14 19
REMARK H PARENT
REMARK Flexibility Score: 70.00
ROOT
ATOM      1  C   UNL     1     145.871  54.518  15.722  1.00  0.00     0.136 C 
ATOM      2  O   UNL     1     145.012  53.676  15.505  1.00  0.00    -0.299 OA
ENDROOT
BRANCH   1   3
ATOM      3  C   UNL     1     146.441  54.663  17.126  1.00  0.00     0.053 C 
ATOM      4  C   UNL     1     146.449  53.328  17.891  1.00  0.00     0.016 C 
BRANCH   3   5
ATOM      5  C   UNL     1     145.673  55.743  17.928  1.00  0.00     0.015 C 
BRANCH   5   6
ATOM      6  C   UNL     1     146.247  57.159  17.701  1.00  0.00     0.028 C 
BRANCH   6   7
ATOM      7  C   UNL     1     147.739  57.142  17.466  1.00  0.00    -0.028 C 
ATOM      8  C   UNL     1     148.348  57.517  16.316  1.00  0.00    -0.070 CG0
ATOM      9  C   UNL     1     149.851  57.432  16.250  1.00  0.00     0.039 C 
ATOM     10  G   UNL     1     147.597  58.048  15.106  1.00  0.00     0.000 G0
ENDBRANCH   6   7
ENDBRANCH   5   6
ENDBRANCH   3   5
ENDBRANCH   1   3
BRANCH   1  11
ATOM     11  C   UNL     1     146.250  55.454  14.588  1.00  0.00     0.087 C 
BRANCH  11  12
ATOM     12  C   UNL     1     145.384  56.750  14.476  1.00  0.00     0.066 C 
BRANCH  12  13
ATOM     13  C   UNL     1     146.116  57.902  15.152  1.00  0.00     0.140 C 
ATOM     14  O   UNL     1     145.466  58.783  15.700  1.00  0.00    -0.299 OA
BRANCH  13  15
ATOM     15  C   UNL     1     147.620  58.034  15.075  1.00  0.00     0.106 CG0
ATOM     16  G   UNL     1     148.300  57.529  16.336  1.00  0.00     0.000 G0
ENDBRANCH  13  15
ENDBRANCH  12  13
BRANCH  12  17
ATOM     17  C   UNL     1     143.957  56.554  15.088  1.00  0.00    -0.006 C 
ATOM     18  C   UNL     1     143.680  57.529  16.250  1.00  0.00     0.008 C 
ATOM     19  C   UNL     1     142.855  56.748  14.026  1.00  0.00     0.008 C 
ENDBRANCH  12  17
ENDBRANCH  11  12
ENDBRANCH   1  11
TORSDOF 1
ENDMDL
