MODEL 1
REMARK VINA RESULT:    -4.728      0.000      0.000
REMARK INTER + INTRA:          -8.075
REMARK INTER:                  -7.216
REMARK INTRA:                  -0.859
REMARK UNBOUND:                -0.859
REMARK SMILES O=C([O-])CCCCCCCCC(=O)[O-]
REMARK SMILES IDX 7 1 6 2 5 3 4 4 2 5 1 6 3 7 8 8 9 9 10 10 11 11 12 12 13 13
REMARK SMILES IDX 14 14
REMARK H PARENT
REMARK Flexibility Score: inf
ROOT
ATOM      1  C   UNL     1       9.562   5.339  55.851  1.00  0.00     0.000 C 
ENDROOT
BRANCH   1   2
ATOM      2  C   UNL     1       9.302   6.530  54.907  1.00  0.00     0.000 C 
BRANCH   2   3
ATOM      3  C   UNL     1      10.203   7.761  55.138  1.00  0.00     0.006 C 
BRANCH   3   4
ATOM      4  C   UNL     1      11.442   7.820  54.231  1.00  0.00     0.053 C 
BRANCH   4   5
ATOM      5  C   UNL     1      11.137   7.362  52.838  1.00  0.00     0.041 C 
ATOM      6  O   UNL     1      11.703   6.339  52.370  1.00  0.00    -0.550 OA
ATOM      7  O   UNL     1      10.204   8.045  52.069  1.00  0.00    -0.550 OA
ENDBRANCH   4   5
ENDBRANCH   3   4
ENDBRANCH   2   3
ENDBRANCH   1   2
BRANCH   1   8
ATOM      8  C   UNL     1       9.695   3.972  55.155  1.00  0.00     0.000 C 
BRANCH   8   9
ATOM      9  C   UNL     1      11.092   3.675  54.576  1.00  0.00     0.000 C 
BRANCH   9  10
ATOM     10  C   UNL     1      12.237   4.415  55.305  1.00  0.00     0.006 C 
BRANCH  10  11
ATOM     11  C   UNL     1      13.255   3.476  55.971  1.00  0.00     0.053 C 
BRANCH  11  12
ATOM     12  C   UNL     1      12.743   2.925  57.267  1.00  0.00     0.041 C 
ATOM     13  O   UNL     1      12.015   3.633  58.013  1.00  0.00    -0.550 OA
ATOM     14  O   UNL     1      13.051   1.624  57.642  1.00  0.00    -0.550 OA
ENDBRANCH  11  12
ENDBRANCH  10  11
ENDBRANCH   9  10
ENDBRANCH   8   9
ENDBRANCH   1   8
TORSDOF 9
ENDMDL
MODEL 2
REMARK VINA RESULT:    -4.703      1.798      2.545
REMARK INTER + INTRA:          -8.036
REMARK INTER:                  -7.135
REMARK INTRA:                  -0.901
REMARK UNBOUND:                -0.859
REMARK SMILES O=C([O-])CCCCCCCCC(=O)[O-]
REMARK SMILES IDX 7 1 6 2 5 3 4 4 2 5 1 6 3 7 8 8 9 9 10 10 11 11 12 12 13 13
REMARK SMILES IDX 14 14
REMARK H PARENT
REMARK Flexibility Score: inf
ROOT
ATOM      1  C   UNL     1      12.397   4.514  53.647  1.00  0.00     0.000 C 
ENDROOT
BRANCH   1   2
ATOM      2  C   UNL     1      12.109   5.572  52.562  1.00  0.00     0.000 C 
BRANCH   2   3
ATOM      3  C   UNL     1      11.896   7.007  53.083  1.00  0.00     0.006 C 
BRANCH   3   4
ATOM      4  C   UNL     1      10.456   7.315  53.524  1.00  0.00     0.053 C 
BRANCH   4   5
ATOM      5  C   UNL     1      10.401   7.841  54.926  1.00  0.00     0.041 C 
ATOM      6  O   UNL     1      11.465   8.125  55.538  1.00  0.00    -0.550 OA
ATOM      7  O   UNL     1       9.175   8.047  55.544  1.00  0.00    -0.550 OA
ENDBRANCH   4   5
ENDBRANCH   3   4
ENDBRANCH   2   3
ENDBRANCH   1   2
BRANCH   1   8
ATOM      8  C   UNL     1      11.197   3.626  54.026  1.00  0.00     0.000 C 
BRANCH   8   9
ATOM      9  C   UNL     1      10.462   4.050  55.312  1.00  0.00     0.000 C 
BRANCH   9  10
ATOM     10  C   UNL     1      11.402   4.573  56.422  1.00  0.00     0.006 C 
BRANCH  10  11
ATOM     11  C   UNL     1      11.686   3.544  57.527  1.00  0.00     0.053 C 
BRANCH  11  12
ATOM     12  C   UNL     1      12.884   2.700  57.211  1.00  0.00     0.041 C 
ATOM     13  O   UNL     1      12.962   1.522  57.649  1.00  0.00    -0.550 OA
ATOM     14  O   UNL     1      13.903   3.207  56.415  1.00  0.00    -0.550 OA
ENDBRANCH  11  12
ENDBRANCH  10  11
ENDBRANCH   9  10
ENDBRANCH   8   9
ENDBRANCH   1   8
TORSDOF 9
ENDMDL
MODEL 3
REMARK VINA RESULT:    -4.689      2.505      6.566
REMARK INTER + INTRA:          -8.014
REMARK INTER:                  -7.331
REMARK INTRA:                  -0.683
REMARK UNBOUND:                -0.859
REMARK SMILES O=C([O-])CCCCCCCCC(=O)[O-]
REMARK SMILES IDX 7 1 6 2 5 3 4 4 2 5 1 6 3 7 8 8 9 9 10 10 11 11 12 12 13 13
REMARK SMILES IDX 14 14
REMARK H PARENT
REMARK Flexibility Score: inf
ROOT
ATOM      1  C   UNL     1      14.025   3.858  56.554  1.00  0.00     0.000 C 
ENDROOT
BRANCH   1   2
ATOM      2  C   UNL     1      14.919   3.518  55.344  1.00  0.00     0.000 C 
BRANCH   2   3
ATOM      3  C   UNL     1      16.283   2.889  55.692  1.00  0.00     0.006 C 
BRANCH   3   4
ATOM      4  C   UNL     1      16.323   1.357  55.580  1.00  0.00     0.053 C 
BRANCH   4   5
ATOM      5  C   UNL     1      16.282   0.697  56.924  1.00  0.00     0.041 C 
ATOM      6  O   UNL     1      15.194   0.607  57.552  1.00  0.00    -0.550 OA
ATOM      7  O   UNL     1      17.438   0.152  57.467  1.00  0.00    -0.550 OA
ENDBRANCH   4   5
ENDBRANCH   3   4
ENDBRANCH   2   3
ENDBRANCH   1   2
BRANCH   1   8
ATOM      8  C   UNL     1      12.812   2.930  56.751  1.00  0.00     0.000 C 
BRANCH   8   9
ATOM      9  C   UNL     1      11.520   3.641  57.197  1.00  0.00     0.000 C 
BRANCH   9  10
ATOM     10  C   UNL     1      10.847   4.467  56.077  1.00  0.00     0.006 C 
BRANCH  10  11
ATOM     11  C   UNL     1      10.849   3.769  54.708  1.00  0.00     0.053 C 
BRANCH  11  12
ATOM     12  C   UNL     1      11.674   4.514  53.703  1.00  0.00     0.041 C 
ATOM     13  O   UNL     1      12.072   3.936  52.656  1.00  0.00    -0.550 OA
ATOM     14  O   UNL     1      11.988   5.851  53.911  1.00  0.00    -0.550 OA
ENDBRANCH  11  12
ENDBRANCH  10  11
ENDBRANCH   9  10
ENDBRANCH   8   9
ENDBRANCH   1   8
TORSDOF 9
ENDMDL
MODEL 4
REMARK VINA RESULT:    -4.683      1.702      5.661
REMARK INTER + INTRA:          -8.005
REMARK INTER:                  -7.199
REMARK INTRA:                  -0.806
REMARK UNBOUND:                -0.859
REMARK SMILES O=C([O-])CCCCCCCCC(=O)[O-]
REMARK SMILES IDX 7 1 6 2 5 3 4 4 2 5 1 6 3 7 8 8 9 9 10 10 11 11 12 12 13 13
REMARK SMILES IDX 14 14
REMARK H PARENT
REMARK Flexibility Score: inf
ROOT
ATOM      1  C   UNL     1      11.384   3.710  53.730  1.00  0.00     0.000 C 
ENDROOT
BRANCH   1   2
ATOM      2  C   UNL     1      10.655   3.703  55.089  1.00  0.00     0.000 C 
BRANCH   2   3
ATOM      3  C   UNL     1      11.343   4.511  56.208  1.00  0.00     0.006 C 
BRANCH   3   4
ATOM      4  C   UNL     1      11.761   3.676  57.429  1.00  0.00     0.053 C 
BRANCH   4   5
ATOM      5  C   UNL     1      12.873   2.727  57.103  1.00  0.00     0.041 C 
ATOM      6  O   UNL     1      12.821   1.532  57.495  1.00  0.00    -0.550 OA
ATOM      7  O   UNL     1      13.951   3.156  56.340  1.00  0.00    -0.550 OA
ENDBRANCH   4   5
ENDBRANCH   3   4
ENDBRANCH   2   3
ENDBRANCH   1   2
BRANCH   1   8
ATOM      8  C   UNL     1      12.486   4.776  53.585  1.00  0.00     0.000 C 
BRANCH   8   9
ATOM      9  C   UNL     1      12.151   5.922  52.611  1.00  0.00     0.000 C 
BRANCH   9  10
ATOM     10  C   UNL     1      11.622   7.196  53.309  1.00  0.00     0.006 C 
BRANCH  10  11
ATOM     11  C   UNL     1      10.357   7.778  52.658  1.00  0.00     0.053 C 
BRANCH  11  12
ATOM     12  C   UNL     1       9.135   7.524  53.488  1.00  0.00     0.041 C 
ATOM     13  O   UNL     1       9.191   6.745  54.477  1.00  0.00    -0.550 OA
ATOM     14  O   UNL     1       7.940   8.162  53.182  1.00  0.00    -0.550 OA
ENDBRANCH  11  12
ENDBRANCH  10  11
ENDBRANCH   9  10
ENDBRANCH   8   9
ENDBRANCH   1   8
TORSDOF 9
ENDMDL
MODEL 5
REMARK VINA RESULT:    -4.642      0.445      5.555
REMARK INTER + INTRA:          -7.942
REMARK INTER:                  -7.048
REMARK INTRA:                  -0.894
REMARK UNBOUND:                -0.859
REMARK SMILES O=C([O-])CCCCCCCCC(=O)[O-]
REMARK SMILES IDX 7 1 6 2 5 3 4 4 2 5 1 6 3 7 8 8 9 9 10 10 11 11 12 12 13 13
REMARK SMILES IDX 14 14
REMARK H PARENT
REMARK Flexibility Score: inf
ROOT
ATOM      1  C   UNL     1       9.889   4.074  54.838  1.00  0.00     0.000 C 
ENDROOT
BRANCH   1   2
ATOM      2  C   UNL     1      11.257   3.369  54.736  1.00  0.00     0.000 C 
BRANCH   2   3
ATOM      3  C   UNL     1      12.469   4.222  55.161  1.00  0.00     0.006 C 
BRANCH   3   4
ATOM      4  C   UNL     1      13.460   3.499  56.088  1.00  0.00     0.053 C 
BRANCH   4   5
ATOM      5  C   UNL     1      12.772   2.875  57.263  1.00  0.00     0.041 C 
ATOM      6  O   UNL     1      12.864   1.635  57.466  1.00  0.00    -0.550 OA
ATOM      7  O   UNL     1      12.057   3.667  58.152  1.00  0.00    -0.550 OA
ENDBRANCH   4   5
ENDBRANCH   3   4
ENDBRANCH   2   3
ENDBRANCH   1   2
BRANCH   1   8
ATOM      8  C   UNL     1       9.790   5.150  55.934  1.00  0.00     0.000 C 
BRANCH   8   9
ATOM      9  C   UNL     1       9.518   6.576  55.417  1.00  0.00     0.000 C 
BRANCH   9  10
ATOM     10  C   UNL     1      10.794   7.434  55.260  1.00  0.00     0.006 C 
BRANCH  10  11
ATOM     11  C   UNL     1      10.826   8.262  53.966  1.00  0.00     0.053 C 
BRANCH  11  12
ATOM     12  C   UNL     1      10.771   7.394  52.745  1.00  0.00     0.041 C 
ATOM     13  O   UNL     1      11.622   6.482  52.578  1.00  0.00    -0.550 OA
ATOM     14  O   UNL     1       9.767   7.579  51.803  1.00  0.00    -0.550 OA
ENDBRANCH  11  12
ENDBRANCH  10  11
ENDBRANCH   9  10
ENDBRANCH   8   9
ENDBRANCH   1   8
TORSDOF 9
ENDMDL
MODEL 6
REMARK VINA RESULT:    -4.616      1.546      2.343
REMARK INTER + INTRA:          -7.904
REMARK INTER:                  -7.186
REMARK INTRA:                  -0.717
REMARK UNBOUND:                -0.859
REMARK SMILES O=C([O-])CCCCCCCCC(=O)[O-]
REMARK SMILES IDX 7 1 6 2 5 3 4 4 2 5 1 6 3 7 8 8 9 9 10 10 11 11 12 12 13 13
REMARK SMILES IDX 14 14
REMARK H PARENT
REMARK Flexibility Score: inf
ROOT
ATOM      1  C   UNL     1      12.359   4.501  53.657  1.00  0.00     0.000 C 
ENDROOT
BRANCH   1   2
ATOM      2  C   UNL     1      12.121   5.631  52.634  1.00  0.00     0.000 C 
BRANCH   2   3
ATOM      3  C   UNL     1      11.792   7.010  53.241  1.00  0.00     0.006 C 
BRANCH   3   4
ATOM      4  C   UNL     1      10.296   7.358  53.251  1.00  0.00     0.053 C 
BRANCH   4   5
ATOM      5  C   UNL     1       9.897   8.143  52.039  1.00  0.00     0.041 C 
ATOM      6  O   UNL     1       9.689   9.382  52.126  1.00  0.00    -0.550 OA
ATOM      7  O   UNL     1       9.787   7.511  50.807  1.00  0.00    -0.550 OA
ENDBRANCH   4   5
ENDBRANCH   3   4
ENDBRANCH   2   3
ENDBRANCH   1   2
BRANCH   1   8
ATOM      8  C   UNL     1      11.097   3.724  54.075  1.00  0.00     0.000 C 
BRANCH   8   9
ATOM      9  C   UNL     1      10.425   4.230  55.365  1.00  0.00     0.000 C 
BRANCH   9  10
ATOM     10  C   UNL     1      11.426   4.600  56.483  1.00  0.00     0.006 C 
BRANCH  10  11
ATOM     11  C   UNL     1      11.660   3.473  57.502  1.00  0.00     0.053 C 
BRANCH  11  12
ATOM     12  C   UNL     1      12.883   2.670  57.175  1.00  0.00     0.041 C 
ATOM     13  O   UNL     1      12.986   1.481  57.578  1.00  0.00    -0.550 OA
ATOM     14  O   UNL     1      13.899   3.228  56.411  1.00  0.00    -0.550 OA
ENDBRANCH  11  12
ENDBRANCH  10  11
ENDBRANCH   9  10
ENDBRANCH   8   9
ENDBRANCH   1   8
TORSDOF 9
ENDMDL
MODEL 7
REMARK VINA RESULT:    -4.611      1.771      2.905
REMARK INTER + INTRA:          -7.896
REMARK INTER:                  -7.043
REMARK INTRA:                  -0.853
REMARK UNBOUND:                -0.859
REMARK SMILES O=C([O-])CCCCCCCCC(=O)[O-]
REMARK SMILES IDX 7 1 6 2 5 3 4 4 2 5 1 6 3 7 8 8 9 9 10 10 11 11 12 12 13 13
REMARK SMILES IDX 14 14
REMARK H PARENT
REMARK Flexibility Score: inf
ROOT
ATOM      1  C   UNL     1      11.662   7.620  53.695  1.00  0.00     0.000 C 
ENDROOT
BRANCH   1   2
ATOM      2  C   UNL     1      11.150   7.411  55.135  1.00  0.00     0.000 C 
BRANCH   2   3
ATOM      3  C   UNL     1       9.642   7.114  55.260  1.00  0.00     0.006 C 
BRANCH   3   4
ATOM      4  C   UNL     1       8.741   8.357  55.177  1.00  0.00     0.053 C 
BRANCH   4   5
ATOM      5  C   UNL     1       8.109   8.500  53.826  1.00  0.00     0.041 C 
ATOM      6  O   UNL     1       8.263   7.602  52.957  1.00  0.00    -0.550 OA
ATOM      7  O   UNL     1       7.324   9.609  53.540  1.00  0.00    -0.550 OA
ENDBRANCH   4   5
ENDBRANCH   3   4
ENDBRANCH   2   3
ENDBRANCH   1   2
BRANCH   1   8
ATOM      8  C   UNL     1      11.728   6.344  52.835  1.00  0.00     0.000 C 
BRANCH   8   9
ATOM      9  C   UNL     1      12.496   5.172  53.476  1.00  0.00     0.000 C 
BRANCH   9  10
ATOM     10  C   UNL     1      11.713   3.840  53.472  1.00  0.00     0.006 C 
BRANCH  10  11
ATOM     11  C   UNL     1      10.804   3.654  54.698  1.00  0.00     0.053 C 
BRANCH  11  12
ATOM     12  C   UNL     1      11.581   3.675  55.979  1.00  0.00     0.041 C 
ATOM     13  O   UNL     1      12.630   2.987  56.094  1.00  0.00    -0.550 OA
ATOM     14  O   UNL     1      11.160   4.469  57.037  1.00  0.00    -0.550 OA
ENDBRANCH  11  12
ENDBRANCH  10  11
ENDBRANCH   9  10
ENDBRANCH   8   9
ENDBRANCH   1   8
TORSDOF 9
ENDMDL
MODEL 8
REMARK VINA RESULT:    -4.566      1.718      5.942
REMARK INTER + INTRA:          -7.827
REMARK INTER:                  -6.925
REMARK INTRA:                  -0.902
REMARK UNBOUND:                -0.859
REMARK SMILES O=C([O-])CCCCCCCCC(=O)[O-]
REMARK SMILES IDX 7 1 6 2 5 3 4 4 2 5 1 6 3 7 8 8 9 9 10 10 11 11 12 12 13 13
REMARK SMILES IDX 14 14
REMARK H PARENT
REMARK Flexibility Score: inf
ROOT
ATOM      1  C   UNL     1      12.532   5.458  53.223  1.00  0.00     0.000 C 
ENDROOT
BRANCH   1   2
ATOM      2  C   UNL     1      11.796   4.108  53.105  1.00  0.00     0.000 C 
BRANCH   2   3
ATOM      3  C   UNL     1      11.200   3.567  54.421  1.00  0.00     0.006 C 
BRANCH   3   4
ATOM      4  C   UNL     1      11.804   4.185  55.692  1.00  0.00     0.053 C 
BRANCH   4   5
ATOM      5  C   UNL     1      12.899   3.335  56.261  1.00  0.00     0.041 C 
ATOM      6  O   UNL     1      14.096   3.538  55.927  1.00  0.00    -0.550 OA
ATOM      7  O   UNL     1      12.600   2.342  57.184  1.00  0.00    -0.550 OA
ENDBRANCH   4   5
ENDBRANCH   3   4
ENDBRANCH   2   3
ENDBRANCH   1   2
BRANCH   1   8
ATOM      8  C   UNL     1      11.659   6.702  52.975  1.00  0.00     0.000 C 
BRANCH   8   9
ATOM      9  C   UNL     1      11.556   7.667  54.172  1.00  0.00     0.000 C 
BRANCH   9  10
ATOM     10  C   UNL     1      10.162   7.682  54.839  1.00  0.00     0.006 C 
BRANCH  10  11
ATOM     11  C   UNL     1       9.061   7.030  53.987  1.00  0.00     0.053 C 
BRANCH  11  12
ATOM     12  C   UNL     1       8.210   8.052  53.296  1.00  0.00     0.041 C 
ATOM     13  O   UNL     1       7.502   8.846  53.969  1.00  0.00    -0.550 OA
ATOM     14  O   UNL     1       8.216   8.141  51.910  1.00  0.00    -0.550 OA
ENDBRANCH  11  12
ENDBRANCH  10  11
ENDBRANCH   9  10
ENDBRANCH   8   9
ENDBRANCH   1   8
TORSDOF 9
ENDMDL
MODEL 9
REMARK VINA RESULT:    -4.531      1.731      2.078
REMARK INTER + INTRA:          -7.774
REMARK INTER:                  -7.125
REMARK INTRA:                  -0.649
REMARK UNBOUND:                -0.859
REMARK SMILES O=C([O-])CCCCCCCCC(=O)[O-]
REMARK SMILES IDX 7 1 6 2 5 3 4 4 2 5 1 6 3 7 8 8 9 9 10 10 11 11 12 12 13 13
REMARK SMILES IDX 14 14
REMARK H PARENT
REMARK Flexibility Score: inf
ROOT
ATOM      1  C   UNL     1       9.876   4.010  54.993  1.00  0.00     0.000 C 
ENDROOT
BRANCH   1   2
ATOM      2  C   UNL     1       9.472   5.446  54.599  1.00  0.00     0.000 C 
BRANCH   2   3
ATOM      3  C   UNL     1       9.478   6.470  55.751  1.00  0.00     0.006 C 
BRANCH   3   4
ATOM      4  C   UNL     1       9.285   7.928  55.306  1.00  0.00     0.053 C 
BRANCH   4   5
ATOM      5  C   UNL     1      10.505   8.758  55.565  1.00  0.00     0.041 C 
ATOM      6  O   UNL     1      11.647   8.313  55.275  1.00  0.00    -0.550 OA
ATOM      7  O   UNL     1      10.377  10.035  56.096  1.00  0.00    -0.550 OA
ENDBRANCH   4   5
ENDBRANCH   3   4
ENDBRANCH   2   3
ENDBRANCH   1   2
BRANCH   1   8
ATOM      8  C   UNL     1      10.986   3.385  54.128  1.00  0.00     0.000 C 
BRANCH   8   9
ATOM      9  C   UNL     1      12.311   4.170  54.110  1.00  0.00     0.000 C 
BRANCH   9  10
ATOM     10  C   UNL     1      12.839   4.530  55.518  1.00  0.00     0.006 C 
BRANCH  10  11
ATOM     11  C   UNL     1      13.603   3.386  56.203  1.00  0.00     0.053 C 
BRANCH  11  12
ATOM     12  C   UNL     1      12.809   2.771  57.315  1.00  0.00     0.041 C 
ATOM     13  O   UNL     1      11.833   3.392  57.815  1.00  0.00    -0.550 OA
ATOM     14  O   UNL     1      13.132   1.505  57.786  1.00  0.00    -0.550 OA
ENDBRANCH  11  12
ENDBRANCH  10  11
ENDBRANCH   9  10
ENDBRANCH   8   9
ENDBRANCH   1   8
TORSDOF 9
ENDMDL
