MODEL 1
REMARK VINA RESULT:    -3.765      0.000      0.000
REMARK INTER + INTRA:         -12.951
REMARK INTER:                  -8.607
REMARK INTRA:                  -4.344
REMARK UNBOUND:                -4.344
REMARK SMILES CCCCCCCCCCCCCCCCCCCCCCCC(=O)[O-]
REMARK SMILES IDX 13 1 14 2 15 3 16 4 17 5 18 6 19 7 20 8 21 9 22 10 23 11
REMARK SMILES IDX 24 12 25 13 26 14 12 15 11 16 10 17 9 18 8 19 7 20 6 21 5 22
REMARK SMILES IDX 4 23 3 24 2 25 1 26
REMARK H PARENT
REMARK Flexibility Score: inf
ROOT
ATOM      1  C   UNL     1     -21.952  28.914 -40.974  1.00  0.00     0.000 C 
ENDROOT
BRANCH   1   2
ATOM      2  C   UNL     1     -22.539  28.564 -39.596  1.00  0.00     0.000 C 
BRANCH   2   3
ATOM      3  C   UNL     1     -22.110  29.552 -38.495  1.00  0.00     0.000 C 
BRANCH   3   4
ATOM      4  C   UNL     1     -23.216  29.938 -37.494  1.00  0.00     0.000 C 
BRANCH   4   5
ATOM      5  C   UNL     1     -24.647  29.961 -38.067  1.00  0.00     0.000 C 
BRANCH   5   6
ATOM      6  C   UNL     1     -24.957  31.203 -38.930  1.00  0.00     0.000 C 
BRANCH   6   7
ATOM      7  C   UNL     1     -26.288  31.073 -39.690  1.00  0.00     0.000 C 
BRANCH   7   8
ATOM      8  C   UNL     1     -26.111  31.058 -41.219  1.00  0.00     0.000 C 
BRANCH   8   9
ATOM      9  C   UNL     1     -25.676  29.706 -41.815  1.00  0.00     0.000 C 
BRANCH   9  10
ATOM     10  C   UNL     1     -26.233  28.458 -41.102  1.00  0.00     0.006 C 
BRANCH  10  11
ATOM     11  C   UNL     1     -27.514  27.889 -41.740  1.00  0.00     0.053 C 
BRANCH  11  12
ATOM     12  C   UNL     1     -28.722  28.084 -40.874  1.00  0.00     0.041 C 
ATOM     13  O   UNL     1     -29.182  29.239 -40.679  1.00  0.00    -0.550 OA
ATOM     14  O   UNL     1     -29.353  26.988 -40.299  1.00  0.00    -0.550 OA
ENDBRANCH  11  12
ENDBRANCH  10  11
ENDBRANCH   9  10
ENDBRANCH   8   9
ENDBRANCH   7   8
ENDBRANCH   6   7
ENDBRANCH   5   6
ENDBRANCH   4   5
ENDBRANCH   3   4
ENDBRANCH   2   3
ENDBRANCH   1   2
BRANCH   1  15
ATOM     15  C   UNL     1     -22.192  30.382 -41.360  1.00  0.00     0.000 C 
BRANCH  15  16
ATOM     16  C   UNL     1     -21.401  30.802 -42.613  1.00  0.00     0.000 C 
BRANCH  16  17
ATOM     17  C   UNL     1     -19.913  30.427 -42.521  1.00  0.00     0.000 C 
BRANCH  17  18
ATOM     18  C   UNL     1     -18.986  31.652 -42.616  1.00  0.00    -0.000 C 
BRANCH  18  19
ATOM     19  C   UNL     1     -18.130  31.851 -41.356  1.00  0.00    -0.000 C 
BRANCH  19  20
ATOM     20  C   UNL     1     -18.587  30.962 -40.186  1.00  0.00    -0.000 C 
BRANCH  20  21
ATOM     21  C   UNL     1     -19.440  31.718 -39.152  1.00  0.00    -0.000 C 
BRANCH  21  22
ATOM     22  C   UNL     1     -19.489  33.249 -39.325  1.00  0.00    -0.000 C 
BRANCH  22  23
ATOM     23  C   UNL     1     -20.837  33.750 -39.873  1.00  0.00    -0.000 C 
BRANCH  23  24
ATOM     24  C   UNL     1     -22.043  33.167 -39.113  1.00  0.00    -0.000 C 
BRANCH  24  25
ATOM     25  C   UNL     1     -22.646  34.097 -38.044  1.00  0.00    -0.003 C 
ATOM     26  C   UNL     1     -22.510  33.545 -36.625  1.00  0.00     0.004 C 
ENDBRANCH  24  25
ENDBRANCH  23  24
ENDBRANCH  22  23
ENDBRANCH  21  22
ENDBRANCH  20  21
ENDBRANCH  19  20
ENDBRANCH  18  19
ENDBRANCH  17  18
ENDBRANCH  16  17
ENDBRANCH  15  16
ENDBRANCH   1  15
TORSDOF 22
ENDMDL
MODEL 2
REMARK VINA RESULT:    -3.757      1.402      3.464
REMARK INTER + INTRA:         -12.933
REMARK INTER:                  -8.772
REMARK INTRA:                  -4.161
REMARK UNBOUND:                -4.344
REMARK SMILES CCCCCCCCCCCCCCCCCCCCCCCC(=O)[O-]
REMARK SMILES IDX 13 1 14 2 15 3 16 4 17 5 18 6 19 7 20 8 21 9 22 10 23 11
REMARK SMILES IDX 24 12 25 13 26 14 12 15 11 16 10 17 9 18 8 19 7 20 6 21 5 22
REMARK SMILES IDX 4 23 3 24 2 25 1 26
REMARK H PARENT
REMARK Flexibility Score: inf
ROOT
ATOM      1  C   UNL     1     -21.628  34.133 -38.701  1.00  0.00     0.000 C 
ENDROOT
BRANCH   1   2
ATOM      2  C   UNL     1     -21.825  33.634 -37.260  1.00  0.00     0.000 C 
BRANCH   2   3
ATOM      3  C   UNL     1     -23.279  33.771 -36.773  1.00  0.00     0.000 C 
BRANCH   3   4
ATOM      4  C   UNL     1     -24.355  33.609 -37.864  1.00  0.00     0.000 C 
BRANCH   4   5
ATOM      5  C   UNL     1     -25.794  33.948 -37.427  1.00  0.00     0.000 C 
BRANCH   5   6
ATOM      6  C   UNL     1     -26.880  33.120 -38.149  1.00  0.00     0.000 C 
BRANCH   6   7
ATOM      7  C   UNL     1     -26.381  31.723 -38.555  1.00  0.00     0.000 C 
BRANCH   7   8
ATOM      8  C   UNL     1     -27.323  31.009 -39.540  1.00  0.00     0.000 C 
BRANCH   8   9
ATOM      9  C   UNL     1     -26.987  31.208 -41.030  1.00  0.00     0.000 C 
BRANCH   9  10
ATOM     10  C   UNL     1     -26.600  29.930 -41.799  1.00  0.00     0.006 C 
BRANCH  10  11
ATOM     11  C   UNL     1     -26.764  28.633 -40.985  1.00  0.00     0.053 C 
BRANCH  11  12
ATOM     12  C   UNL     1     -27.916  27.799 -41.460  1.00  0.00     0.041 C 
ATOM     13  O   UNL     1     -28.859  27.516 -40.677  1.00  0.00    -0.550 OA
ATOM     14  O   UNL     1     -27.958  27.351 -42.774  1.00  0.00    -0.550 OA
ENDBRANCH  11  12
ENDBRANCH  10  11
ENDBRANCH   9  10
ENDBRANCH   8   9
ENDBRANCH   7   8
ENDBRANCH   6   7
ENDBRANCH   5   6
ENDBRANCH   4   5
ENDBRANCH   3   4
ENDBRANCH   2   3
ENDBRANCH   1   2
BRANCH   1  15
ATOM     15  C   UNL     1     -20.500  33.388 -39.434  1.00  0.00     0.000 C 
BRANCH  15  16
ATOM     16  C   UNL     1     -19.902  32.245 -38.592  1.00  0.00     0.000 C 
BRANCH  16  17
ATOM     17  C   UNL     1     -18.628  31.657 -39.221  1.00  0.00     0.000 C 
BRANCH  17  18
ATOM     18  C   UNL     1     -18.630  30.118 -39.235  1.00  0.00    -0.000 C 
BRANCH  18  19
ATOM     19  C   UNL     1     -19.087  29.536 -40.582  1.00  0.00    -0.000 C 
BRANCH  19  20
ATOM     20  C   UNL     1     -18.875  30.515 -41.749  1.00  0.00    -0.000 C 
BRANCH  20  21
ATOM     21  C   UNL     1     -20.190  30.935 -42.430  1.00  0.00    -0.000 C 
BRANCH  21  22
ATOM     22  C   UNL     1     -21.464  30.268 -41.877  1.00  0.00    -0.000 C 
BRANCH  22  23
ATOM     23  C   UNL     1     -22.557  31.282 -41.493  1.00  0.00    -0.000 C 
BRANCH  23  24
ATOM     24  C   UNL     1     -23.383  30.835 -40.273  1.00  0.00    -0.000 C 
BRANCH  24  25
ATOM     25  C   UNL     1     -22.652  29.881 -39.310  1.00  0.00    -0.003 C 
ATOM     26  C   UNL     1     -22.976  30.151 -37.840  1.00  0.00     0.004 C 
ENDBRANCH  24  25
ENDBRANCH  23  24
ENDBRANCH  22  23
ENDBRANCH  21  22
ENDBRANCH  20  21
ENDBRANCH  19  20
ENDBRANCH  18  19
ENDBRANCH  17  18
ENDBRANCH  16  17
ENDBRANCH  15  16
ENDBRANCH   1  15
TORSDOF 22
ENDMDL
MODEL 3
REMARK VINA RESULT:    -3.642      2.066      4.391
REMARK INTER + INTRA:         -12.671
REMARK INTER:                  -8.588
REMARK INTRA:                  -4.083
REMARK UNBOUND:                -4.344
REMARK SMILES CCCCCCCCCCCCCCCCCCCCCCCC(=O)[O-]
REMARK SMILES IDX 13 1 14 2 15 3 16 4 17 5 18 6 19 7 20 8 21 9 22 10 23 11
REMARK SMILES IDX 24 12 25 13 26 14 12 15 11 16 10 17 9 18 8 19 7 20 6 21 5 22
REMARK SMILES IDX 4 23 3 24 2 25 1 26
REMARK H PARENT
REMARK Flexibility Score: inf
ROOT
ATOM      1  C   UNL     1     -24.475  30.861 -41.506  1.00  0.00     0.000 C 
ENDROOT
BRANCH   1   2
ATOM      2  C   UNL     1     -24.004  29.413 -41.723  1.00  0.00     0.000 C 
BRANCH   2   3
ATOM      3  C   UNL     1     -25.171  28.417 -41.855  1.00  0.00     0.000 C 
BRANCH   3   4
ATOM      4  C   UNL     1     -26.340  28.642 -40.876  1.00  0.00     0.000 C 
BRANCH   4   5
ATOM      5  C   UNL     1     -27.741  28.671 -41.518  1.00  0.00     0.000 C 
BRANCH   5   6
ATOM      6  C   UNL     1     -28.087  30.009 -42.209  1.00  0.00     0.000 C 
BRANCH   6   7
ATOM      7  C   UNL     1     -28.761  31.007 -41.252  1.00  0.00     0.000 C 
BRANCH   7   8
ATOM      8  C   UNL     1     -27.813  32.123 -40.780  1.00  0.00     0.000 C 
BRANCH   8   9
ATOM      9  C   UNL     1     -27.661  32.250 -39.253  1.00  0.00     0.000 C 
BRANCH   9  10
ATOM     10  C   UNL     1     -28.424  31.200 -38.421  1.00  0.00     0.006 C 
BRANCH  10  11
ATOM     11  C   UNL     1     -27.516  30.182 -37.708  1.00  0.00     0.053 C 
BRANCH  11  12
ATOM     12  C   UNL     1     -28.294  29.172 -36.920  1.00  0.00     0.041 C 
ATOM     13  O   UNL     1     -28.899  28.238 -37.509  1.00  0.00    -0.550 OA
ATOM     14  O   UNL     1     -28.335  29.248 -35.534  1.00  0.00    -0.550 OA
ENDBRANCH  11  12
ENDBRANCH  10  11
ENDBRANCH   9  10
ENDBRANCH   8   9
ENDBRANCH   7   8
ENDBRANCH   6   7
ENDBRANCH   5   6
ENDBRANCH   4   5
ENDBRANCH   3   4
ENDBRANCH   2   3
ENDBRANCH   1   2
BRANCH   1  15
ATOM     15  C   UNL     1     -23.673  31.582 -40.410  1.00  0.00     0.000 C 
BRANCH  15  16
ATOM     16  C   UNL     1     -24.253  31.350 -39.003  1.00  0.00     0.000 C 
BRANCH  16  17
ATOM     17  C   UNL     1     -23.222  30.744 -38.036  1.00  0.00     0.000 C 
BRANCH  17  18
ATOM     18  C   UNL     1     -22.457  31.814 -37.237  1.00  0.00    -0.000 C 
BRANCH  18  19
ATOM     19  C   UNL     1     -23.100  33.206 -37.340  1.00  0.00    -0.000 C 
BRANCH  19  20
ATOM     20  C   UNL     1     -22.191  34.224 -38.050  1.00  0.00    -0.000 C 
BRANCH  20  21
ATOM     21  C   UNL     1     -20.844  33.624 -38.492  1.00  0.00    -0.000 C 
BRANCH  21  22
ATOM     22  C   UNL     1     -20.657  33.465 -40.013  1.00  0.00    -0.000 C 
BRANCH  22  23
ATOM     23  C   UNL     1     -19.618  32.392 -40.384  1.00  0.00    -0.000 C 
BRANCH  23  24
ATOM     24  C   UNL     1     -19.990  30.994 -39.858  1.00  0.00    -0.000 C 
BRANCH  24  25
ATOM     25  C   UNL     1     -20.423  29.988 -40.940  1.00  0.00    -0.003 C 
ATOM     26  C   UNL     1     -20.476  30.601 -42.339  1.00  0.00     0.004 C 
ENDBRANCH  24  25
ENDBRANCH  23  24
ENDBRANCH  22  23
ENDBRANCH  21  22
ENDBRANCH  20  21
ENDBRANCH  19  20
ENDBRANCH  18  19
ENDBRANCH  17  18
ENDBRANCH  16  17
ENDBRANCH  15  16
ENDBRANCH   1  15
TORSDOF 22
ENDMDL
MODEL 4
REMARK VINA RESULT:    -3.636      2.692      7.297
REMARK INTER + INTRA:         -12.658
REMARK INTER:                  -8.592
REMARK INTRA:                  -4.066
REMARK UNBOUND:                -4.344
REMARK SMILES CCCCCCCCCCCCCCCCCCCCCCCC(=O)[O-]
REMARK SMILES IDX 13 1 14 2 15 3 16 4 17 5 18 6 19 7 20 8 21 9 22 10 23 11
REMARK SMILES IDX 24 12 25 13 26 14 12 15 11 16 10 17 9 18 8 19 7 20 6 21 5 22
REMARK SMILES IDX 4 23 3 24 2 25 1 26
REMARK H PARENT
REMARK Flexibility Score: inf
ROOT
ATOM      1  C   UNL     1     -22.211  29.617 -41.861  1.00  0.00     0.000 C 
ENDROOT
BRANCH   1   2
ATOM      2  C   UNL     1     -21.328  30.815 -42.248  1.00  0.00     0.000 C 
BRANCH   2   3
ATOM      3  C   UNL     1     -19.823  30.489 -42.200  1.00  0.00     0.000 C 
BRANCH   3   4
ATOM      4  C   UNL     1     -18.918  31.452 -42.992  1.00  0.00     0.000 C 
BRANCH   4   5
ATOM      5  C   UNL     1     -17.934  32.281 -42.144  1.00  0.00     0.000 C 
BRANCH   5   6
ATOM      6  C   UNL     1     -17.371  31.527 -40.920  1.00  0.00     0.000 C 
BRANCH   6   7
ATOM      7  C   UNL     1     -17.704  32.229 -39.593  1.00  0.00     0.000 C 
BRANCH   7   8
ATOM      8  C   UNL     1     -18.517  31.345 -38.630  1.00  0.00     0.000 C 
BRANCH   8   9
ATOM      9  C   UNL     1     -19.958  31.819 -38.365  1.00  0.00     0.000 C 
BRANCH   9  10
ATOM     10  C   UNL     1     -20.469  32.938 -39.293  1.00  0.00     0.006 C 
BRANCH  10  11
ATOM     11  C   UNL     1     -22.002  33.084 -39.318  1.00  0.00     0.053 C 
BRANCH  11  12
ATOM     12  C   UNL     1     -22.499  34.080 -38.314  1.00  0.00     0.041 C 
ATOM     13  O   UNL     1     -21.687  34.812 -37.692  1.00  0.00    -0.550 OA
ATOM     14  O   UNL     1     -23.861  34.215 -38.081  1.00  0.00    -0.550 OA
ENDBRANCH  11  12
ENDBRANCH  10  11
ENDBRANCH   9  10
ENDBRANCH   8   9
ENDBRANCH   7   8
ENDBRANCH   6   7
ENDBRANCH   5   6
ENDBRANCH   4   5
ENDBRANCH   3   4
ENDBRANCH   2   3
ENDBRANCH   1   2
BRANCH   1  15
ATOM     15  C   UNL     1     -21.714  28.906 -40.591  1.00  0.00     0.000 C 
BRANCH  15  16
ATOM     16  C   UNL     1     -22.474  29.351 -39.328  1.00  0.00     0.000 C 
BRANCH  16  17
ATOM     17  C   UNL     1     -23.991  29.445 -39.558  1.00  0.00     0.000 C 
BRANCH  17  18
ATOM     18  C   UNL     1     -24.633  30.622 -38.802  1.00  0.00    -0.000 C 
BRANCH  18  19
ATOM     19  C   UNL     1     -25.395  31.582 -39.730  1.00  0.00    -0.000 C 
BRANCH  19  20
ATOM     20  C   UNL     1     -25.391  31.111 -41.195  1.00  0.00    -0.000 C 
BRANCH  20  21
ATOM     21  C   UNL     1     -26.781  30.677 -41.693  1.00  0.00    -0.000 C 
BRANCH  21  22
ATOM     22  C   UNL     1     -27.037  29.157 -41.703  1.00  0.00    -0.000 C 
BRANCH  22  23
ATOM     23  C   UNL     1     -28.452  28.781 -41.230  1.00  0.00    -0.000 C 
BRANCH  23  24
ATOM     24  C   UNL     1     -28.443  27.867 -39.991  1.00  0.00    -0.000 C 
BRANCH  24  25
ATOM     25  C   UNL     1     -27.609  28.389 -38.806  1.00  0.00    -0.003 C 
ATOM     26  C   UNL     1     -28.204  29.641 -38.162  1.00  0.00     0.004 C 
ENDBRANCH  24  25
ENDBRANCH  23  24
ENDBRANCH  22  23
ENDBRANCH  21  22
ENDBRANCH  20  21
ENDBRANCH  19  20
ENDBRANCH  18  19
ENDBRANCH  17  18
ENDBRANCH  16  17
ENDBRANCH  15  16
ENDBRANCH   1  15
TORSDOF 22
ENDMDL
MODEL 5
REMARK VINA RESULT:    -3.606      3.871      6.733
REMARK INTER + INTRA:         -12.589
REMARK INTER:                  -8.675
REMARK INTRA:                  -3.914
REMARK UNBOUND:                -4.344
REMARK SMILES CCCCCCCCCCCCCCCCCCCCCCCC(=O)[O-]
REMARK SMILES IDX 13 1 14 2 15 3 16 4 17 5 18 6 19 7 20 8 21 9 22 10 23 11
REMARK SMILES IDX 24 12 25 13 26 14 12 15 11 16 10 17 9 18 8 19 7 20 6 21 5 22
REMARK SMILES IDX 4 23 3 24 2 25 1 26
REMARK H PARENT
REMARK Flexibility Score: inf
ROOT
ATOM      1  C   UNL     1     -26.311  30.876 -39.386  1.00  0.00     0.000 C 
ENDROOT
BRANCH   1   2
ATOM      2  C   UNL     1     -25.234  30.190 -38.529  1.00  0.00     0.000 C 
BRANCH   2   3
ATOM      3  C   UNL     1     -24.058  31.124 -38.185  1.00  0.00     0.000 C 
BRANCH   3   4
ATOM      4  C   UNL     1     -24.160  32.548 -38.766  1.00  0.00     0.000 C 
BRANCH   4   5
ATOM      5  C   UNL     1     -23.944  33.690 -37.753  1.00  0.00     0.000 C 
BRANCH   5   6
ATOM      6  C   UNL     1     -22.508  33.766 -37.189  1.00  0.00     0.000 C 
BRANCH   6   7
ATOM      7  C   UNL     1     -21.509  34.345 -38.205  1.00  0.00     0.000 C 
BRANCH   7   8
ATOM      8  C   UNL     1     -20.328  33.401 -38.493  1.00  0.00     0.000 C 
BRANCH   8   9
ATOM      9  C   UNL     1     -20.493  31.964 -37.964  1.00  0.00     0.000 C 
BRANCH   9  10
ATOM     10  C   UNL     1     -19.505  31.548 -36.857  1.00  0.00     0.006 C 
BRANCH  10  11
ATOM     11  C   UNL     1     -20.149  31.382 -35.468  1.00  0.00     0.053 C 
BRANCH  11  12
ATOM     12  C   UNL     1     -19.164  31.567 -34.353  1.00  0.00     0.041 C 
ATOM     13  O   UNL     1     -17.983  31.923 -34.603  1.00  0.00    -0.550 OA
ATOM     14  O   UNL     1     -19.555  31.366 -33.036  1.00  0.00    -0.550 OA
ENDBRANCH  11  12
ENDBRANCH  10  11
ENDBRANCH   9  10
ENDBRANCH   8   9
ENDBRANCH   7   8
ENDBRANCH   6   7
ENDBRANCH   5   6
ENDBRANCH   4   5
ENDBRANCH   3   4
ENDBRANCH   2   3
ENDBRANCH   1   2
BRANCH   1  15
ATOM     15  C   UNL     1     -26.486  30.205 -40.759  1.00  0.00     0.000 C 
BRANCH  15  16
ATOM     16  C   UNL     1     -26.122  28.710 -40.737  1.00  0.00     0.000 C 
BRANCH  16  17
ATOM     17  C   UNL     1     -25.184  28.317 -41.890  1.00  0.00     0.000 C 
BRANCH  17  18
ATOM     18  C   UNL     1     -23.854  29.092 -41.863  1.00  0.00    -0.000 C 
BRANCH  18  19
ATOM     19  C   UNL     1     -22.861  28.535 -40.830  1.00  0.00    -0.000 C 
BRANCH  19  20
ATOM     20  C   UNL     1     -21.699  29.503 -40.550  1.00  0.00    -0.000 C 
BRANCH  20  21
ATOM     21  C   UNL     1     -21.864  30.863 -41.252  1.00  0.00    -0.000 C 
BRANCH  21  22
ATOM     22  C   UNL     1     -20.557  31.522 -41.734  1.00  0.00    -0.000 C 
BRANCH  22  23
ATOM     23  C   UNL     1     -19.500  30.502 -42.190  1.00  0.00    -0.000 C 
BRANCH  23  24
ATOM     24  C   UNL     1     -18.082  31.100 -42.256  1.00  0.00    -0.000 C 
BRANCH  24  25
ATOM     25  C   UNL     1     -17.824  32.265 -41.282  1.00  0.00    -0.003 C 
ATOM     26  C   UNL     1     -17.252  31.807 -39.940  1.00  0.00     0.004 C 
ENDBRANCH  24  25
ENDBRANCH  23  24
ENDBRANCH  22  23
ENDBRANCH  21  22
ENDBRANCH  20  21
ENDBRANCH  19  20
ENDBRANCH  18  19
ENDBRANCH  17  18
ENDBRANCH  16  17
ENDBRANCH  15  16
ENDBRANCH   1  15
TORSDOF 22
ENDMDL
MODEL 6
REMARK VINA RESULT:    -3.601      3.273      5.477
REMARK INTER + INTRA:         -12.578
REMARK INTER:                  -9.158
REMARK INTRA:                  -3.420
REMARK UNBOUND:                -4.344
REMARK SMILES CCCCCCCCCCCCCCCCCCCCCCCC(=O)[O-]
REMARK SMILES IDX 13 1 14 2 15 3 16 4 17 5 18 6 19 7 20 8 21 9 22 10 23 11
REMARK SMILES IDX 24 12 25 13 26 14 12 15 11 16 10 17 9 18 8 19 7 20 6 21 5 22
REMARK SMILES IDX 4 23 3 24 2 25 1 26
REMARK H PARENT
REMARK Flexibility Score: inf
ROOT
ATOM      1  C   UNL     1     -21.110  31.579 -39.389  1.00  0.00     0.000 C 
ENDROOT
BRANCH   1   2
ATOM      2  C   UNL     1     -22.111  32.621 -39.915  1.00  0.00     0.000 C 
BRANCH   2   3
ATOM      3  C   UNL     1     -22.439  33.712 -38.879  1.00  0.00     0.000 C 
BRANCH   3   4
ATOM      4  C   UNL     1     -23.089  33.206 -37.576  1.00  0.00     0.000 C 
BRANCH   4   5
ATOM      5  C   UNL     1     -24.396  33.917 -37.172  1.00  0.00     0.000 C 
BRANCH   5   6
ATOM      6  C   UNL     1     -25.669  33.276 -37.767  1.00  0.00     0.000 C 
BRANCH   6   7
ATOM      7  C   UNL     1     -26.899  34.190 -37.642  1.00  0.00     0.000 C 
BRANCH   7   8
ATOM      8  C   UNL     1     -28.103  33.493 -36.983  1.00  0.00     0.000 C 
BRANCH   8   9
ATOM      9  C   UNL     1     -28.439  32.099 -37.543  1.00  0.00     0.000 C 
BRANCH   9  10
ATOM     10  C   UNL     1     -28.818  31.037 -36.492  1.00  0.00     0.006 C 
BRANCH  10  11
ATOM     11  C   UNL     1     -29.969  31.458 -35.559  1.00  0.00     0.053 C 
BRANCH  11  12
ATOM     12  C   UNL     1     -29.755  31.010 -34.145  1.00  0.00     0.041 C 
ATOM     13  O   UNL     1     -30.353  29.993 -33.705  1.00  0.00    -0.550 OA
ATOM     14  O   UNL     1     -28.878  31.701 -33.319  1.00  0.00    -0.550 OA
ENDBRANCH  11  12
ENDBRANCH  10  11
ENDBRANCH   9  10
ENDBRANCH   8   9
ENDBRANCH   7   8
ENDBRANCH   6   7
ENDBRANCH   5   6
ENDBRANCH   4   5
ENDBRANCH   3   4
ENDBRANCH   2   3
ENDBRANCH   1   2
BRANCH   1  15
ATOM     15  C   UNL     1     -21.001  30.351 -40.309  1.00  0.00     0.000 C 
BRANCH  15  16
ATOM     16  C   UNL     1     -20.986  30.729 -41.801  1.00  0.00     0.000 C 
BRANCH  16  17
ATOM     17  C   UNL     1     -22.047  29.966 -42.611  1.00  0.00     0.000 C 
BRANCH  17  18
ATOM     18  C   UNL     1     -23.402  29.885 -41.886  1.00  0.00    -0.000 C 
BRANCH  18  19
ATOM     19  C   UNL     1     -24.000  28.469 -41.898  1.00  0.00    -0.000 C 
BRANCH  19  20
ATOM     20  C   UNL     1     -25.511  28.466 -41.607  1.00  0.00    -0.000 C 
BRANCH  20  21
ATOM     21  C   UNL     1     -25.942  29.587 -40.644  1.00  0.00    -0.000 C 
BRANCH  21  22
ATOM     22  C   UNL     1     -26.705  29.124 -39.387  1.00  0.00    -0.000 C 
BRANCH  22  23
ATOM     23  C   UNL     1     -25.910  29.339 -38.087  1.00  0.00    -0.000 C 
BRANCH  23  24
ATOM     24  C   UNL     1     -24.479  29.850 -38.340  1.00  0.00    -0.000 C 
BRANCH  24  25
ATOM     25  C   UNL     1     -23.362  28.966 -37.755  1.00  0.00    -0.003 C 
ATOM     26  C   UNL     1     -22.599  29.643 -36.617  1.00  0.00     0.004 C 
ENDBRANCH  24  25
ENDBRANCH  23  24
ENDBRANCH  22  23
ENDBRANCH  21  22
ENDBRANCH  20  21
ENDBRANCH  19  20
ENDBRANCH  18  19
ENDBRANCH  17  18
ENDBRANCH  16  17
ENDBRANCH  15  16
ENDBRANCH   1  15
TORSDOF 22
ENDMDL
MODEL 7
REMARK VINA RESULT:    -3.596      2.532      5.103
REMARK INTER + INTRA:         -12.566
REMARK INTER:                  -8.358
REMARK INTRA:                  -4.208
REMARK UNBOUND:                -4.344
REMARK SMILES CCCCCCCCCCCCCCCCCCCCCCCC(=O)[O-]
REMARK SMILES IDX 13 1 14 2 15 3 16 4 17 5 18 6 19 7 20 8 21 9 22 10 23 11
REMARK SMILES IDX 24 12 25 13 26 14 12 15 11 16 10 17 9 18 8 19 7 20 6 21 5 22
REMARK SMILES IDX 4 23 3 24 2 25 1 26
REMARK H PARENT
REMARK Flexibility Score: inf
ROOT
ATOM      1  C   UNL     1     -21.548  33.648 -39.319  1.00  0.00     0.000 C 
ENDROOT
BRANCH   1   2
ATOM      2  C   UNL     1     -22.304  34.169 -38.085  1.00  0.00     0.000 C 
BRANCH   2   3
ATOM      3  C   UNL     1     -23.654  33.462 -37.867  1.00  0.00     0.000 C 
BRANCH   3   4
ATOM      4  C   UNL     1     -23.932  32.273 -38.808  1.00  0.00     0.000 C 
BRANCH   4   5
ATOM      5  C   UNL     1     -24.171  30.920 -38.109  1.00  0.00     0.000 C 
BRANCH   5   6
ATOM      6  C   UNL     1     -25.193  30.014 -38.830  1.00  0.00     0.000 C 
BRANCH   6   7
ATOM      7  C   UNL     1     -25.834  30.703 -40.046  1.00  0.00     0.000 C 
BRANCH   7   8
ATOM      8  C   UNL     1     -27.315  31.060 -39.827  1.00  0.00     0.000 C 
BRANCH   8   9
ATOM      9  C   UNL     1     -27.586  32.533 -39.467  1.00  0.00     0.000 C 
BRANCH   9  10
ATOM     10  C   UNL     1     -27.601  32.855 -37.960  1.00  0.00     0.006 C 
BRANCH  10  11
ATOM     11  C   UNL     1     -27.656  34.360 -37.640  1.00  0.00     0.053 C 
BRANCH  11  12
ATOM     12  C   UNL     1     -28.727  35.072 -38.410  1.00  0.00     0.041 C 
ATOM     13  O   UNL     1     -29.939  34.803 -38.205  1.00  0.00    -0.550 OA
ATOM     14  O   UNL     1     -28.388  36.047 -39.339  1.00  0.00    -0.550 OA
ENDBRANCH  11  12
ENDBRANCH  10  11
ENDBRANCH   9  10
ENDBRANCH   8   9
ENDBRANCH   7   8
ENDBRANCH   6   7
ENDBRANCH   5   6
ENDBRANCH   4   5
ENDBRANCH   3   4
ENDBRANCH   2   3
ENDBRANCH   1   2
BRANCH   1  15
ATOM     15  C   UNL     1     -20.210  32.984 -38.953  1.00  0.00     0.000 C 
BRANCH  15  16
ATOM     16  C   UNL     1     -20.208  32.406 -37.526  1.00  0.00     0.000 C 
BRANCH  16  17
ATOM     17  C   UNL     1     -20.455  30.889 -37.506  1.00  0.00     0.000 C 
BRANCH  17  18
ATOM     18  C   UNL     1     -20.340  30.250 -38.901  1.00  0.00    -0.000 C 
BRANCH  18  19
ATOM     19  C   UNL     1     -21.175  28.968 -39.041  1.00  0.00    -0.000 C 
BRANCH  19  20
ATOM     20  C   UNL     1     -21.954  28.913 -40.366  1.00  0.00    -0.000 C 
BRANCH  20  21
ATOM     21  C   UNL     1     -21.871  30.224 -41.169  1.00  0.00    -0.000 C 
BRANCH  21  22
ATOM     22  C   UNL     1     -21.067  30.148 -42.481  1.00  0.00    -0.000 C 
BRANCH  22  23
ATOM     23  C   UNL     1     -19.862  31.103 -42.506  1.00  0.00    -0.000 C 
BRANCH  23  24
ATOM     24  C   UNL     1     -18.542  30.408 -42.123  1.00  0.00    -0.000 C 
BRANCH  24  25
ATOM     25  C   UNL     1     -17.373  31.361 -41.812  1.00  0.00    -0.003 C 
ATOM     26  C   UNL     1     -17.133  31.544 -40.314  1.00  0.00     0.004 C 
ENDBRANCH  24  25
ENDBRANCH  23  24
ENDBRANCH  22  23
ENDBRANCH  21  22
ENDBRANCH  20  21
ENDBRANCH  19  20
ENDBRANCH  18  19
ENDBRANCH  17  18
ENDBRANCH  16  17
ENDBRANCH  15  16
ENDBRANCH   1  15
TORSDOF 22
ENDMDL
MODEL 8
REMARK VINA RESULT:    -3.594      1.828      4.348
REMARK INTER + INTRA:         -12.560
REMARK INTER:                  -8.293
REMARK INTRA:                  -4.268
REMARK UNBOUND:                -4.344
REMARK SMILES CCCCCCCCCCCCCCCCCCCCCCCC(=O)[O-]
REMARK SMILES IDX 13 1 14 2 15 3 16 4 17 5 18 6 19 7 20 8 21 9 22 10 23 11
REMARK SMILES IDX 24 12 25 13 26 14 12 15 11 16 10 17 9 18 8 19 7 20 6 21 5 22
REMARK SMILES IDX 4 23 3 24 2 25 1 26
REMARK H PARENT
REMARK Flexibility Score: inf
ROOT
ATOM      1  C   UNL     1     -19.761  31.021 -41.603  1.00  0.00     0.000 C 
ENDROOT
BRANCH   1   2
ATOM      2  C   UNL     1     -21.245  31.044 -42.004  1.00  0.00     0.000 C 
BRANCH   2   3
ATOM      3  C   UNL     1     -21.867  29.638 -42.081  1.00  0.00     0.000 C 
BRANCH   3   4
ATOM      4  C   UNL     1     -23.398  29.605 -42.251  1.00  0.00     0.000 C 
BRANCH   4   5
ATOM      5  C   UNL     1     -24.113  28.420 -41.573  1.00  0.00     0.000 C 
BRANCH   5   6
ATOM      6  C   UNL     1     -25.628  28.352 -41.862  1.00  0.00     0.000 C 
BRANCH   6   7
ATOM      7  C   UNL     1     -26.353  29.660 -41.504  1.00  0.00     0.000 C 
BRANCH   7   8
ATOM      8  C   UNL     1     -27.510  29.456 -40.509  1.00  0.00     0.000 C 
BRANCH   8   9
ATOM      9  C   UNL     1     -27.284  30.060 -39.110  1.00  0.00     0.000 C 
BRANCH   9  10
ATOM     10  C   UNL     1     -26.742  29.085 -38.047  1.00  0.00     0.006 C 
BRANCH  10  11
ATOM     11  C   UNL     1     -27.354  27.673 -38.118  1.00  0.00     0.053 C 
BRANCH  11  12
ATOM     12  C   UNL     1     -28.675  27.585 -37.416  1.00  0.00     0.041 C 
ATOM     13  O   UNL     1     -29.688  27.149 -38.023  1.00  0.00    -0.550 OA
ATOM     14  O   UNL     1     -28.784  27.963 -36.084  1.00  0.00    -0.550 OA
ENDBRANCH  11  12
ENDBRANCH  10  11
ENDBRANCH   9  10
ENDBRANCH   8   9
ENDBRANCH   7   8
ENDBRANCH   6   7
ENDBRANCH   5   6
ENDBRANCH   4   5
ENDBRANCH   3   4
ENDBRANCH   2   3
ENDBRANCH   1   2
BRANCH   1  15
ATOM     15  C   UNL     1     -19.358  32.246 -40.765  1.00  0.00     0.000 C 
BRANCH  15  16
ATOM     16  C   UNL     1     -20.550  32.867 -40.015  1.00  0.00     0.000 C 
BRANCH  16  17
ATOM     17  C   UNL     1     -20.240  33.125 -38.531  1.00  0.00     0.000 C 
BRANCH  17  18
ATOM     18  C   UNL     1     -21.327  33.966 -37.837  1.00  0.00    -0.000 C 
BRANCH  18  19
ATOM     19  C   UNL     1     -22.631  34.041 -38.647  1.00  0.00    -0.000 C 
BRANCH  19  20
ATOM     20  C   UNL     1     -23.864  33.646 -37.817  1.00  0.00    -0.000 C 
BRANCH  20  21
ATOM     21  C   UNL     1     -24.636  32.455 -38.413  1.00  0.00    -0.000 C 
BRANCH  21  22
ATOM     22  C   UNL     1     -23.768  31.364 -39.070  1.00  0.00    -0.000 C 
BRANCH  22  23
ATOM     23  C   UNL     1     -23.269  30.307 -38.069  1.00  0.00    -0.000 C 
BRANCH  23  24
ATOM     24  C   UNL     1     -21.839  29.824 -38.375  1.00  0.00    -0.000 C 
BRANCH  24  25
ATOM     25  C   UNL     1     -21.723  28.334 -38.743  1.00  0.00    -0.003 C 
ATOM     26  C   UNL     1     -20.338  27.953 -39.266  1.00  0.00     0.004 C 
ENDBRANCH  24  25
ENDBRANCH  23  24
ENDBRANCH  22  23
ENDBRANCH  21  22
ENDBRANCH  20  21
ENDBRANCH  19  20
ENDBRANCH  18  19
ENDBRANCH  17  18
ENDBRANCH  16  17
ENDBRANCH  15  16
ENDBRANCH   1  15
TORSDOF 22
ENDMDL
MODEL 9
REMARK VINA RESULT:    -3.592      2.378      4.213
REMARK INTER + INTRA:         -12.556
REMARK INTER:                  -8.408
REMARK INTRA:                  -4.148
REMARK UNBOUND:                -4.344
REMARK SMILES CCCCCCCCCCCCCCCCCCCCCCCC(=O)[O-]
REMARK SMILES IDX 13 1 14 2 15 3 16 4 17 5 18 6 19 7 20 8 21 9 22 10 23 11
REMARK SMILES IDX 24 12 25 13 26 14 12 15 11 16 10 17 9 18 8 19 7 20 6 21 5 22
REMARK SMILES IDX 4 23 3 24 2 25 1 26
REMARK H PARENT
REMARK Flexibility Score: inf
ROOT
ATOM      1  C   UNL     1     -23.180  30.252 -41.875  1.00  0.00     0.000 C 
ENDROOT
BRANCH   1   2
ATOM      2  C   UNL     1     -23.543  28.762 -41.769  1.00  0.00     0.000 C 
BRANCH   2   3
ATOM      3  C   UNL     1     -25.060  28.509 -41.843  1.00  0.00     0.000 C 
BRANCH   3   4
ATOM      4  C   UNL     1     -25.944  29.753 -41.630  1.00  0.00     0.000 C 
BRANCH   4   5
ATOM      5  C   UNL     1     -27.460  29.521 -41.790  1.00  0.00     0.000 C 
BRANCH   5   6
ATOM      6  C   UNL     1     -27.998  28.318 -40.985  1.00  0.00     0.000 C 
BRANCH   6   7
ATOM      7  C   UNL     1     -28.711  28.747 -39.692  1.00  0.00     0.000 C 
BRANCH   7   8
ATOM      8  C   UNL     1     -27.743  28.986 -38.520  1.00  0.00     0.000 C 
BRANCH   8   9
ATOM      9  C   UNL     1     -27.873  30.358 -37.832  1.00  0.00     0.000 C 
BRANCH   9  10
ATOM     10  C   UNL     1     -28.540  31.462 -38.676  1.00  0.00     0.006 C 
BRANCH  10  11
ATOM     11  C   UNL     1     -27.576  32.572 -39.134  1.00  0.00     0.053 C 
BRANCH  11  12
ATOM     12  C   UNL     1     -27.730  33.831 -38.336  1.00  0.00     0.041 C 
ATOM     13  O   UNL     1     -28.236  34.857 -38.862  1.00  0.00    -0.550 OA
ATOM     14  O   UNL     1     -27.336  33.867 -37.005  1.00  0.00    -0.550 OA
ENDBRANCH  11  12
ENDBRANCH  10  11
ENDBRANCH   9  10
ENDBRANCH   8   9
ENDBRANCH   7   8
ENDBRANCH   6   7
ENDBRANCH   5   6
ENDBRANCH   4   5
ENDBRANCH   3   4
ENDBRANCH   2   3
ENDBRANCH   1   2
BRANCH   1  15
ATOM     15  C   UNL     1     -21.987  30.502 -42.813  1.00  0.00     0.000 C 
BRANCH  15  16
ATOM     16  C   UNL     1     -20.633  30.400 -42.088  1.00  0.00     0.000 C 
BRANCH  16  17
ATOM     17  C   UNL     1     -20.630  31.140 -40.741  1.00  0.00     0.000 C 
BRANCH  17  18
ATOM     18  C   UNL     1     -19.998  30.309 -39.609  1.00  0.00    -0.000 C 
BRANCH  18  19
ATOM     19  C   UNL     1     -21.025  29.446 -38.860  1.00  0.00    -0.000 C 
BRANCH  19  20
ATOM     20  C   UNL     1     -21.967  30.283 -37.977  1.00  0.00    -0.000 C 
BRANCH  20  21
ATOM     21  C   UNL     1     -23.448  29.891 -38.135  1.00  0.00    -0.000 C 
BRANCH  21  22
ATOM     22  C   UNL     1     -24.408  31.050 -38.464  1.00  0.00    -0.000 C 
BRANCH  22  23
ATOM     23  C   UNL     1     -23.680  32.317 -38.945  1.00  0.00    -0.000 C 
BRANCH  23  24
ATOM     24  C   UNL     1     -23.852  33.506 -37.981  1.00  0.00    -0.000 C 
BRANCH  24  25
ATOM     25  C   UNL     1     -22.565  34.302 -37.698  1.00  0.00    -0.003 C 
ATOM     26  C   UNL     1     -21.469  34.056 -38.734  1.00  0.00     0.004 C 
ENDBRANCH  24  25
ENDBRANCH  23  24
ENDBRANCH  22  23
ENDBRANCH  21  22
ENDBRANCH  20  21
ENDBRANCH  19  20
ENDBRANCH  18  19
ENDBRANCH  17  18
ENDBRANCH  16  17
ENDBRANCH  15  16
ENDBRANCH   1  15
TORSDOF 22
ENDMDL
