MODEL 1
REMARK VINA RESULT:    -4.725      0.000      0.000
REMARK INTER + INTRA:          -5.050
REMARK INTER:                  -5.553
REMARK INTRA:                   0.504
REMARK UNBOUND:                 0.504
REMARK SMILES O=c1c(O)c(-c2ccc(O)cc2)oc2cc(O)cc(O)c12
REMARK SMILES IDX 5 1 3 2 2 3 1 4 21 5 19 6 18 7 16 8 15 9 14 10 13 11 6 12
REMARK SMILES IDX 7 13 8 14 9 15 12 16 11 17 10 18 4 20 20 22 17 24
REMARK H PARENT 10 19 4 21 20 23 17 25
REMARK Flexibility Score: inf
ROOT
ATOM      1  C   UNL     1     -19.651  27.035  16.038  1.00  0.00     0.180 A 
ATOM      2  C   UNL     1     -20.243  28.310  16.028  1.00  0.00     0.208 A 
ATOM      3  C   UNL     1     -19.419  29.444  15.961  1.00  0.00     0.238 A 
ATOM      4  O   UNL     1     -19.953  30.583  16.007  1.00  0.00    -0.285 OA
ATOM      5  C   UNL     1     -18.014  29.290  15.887  1.00  0.00     0.111 A 
ATOM      6  C   UNL     1     -17.086  30.368  15.773  1.00  0.00     0.134 A 
ATOM      7  C   UNL     1     -15.712  30.107  15.840  1.00  0.00     0.093 A 
ATOM      8  C   UNL     1     -15.231  28.802  15.949  1.00  0.00     0.123 A 
ATOM      9  C   UNL     1     -16.130  27.735  16.000  1.00  0.00     0.094 A 
ATOM     10  C   UNL     1     -17.507  27.968  15.973  1.00  0.00     0.146 A 
ATOM     11  O   UNL     1     -18.327  26.926  16.034  1.00  0.00    -0.452 OA
ENDROOT
BRANCH   1  12
ATOM     12  C   UNL     1     -20.454  25.792  16.083  1.00  0.00     0.021 A 
ATOM     13  C   UNL     1     -19.804  24.547  16.044  1.00  0.00     0.016 A 
ATOM     14  C   UNL     1     -20.545  23.361  16.063  1.00  0.00     0.047 A 
ATOM     15  C   UNL     1     -21.941  23.404  16.106  1.00  0.00     0.115 A 
ATOM     16  C   UNL     1     -21.860  25.829  16.106  1.00  0.00     0.016 A 
ATOM     17  C   UNL     1     -22.599  24.641  16.124  1.00  0.00     0.047 A 
BRANCH  15  18
ATOM     18  O   UNL     1     -22.666  22.214  16.124  1.00  0.00    -0.508 OA
ATOM     19  H   UNL     1     -23.538  22.133  16.636  1.00  0.00     0.293 HD
ENDBRANCH  15  18
ENDBRANCH   1  12
BRANCH   2  20
ATOM     20  O   UNL     1     -21.633  28.440  16.125  1.00  0.00    -0.502 OA
ATOM     21  H   UNL     1     -22.082  28.917  16.897  1.00  0.00     0.293 HD
ENDBRANCH   2  20
BRANCH   6  22
ATOM     22  O   UNL     1     -17.457  31.701  15.568  1.00  0.00    -0.507 OA
ATOM     23  H   UNL     1     -18.304  32.122  15.920  1.00  0.00     0.293 HD
ENDBRANCH   6  22
BRANCH   8  24
ATOM     24  O   UNL     1     -13.858  28.577  15.997  1.00  0.00    -0.508 OA
ATOM     25  H   UNL     1     -13.475  27.639  16.015  1.00  0.00     0.293 HD
ENDBRANCH   8  24
TORSDOF 5
ENDMDL
MODEL 2
REMARK VINA RESULT:    -4.451      2.396      7.438
REMARK INTER + INTRA:          -4.728
REMARK INTER:                  -4.432
REMARK INTRA:                  -0.297
REMARK UNBOUND:                 0.504
REMARK SMILES O=c1c(O)c(-c2ccc(O)cc2)oc2cc(O)cc(O)c12
REMARK SMILES IDX 5 1 3 2 2 3 1 4 21 5 19 6 18 7 16 8 15 9 14 10 13 11 6 12
REMARK SMILES IDX 7 13 8 14 9 15 12 16 11 17 10 18 4 20 20 22 17 24
REMARK H PARENT 10 19 4 21 20 23 17 25
REMARK Flexibility Score: inf
ROOT
ATOM      1  C   UNL     1     -16.755  29.620  15.347  1.00  0.00     0.180 A 
ATOM      2  C   UNL     1     -16.743  28.237  15.597  1.00  0.00     0.208 A 
ATOM      3  C   UNL     1     -17.958  27.579  15.849  1.00  0.00     0.238 A 
ATOM      4  O   UNL     1     -17.934  26.351  16.125  1.00  0.00    -0.285 OA
ATOM      5  C   UNL     1     -19.170  28.308  15.832  1.00  0.00     0.111 A 
ATOM      6  C   UNL     1     -20.463  27.737  16.033  1.00  0.00     0.134 A 
ATOM      7  C   UNL     1     -21.582  28.574  16.125  1.00  0.00     0.093 A 
ATOM      8  C   UNL     1     -21.465  29.954  15.958  1.00  0.00     0.123 A 
ATOM      9  C   UNL     1     -20.214  30.517  15.700  1.00  0.00     0.094 A 
ATOM     10  C   UNL     1     -19.074  29.711  15.640  1.00  0.00     0.146 A 
ATOM     11  O   UNL     1     -17.902  30.288  15.403  1.00  0.00    -0.452 OA
ENDROOT
BRANCH   1  12
ATOM     12  C   UNL     1     -15.519  30.378  15.048  1.00  0.00     0.021 A 
ATOM     13  C   UNL     1     -14.869  31.075  16.081  1.00  0.00     0.016 A 
ATOM     14  C   UNL     1     -13.712  31.816  15.817  1.00  0.00     0.047 A 
ATOM     15  C   UNL     1     -13.201  31.881  14.518  1.00  0.00     0.115 A 
ATOM     16  C   UNL     1     -15.010  30.465  13.740  1.00  0.00     0.016 A 
ATOM     17  C   UNL     1     -13.854  31.207  13.478  1.00  0.00     0.047 A 
BRANCH  15  18
ATOM     18  O   UNL     1     -12.048  32.623  14.269  1.00  0.00    -0.508 OA
ATOM     19  H   UNL     1     -12.085  33.624  14.111  1.00  0.00     0.293 HD
ENDBRANCH  15  18
ENDBRANCH   1  12
BRANCH   2  20
ATOM     20  O   UNL     1     -15.532  27.539  15.631  1.00  0.00    -0.502 OA
ATOM     21  H   UNL     1     -14.787  27.774  16.276  1.00  0.00     0.293 HD
ENDBRANCH   2  20
BRANCH   6  22
ATOM     22  O   UNL     1     -20.704  26.363  16.121  1.00  0.00    -0.507 OA
ATOM     23  H   UNL     1     -21.280  25.838  15.480  1.00  0.00     0.293 HD
ENDBRANCH   6  22
BRANCH   8  24
ATOM     24  O   UNL     1     -22.601  30.755  16.040  1.00  0.00    -0.508 OA
ATOM     25  H   UNL     1     -22.585  31.651  16.513  1.00  0.00     0.293 HD
ENDBRANCH   8  24
TORSDOF 5
ENDMDL
MODEL 3
REMARK VINA RESULT:    -4.214      1.335      1.879
REMARK INTER + INTRA:          -4.449
REMARK INTER:                  -4.909
REMARK INTRA:                   0.460
REMARK UNBOUND:                 0.504
REMARK SMILES O=c1c(O)c(-c2ccc(O)cc2)oc2cc(O)cc(O)c12
REMARK SMILES IDX 5 1 3 2 2 3 1 4 21 5 19 6 18 7 16 8 15 9 14 10 13 11 6 12
REMARK SMILES IDX 7 13 8 14 9 15 12 16 11 17 10 18 4 20 20 22 17 24
REMARK H PARENT 10 19 4 21 20 23 17 25
REMARK Flexibility Score: inf
ROOT
ATOM      1  C   UNL     1     -18.073  27.413  15.738  1.00  0.00     0.180 A 
ATOM      2  C   UNL     1     -18.359  28.789  15.751  1.00  0.00     0.208 A 
ATOM      3  C   UNL     1     -17.297  29.706  15.696  1.00  0.00     0.238 A 
ATOM      4  O   UNL     1     -17.558  30.936  15.762  1.00  0.00    -0.285 OA
ATOM      5  C   UNL     1     -15.965  29.237  15.611  1.00  0.00     0.111 A 
ATOM      6  C   UNL     1     -14.815  30.077  15.508  1.00  0.00     0.134 A 
ATOM      7  C   UNL     1     -13.537  29.508  15.562  1.00  0.00     0.093 A 
ATOM      8  C   UNL     1     -13.367  28.126  15.649  1.00  0.00     0.123 A 
ATOM      9  C   UNL     1     -14.485  27.291  15.689  1.00  0.00     0.094 A 
ATOM     10  C   UNL     1     -15.773  27.833  15.674  1.00  0.00     0.146 A 
ATOM     11  O   UNL     1     -16.809  27.004  15.725  1.00  0.00    -0.452 OA
ENDROOT
BRANCH   1  12
ATOM     12  C   UNL     1     -19.138  26.386  15.769  1.00  0.00     0.021 A 
ATOM     13  C   UNL     1     -18.840  25.068  15.383  1.00  0.00     0.016 A 
ATOM     14  C   UNL     1     -19.837  24.087  15.383  1.00  0.00     0.047 A 
ATOM     15  C   UNL     1     -21.144  24.412  15.755  1.00  0.00     0.115 A 
ATOM     16  C   UNL     1     -20.461  26.711  16.123  1.00  0.00     0.016 A 
ATOM     17  C   UNL     1     -21.456  25.728  16.122  1.00  0.00     0.047 A 
BRANCH  15  18
ATOM     18  O   UNL     1     -22.127  23.425  15.751  1.00  0.00    -0.508 OA
ATOM     19  H   UNL     1     -21.994  22.543  16.233  1.00  0.00     0.293 HD
ENDBRANCH  15  18
ENDBRANCH   1  12
BRANCH   2  20
ATOM     20  O   UNL     1     -19.681  29.231  15.858  1.00  0.00    -0.502 OA
ATOM     21  H   UNL     1     -20.258  29.031  16.666  1.00  0.00     0.293 HD
ENDBRANCH   2  20
BRANCH   6  22
ATOM     22  O   UNL     1     -14.873  31.462  15.325  1.00  0.00    -0.507 OA
ATOM     23  H   UNL     1     -14.439  32.140  15.933  1.00  0.00     0.293 HD
ENDBRANCH   6  22
BRANCH   8  24
ATOM     24  O   UNL     1     -12.081  27.593  15.684  1.00  0.00    -0.508 OA
ATOM     25  H   UNL     1     -11.533  27.475  14.840  1.00  0.00     0.293 HD
ENDBRANCH   8  24
TORSDOF 5
ENDMDL
MODEL 4
REMARK VINA RESULT:    -4.054      5.254      9.326
REMARK INTER + INTRA:          -4.262
REMARK INTER:                  -4.529
REMARK INTRA:                   0.267
REMARK UNBOUND:                 0.504
REMARK SMILES O=c1c(O)c(-c2ccc(O)cc2)oc2cc(O)cc(O)c12
REMARK SMILES IDX 5 1 3 2 2 3 1 4 21 5 19 6 18 7 16 8 15 9 14 10 13 11 6 12
REMARK SMILES IDX 7 13 8 14 9 15 12 16 11 17 10 18 4 20 20 22 17 24
REMARK H PARENT 10 19 4 21 20 23 17 25
REMARK Flexibility Score: inf
ROOT
ATOM      1  C   UNL     1     -13.906  30.468  11.440  1.00  0.00     0.180 A 
ATOM      2  C   UNL     1     -13.003  29.489  11.890  1.00  0.00     0.208 A 
ATOM      3  C   UNL     1     -13.232  28.870  13.129  1.00  0.00     0.238 A 
ATOM      4  O   UNL     1     -12.391  28.033  13.550  1.00  0.00    -0.285 OA
ATOM      5  C   UNL     1     -14.368  29.224  13.894  1.00  0.00     0.111 A 
ATOM      6  C   UNL     1     -14.720  28.631  15.144  1.00  0.00     0.134 A 
ATOM      7  C   UNL     1     -15.795  29.151  15.877  1.00  0.00     0.093 A 
ATOM      8  C   UNL     1     -16.569  30.197  15.376  1.00  0.00     0.123 A 
ATOM      9  C   UNL     1     -16.270  30.744  14.127  1.00  0.00     0.094 A 
ATOM     10  C   UNL     1     -15.182  30.271  13.390  1.00  0.00     0.146 A 
ATOM     11  O   UNL     1     -14.926  30.826  12.212  1.00  0.00    -0.452 OA
ENDROOT
BRANCH   1  12
ATOM     12  C   UNL     1     -13.746  31.148  10.134  1.00  0.00     0.021 A 
ATOM     13  C   UNL     1     -14.886  31.475   9.381  1.00  0.00     0.016 A 
ATOM     14  C   UNL     1     -14.756  32.097   8.135  1.00  0.00     0.047 A 
ATOM     15  C   UNL     1     -13.489  32.386   7.621  1.00  0.00     0.115 A 
ATOM     16  C   UNL     1     -12.473  31.423   9.602  1.00  0.00     0.016 A 
ATOM     17  C   UNL     1     -12.346  32.045   8.356  1.00  0.00     0.047 A 
BRANCH  15  18
ATOM     18  O   UNL     1     -13.375  33.006   6.378  1.00  0.00    -0.508 OA
ATOM     19  H   UNL     1     -14.178  33.128   5.772  1.00  0.00     0.293 HD
ENDBRANCH  15  18
ENDBRANCH   1  12
BRANCH   2  20
ATOM     20  O   UNL     1     -11.875  29.170  11.128  1.00  0.00    -0.502 OA
ATOM     21  H   UNL     1     -11.662  28.222  10.842  1.00  0.00     0.293 HD
ENDBRANCH   2  20
BRANCH   6  22
ATOM     22  O   UNL     1     -14.070  27.522  15.693  1.00  0.00    -0.507 OA
ATOM     23  H   UNL     1     -14.070  26.597  15.289  1.00  0.00     0.293 HD
ENDBRANCH   6  22
BRANCH   8  24
ATOM     24  O   UNL     1     -17.640  30.679  16.125  1.00  0.00    -0.508 OA
ATOM     25  H   UNL     1     -18.470  30.120  16.282  1.00  0.00     0.293 HD
ENDBRANCH   8  24
TORSDOF 5
ENDMDL
MODEL 5
REMARK VINA RESULT:    -3.915      1.676      6.641
REMARK INTER + INTRA:          -4.098
REMARK INTER:                  -4.511
REMARK INTRA:                   0.414
REMARK UNBOUND:                 0.504
REMARK SMILES O=c1c(O)c(-c2ccc(O)cc2)oc2cc(O)cc(O)c12
REMARK SMILES IDX 5 1 3 2 2 3 1 4 21 5 19 6 18 7 16 8 15 9 14 10 13 11 6 12
REMARK SMILES IDX 7 13 8 14 9 15 12 16 11 17 10 18 4 20 20 22 17 24
REMARK H PARENT 10 19 4 21 20 23 17 25
REMARK Flexibility Score: inf
ROOT
ATOM      1  C   UNL     1     -17.438  28.931  15.711  1.00  0.00     0.180 A 
ATOM      2  C   UNL     1     -18.714  29.514  15.795  1.00  0.00     0.208 A 
ATOM      3  C   UNL     1     -19.843  28.681  15.827  1.00  0.00     0.238 A 
ATOM      4  O   UNL     1     -20.985  29.212  15.848  1.00  0.00    -0.285 OA
ATOM      5  C   UNL     1     -19.683  27.276  15.792  1.00  0.00     0.111 A 
ATOM      6  C   UNL     1     -20.755  26.336  15.862  1.00  0.00     0.134 A 
ATOM      7  C   UNL     1     -20.490  24.972  15.687  1.00  0.00     0.093 A 
ATOM      8  C   UNL     1     -19.187  24.508  15.511  1.00  0.00     0.123 A 
ATOM      9  C   UNL     1     -18.124  25.413  15.502  1.00  0.00     0.094 A 
ATOM     10  C   UNL     1     -18.362  26.783  15.638  1.00  0.00     0.146 A 
ATOM     11  O   UNL     1     -17.324  27.611  15.613  1.00  0.00    -0.452 OA
ENDROOT
BRANCH   1  12
ATOM     12  C   UNL     1     -16.199  29.742  15.698  1.00  0.00     0.021 A 
ATOM     13  C   UNL     1     -14.988  29.147  15.306  1.00  0.00     0.016 A 
ATOM     14  C   UNL     1     -13.802  29.889  15.307  1.00  0.00     0.047 A 
ATOM     15  C   UNL     1     -13.809  31.226  15.713  1.00  0.00     0.115 A 
ATOM     16  C   UNL     1     -16.196  31.083  16.123  1.00  0.00     0.016 A 
ATOM     17  C   UNL     1     -15.009  31.822  16.124  1.00  0.00     0.047 A 
BRANCH  15  18
ATOM     18  O   UNL     1     -12.620  31.953  15.708  1.00  0.00    -0.508 OA
ATOM     19  H   UNL     1     -12.382  32.575  14.944  1.00  0.00     0.293 HD
ENDBRANCH  15  18
ENDBRANCH   1  12
BRANCH   2  20
ATOM     20  O   UNL     1     -18.851  30.906  15.806  1.00  0.00    -0.502 OA
ATOM     21  H   UNL     1     -18.054  31.531  15.808  1.00  0.00     0.293 HD
ENDBRANCH   2  20
BRANCH   6  22
ATOM     22  O   UNL     1     -22.083  26.684  16.125  1.00  0.00    -0.507 OA
ATOM     23  H   UNL     1     -22.520  27.546  15.833  1.00  0.00     0.293 HD
ENDBRANCH   6  22
BRANCH   8  24
ATOM     24  O   UNL     1     -18.958  23.143  15.356  1.00  0.00    -0.508 OA
ATOM     25  H   UNL     1     -18.762  22.738  14.448  1.00  0.00     0.293 HD
ENDBRANCH   8  24
TORSDOF 5
ENDMDL
MODEL 6
REMARK VINA RESULT:    -3.871      2.782      4.574
REMARK INTER + INTRA:          -4.047
REMARK INTER:                  -4.513
REMARK INTRA:                   0.466
REMARK UNBOUND:                 0.504
REMARK SMILES O=c1c(O)c(-c2ccc(O)cc2)oc2cc(O)cc(O)c12
REMARK SMILES IDX 5 1 3 2 2 3 1 4 21 5 19 6 18 7 16 8 15 9 14 10 13 11 6 12
REMARK SMILES IDX 7 13 8 14 9 15 12 16 11 17 10 18 4 20 20 22 17 24
REMARK H PARENT 10 19 4 21 20 23 17 25
REMARK Flexibility Score: inf
ROOT
ATOM      1  C   UNL     1     -16.985  29.414  15.750  1.00  0.00     0.180 A 
ATOM      2  C   UNL     1     -16.293  30.634  15.844  1.00  0.00     0.208 A 
ATOM      3  C   UNL     1     -14.897  30.640  15.698  1.00  0.00     0.238 A 
ATOM      4  O   UNL     1     -14.279  31.728  15.836  1.00  0.00    -0.285 OA
ATOM      5  C   UNL     1     -14.211  29.428  15.443  1.00  0.00     0.111 A 
ATOM      6  C   UNL     1     -12.802  29.322  15.237  1.00  0.00     0.134 A 
ATOM      7  C   UNL     1     -12.214  28.057  15.123  1.00  0.00     0.093 A 
ATOM      8  C   UNL     1     -12.990  26.898  15.142  1.00  0.00     0.123 A 
ATOM      9  C   UNL     1     -14.375  26.993  15.283  1.00  0.00     0.094 A 
ATOM     10  C   UNL     1     -14.986  28.240  15.435  1.00  0.00     0.146 A 
ATOM     11  O   UNL     1     -16.305  28.286  15.577  1.00  0.00    -0.452 OA
ENDROOT
BRANCH   1  12
ATOM     12  C   UNL     1     -18.458  29.332  15.869  1.00  0.00     0.021 A 
ATOM     13  C   UNL     1     -19.078  28.072  15.923  1.00  0.00     0.016 A 
ATOM     14  C   UNL     1     -20.470  27.971  16.012  1.00  0.00     0.047 A 
ATOM     15  C   UNL     1     -21.259  29.124  16.035  1.00  0.00     0.115 A 
ATOM     16  C   UNL     1     -19.259  30.488  15.872  1.00  0.00     0.016 A 
ATOM     17  C   UNL     1     -20.651  30.384  15.961  1.00  0.00     0.047 A 
BRANCH  15  18
ATOM     18  O   UNL     1     -22.645  29.008  16.124  1.00  0.00    -0.508 OA
ATOM     19  H   UNL     1     -23.085  28.481  16.871  1.00  0.00     0.293 HD
ENDBRANCH  15  18
ENDBRANCH   1  12
BRANCH   2  20
ATOM     20  O   UNL     1     -16.988  31.817  16.118  1.00  0.00    -0.502 OA
ATOM     21  H   UNL     1     -16.677  32.720  15.783  1.00  0.00     0.293 HD
ENDBRANCH   2  20
BRANCH   6  22
ATOM     22  O   UNL     1     -11.947  30.421  15.110  1.00  0.00    -0.507 OA
ATOM     23  H   UNL     1     -11.536  30.732  14.242  1.00  0.00     0.293 HD
ENDBRANCH   6  22
BRANCH   8  24
ATOM     24  O   UNL     1     -12.373  25.656  15.010  1.00  0.00    -0.508 OA
ATOM     25  H   UNL     1     -11.374  25.573  14.860  1.00  0.00     0.293 HD
ENDBRANCH   8  24
TORSDOF 5
ENDMDL
MODEL 7
REMARK VINA RESULT:    -3.788      5.904      9.829
REMARK INTER + INTRA:          -3.949
REMARK INTER:                  -3.873
REMARK INTRA:                  -0.076
REMARK UNBOUND:                 0.504
REMARK SMILES O=c1c(O)c(-c2ccc(O)cc2)oc2cc(O)cc(O)c12
REMARK SMILES IDX 5 1 3 2 2 3 1 4 21 5 19 6 18 7 16 8 15 9 14 10 13 11 6 12
REMARK SMILES IDX 7 13 8 14 9 15 12 16 11 17 10 18 4 20 20 22 17 24
REMARK H PARENT 10 19 4 21 20 23 17 25
REMARK Flexibility Score: inf
ROOT
ATOM      1  C   UNL     1     -13.090  31.039  11.175  1.00  0.00     0.180 A 
ATOM      2  C   UNL     1     -12.460  31.740  12.218  1.00  0.00     0.208 A 
ATOM      3  C   UNL     1     -12.463  31.188  13.509  1.00  0.00     0.238 A 
ATOM      4  O   UNL     1     -11.944  31.847  14.449  1.00  0.00    -0.285 OA
ATOM      5  C   UNL     1     -13.080  29.936  13.739  1.00  0.00     0.111 A 
ATOM      6  C   UNL     1     -13.107  29.264  14.998  1.00  0.00     0.134 A 
ATOM      7  C   UNL     1     -13.859  28.092  15.140  1.00  0.00     0.093 A 
ATOM      8  C   UNL     1     -14.531  27.531  14.054  1.00  0.00     0.123 A 
ATOM      9  C   UNL     1     -14.462  28.147  12.803  1.00  0.00     0.094 A 
ATOM     10  C   UNL     1     -13.749  29.338  12.640  1.00  0.00     0.146 A 
ATOM     11  O   UNL     1     -13.718  29.897  11.437  1.00  0.00    -0.452 OA
ENDROOT
BRANCH   1  12
ATOM     12  C   UNL     1     -13.107  31.543   9.784  1.00  0.00     0.021 A 
ATOM     13  C   UNL     1     -11.892  31.770   9.115  1.00  0.00     0.016 A 
ATOM     14  C   UNL     1     -11.886  32.267   7.808  1.00  0.00     0.047 A 
ATOM     15  C   UNL     1     -13.089  32.557   7.159  1.00  0.00     0.115 A 
ATOM     16  C   UNL     1     -14.314  31.856   9.132  1.00  0.00     0.016 A 
ATOM     17  C   UNL     1     -14.305  32.353   7.826  1.00  0.00     0.047 A 
BRANCH  15  18
ATOM     18  O   UNL     1     -13.067  33.052   5.857  1.00  0.00    -0.508 OA
ATOM     19  H   UNL     1     -13.613  32.622   5.118  1.00  0.00     0.293 HD
ENDBRANCH  15  18
ENDBRANCH   1  12
BRANCH   2  20
ATOM     20  O   UNL     1     -11.875  32.986  11.974  1.00  0.00    -0.502 OA
ATOM     21  H   UNL     1     -11.474  33.553  12.712  1.00  0.00     0.293 HD
ENDBRANCH   2  20
BRANCH   6  22
ATOM     22  O   UNL     1     -12.396  29.689  16.125  1.00  0.00    -0.507 OA
ATOM     23  H   UNL     1     -12.076  30.633  16.281  1.00  0.00     0.293 HD
ENDBRANCH   6  22
BRANCH   8  24
ATOM     24  O   UNL     1     -15.257  26.355  14.227  1.00  0.00    -0.508 OA
ATOM     25  H   UNL     1     -16.005  26.289  14.907  1.00  0.00     0.293 HD
ENDBRANCH   8  24
TORSDOF 5
ENDMDL
MODEL 8
REMARK VINA RESULT:    -3.605      3.413      5.254
REMARK INTER + INTRA:          -3.733
REMARK INTER:                  -3.694
REMARK INTRA:                  -0.040
REMARK UNBOUND:                 0.504
REMARK SMILES O=c1c(O)c(-c2ccc(O)cc2)oc2cc(O)cc(O)c12
REMARK SMILES IDX 5 1 3 2 2 3 1 4 21 5 19 6 18 7 16 8 15 9 14 10 13 11 6 12
REMARK SMILES IDX 7 13 8 14 9 15 12 16 11 17 10 18 4 20 20 22 17 24
REMARK H PARENT 10 19 4 21 20 23 17 25
REMARK Flexibility Score: inf
ROOT
ATOM      1  C   UNL     1     -16.950  29.543  15.354  1.00  0.00     0.180 A 
ATOM      2  C   UNL     1     -16.406  28.307  15.745  1.00  0.00     0.208 A 
ATOM      3  C   UNL     1     -15.013  28.133  15.710  1.00  0.00     0.238 A 
ATOM      4  O   UNL     1     -14.537  27.007  16.009  1.00  0.00    -0.285 OA
ATOM      5  C   UNL     1     -14.181  29.202  15.301  1.00  0.00     0.111 A 
ATOM      6  C   UNL     1     -12.754  29.151  15.266  1.00  0.00     0.134 A 
ATOM      7  C   UNL     1     -12.037  30.223  14.720  1.00  0.00     0.093 A 
ATOM      8  C   UNL     1     -12.690  31.369  14.268  1.00  0.00     0.123 A 
ATOM      9  C   UNL     1     -14.081  31.455  14.353  1.00  0.00     0.094 A 
ATOM     10  C   UNL     1     -14.825  30.386  14.859  1.00  0.00     0.146 A 
ATOM     11  O   UNL     1     -16.146  30.504  14.912  1.00  0.00    -0.452 OA
ENDROOT
BRANCH   1  12
ATOM     12  C   UNL     1     -18.405  29.810  15.388  1.00  0.00     0.021 A 
ATOM     13  C   UNL     1     -19.273  29.011  14.624  1.00  0.00     0.016 A 
ATOM     14  C   UNL     1     -20.649  29.260  14.624  1.00  0.00     0.047 A 
ATOM     15  C   UNL     1     -21.173  30.317  15.373  1.00  0.00     0.115 A 
ATOM     16  C   UNL     1     -18.937  30.884  16.124  1.00  0.00     0.016 A 
ATOM     17  C   UNL     1     -20.313  31.131  16.122  1.00  0.00     0.047 A 
BRANCH  15  18
ATOM     18  O   UNL     1     -22.546  30.553  15.364  1.00  0.00    -0.508 OA
ATOM     19  H   UNL     1     -23.119  30.383  16.183  1.00  0.00     0.293 HD
ENDBRANCH  15  18
ENDBRANCH   1  12
BRANCH   2  20
ATOM     20  O   UNL     1     -17.248  27.257  16.125  1.00  0.00    -0.502 OA
ATOM     21  H   UNL     1     -18.202  27.178  15.794  1.00  0.00     0.293 HD
ENDBRANCH   2  20
BRANCH   6  22
ATOM     22  O   UNL     1     -11.998  28.091  15.776  1.00  0.00    -0.507 OA
ATOM     23  H   UNL     1     -10.993  28.093  15.866  1.00  0.00     0.293 HD
ENDBRANCH   6  22
BRANCH   8  24
ATOM     24  O   UNL     1     -11.945  32.423  13.745  1.00  0.00    -0.508 OA
ATOM     25  H   UNL     1     -11.756  33.259  14.286  1.00  0.00     0.293 HD
ENDBRANCH   8  24
TORSDOF 5
ENDMDL
