MODEL 1
REMARK VINA RESULT:    -7.945      0.000      0.000
REMARK INTER + INTRA:          -9.780
REMARK INTER:                  -9.571
REMARK INTRA:                  -0.209
REMARK UNBOUND:                -0.209
REMARK SMILES O=c1c(O)c(-c2ccc(O)c(O)c2)oc2cc(O)cc(O)c12
REMARK SMILES IDX 5 1 3 2 2 3 1 4 22 5 20 6 19 7 17 8 16 9 15 10 14 11 6 12
REMARK SMILES IDX 7 13 8 14 9 15 13 16 11 17 10 18 12 20 4 22 21 24 18 26
REMARK H PARENT 10 19 12 21 4 23 21 25 18 27
REMARK Flexibility Score: inf
ROOT
ATOM      1  C   UNL     1       4.977  -7.031   6.807  1.00  0.00     0.180 A 
ATOM      2  C   UNL     1       5.110  -6.660   8.156  1.00  0.00     0.208 A 
ATOM      3  C   UNL     1       6.386  -6.670   8.741  1.00  0.00     0.238 A 
ATOM      4  O   UNL     1       6.507  -6.285   9.933  1.00  0.00    -0.285 OA
ATOM      5  C   UNL     1       7.509  -7.066   7.976  1.00  0.00     0.111 A 
ATOM      6  C   UNL     1       8.843  -7.151   8.478  1.00  0.00     0.134 A 
ATOM      7  C   UNL     1       9.896  -7.428   7.598  1.00  0.00     0.093 A 
ATOM      8  C   UNL     1       9.658  -7.687   6.249  1.00  0.00     0.123 A 
ATOM      9  C   UNL     1       8.351  -7.664   5.759  1.00  0.00     0.094 A 
ATOM     10  C   UNL     1       7.284  -7.355   6.606  1.00  0.00     0.146 A 
ATOM     11  O   UNL     1       6.058  -7.335   6.098  1.00  0.00    -0.452 OA
ENDROOT
BRANCH   1  12
ATOM     12  C   UNL     1       3.661  -7.070   6.127  1.00  0.00     0.025 A 
ATOM     13  C   UNL     1       3.315  -6.122   5.148  1.00  0.00     0.016 A 
ATOM     14  C   UNL     1       2.060  -6.164   4.537  1.00  0.00     0.051 A 
ATOM     15  C   UNL     1       1.127  -7.143   4.903  1.00  0.00     0.157 A 
ATOM     16  C   UNL     1       2.715  -8.036   6.505  1.00  0.00     0.062 A 
ATOM     17  C   UNL     1       1.457  -8.081   5.894  1.00  0.00     0.158 A 
BRANCH  15  18
ATOM     18  O   UNL     1      -0.124  -7.184   4.289  1.00  0.00    -0.504 OA
ATOM     19  H   UNL     1      -0.865  -6.544   4.552  1.00  0.00     0.293 HD
ENDBRANCH  15  18
BRANCH  17  20
ATOM     20  O   UNL     1       0.549  -9.064   6.287  1.00  0.00    -0.504 OA
ATOM     21  H   UNL     1      -0.440  -8.872   6.396  1.00  0.00     0.293 HD
ENDBRANCH  17  20
ENDBRANCH   1  12
BRANCH   2  22
ATOM     22  O   UNL     1       3.992  -6.252   8.887  1.00  0.00    -0.502 OA
ATOM     23  H   UNL     1       4.012  -5.457   9.515  1.00  0.00     0.293 HD
ENDBRANCH   2  22
BRANCH   6  24
ATOM     24  O   UNL     1       9.180  -7.001   9.827  1.00  0.00    -0.507 OA
ATOM     25  H   UNL     1      10.118  -6.867  10.173  1.00  0.00     0.293 HD
ENDBRANCH   6  24
BRANCH   8  26
ATOM     26  O   UNL     1      10.729  -7.975   5.404  1.00  0.00    -0.508 OA
ATOM     27  H   UNL     1      11.687  -7.921   5.728  1.00  0.00     0.293 HD
ENDBRANCH   8  26
TORSDOF 6
ENDMDL
MODEL 2
REMARK VINA RESULT:    -7.816      8.119     12.961
REMARK INTER + INTRA:          -9.625
REMARK INTER:                  -9.292
REMARK INTRA:                  -0.332
REMARK UNBOUND:                -0.209
REMARK SMILES O=c1c(O)c(-c2ccc(O)c(O)c2)oc2cc(O)cc(O)c12
REMARK SMILES IDX 5 1 3 2 2 3 1 4 22 5 20 6 19 7 17 8 16 9 15 10 14 11 6 12
REMARK SMILES IDX 7 13 8 14 9 15 13 16 11 17 10 18 12 20 4 22 21 24 18 26
REMARK H PARENT 10 19 12 21 4 23 21 25 18 27
REMARK Flexibility Score: inf
ROOT
ATOM      1  C   UNL     1      12.060  -4.426  15.080  1.00  0.00     0.180 A 
ATOM      2  C   UNL     1      11.956  -5.127  13.866  1.00  0.00     0.208 A 
ATOM      3  C   UNL     1      10.761  -5.044  13.133  1.00  0.00     0.238 A 
ATOM      4  O   UNL     1      10.693  -5.630  12.021  1.00  0.00    -0.285 OA
ATOM      5  C   UNL     1       9.680  -4.278  13.631  1.00  0.00     0.111 A 
ATOM      6  C   UNL     1       8.410  -4.157  12.991  1.00  0.00     0.134 A 
ATOM      7  C   UNL     1       7.459  -3.267  13.506  1.00  0.00     0.093 A 
ATOM      8  C   UNL     1       7.706  -2.544  14.671  1.00  0.00     0.123 A 
ATOM      9  C   UNL     1       8.923  -2.699  15.338  1.00  0.00     0.094 A 
ATOM     10  C   UNL     1       9.905  -3.552  14.828  1.00  0.00     0.146 A 
ATOM     11  O   UNL     1      11.052  -3.663  15.488  1.00  0.00    -0.452 OA
ENDROOT
BRANCH   1  12
ATOM     12  C   UNL     1      13.277  -4.483  15.922  1.00  0.00     0.025 A 
ATOM     13  C   UNL     1      13.462  -5.501  16.874  1.00  0.00     0.016 A 
ATOM     14  C   UNL     1      14.607  -5.521  17.673  1.00  0.00     0.051 A 
ATOM     15  C   UNL     1      15.578  -4.520  17.544  1.00  0.00     0.157 A 
ATOM     16  C   UNL     1      14.243  -3.469  15.811  1.00  0.00     0.062 A 
ATOM     17  C   UNL     1      15.392  -3.487  16.610  1.00  0.00     0.158 A 
BRANCH  15  18
ATOM     18  O   UNL     1      16.721  -4.544  18.341  1.00  0.00    -0.504 OA
ATOM     19  H   UNL     1      17.191  -5.413  18.570  1.00  0.00     0.293 HD
ENDBRANCH  15  18
BRANCH  17  20
ATOM     20  O   UNL     1      16.335  -2.471  16.461  1.00  0.00    -0.504 OA
ATOM     21  H   UNL     1      16.067  -1.504  16.322  1.00  0.00     0.293 HD
ENDBRANCH  17  20
ENDBRANCH   1  12
BRANCH   2  22
ATOM     22  O   UNL     1      13.042  -5.860  13.383  1.00  0.00    -0.502 OA
ATOM     23  H   UNL     1      12.978  -6.847  13.160  1.00  0.00     0.293 HD
ENDBRANCH   2  22
BRANCH   6  24
ATOM     24  O   UNL     1       8.025  -4.903  11.872  1.00  0.00    -0.507 OA
ATOM     25  H   UNL     1       8.234  -4.656  10.917  1.00  0.00     0.293 HD
ENDBRANCH   6  24
BRANCH   8  26
ATOM     26  O   UNL     1       6.731  -1.679  15.164  1.00  0.00    -0.508 OA
ATOM     27  H   UNL     1       6.655  -0.724  14.835  1.00  0.00     0.293 HD
ENDBRANCH   8  26
TORSDOF 6
ENDMDL
MODEL 3
REMARK VINA RESULT:    -7.741      9.042     11.339
REMARK INTER + INTRA:          -9.534
REMARK INTER:                  -9.239
REMARK INTRA:                  -0.295
REMARK UNBOUND:                -0.209
REMARK SMILES O=c1c(O)c(-c2ccc(O)c(O)c2)oc2cc(O)cc(O)c12
REMARK SMILES IDX 5 1 3 2 2 3 1 4 22 5 20 6 19 7 17 8 16 9 15 10 14 11 6 12
REMARK SMILES IDX 7 13 8 14 9 15 13 16 11 17 10 18 12 20 4 22 21 24 18 26
REMARK H PARENT 10 19 12 21 4 23 21 25 18 27
REMARK Flexibility Score: inf
ROOT
ATOM      1  C   UNL     1      11.795  -4.281  13.938  1.00  0.00     0.180 A 
ATOM      2  C   UNL     1      11.625  -4.955  12.716  1.00  0.00     0.208 A 
ATOM      3  C   UNL     1      11.885  -4.269  11.519  1.00  0.00     0.238 A 
ATOM      4  O   UNL     1      11.783  -4.893  10.430  1.00  0.00    -0.285 OA
ATOM      5  C   UNL     1      12.293  -2.914  11.558  1.00  0.00     0.111 A 
ATOM      6  C   UNL     1      12.544  -2.110  10.405  1.00  0.00     0.134 A 
ATOM      7  C   UNL     1      13.070  -0.822  10.563  1.00  0.00     0.093 A 
ATOM      8  C   UNL     1      13.292  -0.285  11.829  1.00  0.00     0.123 A 
ATOM      9  C   UNL     1      12.994  -1.040  12.965  1.00  0.00     0.094 A 
ATOM     10  C   UNL     1      12.503  -2.342  12.839  1.00  0.00     0.146 A 
ATOM     11  O   UNL     1      12.242  -3.031  13.943  1.00  0.00    -0.452 OA
ENDROOT
BRANCH   1  12
ATOM     12  C   UNL     1      11.518  -4.929  15.240  1.00  0.00     0.025 A 
ATOM     13  C   UNL     1      12.451  -5.790  15.843  1.00  0.00     0.016 A 
ATOM     14  C   UNL     1      12.158  -6.410  17.060  1.00  0.00     0.051 A 
ATOM     15  C   UNL     1      10.925  -6.189  17.687  1.00  0.00     0.157 A 
ATOM     16  C   UNL     1      10.274  -4.729  15.862  1.00  0.00     0.062 A 
ATOM     17  C   UNL     1       9.978  -5.347  17.082  1.00  0.00     0.158 A 
BRANCH  15  18
ATOM     18  O   UNL     1      10.636  -6.807  18.904  1.00  0.00    -0.504 OA
ATOM     19  H   UNL     1      11.252  -7.505  19.304  1.00  0.00     0.293 HD
ENDBRANCH  15  18
BRANCH  17  20
ATOM     20  O   UNL     1       8.738  -5.112  17.676  1.00  0.00    -0.504 OA
ATOM     21  H   UNL     1       7.868  -5.234  17.171  1.00  0.00     0.293 HD
ENDBRANCH  17  20
ENDBRANCH   1  12
BRANCH   2  22
ATOM     22  O   UNL     1      11.242  -6.298  12.701  1.00  0.00    -0.502 OA
ATOM     23  H   UNL     1      10.298  -6.593  12.481  1.00  0.00     0.293 HD
ENDBRANCH   2  22
BRANCH   6  24
ATOM     24  O   UNL     1      12.270  -2.516   9.095  1.00  0.00    -0.507 OA
ATOM     25  H   UNL     1      11.798  -1.952   8.405  1.00  0.00     0.293 HD
ENDBRANCH   6  24
BRANCH   8  26
ATOM     26  O   UNL     1      13.801   1.007  11.949  1.00  0.00    -0.508 OA
ATOM     27  H   UNL     1      13.919   1.448  12.854  1.00  0.00     0.293 HD
ENDBRANCH   8  26
TORSDOF 6
ENDMDL
MODEL 4
REMARK VINA RESULT:    -7.681      7.712     12.106
REMARK INTER + INTRA:          -9.462
REMARK INTER:                  -9.173
REMARK INTRA:                  -0.289
REMARK UNBOUND:                -0.209
REMARK SMILES O=c1c(O)c(-c2ccc(O)c(O)c2)oc2cc(O)cc(O)c12
REMARK SMILES IDX 5 1 3 2 2 3 1 4 22 5 20 6 19 7 17 8 16 9 15 10 14 11 6 12
REMARK SMILES IDX 7 13 8 14 9 15 13 16 11 17 10 18 12 20 4 22 21 24 18 26
REMARK H PARENT 10 19 12 21 4 23 21 25 18 27
REMARK Flexibility Score: inf
ROOT
ATOM      1  C   UNL     1      12.589  -3.474  13.702  1.00  0.00     0.180 A 
ATOM      2  C   UNL     1      11.903  -4.697  13.608  1.00  0.00     0.208 A 
ATOM      3  C   UNL     1      11.412  -5.107  12.357  1.00  0.00     0.238 A 
ATOM      4  O   UNL     1      10.846  -6.228  12.268  1.00  0.00    -0.285 OA
ATOM      5  C   UNL     1      11.598  -4.282  11.222  1.00  0.00     0.111 A 
ATOM      6  C   UNL     1      11.107  -4.580   9.915  1.00  0.00     0.134 A 
ATOM      7  C   UNL     1      11.463  -3.756   8.840  1.00  0.00     0.093 A 
ATOM      8  C   UNL     1      12.236  -2.612   9.034  1.00  0.00     0.123 A 
ATOM      9  C   UNL     1      12.671  -2.279  10.318  1.00  0.00     0.094 A 
ATOM     10  C   UNL     1      12.363  -3.101  11.404  1.00  0.00     0.146 A 
ATOM     11  O   UNL     1      12.805  -2.754  12.607  1.00  0.00    -0.452 OA
ENDROOT
BRANCH   1  12
ATOM     12  C   UNL     1      13.115  -2.963  14.989  1.00  0.00     0.025 A 
ATOM     13  C   UNL     1      12.264  -2.390  15.950  1.00  0.00     0.016 A 
ATOM     14  C   UNL     1      12.785  -1.892  17.147  1.00  0.00     0.051 A 
ATOM     15  C   UNL     1      14.162  -1.947  17.396  1.00  0.00     0.157 A 
ATOM     16  C   UNL     1      14.497  -2.995  15.234  1.00  0.00     0.062 A 
ATOM     17  C   UNL     1      15.022  -2.498  16.432  1.00  0.00     0.158 A 
BRANCH  15  18
ATOM     18  O   UNL     1      14.679  -1.451  18.592  1.00  0.00    -0.504 OA
ATOM     19  H   UNL     1      15.677  -1.370  18.746  1.00  0.00     0.293 HD
ENDBRANCH  15  18
BRANCH  17  20
ATOM     20  O   UNL     1      16.399  -2.561  16.645  1.00  0.00    -0.504 OA
ATOM     21  H   UNL     1      17.053  -2.013  16.099  1.00  0.00     0.293 HD
ENDBRANCH  17  20
ENDBRANCH   1  12
BRANCH   2  22
ATOM     22  O   UNL     1      11.749  -5.506  14.736  1.00  0.00    -0.502 OA
ATOM     23  H   UNL     1      11.607  -6.508  14.673  1.00  0.00     0.293 HD
ENDBRANCH   2  22
BRANCH   6  24
ATOM     24  O   UNL     1      10.252  -5.647   9.627  1.00  0.00    -0.507 OA
ATOM     25  H   UNL     1       9.454  -5.595   9.011  1.00  0.00     0.293 HD
ENDBRANCH   6  24
BRANCH   8  26
ATOM     26  O   UNL     1      12.557  -1.806   7.943  1.00  0.00    -0.508 OA
ATOM     27  H   UNL     1      13.467  -1.368   7.859  1.00  0.00     0.293 HD
ENDBRANCH   8  26
TORSDOF 6
ENDMDL
MODEL 5
REMARK VINA RESULT:    -7.672      2.348      3.390
REMARK INTER + INTRA:          -9.450
REMARK INTER:                  -9.255
REMARK INTRA:                  -0.196
REMARK UNBOUND:                -0.209
REMARK SMILES O=c1c(O)c(-c2ccc(O)c(O)c2)oc2cc(O)cc(O)c12
REMARK SMILES IDX 5 1 3 2 2 3 1 4 22 5 20 6 19 7 17 8 16 9 15 10 14 11 6 12
REMARK SMILES IDX 7 13 8 14 9 15 13 16 11 17 10 18 12 20 4 22 21 24 18 26
REMARK H PARENT 10 19 12 21 4 23 21 25 18 27
REMARK Flexibility Score: inf
ROOT
ATOM      1  C   UNL     1       3.971  -8.545   7.320  1.00  0.00     0.180 A 
ATOM      2  C   UNL     1       3.421  -7.258   7.452  1.00  0.00     0.208 A 
ATOM      3  C   UNL     1       4.217  -6.230   7.982  1.00  0.00     0.238 A 
ATOM      4  O   UNL     1       3.738  -5.067   8.047  1.00  0.00    -0.285 OA
ATOM      5  C   UNL     1       5.545  -6.504   8.389  1.00  0.00     0.111 A 
ATOM      6  C   UNL     1       6.426  -5.547   8.977  1.00  0.00     0.134 A 
ATOM      7  C   UNL     1       7.760  -5.896   9.221  1.00  0.00     0.093 A 
ATOM      8  C   UNL     1       8.228  -7.183   8.960  1.00  0.00     0.123 A 
ATOM      9  C   UNL     1       7.358  -8.144   8.440  1.00  0.00     0.094 A 
ATOM     10  C   UNL     1       6.031  -7.815   8.153  1.00  0.00     0.146 A 
ATOM     11  O   UNL     1       5.240  -8.756   7.651  1.00  0.00    -0.452 OA
ENDROOT
BRANCH   1  12
ATOM     12  C   UNL     1       3.188  -9.686   6.794  1.00  0.00     0.025 A 
ATOM     13  C   UNL     1       3.470 -10.251   5.538  1.00  0.00     0.016 A 
ATOM     14  C   UNL     1       2.703 -11.311   5.051  1.00  0.00     0.051 A 
ATOM     15  C   UNL     1       1.634 -11.815   5.804  1.00  0.00     0.157 A 
ATOM     16  C   UNL     1       2.102 -10.181   7.535  1.00  0.00     0.062 A 
ATOM     17  C   UNL     1       1.331 -11.244   7.050  1.00  0.00     0.158 A 
BRANCH  15  18
ATOM     18  O   UNL     1       0.871 -12.875   5.316  1.00  0.00    -0.504 OA
ATOM     19  H   UNL     1       0.795 -13.751   5.821  1.00  0.00     0.293 HD
ENDBRANCH  15  18
BRANCH  17  20
ATOM     20  O   UNL     1       0.270 -11.716   7.821  1.00  0.00    -0.504 OA
ATOM     21  H   UNL     1       0.177 -12.695   8.067  1.00  0.00     0.293 HD
ENDBRANCH  17  20
ENDBRANCH   1  12
BRANCH   2  22
ATOM     22  O   UNL     1       2.116  -7.004   7.024  1.00  0.00    -0.502 OA
ATOM     23  H   UNL     1       1.443  -6.504   7.594  1.00  0.00     0.293 HD
ENDBRANCH   2  22
BRANCH   6  24
ATOM     24  O   UNL     1       6.037  -4.261   9.362  1.00  0.00    -0.507 OA
ATOM     25  H   UNL     1       5.354  -3.697   8.879  1.00  0.00     0.293 HD
ENDBRANCH   6  24
BRANCH   8  26
ATOM     26  O   UNL     1       9.557  -7.500   9.229  1.00  0.00    -0.508 OA
ATOM     27  H   UNL     1       9.934  -8.419   9.030  1.00  0.00     0.293 HD
ENDBRANCH   8  26
TORSDOF 6
ENDMDL
MODEL 6
REMARK VINA RESULT:    -7.522      2.181      6.762
REMARK INTER + INTRA:          -9.270
REMARK INTER:                  -9.003
REMARK INTRA:                  -0.267
REMARK UNBOUND:                -0.209
REMARK SMILES O=c1c(O)c(-c2ccc(O)c(O)c2)oc2cc(O)cc(O)c12
REMARK SMILES IDX 5 1 3 2 2 3 1 4 22 5 20 6 19 7 17 8 16 9 15 10 14 11 6 12
REMARK SMILES IDX 7 13 8 14 9 15 13 16 11 17 10 18 12 20 4 22 21 24 18 26
REMARK H PARENT 10 19 12 21 4 23 21 25 18 27
REMARK Flexibility Score: inf
ROOT
ATOM      1  C   UNL     1       5.581  -7.556   8.111  1.00  0.00     0.180 A 
ATOM      2  C   UNL     1       4.423  -6.759   8.104  1.00  0.00     0.208 A 
ATOM      3  C   UNL     1       3.204  -7.334   7.710  1.00  0.00     0.238 A 
ATOM      4  O   UNL     1       2.161  -6.631   7.758  1.00  0.00    -0.285 OA
ATOM      5  C   UNL     1       3.162  -8.692   7.311  1.00  0.00     0.111 A 
ATOM      6  C   UNL     1       1.989  -9.365   6.854  1.00  0.00     0.134 A 
ATOM      7  C   UNL     1       2.036 -10.744   6.610  1.00  0.00     0.093 A 
ATOM      8  C   UNL     1       3.225 -11.459   6.743  1.00  0.00     0.123 A 
ATOM      9  C   UNL     1       4.391 -10.799   7.133  1.00  0.00     0.094 A 
ATOM     10  C   UNL     1       4.367  -9.431   7.418  1.00  0.00     0.146 A 
ATOM     11  O   UNL     1       5.496  -8.843   7.794  1.00  0.00    -0.452 OA
ENDROOT
BRANCH   1  12
ATOM     12  C   UNL     1       6.907  -7.016   8.490  1.00  0.00     0.025 A 
ATOM     13  C   UNL     1       7.892  -6.747   7.524  1.00  0.00     0.016 A 
ATOM     14  C   UNL     1       9.144  -6.260   7.907  1.00  0.00     0.051 A 
ATOM     15  C   UNL     1       9.436  -6.048   9.260  1.00  0.00     0.157 A 
ATOM     16  C   UNL     1       7.213  -6.821   9.847  1.00  0.00     0.062 A 
ATOM     17  C   UNL     1       8.466  -6.333  10.235  1.00  0.00     0.158 A 
BRANCH  15  18
ATOM     18  O   UNL     1      10.686  -5.559   9.639  1.00  0.00    -0.504 OA
ATOM     19  H   UNL     1      11.534  -6.089   9.476  1.00  0.00     0.293 HD
ENDBRANCH  15  18
BRANCH  17  20
ATOM     20  O   UNL     1       8.727  -6.140  11.590  1.00  0.00    -0.504 OA
ATOM     21  H   UNL     1       9.065  -5.256  11.953  1.00  0.00     0.293 HD
ENDBRANCH  17  20
ENDBRANCH   1  12
BRANCH   2  22
ATOM     22  O   UNL     1       4.483  -5.428   8.522  1.00  0.00    -0.502 OA
ATOM     23  H   UNL     1       5.355  -4.971   8.764  1.00  0.00     0.293 HD
ENDBRANCH   2  22
BRANCH   6  24
ATOM     24  O   UNL     1       0.771  -8.728   6.600  1.00  0.00    -0.507 OA
ATOM     25  H   UNL     1       0.367  -8.605   5.683  1.00  0.00     0.293 HD
ENDBRANCH   6  24
BRANCH   8  26
ATOM     26  O   UNL     1       3.238 -12.827   6.477  1.00  0.00    -0.508 OA
ATOM     27  H   UNL     1       3.080 -13.510   7.208  1.00  0.00     0.293 HD
ENDBRANCH   8  26
TORSDOF 6
ENDMDL
MODEL 7
REMARK VINA RESULT:    -7.494      2.577      7.257
REMARK INTER + INTRA:          -9.237
REMARK INTER:                  -8.917
REMARK INTRA:                  -0.320
REMARK UNBOUND:                -0.209
REMARK SMILES O=c1c(O)c(-c2ccc(O)c(O)c2)oc2cc(O)cc(O)c12
REMARK SMILES IDX 5 1 3 2 2 3 1 4 22 5 20 6 19 7 17 8 16 9 15 10 14 11 6 12
REMARK SMILES IDX 7 13 8 14 9 15 13 16 11 17 10 18 12 20 4 22 21 24 18 26
REMARK H PARENT 10 19 12 21 4 23 21 25 18 27
REMARK Flexibility Score: inf
ROOT
ATOM      1  C   UNL     1       8.159  -6.937   7.141  1.00  0.00     0.180 A 
ATOM      2  C   UNL     1       8.370  -8.264   6.727  1.00  0.00     0.208 A 
ATOM      3  C   UNL     1       7.279  -9.148   6.698  1.00  0.00     0.238 A 
ATOM      4  O   UNL     1       7.462 -10.319   6.275  1.00  0.00    -0.285 OA
ATOM      5  C   UNL     1       5.998  -8.701   7.100  1.00  0.00     0.111 A 
ATOM      6  C   UNL     1       4.832  -9.522   7.149  1.00  0.00     0.134 A 
ATOM      7  C   UNL     1       3.590  -8.942   7.437  1.00  0.00     0.093 A 
ATOM      8  C   UNL     1       3.482  -7.586   7.741  1.00  0.00     0.123 A 
ATOM      9  C   UNL     1       4.625  -6.785   7.754  1.00  0.00     0.094 A 
ATOM     10  C   UNL     1       5.872  -7.328   7.436  1.00  0.00     0.146 A 
ATOM     11  O   UNL     1       6.933  -6.531   7.450  1.00  0.00    -0.452 OA
ENDROOT
BRANCH   1  12
ATOM     12  C   UNL     1       9.263  -5.952   7.222  1.00  0.00     0.025 A 
ATOM     13  C   UNL     1       9.570  -5.107   6.141  1.00  0.00     0.016 A 
ATOM     14  C   UNL     1      10.631  -4.203   6.231  1.00  0.00     0.051 A 
ATOM     15  C   UNL     1      11.408  -4.138   7.395  1.00  0.00     0.157 A 
ATOM     16  C   UNL     1      10.058  -5.898   8.378  1.00  0.00     0.062 A 
ATOM     17  C   UNL     1      11.121  -4.993   8.472  1.00  0.00     0.158 A 
BRANCH  15  18
ATOM     18  O   UNL     1      12.465  -3.232   7.483  1.00  0.00    -0.504 OA
ATOM     19  H   UNL     1      12.370  -2.352   7.975  1.00  0.00     0.293 HD
ENDBRANCH  15  18
BRANCH  17  20
ATOM     20  O   UNL     1      11.880  -4.959   9.641  1.00  0.00    -0.504 OA
ATOM     21  H   UNL     1      12.431  -4.150   9.902  1.00  0.00     0.293 HD
ENDBRANCH  17  20
ENDBRANCH   1  12
BRANCH   2  22
ATOM     22  O   UNL     1       9.638  -8.679   6.314  1.00  0.00    -0.502 OA
ATOM     23  H   UNL     1      10.318  -9.071   6.954  1.00  0.00     0.293 HD
ENDBRANCH   2  22
BRANCH   6  24
ATOM     24  O   UNL     1       4.842 -10.906   6.952  1.00  0.00    -0.507 OA
ATOM     25  H   UNL     1       4.177 -11.412   6.387  1.00  0.00     0.293 HD
ENDBRANCH   6  24
BRANCH   8  26
ATOM     26  O   UNL     1       2.232  -7.045   8.039  1.00  0.00    -0.508 OA
ATOM     27  H   UNL     1       1.933  -6.898   8.995  1.00  0.00     0.293 HD
ENDBRANCH   8  26
TORSDOF 6
ENDMDL
MODEL 8
REMARK VINA RESULT:    -7.425      5.764      8.420
REMARK INTER + INTRA:          -9.154
REMARK INTER:                  -8.853
REMARK INTRA:                  -0.300
REMARK UNBOUND:                -0.209
REMARK SMILES O=c1c(O)c(-c2ccc(O)c(O)c2)oc2cc(O)cc(O)c12
REMARK SMILES IDX 5 1 3 2 2 3 1 4 22 5 20 6 19 7 17 8 16 9 15 10 14 11 6 12
REMARK SMILES IDX 7 13 8 14 9 15 13 16 11 17 10 18 12 20 4 22 21 24 18 26
REMARK H PARENT 10 19 12 21 4 23 21 25 18 27
REMARK Flexibility Score: inf
ROOT
ATOM      1  C   UNL     1      10.754  -4.357  11.270  1.00  0.00     0.180 A 
ATOM      2  C   UNL     1      11.439  -4.926  12.357  1.00  0.00     0.208 A 
ATOM      3  C   UNL     1      12.328  -4.127  13.094  1.00  0.00     0.238 A 
ATOM      4  O   UNL     1      12.897  -4.626  14.100  1.00  0.00    -0.285 OA
ATOM      5  C   UNL     1      12.535  -2.776  12.723  1.00  0.00     0.111 A 
ATOM      6  C   UNL     1      13.444  -1.888  13.374  1.00  0.00     0.134 A 
ATOM      7  C   UNL     1      13.471  -0.537  13.005  1.00  0.00     0.093 A 
ATOM      8  C   UNL     1      12.672  -0.057  11.969  1.00  0.00     0.123 A 
ATOM      9  C   UNL     1      11.823  -0.930  11.286  1.00  0.00     0.094 A 
ATOM     10  C   UNL     1      11.748  -2.275  11.655  1.00  0.00     0.146 A 
ATOM     11  O   UNL     1      10.921  -3.070  10.987  1.00  0.00    -0.452 OA
ENDROOT
BRANCH   1  12
ATOM     12  C   UNL     1       9.819  -5.141  10.430  1.00  0.00     0.025 A 
ATOM     13  C   UNL     1      10.211  -5.653   9.180  1.00  0.00     0.016 A 
ATOM     14  C   UNL     1       9.305  -6.369   8.395  1.00  0.00     0.051 A 
ATOM     15  C   UNL     1       7.992  -6.573   8.838  1.00  0.00     0.157 A 
ATOM     16  C   UNL     1       8.496  -5.330  10.860  1.00  0.00     0.062 A 
ATOM     17  C   UNL     1       7.586  -6.048  10.076  1.00  0.00     0.158 A 
BRANCH  15  18
ATOM     18  O   UNL     1       7.090  -7.291   8.053  1.00  0.00    -0.504 OA
ATOM     19  H   UNL     1       7.137  -8.301   7.980  1.00  0.00     0.293 HD
ENDBRANCH  15  18
BRANCH  17  20
ATOM     20  O   UNL     1       6.284  -6.227  10.543  1.00  0.00    -0.504 OA
ATOM     21  H   UNL     1       6.035  -6.075  11.513  1.00  0.00     0.293 HD
ENDBRANCH  17  20
ENDBRANCH   1  12
BRANCH   2  22
ATOM     22  O   UNL     1      11.203  -6.254  12.719  1.00  0.00    -0.502 OA
ATOM     23  H   UNL     1      10.298  -6.696  12.611  1.00  0.00     0.293 HD
ENDBRANCH   2  22
BRANCH   6  24
ATOM     24  O   UNL     1      14.352  -2.284  14.360  1.00  0.00    -0.507 OA
ATOM     25  H   UNL     1      14.166  -2.978  15.068  1.00  0.00     0.293 HD
ENDBRANCH   6  24
BRANCH   8  26
ATOM     26  O   UNL     1      12.737   1.290  11.618  1.00  0.00    -0.508 OA
ATOM     27  H   UNL     1      13.404   1.628  10.936  1.00  0.00     0.293 HD
ENDBRANCH   8  26
TORSDOF 6
ENDMDL
MODEL 9
REMARK VINA RESULT:    -7.344      4.051      8.614
REMARK INTER + INTRA:          -9.056
REMARK INTER:                  -8.869
REMARK INTRA:                  -0.187
REMARK UNBOUND:                -0.209
REMARK SMILES O=c1c(O)c(-c2ccc(O)c(O)c2)oc2cc(O)cc(O)c12
REMARK SMILES IDX 5 1 3 2 2 3 1 4 22 5 20 6 19 7 17 8 16 9 15 10 14 11 6 12
REMARK SMILES IDX 7 13 8 14 9 15 13 16 11 17 10 18 12 20 4 22 21 24 18 26
REMARK H PARENT 10 19 12 21 4 23 21 25 18 27
REMARK Flexibility Score: inf
ROOT
ATOM      1  C   UNL     1       8.268  -4.504  10.472  1.00  0.00     0.180 A 
ATOM      2  C   UNL     1       7.584  -5.731  10.449  1.00  0.00     0.208 A 
ATOM      3  C   UNL     1       6.427  -5.849   9.662  1.00  0.00     0.238 A 
ATOM      4  O   UNL     1       5.848  -6.965   9.601  1.00  0.00    -0.285 OA
ATOM      5  C   UNL     1       5.959  -4.734   8.924  1.00  0.00     0.111 A 
ATOM      6  C   UNL     1       4.776  -4.730   8.126  1.00  0.00     0.134 A 
ATOM      7  C   UNL     1       4.480  -3.612   7.336  1.00  0.00     0.093 A 
ATOM      8  C   UNL     1       5.288  -2.476   7.364  1.00  0.00     0.123 A 
ATOM      9  C   UNL     1       6.416  -2.448   8.186  1.00  0.00     0.094 A 
ATOM     10  C   UNL     1       6.756  -3.561   8.958  1.00  0.00     0.146 A 
ATOM     11  O   UNL     1       7.842  -3.497   9.719  1.00  0.00    -0.452 OA
ENDROOT
BRANCH   1  12
ATOM     12  C   UNL     1       9.481  -4.294  11.297  1.00  0.00     0.025 A 
ATOM     13  C   UNL     1       9.434  -4.364  12.700  1.00  0.00     0.016 A 
ATOM     14  C   UNL     1      10.585  -4.139  13.458  1.00  0.00     0.051 A 
ATOM     15  C   UNL     1      11.797  -3.828  12.827  1.00  0.00     0.157 A 
ATOM     16  C   UNL     1      10.694  -3.961  10.671  1.00  0.00     0.062 A 
ATOM     17  C   UNL     1      11.850  -3.736  11.427  1.00  0.00     0.158 A 
BRANCH  15  18
ATOM     18  O   UNL     1      12.946  -3.607  13.587  1.00  0.00    -0.504 OA
ATOM     19  H   UNL     1      12.897  -3.234  14.527  1.00  0.00     0.293 HD
ENDBRANCH  15  18
BRANCH  17  20
ATOM     20  O   UNL     1      13.038  -3.422  10.769  1.00  0.00    -0.504 OA
ATOM     21  H   UNL     1      13.116  -2.623  10.151  1.00  0.00     0.293 HD
ENDBRANCH  17  20
ENDBRANCH   1  12
BRANCH   2  22
ATOM     22  O   UNL     1       8.074  -6.824  11.167  1.00  0.00    -0.502 OA
ATOM     23  H   UNL     1       7.761  -7.044  12.105  1.00  0.00     0.293 HD
ENDBRANCH   2  22
BRANCH   6  24
ATOM     24  O   UNL     1       3.850  -5.777   8.096  1.00  0.00    -0.507 OA
ATOM     25  H   UNL     1       3.038  -5.845   8.691  1.00  0.00     0.293 HD
ENDBRANCH   6  24
BRANCH   8  26
ATOM     26  O   UNL     1       4.955  -1.376   6.576  1.00  0.00    -0.508 OA
ATOM     27  H   UNL     1       4.038  -1.285   6.155  1.00  0.00     0.293 HD
ENDBRANCH   8  26
TORSDOF 6
ENDMDL
