MODEL 1
REMARK VINA RESULT:    99.455      0.000      0.000
REMARK INTER + INTRA:         147.435
REMARK INTER:                 145.968
REMARK INTRA:                   1.467
REMARK UNBOUND:                 1.467
REMARK SMILES Cc1cc2c(C(C)C)c(O)c(O)c(C=O)c2c(O)c1-c1c(C)cc2c(C(C)C)c(O)c(O)c(C=O)c2c1O
REMARK SMILES IDX 1 1 2 2 3 3 4 4 16 5 13 6 11 7 9 8 5 9 17 10 19 11 20 12
REMARK SMILES IDX 37 13 21 14 36 15 23 16 22 17 24 18 33 19 25 20 31 21 29 22
REMARK SMILES IDX 38 23 34 25 35 26 26 27 27 28 28 29 32 30 30 32 18 34 6 36
REMARK SMILES IDX 7 37 8 38 14 39 15 40 10 41 12 43
REMARK H PARENT 38 24 32 31 30 33 18 35 10 42 12 44
REMARK Flexibility Score: inf
ROOT
ATOM      1  C   UNL     1      -5.104  21.026   9.571  1.00  0.00     0.045 C 
ATOM      2  C   UNL     1      -4.162  19.873   9.323  1.00  0.00    -0.039 A 
ATOM      3  C   UNL     1      -4.683  18.614   9.018  1.00  0.00     0.013 A 
ATOM      4  C   UNL     1      -3.849  17.502   8.774  1.00  0.00    -0.006 A 
ATOM      5  C   UNL     1      -2.445  17.646   8.973  1.00  0.00     0.039 A 
ATOM      6  C   UNL     1      -1.623  16.482   8.961  1.00  0.00     0.072 A 
ATOM      7  C   UNL     1      -2.190  15.220   8.700  1.00  0.00     0.169 A 
ATOM      8  C   UNL     1      -3.569  15.097   8.440  1.00  0.00     0.162 A 
ATOM      9  C   UNL     1      -4.389  16.244   8.369  1.00  0.00     0.008 A 
ATOM     10  C   UNL     1      -1.909  18.957   9.149  1.00  0.00     0.132 A 
ATOM     11  C   UNL     1      -2.770  20.057   9.347  1.00  0.00     0.031 A 
ENDROOT
BRANCH  11  12
ATOM     12  C   UNL     1      -2.210  21.413   9.591  1.00  0.00     0.031 A 
ATOM     13  C   UNL     1      -2.219  22.379   8.563  1.00  0.00     0.132 A 
ATOM     14  C   UNL     1      -1.648  21.720  10.840  1.00  0.00    -0.039 A 
ATOM     15  C   UNL     1      -1.746  23.704   8.811  1.00  0.00     0.039 A 
ATOM     16  C   UNL     1      -1.094  22.983  11.054  1.00  0.00     0.013 A 
ATOM     17  C   UNL     1      -1.566  20.683  11.934  1.00  0.00     0.045 C 
ATOM     18  C   UNL     1      -1.168  24.005  10.081  1.00  0.00    -0.006 A 
ATOM     19  C   UNL     1      -1.791  24.723   7.814  1.00  0.00     0.072 A 
ATOM     20  C   UNL     1      -0.636  25.308  10.336  1.00  0.00     0.008 A 
ATOM     21  C   UNL     1      -1.126  25.943   8.028  1.00  0.00     0.169 A 
ATOM     22  C   UNL     1      -0.482  26.199   9.251  1.00  0.00     0.162 A 
BRANCH  13  23
ATOM     23  O   UNL     1      -2.653  22.011   7.285  1.00  0.00    -0.507 OA
ATOM     24  H   UNL     1      -2.057  21.589   6.584  1.00  0.00     0.293 HD
ENDBRANCH  13  23
BRANCH  19  25
ATOM     25  C   UNL     1      -2.594  24.582   6.576  1.00  0.00     0.264 C 
ATOM     26  O   UNL     1      -3.848  24.469   6.623  1.00  0.00    -0.298 OA
ENDBRANCH  19  25
BRANCH  20  27
ATOM     27  C   UNL     1      -0.190  25.740  11.745  1.00  0.00     0.017 C 
ATOM     28  C   UNL     1       1.125  26.526  11.687  1.00  0.00     0.012 C 
ATOM     29  C   UNL     1      -1.269  26.512  12.529  1.00  0.00     0.012 C 
ENDBRANCH  20  27
BRANCH  21  30
ATOM     30  O   UNL     1      -1.166  26.916   7.023  1.00  0.00    -0.504 OA
ATOM     31  H   UNL     1      -1.445  26.732   6.069  1.00  0.00     0.293 HD
ENDBRANCH  21  30
BRANCH  22  32
ATOM     32  O   UNL     1       0.325  27.329   9.407  1.00  0.00    -0.504 OA
ATOM     33  H   UNL     1       1.335  27.306   9.413  1.00  0.00     0.293 HD
ENDBRANCH  22  32
ENDBRANCH  11  12
BRANCH  10  34
ATOM     34  O   UNL     1      -0.527  19.169   9.082  1.00  0.00    -0.507 OA
ATOM     35  H   UNL     1       0.074  19.230   9.894  1.00  0.00     0.293 HD
ENDBRANCH  10  34
BRANCH   9  36
ATOM     36  C   UNL     1      -5.842  16.116   7.879  1.00  0.00     0.017 C 
ATOM     37  C   UNL     1      -6.760  17.100   8.611  1.00  0.00     0.012 C 
ATOM     38  C   UNL     1      -6.394  14.679   7.943  1.00  0.00     0.012 C 
ENDBRANCH   9  36
BRANCH   6  39
ATOM     39  C   UNL     1      -0.193  16.526   9.353  1.00  0.00     0.264 C 
ATOM     40  O   UNL     1       0.159  16.324  10.546  1.00  0.00    -0.298 OA
ENDBRANCH   6  39
BRANCH   8  41
ATOM     41  O   UNL     1      -4.159  13.838   8.291  1.00  0.00    -0.504 OA
ATOM     42  H   UNL     1      -3.651  12.973   8.175  1.00  0.00     0.293 HD
ENDBRANCH   8  41
BRANCH   7  43
ATOM     43  O   UNL     1      -1.349  14.100   8.714  1.00  0.00    -0.504 OA
ATOM     44  H   UNL     1      -1.469  13.299   9.316  1.00  0.00     0.293 HD
ENDBRANCH   7  43
TORSDOF 11
ENDMDL
MODEL 2
REMARK VINA RESULT:   100.421      1.441      9.165
REMARK INTER + INTRA:         148.852
REMARK INTER:                 147.376
REMARK INTRA:                   1.476
REMARK UNBOUND:                 1.467
REMARK SMILES Cc1cc2c(C(C)C)c(O)c(O)c(C=O)c2c(O)c1-c1c(C)cc2c(C(C)C)c(O)c(O)c(C=O)c2c1O
REMARK SMILES IDX 1 1 2 2 3 3 4 4 16 5 13 6 11 7 9 8 5 9 17 10 19 11 20 12
REMARK SMILES IDX 37 13 21 14 36 15 23 16 22 17 24 18 33 19 25 20 31 21 29 22
REMARK SMILES IDX 38 23 34 25 35 26 26 27 27 28 28 29 32 30 30 32 18 34 6 36
REMARK SMILES IDX 7 37 8 38 14 39 15 40 10 41 12 43
REMARK H PARENT 38 24 32 31 30 33 18 35 10 42 12 44
REMARK Flexibility Score: inf
ROOT
ATOM      1  C   UNL     1      -4.287  22.072  11.926  1.00  0.00     0.045 C 
ATOM      2  C   UNL     1      -3.150  22.732  11.186  1.00  0.00    -0.039 A 
ATOM      3  C   UNL     1      -2.648  23.951  11.645  1.00  0.00     0.013 A 
ATOM      4  C   UNL     1      -1.582  24.610  10.993  1.00  0.00    -0.006 A 
ATOM      5  C   UNL     1      -1.101  24.076   9.762  1.00  0.00     0.039 A 
ATOM      6  C   UNL     1      -0.199  24.851   8.979  1.00  0.00     0.072 A 
ATOM      7  C   UNL     1       0.250  26.101   9.449  1.00  0.00     0.169 A 
ATOM      8  C   UNL     1      -0.182  26.591  10.697  1.00  0.00     0.162 A 
ATOM      9  C   UNL     1      -1.014  25.806  11.525  1.00  0.00     0.008 A 
ATOM     10  C   UNL     1      -1.520  22.769   9.372  1.00  0.00     0.132 A 
ATOM     11  C   UNL     1      -2.557  22.116  10.072  1.00  0.00     0.031 A 
ENDROOT
BRANCH  11  12
ATOM     12  C   UNL     1      -3.035  20.779   9.628  1.00  0.00     0.031 A 
ATOM     13  C   UNL     1      -2.194  19.652   9.741  1.00  0.00     0.132 A 
ATOM     14  C   UNL     1      -4.316  20.647   9.069  1.00  0.00    -0.039 A 
ATOM     15  C   UNL     1      -2.670  18.355   9.380  1.00  0.00     0.039 A 
ATOM     16  C   UNL     1      -4.747  19.397   8.623  1.00  0.00     0.013 A 
ATOM     17  C   UNL     1      -5.209  21.849   8.875  1.00  0.00     0.045 C 
ATOM     18  C   UNL     1      -3.971  18.230   8.806  1.00  0.00    -0.006 A 
ATOM     19  C   UNL     1      -1.870  17.184   9.534  1.00  0.00     0.072 A 
ATOM     20  C   UNL     1      -4.450  16.951   8.385  1.00  0.00     0.008 A 
ATOM     21  C   UNL     1      -2.293  15.966   8.974  1.00  0.00     0.169 A 
ATOM     22  C   UNL     1      -3.539  15.873   8.331  1.00  0.00     0.162 A 
BRANCH  13  23
ATOM     23  O   UNL     1      -0.873  19.828  10.167  1.00  0.00    -0.507 OA
ATOM     24  H   UNL     1      -0.135  20.200   9.583  1.00  0.00     0.293 HD
ENDBRANCH  13  23
BRANCH  19  25
ATOM     25  C   UNL     1      -0.629  17.177  10.346  1.00  0.00     0.264 C 
ATOM     26  O   UNL     1       0.407  16.584   9.945  1.00  0.00    -0.298 OA
ENDBRANCH  19  25
BRANCH  20  27
ATOM     27  C   UNL     1      -5.911  16.734   7.950  1.00  0.00     0.017 C 
ATOM     28  C   UNL     1      -6.314  15.263   8.095  1.00  0.00     0.012 C 
ATOM     29  C   UNL     1      -6.915  17.662   8.661  1.00  0.00     0.012 C 
ENDBRANCH  20  27
BRANCH  21  30
ATOM     30  O   UNL     1      -1.475  14.839   9.119  1.00  0.00    -0.504 OA
ATOM     31  H   UNL     1      -1.102  14.521  10.003  1.00  0.00     0.293 HD
ENDBRANCH  21  30
BRANCH  22  32
ATOM     32  O   UNL     1      -3.889  14.720   7.623  1.00  0.00    -0.504 OA
ATOM     33  H   UNL     1      -4.552  14.704   6.861  1.00  0.00     0.293 HD
ENDBRANCH  22  32
ENDBRANCH  11  12
BRANCH  10  34
ATOM     34  O   UNL     1      -0.875  22.104   8.323  1.00  0.00    -0.507 OA
ATOM     35  H   UNL     1      -1.312  21.390   7.755  1.00  0.00     0.293 HD
ENDBRANCH  10  34
BRANCH   9  36
ATOM     36  C   UNL     1      -1.305  26.259  12.967  1.00  0.00     0.017 C 
ATOM     37  C   UNL     1      -1.932  27.657  12.989  1.00  0.00     0.012 C 
ATOM     38  C   UNL     1      -0.082  26.177  13.901  1.00  0.00     0.012 C 
ENDBRANCH   9  36
BRANCH   6  39
ATOM     39  C   UNL     1       0.191  24.453   7.605  1.00  0.00     0.264 C 
ATOM     40  O   UNL     1       0.449  25.320   6.727  1.00  0.00    -0.298 OA
ENDBRANCH   6  39
BRANCH   8  41
ATOM     41  O   UNL     1       0.168  27.877  11.121  1.00  0.00    -0.504 OA
ATOM     42  H   UNL     1       0.991  28.102  11.659  1.00  0.00     0.293 HD
ENDBRANCH   8  41
BRANCH   7  43
ATOM     43  O   UNL     1       1.125  26.839   8.641  1.00  0.00    -0.504 OA
ATOM     44  H   UNL     1       1.590  26.479   7.821  1.00  0.00     0.293 HD
ENDBRANCH   7  43
TORSDOF 11
ENDMDL
MODEL 3
REMARK VINA RESULT:   102.002      1.346      1.529
REMARK INTER + INTRA:         151.173
REMARK INTER:                 149.534
REMARK INTRA:                   1.639
REMARK UNBOUND:                 1.467
REMARK SMILES Cc1cc2c(C(C)C)c(O)c(O)c(C=O)c2c(O)c1-c1c(C)cc2c(C(C)C)c(O)c(O)c(C=O)c2c1O
REMARK SMILES IDX 1 1 2 2 3 3 4 4 16 5 13 6 11 7 9 8 5 9 17 10 19 11 20 12
REMARK SMILES IDX 37 13 21 14 36 15 23 16 22 17 24 18 33 19 25 20 31 21 29 22
REMARK SMILES IDX 38 23 34 25 35 26 26 27 27 28 28 29 32 30 30 32 18 34 6 36
REMARK SMILES IDX 7 37 8 38 14 39 15 40 10 41 12 43
REMARK H PARENT 38 24 32 31 30 33 18 35 10 42 12 44
REMARK Flexibility Score: inf
ROOT
ATOM      1  C   UNL     1      -5.106  21.579   9.612  1.00  0.00     0.045 C 
ATOM      2  C   UNL     1      -4.098  20.460   9.511  1.00  0.00    -0.039 A 
ATOM      3  C   UNL     1      -4.512  19.200   9.076  1.00  0.00     0.013 A 
ATOM      4  C   UNL     1      -3.611  18.119   8.960  1.00  0.00    -0.006 A 
ATOM      5  C   UNL     1      -2.275  18.292   9.424  1.00  0.00     0.039 A 
ATOM      6  C   UNL     1      -1.429  17.151   9.532  1.00  0.00     0.072 A 
ATOM      7  C   UNL     1      -1.896  15.885   9.131  1.00  0.00     0.169 A 
ATOM      8  C   UNL     1      -3.197  15.736   8.612  1.00  0.00     0.162 A 
ATOM      9  C   UNL     1      -4.026  16.863   8.423  1.00  0.00     0.008 A 
ATOM     10  C   UNL     1      -1.824  19.609   9.737  1.00  0.00     0.132 A 
ATOM     11  C   UNL     1      -2.742  20.679   9.802  1.00  0.00     0.031 A 
ENDROOT
BRANCH  11  12
ATOM     12  C   UNL     1      -2.281  22.039  10.189  1.00  0.00     0.031 A 
ATOM     13  C   UNL     1      -1.429  22.769   9.333  1.00  0.00     0.132 A 
ATOM     14  C   UNL     1      -2.674  22.584  11.421  1.00  0.00    -0.039 A 
ATOM     15  C   UNL     1      -1.038  24.101   9.665  1.00  0.00     0.039 A 
ATOM     16  C   UNL     1      -2.212  23.847  11.794  1.00  0.00     0.013 A 
ATOM     17  C   UNL     1      -3.529  21.797  12.384  1.00  0.00     0.045 C 
ATOM     18  C   UNL     1      -1.435  24.646  10.923  1.00  0.00    -0.006 A 
ATOM     19  C   UNL     1      -0.225  24.891   8.798  1.00  0.00     0.072 A 
ATOM     20  C   UNL     1      -1.011  25.956  11.305  1.00  0.00     0.008 A 
ATOM     21  C   UNL     1       0.309  26.109   9.254  1.00  0.00     0.169 A 
ATOM     22  C   UNL     1      -0.017  26.596  10.531  1.00  0.00     0.162 A 
BRANCH  13  23
ATOM     23  O   UNL     1      -0.935  22.154   8.177  1.00  0.00    -0.507 OA
ATOM     24  H   UNL     1       0.045  21.964   8.012  1.00  0.00     0.293 HD
ENDBRANCH  13  23
BRANCH  19  25
ATOM     25  C   UNL     1       0.016  24.517   7.384  1.00  0.00     0.264 C 
ATOM     26  O   UNL     1      -0.073  25.370   6.461  1.00  0.00    -0.298 OA
ENDBRANCH  19  25
BRANCH  20  27
ATOM     27  C   UNL     1      -1.575  26.661  12.552  1.00  0.00     0.017 C 
ATOM     28  C   UNL     1      -0.598  26.557  13.729  1.00  0.00     0.012 C 
ATOM     29  C   UNL     1      -1.998  28.122  12.303  1.00  0.00     0.012 C 
ENDBRANCH  20  27
BRANCH  21  30
ATOM     30  O   UNL     1       1.124  26.851   8.391  1.00  0.00    -0.504 OA
ATOM     31  H   UNL     1       0.911  27.018   7.417  1.00  0.00     0.293 HD
ENDBRANCH  21  30
BRANCH  22  32
ATOM     32  O   UNL     1       0.643  27.709  11.057  1.00  0.00    -0.504 OA
ATOM     33  H   UNL     1       0.743  27.894  12.046  1.00  0.00     0.293 HD
ENDBRANCH  22  32
ENDBRANCH  11  12
BRANCH  10  34
ATOM     34  O   UNL     1      -0.461  19.859   9.938  1.00  0.00    -0.507 OA
ATOM     35  H   UNL     1      -0.099  20.445  10.679  1.00  0.00     0.293 HD
ENDBRANCH  10  34
BRANCH   9  36
ATOM     36  C   UNL     1      -5.357  16.715   7.664  1.00  0.00     0.017 C 
ATOM     37  C   UNL     1      -6.378  17.756   8.134  1.00  0.00     0.012 C 
ATOM     38  C   UNL     1      -5.943  15.291   7.713  1.00  0.00     0.012 C 
ENDBRANCH   9  36
BRANCH   6  39
ATOM     39  C   UNL     1      -0.100  17.218  10.187  1.00  0.00     0.264 C 
ATOM     40  O   UNL     1       0.023  17.028  11.427  1.00  0.00    -0.298 OA
ENDBRANCH   6  39
BRANCH   8  41
ATOM     41  O   UNL     1      -3.709  14.468   8.317  1.00  0.00    -0.504 OA
ATOM     42  H   UNL     1      -3.475  13.929   7.496  1.00  0.00     0.293 HD
ENDBRANCH   8  41
BRANCH   7  43
ATOM     43  O   UNL     1      -1.037  14.787   9.269  1.00  0.00    -0.504 OA
ATOM     44  H   UNL     1      -0.207  14.633   8.715  1.00  0.00     0.293 HD
ENDBRANCH   7  43
TORSDOF 11
ENDMDL
