MODEL 1
REMARK VINA RESULT:    -2.795      0.000      0.000
REMARK INTER + INTRA:          -3.411
REMARK INTER:                  -3.285
REMARK INTRA:                  -0.125
REMARK UNBOUND:                -0.125
REMARK SMILES O=C([O-])CCC(=O)[O-]
REMARK SMILES IDX 4 1 2 2 1 3 3 4 5 5 6 6 7 7 8 8
REMARK H PARENT
REMARK Flexibility Score: inf
ROOT
ATOM      1  C   UNL     1      -1.444  -6.064  30.738  1.00  0.00     0.059 C 
ENDROOT
BRANCH   1   2
ATOM      2  C   UNL     1      -2.560  -7.041  30.543  1.00  0.00     0.042 C 
ATOM      3  O   UNL     1      -2.658  -8.047  31.293  1.00  0.00    -0.550 OA
ATOM      4  O   UNL     1      -3.462  -6.867  29.502  1.00  0.00    -0.550 OA
ENDBRANCH   1   2
BRANCH   1   5
ATOM      5  C   UNL     1      -1.992  -4.703  31.172  1.00  0.00     0.059 C 
BRANCH   5   6
ATOM      6  C   UNL     1      -2.168  -4.657  32.656  1.00  0.00     0.042 C 
ATOM      7  O   UNL     1      -1.422  -5.344  33.403  1.00  0.00    -0.550 OA
ATOM      8  O   UNL     1      -3.123  -3.819  33.218  1.00  0.00    -0.550 OA
ENDBRANCH   5   6
ENDBRANCH   1   5
TORSDOF 3
ENDMDL
MODEL 2
REMARK VINA RESULT:    -2.778      0.165      3.618
REMARK INTER + INTRA:          -3.391
REMARK INTER:                  -3.262
REMARK INTRA:                  -0.129
REMARK UNBOUND:                -0.125
REMARK SMILES O=C([O-])CCC(=O)[O-]
REMARK SMILES IDX 4 1 2 2 1 3 3 4 5 5 6 6 7 7 8 8
REMARK H PARENT
REMARK Flexibility Score: inf
ROOT
ATOM      1  C   UNL     1      -1.972  -4.652  31.258  1.00  0.00     0.059 C 
ENDROOT
BRANCH   1   2
ATOM      2  C   UNL     1      -2.287  -4.588  32.719  1.00  0.00     0.042 C 
ATOM      3  O   UNL     1      -3.114  -3.743  33.151  1.00  0.00    -0.550 OA
ATOM      4  O   UNL     1      -1.632  -5.429  33.610  1.00  0.00    -0.550 OA
ENDBRANCH   1   2
BRANCH   1   5
ATOM      5  C   UNL     1      -1.377  -6.015  30.897  1.00  0.00     0.059 C 
BRANCH   5   6
ATOM      6  C   UNL     1      -2.463  -6.999  30.601  1.00  0.00     0.042 C 
ATOM      7  O   UNL     1      -2.586  -8.036  31.304  1.00  0.00    -0.550 OA
ATOM      8  O   UNL     1      -3.371  -6.748  29.580  1.00  0.00    -0.550 OA
ENDBRANCH   5   6
ENDBRANCH   1   5
TORSDOF 3
ENDMDL
MODEL 3
REMARK VINA RESULT:    -2.747      6.315      7.776
REMARK INTER + INTRA:          -3.355
REMARK INTER:                  -3.254
REMARK INTRA:                  -0.101
REMARK UNBOUND:                -0.125
REMARK SMILES O=C([O-])CCC(=O)[O-]
REMARK SMILES IDX 4 1 2 2 1 3 3 4 5 5 6 6 7 7 8 8
REMARK H PARENT
REMARK Flexibility Score: inf
ROOT
ATOM      1  C   UNL     1      -3.360 -10.943  24.790  1.00  0.00     0.059 C 
ENDROOT
BRANCH   1   2
ATOM      2  C   UNL     1      -2.679  -9.780  24.142  1.00  0.00     0.042 C 
ATOM      3  O   UNL     1      -1.612  -9.951  23.496  1.00  0.00    -0.550 OA
ATOM      4  O   UNL     1      -3.194  -8.499  24.294  1.00  0.00    -0.550 OA
ENDBRANCH   1   2
BRANCH   1   5
ATOM      5  C   UNL     1      -3.041 -10.987  26.285  1.00  0.00     0.059 C 
BRANCH   5   6
ATOM      6  C   UNL     1      -4.123 -10.319  27.072  1.00  0.00     0.042 C 
ATOM      7  O   UNL     1      -5.294 -10.257  26.612  1.00  0.00    -0.550 OA
ATOM      8  O   UNL     1      -3.851  -9.807  28.334  1.00  0.00    -0.550 OA
ENDBRANCH   5   6
ENDBRANCH   1   5
TORSDOF 3
ENDMDL
MODEL 4
REMARK VINA RESULT:    -2.624      1.699      4.261
REMARK INTER + INTRA:          -3.209
REMARK INTER:                  -3.182
REMARK INTRA:                  -0.027
REMARK UNBOUND:                -0.125
REMARK SMILES O=C([O-])CCC(=O)[O-]
REMARK SMILES IDX 4 1 2 2 1 3 3 4 5 5 6 6 7 7 8 8
REMARK H PARENT
REMARK Flexibility Score: inf
ROOT
ATOM      1  C   UNL     1      -1.979  -7.120  31.160  1.00  0.00     0.059 C 
ENDROOT
BRANCH   1   2
ATOM      2  C   UNL     1      -1.718  -5.706  31.571  1.00  0.00     0.042 C 
ATOM      3  O   UNL     1      -1.634  -4.799  30.701  1.00  0.00    -0.550 OA
ATOM      4  O   UNL     1      -1.518  -5.396  32.911  1.00  0.00    -0.550 OA
ENDBRANCH   1   2
BRANCH   1   5
ATOM      5  C   UNL     1      -3.455  -7.311  30.804  1.00  0.00     0.059 C 
BRANCH   5   6
ATOM      6  C   UNL     1      -3.708  -8.714  30.351  1.00  0.00     0.042 C 
ATOM      7  O   UNL     1      -4.049  -8.943  29.161  1.00  0.00    -0.550 OA
ATOM      8  O   UNL     1      -3.519  -9.773  31.230  1.00  0.00    -0.550 OA
ENDBRANCH   5   6
ENDBRANCH   1   5
TORSDOF 3
ENDMDL
MODEL 5
REMARK VINA RESULT:    -2.620      1.741      2.196
REMARK INTER + INTRA:          -3.205
REMARK INTER:                  -3.174
REMARK INTRA:                  -0.032
REMARK UNBOUND:                -0.125
REMARK SMILES O=C([O-])CCC(=O)[O-]
REMARK SMILES IDX 4 1 2 2 1 3 3 4 5 5 6 6 7 7 8 8
REMARK H PARENT
REMARK Flexibility Score: inf
ROOT
ATOM      1  C   UNL     1      -3.473  -7.391  30.634  1.00  0.00     0.059 C 
ENDROOT
BRANCH   1   2
ATOM      2  C   UNL     1      -3.722  -8.838  30.348  1.00  0.00     0.042 C 
ATOM      3  O   UNL     1      -3.498  -9.705  31.233  1.00  0.00    -0.550 OA
ATOM      4  O   UNL     1      -4.154  -9.234  29.089  1.00  0.00    -0.550 OA
ENDBRANCH   1   2
BRANCH   1   5
ATOM      5  C   UNL     1      -2.112  -7.203  31.307  1.00  0.00     0.059 C 
BRANCH   5   6
ATOM      6  C   UNL     1      -1.965  -5.803  31.810  1.00  0.00     0.042 C 
ATOM      7  O   UNL     1      -1.741  -4.861  31.005  1.00  0.00    -0.550 OA
ATOM      8  O   UNL     1      -2.123  -5.529  33.163  1.00  0.00    -0.550 OA
ENDBRANCH   5   6
ENDBRANCH   1   5
TORSDOF 3
ENDMDL
MODEL 6
REMARK VINA RESULT:    -2.603      1.967      2.674
REMARK INTER + INTRA:          -3.184
REMARK INTER:                  -3.088
REMARK INTRA:                  -0.097
REMARK UNBOUND:                -0.125
REMARK SMILES O=C([O-])CCC(=O)[O-]
REMARK SMILES IDX 4 1 2 2 1 3 3 4 5 5 6 6 7 7 8 8
REMARK H PARENT
REMARK Flexibility Score: inf
ROOT
ATOM      1  C   UNL     1      -2.013  -5.195  32.909  1.00  0.00     0.059 C 
ENDROOT
BRANCH   1   2
ATOM      2  C   UNL     1      -1.481  -5.580  31.565  1.00  0.00     0.042 C 
ATOM      3  O   UNL     1      -1.615  -4.801  30.585  1.00  0.00    -0.550 OA
ATOM      4  O   UNL     1      -0.882  -6.820  31.383  1.00  0.00    -0.550 OA
ENDBRANCH   1   2
BRANCH   1   5
ATOM      5  C   UNL     1      -2.698  -3.829  32.844  1.00  0.00     0.059 C 
BRANCH   5   6
ATOM      6  C   UNL     1      -4.178  -3.978  32.999  1.00  0.00     0.042 C 
ATOM      7  O   UNL     1      -4.763  -4.996  32.543  1.00  0.00    -0.550 OA
ATOM      8  O   UNL     1      -4.906  -3.016  33.688  1.00  0.00    -0.550 OA
ENDBRANCH   5   6
ENDBRANCH   1   5
TORSDOF 3
ENDMDL
MODEL 7
REMARK VINA RESULT:    -2.595      1.969      3.534
REMARK INTER + INTRA:          -3.175
REMARK INTER:                  -3.070
REMARK INTRA:                  -0.105
REMARK UNBOUND:                -0.125
REMARK SMILES O=C([O-])CCC(=O)[O-]
REMARK SMILES IDX 4 1 2 2 1 3 3 4 5 5 6 6 7 7 8 8
REMARK H PARENT
REMARK Flexibility Score: inf
ROOT
ATOM      1  C   UNL     1      -2.726  -3.836  32.916  1.00  0.00     0.059 C 
ENDROOT
BRANCH   1   2
ATOM      2  C   UNL     1      -4.216  -3.948  32.999  1.00  0.00     0.042 C 
ATOM      3  O   UNL     1      -4.874  -3.121  33.683  1.00  0.00    -0.550 OA
ATOM      4  O   UNL     1      -4.872  -4.993  32.362  1.00  0.00    -0.550 OA
ENDBRANCH   1   2
BRANCH   1   5
ATOM      5  C   UNL     1      -2.082  -5.223  32.958  1.00  0.00     0.059 C 
BRANCH   5   6
ATOM      6  C   UNL     1      -1.483  -5.564  31.631  1.00  0.00     0.042 C 
ATOM      7  O   UNL     1      -0.875  -6.655  31.473  1.00  0.00    -0.550 OA
ATOM      8  O   UNL     1      -1.638  -4.700  30.555  1.00  0.00    -0.550 OA
ENDBRANCH   5   6
ENDBRANCH   1   5
TORSDOF 3
ENDMDL
MODEL 8
REMARK VINA RESULT:    -2.576      1.690      3.790
REMARK INTER + INTRA:          -3.153
REMARK INTER:                  -3.095
REMARK INTRA:                  -0.058
REMARK UNBOUND:                -0.125
REMARK SMILES O=C([O-])CCC(=O)[O-]
REMARK SMILES IDX 4 1 2 2 1 3 3 4 5 5 6 6 7 7 8 8
REMARK H PARENT
REMARK Flexibility Score: inf
ROOT
ATOM      1  C   UNL     1      -2.644  -4.976  33.035  1.00  0.00     0.059 C 
ENDROOT
BRANCH   1   2
ATOM      2  C   UNL     1      -2.969  -3.618  32.501  1.00  0.00     0.042 C 
ATOM      3  O   UNL     1      -3.063  -3.433  31.259  1.00  0.00    -0.550 OA
ATOM      4  O   UNL     1      -3.118  -2.545  33.370  1.00  0.00    -0.550 OA
ENDBRANCH   1   2
BRANCH   1   5
ATOM      5  C   UNL     1      -1.296  -5.458  32.496  1.00  0.00     0.059 C 
BRANCH   5   6
ATOM      6  C   UNL     1      -1.496  -6.402  31.354  1.00  0.00     0.042 C 
ATOM      7  O   UNL     1      -0.875  -6.227  30.272  1.00  0.00    -0.550 OA
ATOM      8  O   UNL     1      -2.329  -7.504  31.499  1.00  0.00    -0.550 OA
ENDBRANCH   5   6
ENDBRANCH   1   5
TORSDOF 3
ENDMDL
MODEL 9
REMARK VINA RESULT:    -2.533     15.734     16.375
REMARK INTER + INTRA:          -3.102
REMARK INTER:                  -3.013
REMARK INTRA:                  -0.089
REMARK UNBOUND:                -0.125
REMARK SMILES O=C([O-])CCC(=O)[O-]
REMARK SMILES IDX 4 1 2 2 1 3 3 4 5 5 6 6 7 7 8 8
REMARK H PARENT
REMARK Flexibility Score: inf
ROOT
ATOM      1  C   UNL     1     -11.723   7.748  28.872  1.00  0.00     0.059 C 
ENDROOT
BRANCH   1   2
ATOM      2  C   UNL     1     -12.663   6.594  28.729  1.00  0.00     0.042 C 
ATOM      3  O   UNL     1     -12.911   6.118  27.590  1.00  0.00    -0.550 OA
ATOM      4  O   UNL     1     -13.305   6.076  29.847  1.00  0.00    -0.550 OA
ENDBRANCH   1   2
BRANCH   1   5
ATOM      5  C   UNL     1     -11.124   8.123  27.515  1.00  0.00     0.059 C 
BRANCH   5   6
ATOM      6  C   UNL     1      -9.647   7.890  27.512  1.00  0.00     0.042 C 
ATOM      7  O   UNL     1      -9.075   7.438  28.539  1.00  0.00    -0.550 OA
ATOM      8  O   UNL     1      -8.908   8.125  26.359  1.00  0.00    -0.550 OA
ENDBRANCH   5   6
ENDBRANCH   1   5
TORSDOF 3
ENDMDL
