MODEL 1
REMARK VINA RESULT:    -2.973      0.000      0.000
REMARK INTER + INTRA:          -3.614
REMARK INTER:                  -3.494
REMARK INTRA:                  -0.120
REMARK UNBOUND:                -0.120
REMARK SMILES O=C([O-])CCC(=O)[O-]
REMARK SMILES IDX 4 1 2 2 1 3 3 4 5 5 6 6 7 7 8 8
REMARK H PARENT
REMARK Flexibility Score: inf
ROOT
ATOM      1  C   UNL     1      45.971   7.087 128.890  1.00  0.00     0.059 C 
ENDROOT
BRANCH   1   2
ATOM      2  C   UNL     1      46.638   6.254 127.842  1.00  0.00     0.042 C 
ATOM      3  O   UNL     1      47.364   6.797 126.968  1.00  0.00    -0.550 OA
ATOM      4  O   UNL     1      46.419   4.882 127.800  1.00  0.00    -0.550 OA
ENDBRANCH   1   2
BRANCH   1   5
ATOM      5  C   UNL     1      44.604   7.569 128.402  1.00  0.00     0.059 C 
BRANCH   5   6
ATOM      6  C   UNL     1      43.526   6.643 128.866  1.00  0.00     0.042 C 
ATOM      7  O   UNL     1      43.678   5.969 129.919  1.00  0.00    -0.550 OA
ATOM      8  O   UNL     1      42.330   6.559 128.163  1.00  0.00    -0.550 OA
ENDBRANCH   5   6
ENDBRANCH   1   5
TORSDOF 3
ENDMDL
MODEL 2
REMARK VINA RESULT:    -2.960      0.857      3.545
REMARK INTER + INTRA:          -3.600
REMARK INTER:                  -3.449
REMARK INTRA:                  -0.150
REMARK UNBOUND:                -0.120
REMARK SMILES O=C([O-])CCC(=O)[O-]
REMARK SMILES IDX 4 1 2 2 1 3 3 4 5 5 6 6 7 7 8 8
REMARK H PARENT
REMARK Flexibility Score: inf
ROOT
ATOM      1  C   UNL     1      44.699   7.500 128.425  1.00  0.00     0.059 C 
ENDROOT
BRANCH   1   2
ATOM      2  C   UNL     1      43.550   6.626 128.816  1.00  0.00     0.042 C 
ATOM      3  O   UNL     1      43.554   6.033 129.927  1.00  0.00    -0.550 OA
ATOM      4  O   UNL     1      42.496   6.425 127.933  1.00  0.00    -0.550 OA
ENDBRANCH   1   2
BRANCH   1   5
ATOM      5  C   UNL     1      45.487   6.867 127.277  1.00  0.00     0.059 C 
BRANCH   5   6
ATOM      6  C   UNL     1      46.335   5.743 127.779  1.00  0.00     0.042 C 
ATOM      7  O   UNL     1      47.366   5.982 128.461  1.00  0.00    -0.550 OA
ATOM      8  O   UNL     1      45.960   4.427 127.538  1.00  0.00    -0.550 OA
ENDBRANCH   5   6
ENDBRANCH   1   5
TORSDOF 3
ENDMDL
MODEL 3
REMARK VINA RESULT:    -2.959      0.933      1.746
REMARK INTER + INTRA:          -3.598
REMARK INTER:                  -3.440
REMARK INTRA:                  -0.158
REMARK UNBOUND:                -0.120
REMARK SMILES O=C([O-])CCC(=O)[O-]
REMARK SMILES IDX 4 1 2 2 1 3 3 4 5 5 6 6 7 7 8 8
REMARK H PARENT
REMARK Flexibility Score: inf
ROOT
ATOM      1  C   UNL     1      45.604   6.762 127.209  1.00  0.00     0.059 C 
ENDROOT
BRANCH   1   2
ATOM      2  C   UNL     1      46.404   5.676 127.855  1.00  0.00     0.042 C 
ATOM      3  O   UNL     1      46.160   4.469 127.593  1.00  0.00    -0.550 OA
ATOM      4  O   UNL     1      47.386   5.994 128.785  1.00  0.00    -0.550 OA
ENDBRANCH   1   2
BRANCH   1   5
ATOM      5  C   UNL     1      44.754   7.494 128.248  1.00  0.00     0.059 C 
BRANCH   5   6
ATOM      6  C   UNL     1      43.606   6.639 128.681  1.00  0.00     0.042 C 
ATOM      7  O   UNL     1      42.645   6.422 127.897  1.00  0.00    -0.550 OA
ATOM      8  O   UNL     1      43.619   6.039 129.935  1.00  0.00    -0.550 OA
ENDBRANCH   5   6
ENDBRANCH   1   5
TORSDOF 3
ENDMDL
MODEL 4
REMARK VINA RESULT:    -2.953      1.847      2.339
REMARK INTER + INTRA:          -3.591
REMARK INTER:                  -3.436
REMARK INTRA:                  -0.155
REMARK UNBOUND:                -0.120
REMARK SMILES O=C([O-])CCC(=O)[O-]
REMARK SMILES IDX 4 1 2 2 1 3 3 4 5 5 6 6 7 7 8 8
REMARK H PARENT
REMARK Flexibility Score: inf
ROOT
ATOM      1  C   UNL     1      46.309   5.109 127.870  1.00  0.00     0.059 C 
ENDROOT
BRANCH   1   2
ATOM      2  C   UNL     1      46.573   6.581 127.838  1.00  0.00     0.042 C 
ATOM      3  O   UNL     1      47.045   7.118 126.802  1.00  0.00    -0.550 OA
ATOM      4  O   UNL     1      46.345   7.353 128.971  1.00  0.00    -0.550 OA
ENDBRANCH   1   2
BRANCH   1   5
ATOM      5  C   UNL     1      44.869   4.832 128.304  1.00  0.00     0.059 C 
BRANCH   5   6
ATOM      6  C   UNL     1      43.918   5.138 127.192  1.00  0.00     0.042 C 
ATOM      7  O   UNL     1      44.129   4.690 126.035  1.00  0.00    -0.550 OA
ATOM      8  O   UNL     1      42.769   5.879 127.443  1.00  0.00    -0.550 OA
ENDBRANCH   5   6
ENDBRANCH   1   5
TORSDOF 3
ENDMDL
MODEL 5
REMARK VINA RESULT:    -2.953      1.843      3.664
REMARK INTER + INTRA:          -3.591
REMARK INTER:                  -3.440
REMARK INTRA:                  -0.151
REMARK UNBOUND:                -0.120
REMARK SMILES O=C([O-])CCC(=O)[O-]
REMARK SMILES IDX 4 1 2 2 1 3 3 4 5 5 6 6 7 7 8 8
REMARK H PARENT
REMARK Flexibility Score: inf
ROOT
ATOM      1  C   UNL     1      44.891   4.840 128.327  1.00  0.00     0.059 C 
ENDROOT
BRANCH   1   2
ATOM      2  C   UNL     1      43.951   5.161 127.209  1.00  0.00     0.042 C 
ATOM      3  O   UNL     1      44.147   4.686 126.060  1.00  0.00    -0.550 OA
ATOM      4  O   UNL     1      42.885   6.027 127.424  1.00  0.00    -0.550 OA
ENDBRANCH   1   2
BRANCH   1   5
ATOM      5  C   UNL     1      46.342   5.021 127.877  1.00  0.00     0.059 C 
BRANCH   5   6
ATOM      6  C   UNL     1      46.722   6.467 127.902  1.00  0.00     0.042 C 
ATOM      7  O   UNL     1      47.174   7.022 126.866  1.00  0.00    -0.550 OA
ATOM      8  O   UNL     1      46.532   7.216 129.057  1.00  0.00    -0.550 OA
ENDBRANCH   5   6
ENDBRANCH   1   5
TORSDOF 3
ENDMDL
MODEL 6
REMARK VINA RESULT:    -2.945      1.997      2.521
REMARK INTER + INTRA:          -3.581
REMARK INTER:                  -3.447
REMARK INTRA:                  -0.135
REMARK UNBOUND:                -0.120
REMARK SMILES O=C([O-])CCC(=O)[O-]
REMARK SMILES IDX 4 1 2 2 1 3 3 4 5 5 6 6 7 7 8 8
REMARK H PARENT
REMARK Flexibility Score: inf
ROOT
ATOM      1  C   UNL     1      45.103   4.867 128.290  1.00  0.00     0.059 C 
ENDROOT
BRANCH   1   2
ATOM      2  C   UNL     1      45.511   4.986 129.724  1.00  0.00     0.042 C 
ATOM      3  O   UNL     1      44.792   4.489 130.631  1.00  0.00    -0.550 OA
ATOM      4  O   UNL     1      46.660   5.689 130.064  1.00  0.00    -0.550 OA
ENDBRANCH   1   2
BRANCH   1   5
ATOM      5  C   UNL     1      44.681   6.229 127.738  1.00  0.00     0.059 C 
BRANCH   5   6
ATOM      6  C   UNL     1      43.264   6.530 128.111  1.00  0.00     0.042 C 
ATOM      7  O   UNL     1      43.010   7.393 128.991  1.00  0.00    -0.550 OA
ATOM      8  O   UNL     1      42.220   5.892 127.451  1.00  0.00    -0.550 OA
ENDBRANCH   5   6
ENDBRANCH   1   5
TORSDOF 3
ENDMDL
MODEL 7
REMARK VINA RESULT:    -2.929      1.617      3.455
REMARK INTER + INTRA:          -3.564
REMARK INTER:                  -3.444
REMARK INTRA:                  -0.120
REMARK UNBOUND:                -0.120
REMARK SMILES O=C([O-])CCC(=O)[O-]
REMARK SMILES IDX 4 1 2 2 1 3 3 4 5 5 6 6 7 7 8 8
REMARK H PARENT
REMARK Flexibility Score: inf
ROOT
ATOM      1  C   UNL     1      43.931   6.762 128.992  1.00  0.00     0.059 C 
ENDROOT
BRANCH   1   2
ATOM      2  C   UNL     1      43.325   5.990 127.864  1.00  0.00     0.042 C 
ATOM      3  O   UNL     1      42.147   6.233 127.490  1.00  0.00    -0.550 OA
ATOM      4  O   UNL     1      44.042   4.967 127.256  1.00  0.00    -0.550 OA
ENDBRANCH   1   2
BRANCH   1   5
ATOM      5  C   UNL     1      45.151   7.548 128.510  1.00  0.00     0.059 C 
BRANCH   5   6
ATOM      6  C   UNL     1      46.402   7.005 129.124  1.00  0.00     0.042 C 
ATOM      7  O   UNL     1      47.477   7.657 129.055  1.00  0.00    -0.550 OA
ATOM      8  O   UNL     1      46.371   5.801 129.816  1.00  0.00    -0.550 OA
ENDBRANCH   5   6
ENDBRANCH   1   5
TORSDOF 3
ENDMDL
MODEL 8
REMARK VINA RESULT:    -2.921      2.247      2.619
REMARK INTER + INTRA:          -3.554
REMARK INTER:                  -3.457
REMARK INTRA:                  -0.098
REMARK UNBOUND:                -0.120
REMARK SMILES O=C([O-])CCC(=O)[O-]
REMARK SMILES IDX 4 1 2 2 1 3 3 4 5 5 6 6 7 7 8 8
REMARK H PARENT
REMARK Flexibility Score: inf
ROOT
ATOM      1  C   UNL     1      46.264   4.983 127.948  1.00  0.00     0.059 C 
ENDROOT
BRANCH   1   2
ATOM      2  C   UNL     1      46.447   5.661 129.268  1.00  0.00     0.042 C 
ATOM      3  O   UNL     1      46.727   6.888 129.317  1.00  0.00    -0.550 OA
ATOM      4  O   UNL     1      46.359   4.928 130.445  1.00  0.00    -0.550 OA
ENDBRANCH   1   2
BRANCH   1   5
ATOM      5  C   UNL     1      44.808   4.552 127.764  1.00  0.00     0.059 C 
BRANCH   5   6
ATOM      6  C   UNL     1      44.090   5.503 126.860  1.00  0.00     0.042 C 
ATOM      7  O   UNL     1      44.736   6.216 126.048  1.00  0.00    -0.550 OA
ATOM      8  O   UNL     1      42.702   5.566 126.878  1.00  0.00    -0.550 OA
ENDBRANCH   5   6
ENDBRANCH   1   5
TORSDOF 3
ENDMDL
MODEL 9
REMARK VINA RESULT:    -2.896      2.219      2.735
REMARK INTER + INTRA:          -3.524
REMARK INTER:                  -3.356
REMARK INTRA:                  -0.168
REMARK UNBOUND:                -0.120
REMARK SMILES O=C([O-])CCC(=O)[O-]
REMARK SMILES IDX 4 1 2 2 1 3 3 4 5 5 6 6 7 7 8 8
REMARK H PARENT
REMARK Flexibility Score: inf
ROOT
ATOM      1  C   UNL     1      45.109   4.985 127.573  1.00  0.00     0.059 C 
ENDROOT
BRANCH   1   2
ATOM      2  C   UNL     1      44.265   5.532 126.466  1.00  0.00     0.042 C 
ATOM      3  O   UNL     1      44.768   6.304 125.608  1.00  0.00    -0.550 OA
ATOM      4  O   UNL     1      42.910   5.230 126.410  1.00  0.00    -0.550 OA
ENDBRANCH   1   2
BRANCH   1   5
ATOM      5  C   UNL     1      44.545   5.398 128.933  1.00  0.00     0.059 C 
BRANCH   5   6
ATOM      6  C   UNL     1      44.480   6.888 129.043  1.00  0.00     0.042 C 
ATOM      7  O   UNL     1      43.373   7.463 129.215  1.00  0.00    -0.550 OA
ATOM      8  O   UNL     1      45.648   7.640 129.005  1.00  0.00    -0.550 OA
ENDBRANCH   5   6
ENDBRANCH   1   5
TORSDOF 3
ENDMDL
