MODEL 1
REMARK VINA RESULT:    -3.371      0.000      0.000
REMARK INTER + INTRA:          -5.279
REMARK INTER:                  -4.751
REMARK INTRA:                  -0.528
REMARK UNBOUND:                -0.528
REMARK SMILES CCCCCCCCC(=O)[O-]
REMARK SMILES IDX 6 1 7 2 8 3 9 4 10 5 11 6 5 7 4 8 3 9 2 10 1 11
REMARK H PARENT
REMARK Flexibility Score: inf
ROOT
ATOM      1  C   UNL     1      58.464  17.097  50.830  1.00  0.00     0.000 C 
ENDROOT
BRANCH   1   2
ATOM      2  C   UNL     1      57.397  17.985  51.491  1.00  0.00     0.006 C 
BRANCH   2   3
ATOM      3  C   UNL     1      56.603  18.801  50.461  1.00  0.00     0.053 C 
BRANCH   3   4
ATOM      4  C   UNL     1      55.292  19.271  51.012  1.00  0.00     0.041 C 
ATOM      5  O   UNL     1      55.169  19.502  52.245  1.00  0.00    -0.550 OA
ATOM      6  O   UNL     1      54.214  19.483  50.161  1.00  0.00    -0.550 OA
ENDBRANCH   3   4
ENDBRANCH   2   3
ENDBRANCH   1   2
BRANCH   1   7
ATOM      7  C   UNL     1      58.210  16.883  49.330  1.00  0.00     0.000 C 
BRANCH   7   8
ATOM      8  C   UNL     1      59.417  17.268  48.462  1.00  0.00    -0.000 C 
BRANCH   8   9
ATOM      9  C   UNL     1      60.177  18.453  49.075  1.00  0.00    -0.000 C 
BRANCH   9  10
ATOM     10  C   UNL     1      59.793  19.796  48.434  1.00  0.00    -0.003 C 
ATOM     11  C   UNL     1      60.895  20.848  48.559  1.00  0.00     0.004 C 
ENDBRANCH   9  10
ENDBRANCH   8   9
ENDBRANCH   7   8
ENDBRANCH   1   7
TORSDOF 7
ENDMDL
MODEL 2
REMARK VINA RESULT:    -3.320      8.889     10.822
REMARK INTER + INTRA:          -5.207
REMARK INTER:                  -4.854
REMARK INTRA:                  -0.353
REMARK UNBOUND:                -0.528
REMARK SMILES CCCCCCCCC(=O)[O-]
REMARK SMILES IDX 6 1 7 2 8 3 9 4 10 5 11 6 5 7 4 8 3 9 2 10 1 11
REMARK H PARENT
REMARK Flexibility Score: inf
ROOT
ATOM      1  C   UNL     1      57.153  29.520  51.342  1.00  0.00     0.000 C 
ENDROOT
BRANCH   1   2
ATOM      2  C   UNL     1      58.577  29.689  50.785  1.00  0.00     0.006 C 
BRANCH   2   3
ATOM      3  C   UNL     1      58.708  29.149  49.355  1.00  0.00     0.053 C 
BRANCH   3   4
ATOM      4  C   UNL     1      59.659  27.994  49.280  1.00  0.00     0.041 C 
ATOM      5  O   UNL     1      59.221  26.814  49.222  1.00  0.00    -0.550 OA
ATOM      6  O   UNL     1      61.030  28.222  49.243  1.00  0.00    -0.550 OA
ENDBRANCH   3   4
ENDBRANCH   2   3
ENDBRANCH   1   2
BRANCH   1   7
ATOM      7  C   UNL     1      56.291  28.580  50.484  1.00  0.00     0.000 C 
BRANCH   7   8
ATOM      8  C   UNL     1      54.822  29.024  50.409  1.00  0.00    -0.000 C 
BRANCH   8   9
ATOM      9  C   UNL     1      53.906  27.834  50.087  1.00  0.00    -0.000 C 
BRANCH   9  10
ATOM     10  C   UNL     1      54.689  26.597  49.616  1.00  0.00    -0.003 C 
ATOM     11  C   UNL     1      53.786  25.518  49.021  1.00  0.00     0.004 C 
ENDBRANCH   9  10
ENDBRANCH   8   9
ENDBRANCH   7   8
ENDBRANCH   1   7
TORSDOF 7
ENDMDL
MODEL 3
REMARK VINA RESULT:    -3.315      1.259      2.333
REMARK INTER + INTRA:          -5.200
REMARK INTER:                  -4.685
REMARK INTRA:                  -0.514
REMARK UNBOUND:                -0.528
REMARK SMILES CCCCCCCCC(=O)[O-]
REMARK SMILES IDX 6 1 7 2 8 3 9 4 10 5 11 6 5 7 4 8 3 9 2 10 1 11
REMARK H PARENT
REMARK Flexibility Score: inf
ROOT
ATOM      1  C   UNL     1      59.360  17.294  48.485  1.00  0.00     0.000 C 
ENDROOT
BRANCH   1   2
ATOM      2  C   UNL     1      57.963  16.916  49.006  1.00  0.00     0.006 C 
BRANCH   2   3
ATOM      3  C   UNL     1      57.809  17.197  50.507  1.00  0.00     0.053 C 
BRANCH   3   4
ATOM      4  C   UNL     1      57.070  18.475  50.761  1.00  0.00     0.041 C 
ATOM      5  O   UNL     1      55.856  18.581  50.439  1.00  0.00    -0.550 OA
ATOM      6  O   UNL     1      57.712  19.540  51.381  1.00  0.00    -0.550 OA
ENDBRANCH   3   4
ENDBRANCH   2   3
ENDBRANCH   1   2
BRANCH   1   7
ATOM      7  C   UNL     1      60.373  17.520  49.619  1.00  0.00     0.000 C 
BRANCH   7   8
ATOM      8  C   UNL     1      61.029  18.908  49.563  1.00  0.00    -0.000 C 
BRANCH   8   9
ATOM      9  C   UNL     1      60.168  19.887  48.750  1.00  0.00    -0.000 C 
BRANCH   9  10
ATOM     10  C   UNL     1      60.940  21.152  48.342  1.00  0.00    -0.003 C 
ATOM     11  C   UNL     1      60.777  22.293  49.345  1.00  0.00     0.004 C 
ENDBRANCH   9  10
ENDBRANCH   8   9
ENDBRANCH   7   8
ENDBRANCH   1   7
TORSDOF 7
ENDMDL
MODEL 4
REMARK VINA RESULT:    -3.279      8.935     10.651
REMARK INTER + INTRA:          -5.148
REMARK INTER:                  -4.752
REMARK INTRA:                  -0.396
REMARK UNBOUND:                -0.528
REMARK SMILES CCCCCCCCC(=O)[O-]
REMARK SMILES IDX 6 1 7 2 8 3 9 4 10 5 11 6 5 7 4 8 3 9 2 10 1 11
REMARK H PARENT
REMARK Flexibility Score: inf
ROOT
ATOM      1  C   UNL     1      57.906  29.521  50.356  1.00  0.00     0.000 C 
ENDROOT
BRANCH   1   2
ATOM      2  C   UNL     1      58.870  29.325  49.174  1.00  0.00     0.006 C 
BRANCH   2   3
ATOM      3  C   UNL     1      59.537  27.943  49.192  1.00  0.00     0.053 C 
BRANCH   3   4
ATOM      4  C   UNL     1      60.944  28.009  49.701  1.00  0.00     0.041 C 
ATOM      5  O   UNL     1      61.485  29.125  49.925  1.00  0.00    -0.550 OA
ATOM      6  O   UNL     1      61.648  26.839  49.957  1.00  0.00    -0.550 OA
ENDBRANCH   3   4
ENDBRANCH   2   3
ENDBRANCH   1   2
BRANCH   1   7
ATOM      7  C   UNL     1      57.351  28.192  50.893  1.00  0.00     0.000 C 
BRANCH   7   8
ATOM      8  C   UNL     1      55.951  27.870  50.348  1.00  0.00    -0.000 C 
BRANCH   8   9
ATOM      9  C   UNL     1      55.850  26.393  49.938  1.00  0.00    -0.000 C 
BRANCH   9  10
ATOM     10  C   UNL     1      54.472  26.034  49.358  1.00  0.00    -0.003 C 
ATOM     11  C   UNL     1      53.440  27.144  49.557  1.00  0.00     0.004 C 
ENDBRANCH   9  10
ENDBRANCH   8   9
ENDBRANCH   7   8
ENDBRANCH   1   7
TORSDOF 7
ENDMDL
MODEL 5
REMARK VINA RESULT:    -3.240      8.459     10.524
REMARK INTER + INTRA:          -5.094
REMARK INTER:                  -4.676
REMARK INTRA:                  -0.419
REMARK UNBOUND:                -0.528
REMARK SMILES CCCCCCCCC(=O)[O-]
REMARK SMILES IDX 6 1 7 2 8 3 9 4 10 5 11 6 5 7 4 8 3 9 2 10 1 11
REMARK H PARENT
REMARK Flexibility Score: inf
ROOT
ATOM      1  C   UNL     1      58.365  29.695  50.584  1.00  0.00     0.000 C 
ENDROOT
BRANCH   1   2
ATOM      2  C   UNL     1      58.644  28.922  49.284  1.00  0.00     0.006 C 
BRANCH   2   3
ATOM      3  C   UNL     1      60.030  28.262  49.289  1.00  0.00     0.053 C 
BRANCH   3   4
ATOM      4  C   UNL     1      59.964  26.828  49.717  1.00  0.00     0.041 C 
ATOM      5  O   UNL     1      58.869  26.205  49.679  1.00  0.00    -0.550 OA
ATOM      6  O   UNL     1      61.116  26.170  50.128  1.00  0.00    -0.550 OA
ENDBRANCH   3   4
ENDBRANCH   2   3
ENDBRANCH   1   2
BRANCH   1   7
ATOM      7  C   UNL     1      57.020  29.314  51.222  1.00  0.00     0.000 C 
BRANCH   7   8
ATOM      8  C   UNL     1      56.240  28.283  50.392  1.00  0.00    -0.000 C 
BRANCH   8   9
ATOM      9  C   UNL     1      54.740  28.614  50.377  1.00  0.00    -0.000 C 
BRANCH   9  10
ATOM     10  C   UNL     1      53.887  27.465  49.817  1.00  0.00    -0.003 C 
ATOM     11  C   UNL     1      54.715  26.226  49.476  1.00  0.00     0.004 C 
ENDBRANCH   9  10
ENDBRANCH   8   9
ENDBRANCH   7   8
ENDBRANCH   1   7
TORSDOF 7
ENDMDL
MODEL 6
REMARK VINA RESULT:    -3.187      8.158      9.490
REMARK INTER + INTRA:          -5.019
REMARK INTER:                  -4.644
REMARK INTRA:                  -0.375
REMARK UNBOUND:                -0.528
REMARK SMILES CCCCCCCCC(=O)[O-]
REMARK SMILES IDX 6 1 7 2 8 3 9 4 10 5 11 6 5 7 4 8 3 9 2 10 1 11
REMARK H PARENT
REMARK Flexibility Score: inf
ROOT
ATOM      1  C   UNL     1      55.355  29.017  50.685  1.00  0.00     0.000 C 
ENDROOT
BRANCH   1   2
ATOM      2  C   UNL     1      54.314  28.087  50.037  1.00  0.00     0.006 C 
BRANCH   2   3
ATOM      3  C   UNL     1      54.891  26.699  49.726  1.00  0.00     0.053 C 
BRANCH   3   4
ATOM      4  C   UNL     1      54.102  25.608  50.381  1.00  0.00     0.041 C 
ATOM      5  O   UNL     1      54.058  25.523  51.638  1.00  0.00    -0.550 OA
ATOM      6  O   UNL     1      53.390  24.701  49.606  1.00  0.00    -0.550 OA
ENDBRANCH   3   4
ENDBRANCH   2   3
ENDBRANCH   1   2
BRANCH   1   7
ATOM      7  C   UNL     1      56.784  28.458  50.595  1.00  0.00     0.000 C 
BRANCH   7   8
ATOM      8  C   UNL     1      57.857  29.552  50.705  1.00  0.00    -0.000 C 
BRANCH   8   9
ATOM      9  C   UNL     1      58.682  29.641  49.413  1.00  0.00    -0.000 C 
BRANCH   9  10
ATOM     10  C   UNL     1      59.355  28.308  49.049  1.00  0.00    -0.003 C 
ATOM     11  C   UNL     1      60.755  28.171  49.646  1.00  0.00     0.004 C 
ENDBRANCH   9  10
ENDBRANCH   8   9
ENDBRANCH   7   8
ENDBRANCH   1   7
TORSDOF 7
ENDMDL
MODEL 7
REMARK VINA RESULT:    -3.100      3.257      5.068
REMARK INTER + INTRA:          -4.897
REMARK INTER:                  -4.371
REMARK INTRA:                  -0.527
REMARK UNBOUND:                -0.528
REMARK SMILES CCCCCCCCC(=O)[O-]
REMARK SMILES IDX 6 1 7 2 8 3 9 4 10 5 11 6 5 7 4 8 3 9 2 10 1 11
REMARK H PARENT
REMARK Flexibility Score: inf
ROOT
ATOM      1  C   UNL     1      61.064  19.037  49.564  1.00  0.00     0.000 C 
ENDROOT
BRANCH   1   2
ATOM      2  C   UNL     1      60.228  20.144  48.899  1.00  0.00     0.006 C 
BRANCH   2   3
ATOM      3  C   UNL     1      61.087  21.343  48.474  1.00  0.00     0.053 C 
BRANCH   3   4
ATOM      4  C   UNL     1      61.234  22.344  49.579  1.00  0.00     0.041 C 
ATOM      5  O   UNL     1      60.445  23.323  49.657  1.00  0.00    -0.550 OA
ATOM      6  O   UNL     1      62.222  22.179  50.542  1.00  0.00    -0.550 OA
ENDBRANCH   3   4
ENDBRANCH   2   3
ENDBRANCH   1   2
BRANCH   1   7
ATOM      7  C   UNL     1      60.352  17.676  49.563  1.00  0.00     0.000 C 
BRANCH   7   8
ATOM      8  C   UNL     1      59.370  17.520  48.392  1.00  0.00    -0.000 C 
BRANCH   8   9
ATOM      9  C   UNL     1      58.057  16.875  48.861  1.00  0.00    -0.000 C 
BRANCH   9  10
ATOM     10  C   UNL     1      57.732  17.197  50.329  1.00  0.00    -0.003 C 
ATOM     11  C   UNL     1      56.834  18.424  50.480  1.00  0.00     0.004 C 
ENDBRANCH   9  10
ENDBRANCH   8   9
ENDBRANCH   7   8
ENDBRANCH   1   7
TORSDOF 7
ENDMDL
MODEL 8
REMARK VINA RESULT:    -3.016      2.867      5.184
REMARK INTER + INTRA:          -4.778
REMARK INTER:                  -4.288
REMARK INTRA:                  -0.490
REMARK UNBOUND:                -0.528
REMARK SMILES CCCCCCCCC(=O)[O-]
REMARK SMILES IDX 6 1 7 2 8 3 9 4 10 5 11 6 5 7 4 8 3 9 2 10 1 11
REMARK H PARENT
REMARK Flexibility Score: inf
ROOT
ATOM      1  C   UNL     1      58.143  16.875  50.714  1.00  0.00     0.000 C 
ENDROOT
BRANCH   1   2
ATOM      2  C   UNL     1      57.926  17.066  49.204  1.00  0.00     0.006 C 
BRANCH   2   3
ATOM      3  C   UNL     1      59.247  17.282  48.451  1.00  0.00     0.053 C 
BRANCH   3   4
ATOM      4  C   UNL     1      59.906  18.569  48.840  1.00  0.00     0.041 C 
ATOM      5  O   UNL     1      59.380  19.671  48.527  1.00  0.00    -0.550 OA
ATOM      6  O   UNL     1      61.086  18.554  49.573  1.00  0.00    -0.550 OA
ENDBRANCH   3   4
ENDBRANCH   2   3
ENDBRANCH   1   2
BRANCH   1   7
ATOM      7  C   UNL     1      57.524  18.007  51.549  1.00  0.00     0.000 C 
BRANCH   7   8
ATOM      8  C   UNL     1      56.353  18.700  50.835  1.00  0.00    -0.000 C 
BRANCH   8   9
ATOM      9  C   UNL     1      55.393  19.339  51.849  1.00  0.00    -0.000 C 
BRANCH   9  10
ATOM     10  C   UNL     1      55.865  19.159  53.301  1.00  0.00    -0.003 C 
ATOM     11  C   UNL     1      54.754  18.664  54.226  1.00  0.00     0.004 C 
ENDBRANCH   9  10
ENDBRANCH   8   9
ENDBRANCH   7   8
ENDBRANCH   1   7
TORSDOF 7
ENDMDL
