MODEL 1
REMARK VINA RESULT:    -6.389      0.000      0.000
REMARK INTER + INTRA:          -9.487
REMARK INTER:                  -9.377
REMARK INTRA:                  -0.110
REMARK UNBOUND:                -0.110
REMARK SMILES Cc1cc2c(C(C)C)c(O)c(O)c(C=O)c2c(O)c1-c1c(C)cc2c(C(C)C)c(O)c(O)c(C=O)c2c1O
REMARK SMILES IDX 1 1 2 2 3 3 4 4 16 5 13 6 11 7 9 8 5 9 17 10 19 11 20 12
REMARK SMILES IDX 37 13 21 14 36 15 23 16 22 17 24 18 33 19 25 20 31 21 29 22
REMARK SMILES IDX 38 23 34 25 35 26 26 27 27 28 28 29 32 30 30 32 18 34 6 36
REMARK SMILES IDX 7 37 8 38 14 39 15 40 10 41 12 43
REMARK H PARENT 38 24 32 31 30 33 18 35 10 42 12 44
REMARK Flexibility Score: inf
ROOT
ATOM      1  C   UNL     1      11.758  26.706  34.118  1.00  0.00     0.045 C 
ATOM      2  C   UNL     1      11.174  26.128  35.385  1.00  0.00    -0.039 A 
ATOM      3  C   UNL     1       9.836  26.373  35.694  1.00  0.00     0.013 A 
ATOM      4  C   UNL     1       9.241  25.890  36.881  1.00  0.00    -0.006 A 
ATOM      5  C   UNL     1      10.007  25.041  37.737  1.00  0.00     0.039 A 
ATOM      6  C   UNL     1       9.368  24.448  38.870  1.00  0.00     0.072 A 
ATOM      7  C   UNL     1       7.990  24.650  39.084  1.00  0.00     0.169 A 
ATOM      8  C   UNL     1       7.254  25.486  38.240  1.00  0.00     0.162 A 
ATOM      9  C   UNL     1       7.887  26.208  37.206  1.00  0.00     0.008 A 
ATOM     10  C   UNL     1      11.374  24.778  37.407  1.00  0.00     0.132 A 
ATOM     11  C   UNL     1      11.949  25.333  36.244  1.00  0.00     0.031 A 
ENDROOT
BRANCH  11  12
ATOM     12  C   UNL     1      13.369  25.051  35.904  1.00  0.00     0.031 A 
ATOM     13  C   UNL     1      14.370  26.001  36.199  1.00  0.00     0.132 A 
ATOM     14  C   UNL     1      13.707  23.853  35.251  1.00  0.00    -0.039 A 
ATOM     15  C   UNL     1      15.735  25.727  35.897  1.00  0.00     0.039 A 
ATOM     16  C   UNL     1      15.026  23.637  34.850  1.00  0.00     0.013 A 
ATOM     17  C   UNL     1      12.653  22.830  34.903  1.00  0.00     0.045 C 
ATOM     18  C   UNL     1      16.064  24.539  35.177  1.00  0.00    -0.006 A 
ATOM     19  C   UNL     1      16.779  26.632  36.241  1.00  0.00     0.072 A 
ATOM     20  C   UNL     1      17.412  24.306  34.761  1.00  0.00     0.008 A 
ATOM     21  C   UNL     1      18.052  26.480  35.672  1.00  0.00     0.169 A 
ATOM     22  C   UNL     1      18.343  25.363  34.869  1.00  0.00     0.162 A 
BRANCH  13  23
ATOM     23  O   UNL     1      14.004  27.239  36.737  1.00  0.00    -0.507 OA
ATOM     24  H   UNL     1      13.436  27.921  36.251  1.00  0.00     0.293 HD
ENDBRANCH  13  23
BRANCH  19  25
ATOM     25  C   UNL     1      16.620  27.703  37.250  1.00  0.00     0.264 C 
ATOM     26  O   UNL     1      17.190  27.623  38.370  1.00  0.00    -0.298 OA
ENDBRANCH  19  25
BRANCH  20  27
ATOM     27  C   UNL     1      17.849  22.966  34.143  1.00  0.00     0.017 C 
ATOM     28  C   UNL     1      18.714  22.166  35.122  1.00  0.00     0.012 C 
ATOM     29  C   UNL     1      16.681  22.114  33.607  1.00  0.00     0.012 C 
ENDBRANCH  20  27
BRANCH  21  30
ATOM     30  O   UNL     1      19.032  27.438  35.964  1.00  0.00    -0.504 OA
ATOM     31  H   UNL     1      18.954  28.121  36.704  1.00  0.00     0.293 HD
ENDBRANCH  21  30
BRANCH  22  32
ATOM     32  O   UNL     1      19.546  25.288  34.162  1.00  0.00    -0.504 OA
ATOM     33  H   UNL     1      20.420  25.678  34.487  1.00  0.00     0.293 HD
ENDBRANCH  22  32
ENDBRANCH  11  12
BRANCH  10  34
ATOM     34  O   UNL     1      12.156  23.954  38.224  1.00  0.00    -0.507 OA
ATOM     35  H   UNL     1      13.005  24.255  38.685  1.00  0.00     0.293 HD
ENDBRANCH  10  34
BRANCH   9  36
ATOM     36  C   UNL     1       7.102  27.295  36.447  1.00  0.00     0.017 C 
ATOM     37  C   UNL     1       6.351  26.694  35.256  1.00  0.00     0.012 C 
ATOM     38  C   UNL     1       6.161  28.125  37.341  1.00  0.00     0.012 C 
ENDBRANCH   9  36
BRANCH   6  39
ATOM     39  C   UNL     1      10.105  23.603  39.830  1.00  0.00     0.264 C 
ATOM     40  O   UNL     1       9.853  23.666  41.063  1.00  0.00    -0.298 OA
ENDBRANCH   6  39
BRANCH   8  41
ATOM     41  O   UNL     1       5.875  25.606  38.431  1.00  0.00    -0.504 OA
ATOM     42  H   UNL     1       5.267  26.088  37.780  1.00  0.00     0.293 HD
ENDBRANCH   8  41
BRANCH   7  43
ATOM     43  O   UNL     1       7.320  24.053  40.160  1.00  0.00    -0.504 OA
ATOM     44  H   UNL     1       7.449  23.092  40.447  1.00  0.00     0.293 HD
ENDBRANCH   7  43
TORSDOF 11
ENDMDL
MODEL 2
REMARK VINA RESULT:    -6.151      0.416      9.139
REMARK INTER + INTRA:          -9.138
REMARK INTER:                  -8.883
REMARK INTRA:                  -0.255
REMARK UNBOUND:                -0.110
REMARK SMILES Cc1cc2c(C(C)C)c(O)c(O)c(C=O)c2c(O)c1-c1c(C)cc2c(C(C)C)c(O)c(O)c(C=O)c2c1O
REMARK SMILES IDX 1 1 2 2 3 3 4 4 16 5 13 6 11 7 9 8 5 9 17 10 19 11 20 12
REMARK SMILES IDX 37 13 21 14 36 15 23 16 22 17 24 18 33 19 25 20 31 21 29 22
REMARK SMILES IDX 38 23 34 25 35 26 26 27 27 28 28 29 32 30 30 32 18 34 6 36
REMARK SMILES IDX 7 37 8 38 14 39 15 40 10 41 12 43
REMARK H PARENT 38 24 32 31 30 33 18 35 10 42 12 44
REMARK Flexibility Score: inf
ROOT
ATOM      1  C   UNL     1      12.405  23.055  34.915  1.00  0.00     0.045 C 
ATOM      2  C   UNL     1      13.505  24.044  35.218  1.00  0.00    -0.039 A 
ATOM      3  C   UNL     1      14.803  23.778  34.779  1.00  0.00     0.013 A 
ATOM      4  C   UNL     1      15.880  24.647  35.061  1.00  0.00    -0.006 A 
ATOM      5  C   UNL     1      15.612  25.882  35.727  1.00  0.00     0.039 A 
ATOM      6  C   UNL     1      16.679  26.817  35.899  1.00  0.00     0.072 A 
ATOM      7  C   UNL     1      17.949  26.543  35.353  1.00  0.00     0.169 A 
ATOM      8  C   UNL     1      18.197  25.328  34.707  1.00  0.00     0.162 A 
ATOM      9  C   UNL     1      17.212  24.321  34.656  1.00  0.00     0.008 A 
ATOM     10  C   UNL     1      14.277  26.158  36.160  1.00  0.00     0.132 A 
ATOM     11  C   UNL     1      13.240  25.234  35.915  1.00  0.00     0.031 A 
ENDROOT
BRANCH  11  12
ATOM     12  C   UNL     1      11.853  25.530  36.363  1.00  0.00     0.031 A 
ATOM     13  C   UNL     1      11.337  24.917  37.524  1.00  0.00     0.132 A 
ATOM     14  C   UNL     1      11.042  26.391  35.602  1.00  0.00    -0.039 A 
ATOM     15  C   UNL     1      10.018  25.215  37.971  1.00  0.00     0.039 A 
ATOM     16  C   UNL     1       9.712  26.591  35.976  1.00  0.00     0.013 A 
ATOM     17  C   UNL     1      11.560  27.042  34.343  1.00  0.00     0.045 C 
ATOM     18  C   UNL     1       9.178  26.038  37.163  1.00  0.00    -0.006 A 
ATOM     19  C   UNL     1       9.488  24.668  39.174  1.00  0.00     0.072 A 
ATOM     20  C   UNL     1       7.814  26.251  37.533  1.00  0.00     0.008 A 
ATOM     21  C   UNL     1       8.110  24.735  39.427  1.00  0.00     0.169 A 
ATOM     22  C   UNL     1       7.265  25.455  38.565  1.00  0.00     0.162 A 
BRANCH  13  23
ATOM     23  O   UNL     1      12.112  23.969  38.202  1.00  0.00    -0.507 OA
ATOM     24  H   UNL     1      12.221  23.009  37.901  1.00  0.00     0.293 HD
ENDBRANCH  13  23
BRANCH  19  25
ATOM     25  C   UNL     1      10.338  24.089  40.241  1.00  0.00     0.264 C 
ATOM     26  O   UNL     1      10.175  22.899  40.617  1.00  0.00    -0.298 OA
ENDBRANCH  19  25
BRANCH  20  27
ATOM     27  C   UNL     1       6.922  27.267  36.798  1.00  0.00     0.017 C 
ATOM     28  C   UNL     1       6.076  26.578  35.723  1.00  0.00     0.012 C 
ATOM     29  C   UNL     1       6.046  28.122  37.735  1.00  0.00     0.012 C 
ENDBRANCH  20  27
BRANCH  21  30
ATOM     30  O   UNL     1       7.612  24.111  40.577  1.00  0.00    -0.504 OA
ATOM     31  H   UNL     1       6.713  24.318  40.990  1.00  0.00     0.293 HD
ENDBRANCH  21  30
BRANCH  22  32
ATOM     32  O   UNL     1       5.876  25.388  38.710  1.00  0.00    -0.504 OA
ATOM     33  H   UNL     1       5.381  25.649  39.550  1.00  0.00     0.293 HD
ENDBRANCH  22  32
ENDBRANCH  11  12
BRANCH  10  34
ATOM     34  O   UNL     1      13.978  27.356  36.820  1.00  0.00    -0.507 OA
ATOM     35  H   UNL     1      14.663  28.064  37.047  1.00  0.00     0.293 HD
ENDBRANCH  10  34
BRANCH   9  36
ATOM     36  C   UNL     1      17.586  22.915  34.151  1.00  0.00     0.017 C 
ATOM     37  C   UNL     1      18.421  22.164  35.193  1.00  0.00     0.012 C 
ATOM     38  C   UNL     1      16.379  22.075  33.691  1.00  0.00     0.012 C 
ENDBRANCH   9  36
BRANCH   6  39
ATOM     39  C   UNL     1      16.494  28.091  36.623  1.00  0.00     0.264 C 
ATOM     40  O   UNL     1      16.526  28.122  37.882  1.00  0.00    -0.298 OA
ENDBRANCH   6  39
BRANCH   8  41
ATOM     41  O   UNL     1      19.442  25.116  34.108  1.00  0.00    -0.504 OA
ATOM     42  H   UNL     1      19.800  25.694  33.357  1.00  0.00     0.293 HD
ENDBRANCH   8  41
BRANCH   7  43
ATOM     43  O   UNL     1      19.008  27.453  35.465  1.00  0.00    -0.504 OA
ATOM     44  H   UNL     1      19.828  27.446  34.873  1.00  0.00     0.293 HD
ENDBRANCH   7  43
TORSDOF 11
ENDMDL
MODEL 3
REMARK VINA RESULT:    -6.100      1.780      9.104
REMARK INTER + INTRA:          -9.062
REMARK INTER:                  -9.518
REMARK INTRA:                   0.456
REMARK UNBOUND:                -0.110
REMARK SMILES Cc1cc2c(C(C)C)c(O)c(O)c(C=O)c2c(O)c1-c1c(C)cc2c(C(C)C)c(O)c(O)c(C=O)c2c1O
REMARK SMILES IDX 1 1 2 2 3 3 4 4 16 5 13 6 11 7 9 8 5 9 17 10 19 11 20 12
REMARK SMILES IDX 37 13 21 14 36 15 23 16 22 17 24 18 33 19 25 20 31 21 29 22
REMARK SMILES IDX 38 23 34 25 35 26 26 27 27 28 28 29 32 30 30 32 18 34 6 36
REMARK SMILES IDX 7 37 8 38 14 39 15 40 10 41 12 43
REMARK H PARENT 38 24 32 31 30 33 18 35 10 42 12 44
REMARK Flexibility Score: inf
ROOT
ATOM      1  C   UNL     1      12.530  22.630  34.644  1.00  0.00     0.045 C 
ATOM      2  C   UNL     1      13.554  23.705  34.918  1.00  0.00    -0.039 A 
ATOM      3  C   UNL     1      14.882  23.495  34.545  1.00  0.00     0.013 A 
ATOM      4  C   UNL     1      15.892  24.448  34.806  1.00  0.00    -0.006 A 
ATOM      5  C   UNL     1      15.522  25.704  35.376  1.00  0.00     0.039 A 
ATOM      6  C   UNL     1      16.521  26.715  35.521  1.00  0.00     0.072 A 
ATOM      7  C   UNL     1      17.826  26.488  35.042  1.00  0.00     0.169 A 
ATOM      8  C   UNL     1      18.175  25.252  34.489  1.00  0.00     0.162 A 
ATOM      9  C   UNL     1      17.256  24.182  34.473  1.00  0.00     0.008 A 
ATOM     10  C   UNL     1      14.156  25.922  35.741  1.00  0.00     0.132 A 
ATOM     11  C   UNL     1      13.188  24.919  35.522  1.00  0.00     0.031 A 
ENDROOT
BRANCH  11  12
ATOM     12  C   UNL     1      11.769  25.155  35.898  1.00  0.00     0.031 A 
ATOM     13  C   UNL     1      10.940  25.943  35.073  1.00  0.00     0.132 A 
ATOM     14  C   UNL     1      11.267  24.625  37.099  1.00  0.00    -0.039 A 
ATOM     15  C   UNL     1       9.573  26.154  35.415  1.00  0.00     0.039 A 
ATOM     16  C   UNL     1       9.962  24.930  37.493  1.00  0.00     0.013 A 
ATOM     17  C   UNL     1      12.138  23.798  38.013  1.00  0.00     0.045 C 
ATOM     18  C   UNL     1       9.085  25.669  36.666  1.00  0.00    -0.006 A 
ATOM     19  C   UNL     1       8.689  26.887  34.573  1.00  0.00     0.072 A 
ATOM     20  C   UNL     1       7.752  25.974  37.081  1.00  0.00     0.008 A 
ATOM     21  C   UNL     1       7.454  27.330  35.070  1.00  0.00     0.169 A 
ATOM     22  C   UNL     1       7.024  26.940  36.350  1.00  0.00     0.162 A 
BRANCH  13  23
ATOM     23  O   UNL     1      11.486  26.565  33.944  1.00  0.00    -0.507 OA
ATOM     24  H   UNL     1      12.208  26.154  33.367  1.00  0.00     0.293 HD
ENDBRANCH  13  23
BRANCH  19  25
ATOM     25  C   UNL     1       8.968  27.149  33.143  1.00  0.00     0.264 C 
ATOM     26  O   UNL     1       8.085  26.950  32.268  1.00  0.00    -0.298 OA
ENDBRANCH  19  25
BRANCH  20  27
ATOM     27  C   UNL     1       7.123  25.329  38.329  1.00  0.00     0.017 C 
ATOM     28  C   UNL     1       7.782  23.982  38.641  1.00  0.00     0.012 C 
ATOM     29  C   UNL     1       7.113  26.246  39.568  1.00  0.00     0.012 C 
ENDBRANCH  20  27
BRANCH  21  30
ATOM     30  O   UNL     1       6.648  28.122  34.244  1.00  0.00    -0.504 OA
ATOM     31  H   UNL     1       6.781  28.220  33.247  1.00  0.00     0.293 HD
ENDBRANCH  21  30
BRANCH  22  32
ATOM     32  O   UNL     1       5.881  27.509  36.921  1.00  0.00    -0.504 OA
ATOM     33  H   UNL     1       5.108  27.880  36.389  1.00  0.00     0.293 HD
ENDBRANCH  22  32
ENDBRANCH  11  12
BRANCH  10  34
ATOM     34  O   UNL     1      13.757  27.139  36.305  1.00  0.00    -0.507 OA
ATOM     35  H   UNL     1      13.245  27.219  37.174  1.00  0.00     0.293 HD
ENDBRANCH  10  34
BRANCH   9  36
ATOM     36  C   UNL     1      17.737  22.772  34.078  1.00  0.00     0.017 C 
ATOM     37  C   UNL     1      18.593  22.157  35.189  1.00  0.00     0.012 C 
ATOM     38  C   UNL     1      16.600  21.821  33.656  1.00  0.00     0.012 C 
ENDBRANCH   9  36
BRANCH   6  39
ATOM     39  C   UNL     1      16.229  28.019  36.150  1.00  0.00     0.264 C 
ATOM     40  O   UNL     1      16.160  28.125  37.403  1.00  0.00    -0.298 OA
ENDBRANCH   6  39
BRANCH   8  41
ATOM     41  O   UNL     1      19.454  25.081  33.952  1.00  0.00    -0.504 OA
ATOM     42  H   UNL     1      19.675  25.269  32.981  1.00  0.00     0.293 HD
ENDBRANCH   8  41
BRANCH   7  43
ATOM     43  O   UNL     1      18.822  27.469  35.129  1.00  0.00    -0.504 OA
ATOM     44  H   UNL     1      19.741  27.385  34.715  1.00  0.00     0.293 HD
ENDBRANCH   7  43
TORSDOF 11
ENDMDL
MODEL 4
REMARK VINA RESULT:    -5.958      1.612      9.052
REMARK INTER + INTRA:          -8.854
REMARK INTER:                  -8.226
REMARK INTRA:                  -0.628
REMARK UNBOUND:                -0.110
REMARK SMILES Cc1cc2c(C(C)C)c(O)c(O)c(C=O)c2c(O)c1-c1c(C)cc2c(C(C)C)c(O)c(O)c(C=O)c2c1O
REMARK SMILES IDX 1 1 2 2 3 3 4 4 16 5 13 6 11 7 9 8 5 9 17 10 19 11 20 12
REMARK SMILES IDX 37 13 21 14 36 15 23 16 22 17 24 18 33 19 25 20 31 21 29 22
REMARK SMILES IDX 38 23 34 25 35 26 26 27 27 28 28 29 32 30 30 32 18 34 6 36
REMARK SMILES IDX 7 37 8 38 14 39 15 40 10 41 12 43
REMARK H PARENT 38 24 32 31 30 33 18 35 10 42 12 44
REMARK Flexibility Score: inf
ROOT
ATOM      1  C   UNL     1      13.789  28.112  36.738  1.00  0.00     0.045 C 
ATOM      2  C   UNL     1      14.200  26.808  36.095  1.00  0.00    -0.039 A 
ATOM      3  C   UNL     1      15.528  26.626  35.709  1.00  0.00     0.013 A 
ATOM      4  C   UNL     1      15.966  25.444  35.071  1.00  0.00    -0.006 A 
ATOM      5  C   UNL     1      15.043  24.366  34.912  1.00  0.00     0.039 A 
ATOM      6  C   UNL     1      15.517  23.125  34.384  1.00  0.00     0.072 A 
ATOM      7  C   UNL     1      16.887  22.961  34.099  1.00  0.00     0.169 A 
ATOM      8  C   UNL     1      17.779  24.027  34.257  1.00  0.00     0.162 A 
ATOM      9  C   UNL     1      17.318  25.307  34.627  1.00  0.00     0.008 A 
ATOM     10  C   UNL     1      13.686  24.551  35.326  1.00  0.00     0.132 A 
ATOM     11  C   UNL     1      13.274  25.772  35.900  1.00  0.00     0.031 A 
ENDROOT
BRANCH  11  12
ATOM     12  C   UNL     1      11.863  25.955  36.334  1.00  0.00     0.031 A 
ATOM     13  C   UNL     1      11.373  25.262  37.461  1.00  0.00     0.132 A 
ATOM     14  C   UNL     1      11.006  26.786  35.592  1.00  0.00    -0.039 A 
ATOM     15  C   UNL     1      10.030  25.451  37.896  1.00  0.00     0.039 A 
ATOM     16  C   UNL     1       9.659  26.879  35.949  1.00  0.00     0.013 A 
ATOM     17  C   UNL     1      11.496  27.521  34.368  1.00  0.00     0.045 C 
ATOM     18  C   UNL     1       9.147  26.245  37.104  1.00  0.00    -0.006 A 
ATOM     19  C   UNL     1       9.521  24.822  39.067  1.00  0.00     0.072 A 
ATOM     20  C   UNL     1       7.765  26.348  37.458  1.00  0.00     0.008 A 
ATOM     21  C   UNL     1       8.137  24.783  39.297  1.00  0.00     0.169 A 
ATOM     22  C   UNL     1       7.258  25.477  38.449  1.00  0.00     0.162 A 
BRANCH  13  23
ATOM     23  O   UNL     1      12.202  24.344  38.116  1.00  0.00    -0.507 OA
ATOM     24  H   UNL     1      12.588  23.518  37.677  1.00  0.00     0.293 HD
ENDBRANCH  13  23
BRANCH  19  25
ATOM     25  C   UNL     1      10.392  24.261  40.126  1.00  0.00     0.264 C 
ATOM     26  O   UNL     1      10.450  23.018  40.320  1.00  0.00    -0.298 OA
ENDBRANCH  19  25
BRANCH  20  27
ATOM     27  C   UNL     1       6.817  27.329  36.746  1.00  0.00     0.017 C 
ATOM     28  C   UNL     1       5.996  26.613  35.669  1.00  0.00     0.012 C 
ATOM     29  C   UNL     1       5.908  28.125  37.704  1.00  0.00     0.012 C 
ENDBRANCH  20  27
BRANCH  21  30
ATOM     30  O   UNL     1       7.666  24.081  40.414  1.00  0.00    -0.504 OA
ATOM     31  H   UNL     1       6.744  23.675  40.480  1.00  0.00     0.293 HD
ENDBRANCH  21  30
BRANCH  22  32
ATOM     32  O   UNL     1       5.875  25.308  38.565  1.00  0.00    -0.504 OA
ATOM     33  H   UNL     1       5.288  25.852  39.181  1.00  0.00     0.293 HD
ENDBRANCH  22  32
ENDBRANCH  11  12
BRANCH  10  34
ATOM     34  O   UNL     1      12.752  23.518  35.181  1.00  0.00    -0.507 OA
ATOM     35  H   UNL     1      11.853  23.627  34.731  1.00  0.00     0.293 HD
ENDBRANCH  10  34
BRANCH   9  36
ATOM     36  C   UNL     1      18.278  26.509  34.564  1.00  0.00     0.017 C 
ATOM     37  C   UNL     1      18.964  26.731  35.915  1.00  0.00     0.012 C 
ATOM     38  C   UNL     1      19.309  26.426  33.421  1.00  0.00     0.012 C 
ENDBRANCH   9  36
BRANCH   6  39
ATOM     39  C   UNL     1      14.615  21.982  34.140  1.00  0.00     0.264 C 
ATOM     40  O   UNL     1      14.597  21.000  34.929  1.00  0.00    -0.298 OA
ENDBRANCH   6  39
BRANCH   8  41
ATOM     41  O   UNL     1      19.143  23.813  34.040  1.00  0.00    -0.504 OA
ATOM     42  H   UNL     1      19.612  22.948  34.282  1.00  0.00     0.293 HD
ENDBRANCH   8  41
BRANCH   7  43
ATOM     43  O   UNL     1      17.397  21.747  33.619  1.00  0.00    -0.504 OA
ATOM     44  H   UNL     1      17.386  21.471  32.646  1.00  0.00     0.293 HD
ENDBRANCH   7  43
TORSDOF 11
ENDMDL
MODEL 5
REMARK VINA RESULT:    -5.836      2.231      9.058
REMARK INTER + INTRA:          -8.676
REMARK INTER:                  -8.846
REMARK INTRA:                   0.170
REMARK UNBOUND:                -0.110
REMARK SMILES Cc1cc2c(C(C)C)c(O)c(O)c(C=O)c2c(O)c1-c1c(C)cc2c(C(C)C)c(O)c(O)c(C=O)c2c1O
REMARK SMILES IDX 1 1 2 2 3 3 4 4 16 5 13 6 11 7 9 8 5 9 17 10 19 11 20 12
REMARK SMILES IDX 37 13 21 14 36 15 23 16 22 17 24 18 33 19 25 20 31 21 29 22
REMARK SMILES IDX 38 23 34 25 35 26 26 27 27 28 28 29 32 30 30 32 18 34 6 36
REMARK SMILES IDX 7 37 8 38 14 39 15 40 10 41 12 43
REMARK H PARENT 38 24 32 31 30 33 18 35 10 42 12 44
REMARK Flexibility Score: inf
ROOT
ATOM      1  C   UNL     1      13.666  28.125  36.631  1.00  0.00     0.045 C 
ATOM      2  C   UNL     1      14.320  26.935  35.970  1.00  0.00    -0.039 A 
ATOM      3  C   UNL     1      15.692  26.962  35.719  1.00  0.00     0.013 A 
ATOM      4  C   UNL     1      16.355  25.895  35.072  1.00  0.00    -0.006 A 
ATOM      5  C   UNL     1      15.615  24.714  34.759  1.00  0.00     0.039 A 
ATOM      6  C   UNL     1      16.311  23.587  34.222  1.00  0.00     0.072 A 
ATOM      7  C   UNL     1      17.712  23.631  34.077  1.00  0.00     0.169 A 
ATOM      8  C   UNL     1      18.422  24.795  34.385  1.00  0.00     0.162 A 
ATOM      9  C   UNL     1      17.749  25.973  34.769  1.00  0.00     0.008 A 
ATOM     10  C   UNL     1      14.211  24.685  35.034  1.00  0.00     0.132 A 
ATOM     11  C   UNL     1      13.574  25.797  35.623  1.00  0.00     0.031 A 
ENDROOT
BRANCH  11  12
ATOM     12  C   UNL     1      12.115  25.757  35.911  1.00  0.00     0.031 A 
ATOM     13  C   UNL     1      11.219  26.524  35.138  1.00  0.00     0.132 A 
ATOM     14  C   UNL     1      11.636  24.986  36.984  1.00  0.00    -0.039 A 
ATOM     15  C   UNL     1       9.819  26.472  35.393  1.00  0.00     0.039 A 
ATOM     16  C   UNL     1      10.279  25.027  37.308  1.00  0.00     0.013 A 
ATOM     17  C   UNL     1      12.575  24.174  37.843  1.00  0.00     0.045 C 
ATOM     18  C   UNL     1       9.344  25.739  36.522  1.00  0.00    -0.006 A 
ATOM     19  C   UNL     1       8.879  27.179  34.591  1.00  0.00     0.072 A 
ATOM     20  C   UNL     1       7.957  25.773  36.865  1.00  0.00     0.008 A 
ATOM     21  C   UNL     1       7.562  27.351  35.042  1.00  0.00     0.169 A 
ATOM     22  C   UNL     1       7.126  26.716  36.217  1.00  0.00     0.162 A 
BRANCH  13  23
ATOM     23  O   UNL     1      11.723  27.381  34.153  1.00  0.00    -0.507 OA
ATOM     24  H   UNL     1      11.146  27.858  33.471  1.00  0.00     0.293 HD
ENDBRANCH  13  23
BRANCH  19  25
ATOM     25  C   UNL     1       9.195  27.688  33.237  1.00  0.00     0.264 C 
ATOM     26  O   UNL     1       8.402  27.501  32.277  1.00  0.00    -0.298 OA
ENDBRANCH  19  25
BRANCH  20  27
ATOM     27  C   UNL     1       7.369  24.863  37.958  1.00  0.00     0.017 C 
ATOM     28  C   UNL     1       8.174  23.566  38.084  1.00  0.00     0.012 C 
ATOM     29  C   UNL     1       7.207  25.554  39.327  1.00  0.00     0.012 C 
ENDBRANCH  20  27
BRANCH  21  30
ATOM     30  O   UNL     1       6.687  28.125  34.268  1.00  0.00    -0.504 OA
ATOM     31  H   UNL     1       6.918  28.504  33.361  1.00  0.00     0.293 HD
ENDBRANCH  21  30
BRANCH  22  32
ATOM     32  O   UNL     1       5.875  27.013  36.766  1.00  0.00    -0.504 OA
ATOM     33  H   UNL     1       5.571  26.713  37.681  1.00  0.00     0.293 HD
ENDBRANCH  22  32
ENDBRANCH  11  12
BRANCH  10  34
ATOM     34  O   UNL     1      13.453  23.547  34.737  1.00  0.00    -0.507 OA
ATOM     35  H   UNL     1      12.548  23.347  35.142  1.00  0.00     0.293 HD
ENDBRANCH  10  34
BRANCH   9  36
ATOM     36  C   UNL     1      18.530  27.297  34.872  1.00  0.00     0.017 C 
ATOM     37  C   UNL     1      19.358  27.343  36.159  1.00  0.00     0.012 C 
ATOM     38  C   UNL     1      19.398  27.607  33.637  1.00  0.00     0.012 C 
ENDBRANCH   9  36
BRANCH   6  39
ATOM     39  C   UNL     1      15.609  22.351  33.824  1.00  0.00     0.264 C 
ATOM     40  O   UNL     1      15.332  21.468  34.678  1.00  0.00    -0.298 OA
ENDBRANCH   6  39
BRANCH   8  41
ATOM     41  O   UNL     1      19.817  24.784  34.305  1.00  0.00    -0.504 OA
ATOM     42  H   UNL     1      20.361  25.589  34.018  1.00  0.00     0.293 HD
ENDBRANCH   8  41
BRANCH   7  43
ATOM     43  O   UNL     1      18.434  22.532  33.593  1.00  0.00    -0.504 OA
ATOM     44  H   UNL     1      18.541  21.659  34.091  1.00  0.00     0.293 HD
ENDBRANCH   7  43
TORSDOF 11
ENDMDL
MODEL 6
REMARK VINA RESULT:    -5.496      1.787      3.175
REMARK INTER + INTRA:          -8.176
REMARK INTER:                  -8.619
REMARK INTRA:                   0.443
REMARK UNBOUND:                -0.110
REMARK SMILES Cc1cc2c(C(C)C)c(O)c(O)c(C=O)c2c(O)c1-c1c(C)cc2c(C(C)C)c(O)c(O)c(C=O)c2c1O
REMARK SMILES IDX 1 1 2 2 3 3 4 4 16 5 13 6 11 7 9 8 5 9 17 10 19 11 20 12
REMARK SMILES IDX 37 13 21 14 36 15 23 16 22 17 24 18 33 19 25 20 31 21 29 22
REMARK SMILES IDX 38 23 34 25 35 26 26 27 27 28 28 29 32 30 30 32 18 34 6 36
REMARK SMILES IDX 7 37 8 38 14 39 15 40 10 41 12 43
REMARK H PARENT 38 24 32 31 30 33 18 35 10 42 12 44
REMARK Flexibility Score: inf
ROOT
ATOM      1  C   UNL     1      12.413  23.910  38.063  1.00  0.00     0.045 C 
ATOM      2  C   UNL     1      11.536  24.703  37.123  1.00  0.00    -0.039 A 
ATOM      3  C   UNL     1      10.197  24.914  37.452  1.00  0.00     0.013 A 
ATOM      4  C   UNL     1       9.319  25.617  36.598  1.00  0.00    -0.006 A 
ATOM      5  C   UNL     1       9.845  26.216  35.412  1.00  0.00     0.039 A 
ATOM      6  C   UNL     1       8.986  27.034  34.614  1.00  0.00     0.072 A 
ATOM      7  C   UNL     1       7.669  27.294  35.040  1.00  0.00     0.169 A 
ATOM      8  C   UNL     1       7.167  26.698  36.202  1.00  0.00     0.162 A 
ATOM      9  C   UNL     1       7.936  25.765  36.926  1.00  0.00     0.008 A 
ATOM     10  C   UNL     1      11.223  26.011  35.088  1.00  0.00     0.132 A 
ATOM     11  C   UNL     1      12.052  25.247  35.936  1.00  0.00     0.031 A 
ENDROOT
BRANCH  11  12
ATOM     12  C   UNL     1      13.485  25.044  35.595  1.00  0.00     0.031 A 
ATOM     13  C   UNL     1      14.408  26.099  35.757  1.00  0.00     0.132 A 
ATOM     14  C   UNL     1      13.912  23.812  35.071  1.00  0.00    -0.039 A 
ATOM     15  C   UNL     1      15.786  25.904  35.454  1.00  0.00     0.039 A 
ATOM     16  C   UNL     1      15.239  23.659  34.665  1.00  0.00     0.013 A 
ATOM     17  C   UNL     1      12.942  22.673  34.866  1.00  0.00     0.045 C 
ATOM     18  C   UNL     1      16.202  24.674  34.864  1.00  0.00    -0.006 A 
ATOM     19  C   UNL     1      16.757  26.924  35.668  1.00  0.00     0.072 A 
ATOM     20  C   UNL     1      17.558  24.504  34.442  1.00  0.00     0.008 A 
ATOM     21  C   UNL     1      18.029  26.813  35.089  1.00  0.00     0.169 A 
ATOM     22  C   UNL     1      18.399  25.640  34.409  1.00  0.00     0.162 A 
BRANCH  13  23
ATOM     23  O   UNL     1      13.948  27.357  36.162  1.00  0.00    -0.507 OA
ATOM     24  H   UNL     1      12.990  27.667  36.065  1.00  0.00     0.293 HD
ENDBRANCH  13  23
BRANCH  19  25
ATOM     25  C   UNL     1      16.524  28.087  36.556  1.00  0.00     0.264 C 
ATOM     26  O   UNL     1      16.525  27.952  37.807  1.00  0.00    -0.298 OA
ENDBRANCH  19  25
BRANCH  20  27
ATOM     27  C   UNL     1      18.096  23.143  33.968  1.00  0.00     0.017 C 
ATOM     28  C   UNL     1      19.172  22.615  34.922  1.00  0.00     0.012 C 
ATOM     29  C   UNL     1      16.999  22.087  33.725  1.00  0.00     0.012 C 
ENDBRANCH  20  27
BRANCH  21  30
ATOM     30  O   UNL     1      18.930  27.874  35.248  1.00  0.00    -0.504 OA
ATOM     31  H   UNL     1      18.720  28.724  35.752  1.00  0.00     0.293 HD
ENDBRANCH  21  30
BRANCH  22  32
ATOM     32  O   UNL     1      19.594  25.583  33.686  1.00  0.00    -0.504 OA
ATOM     33  H   UNL     1      20.187  26.381  33.507  1.00  0.00     0.293 HD
ENDBRANCH  22  32
ENDBRANCH  11  12
BRANCH  10  34
ATOM     34  O   UNL     1      11.772  26.578  33.932  1.00  0.00    -0.507 OA
ATOM     35  H   UNL     1      12.639  27.100  33.914  1.00  0.00     0.293 HD
ENDBRANCH  10  34
BRANCH   9  36
ATOM     36  C   UNL     1       7.278  24.952  38.058  1.00  0.00     0.017 C 
ATOM     37  C   UNL     1       7.953  23.585  38.210  1.00  0.00     0.012 C 
ATOM     38  C   UNL     1       7.212  25.697  39.405  1.00  0.00     0.012 C 
ENDBRANCH   9  36
BRANCH   6  39
ATOM     39  C   UNL     1       9.440  27.643  33.348  1.00  0.00     0.264 C 
ATOM     40  O   UNL     1       8.651  27.753  32.372  1.00  0.00    -0.298 OA
ENDBRANCH   6  39
BRANCH   8  41
ATOM     41  O   UNL     1       5.883  27.035  36.641  1.00  0.00    -0.504 OA
ATOM     42  H   UNL     1       5.053  26.903  36.076  1.00  0.00     0.293 HD
ENDBRANCH   8  41
BRANCH   7  43
ATOM     43  O   UNL     1       6.810  28.124  34.307  1.00  0.00    -0.504 OA
ATOM     44  H   UNL     1       5.820  28.218  34.487  1.00  0.00     0.293 HD
ENDBRANCH   7  43
TORSDOF 11
ENDMDL
MODEL 7
REMARK VINA RESULT:    -5.296     14.124     18.288
REMARK INTER + INTRA:          -7.883
REMARK INTER:                  -7.678
REMARK INTRA:                  -0.205
REMARK UNBOUND:                -0.110
REMARK SMILES Cc1cc2c(C(C)C)c(O)c(O)c(C=O)c2c(O)c1-c1c(C)cc2c(C(C)C)c(O)c(O)c(C=O)c2c1O
REMARK SMILES IDX 1 1 2 2 3 3 4 4 16 5 13 6 11 7 9 8 5 9 17 10 19 11 20 12
REMARK SMILES IDX 37 13 21 14 36 15 23 16 22 17 24 18 33 19 25 20 31 21 29 22
REMARK SMILES IDX 38 23 34 25 35 26 26 27 27 28 28 29 32 30 30 32 18 34 6 36
REMARK SMILES IDX 7 37 8 38 14 39 15 40 10 41 12 43
REMARK H PARENT 38 24 32 31 30 33 18 35 10 42 12 44
REMARK Flexibility Score: inf
ROOT
ATOM      1  C   UNL     1      15.299  13.338  29.453  1.00  0.00     0.045 C 
ATOM      2  C   UNL     1      16.116  12.343  30.243  1.00  0.00    -0.039 A 
ATOM      3  C   UNL     1      16.466  12.639  31.560  1.00  0.00     0.013 A 
ATOM      4  C   UNL     1      17.258  11.766  32.338  1.00  0.00    -0.006 A 
ATOM      5  C   UNL     1      17.624  10.498  31.792  1.00  0.00     0.039 A 
ATOM      6  C   UNL     1      18.315   9.563  32.623  1.00  0.00     0.072 A 
ATOM      7  C   UNL     1      18.561   9.873  33.975  1.00  0.00     0.169 A 
ATOM      8  C   UNL     1      18.200  11.120  34.496  1.00  0.00     0.162 A 
ATOM      9  C   UNL     1      17.658  12.121  33.664  1.00  0.00     0.008 A 
ATOM     10  C   UNL     1      17.248  10.192  30.446  1.00  0.00     0.132 A 
ATOM     11  C   UNL     1      16.511  11.119  29.680  1.00  0.00     0.031 A 
ENDROOT
BRANCH  11  12
ATOM     12  C   UNL     1      16.118  10.791  28.283  1.00  0.00     0.031 A 
ATOM     13  C   UNL     1      14.925  10.081  28.032  1.00  0.00     0.132 A 
ATOM     14  C   UNL     1      16.960  11.151  27.217  1.00  0.00    -0.039 A 
ATOM     15  C   UNL     1      14.531   9.784  26.696  1.00  0.00     0.039 A 
ATOM     16  C   UNL     1      16.632  10.757  25.919  1.00  0.00     0.013 A 
ATOM     17  C   UNL     1      18.254  11.890  27.459  1.00  0.00     0.045 C 
ATOM     18  C   UNL     1      15.419  10.095  25.622  1.00  0.00    -0.006 A 
ATOM     19  C   UNL     1      13.302   9.129  26.400  1.00  0.00     0.072 A 
ATOM     20  C   UNL     1      15.096   9.697  24.288  1.00  0.00     0.008 A 
ATOM     21  C   UNL     1      13.086   8.587  25.124  1.00  0.00     0.169 A 
ATOM     22  C   UNL     1      14.019   8.802  24.095  1.00  0.00     0.162 A 
BRANCH  13  23
ATOM     23  O   UNL     1      14.160   9.621  29.109  1.00  0.00    -0.507 OA
ATOM     24  H   UNL     1      14.200  10.015  30.040  1.00  0.00     0.293 HD
ENDBRANCH  13  23
BRANCH  19  25
ATOM     25  C   UNL     1      12.176   9.054  27.359  1.00  0.00     0.264 C 
ATOM     26  O   UNL     1      11.052   9.543  27.071  1.00  0.00    -0.298 OA
ENDBRANCH  19  25
BRANCH  20  27
ATOM     27  C   UNL     1      15.926  10.162  23.079  1.00  0.00     0.017 C 
ATOM     28  C   UNL     1      16.196  11.669  23.146  1.00  0.00     0.012 C 
ATOM     29  C   UNL     1      17.233   9.370  22.876  1.00  0.00     0.012 C 
ENDBRANCH  20  27
BRANCH  21  30
ATOM     30  O   UNL     1      11.902   7.875  24.893  1.00  0.00    -0.504 OA
ATOM     31  H   UNL     1      11.029   8.059  25.366  1.00  0.00     0.293 HD
ENDBRANCH  21  30
BRANCH  22  32
ATOM     32  O   UNL     1      13.900   8.130  22.875  1.00  0.00    -0.504 OA
ATOM     33  H   UNL     1      13.060   8.114  22.316  1.00  0.00     0.293 HD
ENDBRANCH  22  32
ENDBRANCH  11  12
BRANCH  10  34
ATOM     34  O   UNL     1      17.592   8.961  29.875  1.00  0.00    -0.507 OA
ATOM     35  H   UNL     1      17.457   8.732  28.899  1.00  0.00     0.293 HD
ENDBRANCH  10  34
BRANCH   9  36
ATOM     36  C   UNL     1      17.491  13.553  34.207  1.00  0.00     0.017 C 
ATOM     37  C   UNL     1      18.852  14.178  34.526  1.00  0.00     0.012 C 
ATOM     38  C   UNL     1      16.653  14.472  33.297  1.00  0.00     0.012 C 
ENDBRANCH   9  36
BRANCH   6  39
ATOM     39  C   UNL     1      18.773   8.255  32.116  1.00  0.00     0.264 C 
ATOM     40  O   UNL     1      19.948   8.111  31.684  1.00  0.00    -0.298 OA
ENDBRANCH   6  39
BRANCH   8  41
ATOM     41  O   UNL     1      18.386  11.370  35.858  1.00  0.00    -0.504 OA
ATOM     42  H   UNL     1      18.750  12.245  36.215  1.00  0.00     0.293 HD
ENDBRANCH   8  41
BRANCH   7  43
ATOM     43  O   UNL     1      19.198   8.966  34.832  1.00  0.00    -0.504 OA
ATOM     44  H   UNL     1      20.009   9.190  35.394  1.00  0.00     0.293 HD
ENDBRANCH   7  43
TORSDOF 11
ENDMDL
MODEL 8
REMARK VINA RESULT:    -4.955      2.271      4.344
REMARK INTER + INTRA:          -7.382
REMARK INTER:                  -7.409
REMARK INTRA:                   0.027
REMARK UNBOUND:                -0.110
REMARK SMILES Cc1cc2c(C(C)C)c(O)c(O)c(C=O)c2c(O)c1-c1c(C)cc2c(C(C)C)c(O)c(O)c(C=O)c2c1O
REMARK SMILES IDX 1 1 2 2 3 3 4 4 16 5 13 6 11 7 9 8 5 9 17 10 19 11 20 12
REMARK SMILES IDX 37 13 21 14 36 15 23 16 22 17 24 18 33 19 25 20 31 21 29 22
REMARK SMILES IDX 38 23 34 25 35 26 26 27 27 28 28 29 32 30 30 32 18 34 6 36
REMARK SMILES IDX 7 37 8 38 14 39 15 40 10 41 12 43
REMARK H PARENT 38 24 32 31 30 33 18 35 10 42 12 44
REMARK Flexibility Score: inf
ROOT
ATOM      1  C   UNL     1      12.675  24.376  37.942  1.00  0.00     0.045 C 
ATOM      2  C   UNL     1      11.725  25.103  37.020  1.00  0.00    -0.039 A 
ATOM      3  C   UNL     1      10.373  25.179  37.355  1.00  0.00     0.013 A 
ATOM      4  C   UNL     1       9.429  25.814  36.518  1.00  0.00    -0.006 A 
ATOM      5  C   UNL     1       9.893  26.486  35.345  1.00  0.00     0.039 A 
ATOM      6  C   UNL     1       8.958  27.236  34.567  1.00  0.00     0.072 A 
ATOM      7  C   UNL     1       7.623  27.361  35.000  1.00  0.00     0.169 A 
ATOM      8  C   UNL     1       7.183  26.695  36.148  1.00  0.00     0.162 A 
ATOM      9  C   UNL     1       8.040  25.823  36.851  1.00  0.00     0.008 A 
ATOM     10  C   UNL     1      11.283  26.420  35.015  1.00  0.00     0.132 A 
ATOM     11  C   UNL     1      12.183  25.720  35.846  1.00  0.00     0.031 A 
ENDROOT
BRANCH  11  12
ATOM     12  C   UNL     1      13.629  25.661  35.499  1.00  0.00     0.031 A 
ATOM     13  C   UNL     1      14.199  24.454  35.046  1.00  0.00     0.132 A 
ATOM     14  C   UNL     1      14.434  26.801  35.665  1.00  0.00    -0.039 A 
ATOM     15  C   UNL     1      15.578  24.396  34.690  1.00  0.00     0.039 A 
ATOM     16  C   UNL     1      15.807  26.713  35.428  1.00  0.00     0.013 A 
ATOM     17  C   UNL     1      13.854  28.100  36.170  1.00  0.00     0.045 C 
ATOM     18  C   UNL     1      16.404  25.537  34.919  1.00  0.00    -0.006 A 
ATOM     19  C   UNL     1      16.172  23.214  34.165  1.00  0.00     0.072 A 
ATOM     20  C   UNL     1      17.812  25.460  34.682  1.00  0.00     0.008 A 
ATOM     21  C   UNL     1      17.569  23.097  34.111  1.00  0.00     0.169 A 
ATOM     22  C   UNL     1      18.386  24.190  34.446  1.00  0.00     0.162 A 
BRANCH  13  23
ATOM     23  O   UNL     1      13.414  23.296  35.003  1.00  0.00    -0.507 OA
ATOM     24  H   UNL     1      12.452  23.277  34.687  1.00  0.00     0.293 HD
ENDBRANCH  13  23
BRANCH  19  25
ATOM     25  C   UNL     1      15.384  22.103  33.583  1.00  0.00     0.264 C 
ATOM     26  O   UNL     1      15.015  21.133  34.297  1.00  0.00    -0.298 OA
ENDBRANCH  19  25
BRANCH  20  27
ATOM     27  C   UNL     1      18.713  26.706  34.742  1.00  0.00     0.017 C 
ATOM     28  C   UNL     1      19.261  26.918  36.157  1.00  0.00     0.012 C 
ATOM     29  C   UNL     1      19.848  26.707  33.699  1.00  0.00     0.012 C 
ENDBRANCH  20  27
BRANCH  21  30
ATOM     30  O   UNL     1      18.121  21.887  33.670  1.00  0.00    -0.504 OA
ATOM     31  H   UNL     1      18.603  21.233  34.270  1.00  0.00     0.293 HD
ENDBRANCH  21  30
BRANCH  22  32
ATOM     32  O   UNL     1      19.771  24.036  34.560  1.00  0.00    -0.504 OA
ATOM     33  H   UNL     1      20.285  23.249  34.191  1.00  0.00     0.293 HD
ENDBRANCH  22  32
ENDBRANCH  11  12
BRANCH  10  34
ATOM     34  O   UNL     1      11.773  27.062  33.872  1.00  0.00    -0.507 OA
ATOM     35  H   UNL     1      12.360  27.885  33.893  1.00  0.00     0.293 HD
ENDBRANCH  10  34
BRANCH   9  36
ATOM     36  C   UNL     1       7.465  24.926  37.964  1.00  0.00     0.017 C 
ATOM     37  C   UNL     1       8.231  23.602  38.048  1.00  0.00     0.012 C 
ATOM     38  C   UNL     1       7.386  25.614  39.341  1.00  0.00     0.012 C 
ENDBRANCH   9  36
BRANCH   6  39
ATOM     39  C   UNL     1       9.348  27.913  33.314  1.00  0.00     0.264 C 
ATOM     40  O   UNL     1       8.573  27.920  32.321  1.00  0.00    -0.298 OA
ENDBRANCH   6  39
BRANCH   8  41
ATOM     41  O   UNL     1       5.875  26.899  36.595  1.00  0.00    -0.504 OA
ATOM     42  H   UNL     1       5.148  26.198  36.515  1.00  0.00     0.293 HD
ENDBRANCH   8  41
BRANCH   7  43
ATOM     43  O   UNL     1       6.688  28.121  34.286  1.00  0.00    -0.504 OA
ATOM     44  H   UNL     1       6.048  27.740  33.602  1.00  0.00     0.293 HD
ENDBRANCH   7  43
TORSDOF 11
ENDMDL
