MODEL 1
REMARK VINA RESULT:    -4.878      0.000      0.000
REMARK INTER + INTRA:          -5.020
REMARK INTER:                  -5.020
REMARK INTRA:                   0.000
REMARK UNBOUND:                 0.000
REMARK SMILES Nc1ncnc2nc[nH]c12
REMARK SMILES IDX 8 1 7 2 6 3 5 4 4 5 3 6 2 7 10 8 9 9 1 11
REMARK H PARENT 9 10 1 12 1 13
REMARK Flexibility Score: inf
ROOT
ATOM      1  C   UNL     1      14.614  21.956  35.289  1.00  0.00     0.199 A 
ATOM      2  N   UNL     1      14.627  23.313  35.387  1.00  0.00    -0.217 NA
ATOM      3  C   UNL     1      13.328  23.599  35.571  1.00  0.00     0.182 A 
ATOM      4  N   UNL     1      12.786  24.831  35.729  1.00  0.00    -0.215 NA
ATOM      5  C   UNL     1      11.433  24.921  35.906  1.00  0.00     0.226 A 
ATOM      6  N   UNL     1      10.655  23.792  35.921  1.00  0.00    -0.217 NA
ATOM      7  C   UNL     1      11.200  22.548  35.761  1.00  0.00     0.152 A 
ATOM      8  C   UNL     1      12.579  22.473  35.583  1.00  0.00     0.127 A 
ATOM      9  N   UNL     1      13.376  21.412  35.405  1.00  0.00    -0.340 N 
ATOM     10  H   UNL     1      13.119  20.401  35.362  1.00  0.00     0.168 HD
ENDROOT
BRANCH   7  11
ATOM     11  N   UNL     1      10.370  21.386  35.779  1.00  0.00    -0.382 N 
ATOM     12  H   UNL     1       9.510  21.324  35.192  1.00  0.00     0.158 HD
ATOM     13  H   UNL     1      10.621  20.576  36.388  1.00  0.00     0.158 HD
ENDBRANCH   7  11
TORSDOF 1
ENDMDL
MODEL 2
REMARK VINA RESULT:    -4.512      1.086      3.072
REMARK INTER + INTRA:          -4.643
REMARK INTER:                  -4.643
REMARK INTRA:                   0.000
REMARK UNBOUND:                 0.000
REMARK SMILES Nc1ncnc2nc[nH]c12
REMARK SMILES IDX 8 1 7 2 6 3 5 4 4 5 3 6 2 7 10 8 9 9 1 11
REMARK H PARENT 9 10 1 12 1 13
REMARK Flexibility Score: inf
ROOT
ATOM      1  C   UNL     1       9.452  21.975  35.592  1.00  0.00     0.199 A 
ATOM      2  N   UNL     1       9.484  23.327  35.732  1.00  0.00    -0.217 NA
ATOM      3  C   UNL     1      10.800  23.588  35.699  1.00  0.00     0.182 A 
ATOM      4  N   UNL     1      11.387  24.805  35.800  1.00  0.00    -0.215 NA
ATOM      5  C   UNL     1      12.752  24.870  35.743  1.00  0.00     0.226 A 
ATOM      6  N   UNL     1      13.498  23.730  35.589  1.00  0.00    -0.217 NA
ATOM      7  C   UNL     1      12.908  22.501  35.487  1.00  0.00     0.152 A 
ATOM      8  C   UNL     1      11.518  22.451  35.546  1.00  0.00     0.127 A 
ATOM      9  N   UNL     1      10.681  21.409  35.476  1.00  0.00    -0.340 N 
ATOM     10  H   UNL     1      10.907  20.396  35.360  1.00  0.00     0.168 HD
ENDROOT
BRANCH   7  11
ATOM     11  N   UNL     1      13.705  21.327  35.328  1.00  0.00    -0.382 N 
ATOM     12  H   UNL     1      14.588  21.340  34.771  1.00  0.00     0.158 HD
ATOM     13  H   UNL     1      13.409  20.430  35.775  1.00  0.00     0.158 HD
ENDBRANCH   7  11
TORSDOF 1
ENDMDL
MODEL 3
REMARK VINA RESULT:    -4.320      1.557      3.146
REMARK INTER + INTRA:          -4.447
REMARK INTER:                  -4.447
REMARK INTRA:                   0.000
REMARK UNBOUND:                 0.000
REMARK SMILES Nc1ncnc2nc[nH]c12
REMARK SMILES IDX 8 1 7 2 6 3 5 4 4 5 3 6 2 7 10 8 9 9 1 11
REMARK H PARENT 9 10 1 12 1 13
REMARK Flexibility Score: inf
ROOT
ATOM      1  C   UNL     1      10.141  21.757  35.487  1.00  0.00     0.199 A 
ATOM      2  N   UNL     1       9.498  22.874  35.052  1.00  0.00    -0.217 NA
ATOM      3  C   UNL     1      10.443  23.818  35.182  1.00  0.00     0.182 A 
ATOM      4  N   UNL     1      10.320  25.134  34.882  1.00  0.00    -0.215 NA
ATOM      5  C   UNL     1      11.401  25.945  35.083  1.00  0.00     0.226 A 
ATOM      6  N   UNL     1      12.575  25.434  35.576  1.00  0.00    -0.217 NA
ATOM      7  C   UNL     1      12.702  24.107  35.879  1.00  0.00     0.152 A 
ATOM      8  C   UNL     1      11.592  23.293  35.669  1.00  0.00     0.127 A 
ATOM      9  N   UNL     1      11.424  21.981  35.871  1.00  0.00    -0.340 N 
ATOM     10  H   UNL     1      12.109  21.283  36.237  1.00  0.00     0.168 HD
ENDROOT
BRANCH   7  11
ATOM     11  N   UNL     1      13.933  23.596  36.392  1.00  0.00    -0.382 N 
ATOM     12  H   UNL     1      14.143  22.574  36.385  1.00  0.00     0.158 HD
ATOM     13  H   UNL     1      14.647  24.251  36.782  1.00  0.00     0.158 HD
ENDBRANCH   7  11
TORSDOF 1
ENDMDL
MODEL 4
REMARK VINA RESULT:    -4.316      1.155      2.988
REMARK INTER + INTRA:          -4.443
REMARK INTER:                  -4.443
REMARK INTRA:                   0.000
REMARK UNBOUND:                 0.000
REMARK SMILES Nc1ncnc2nc[nH]c12
REMARK SMILES IDX 8 1 7 2 6 3 5 4 4 5 3 6 2 7 10 8 9 9 1 11
REMARK H PARENT 9 10 1 12 1 13
REMARK Flexibility Score: inf
ROOT
ATOM      1  C   UNL     1       9.979  24.147  36.119  1.00  0.00     0.199 A 
ATOM      2  N   UNL     1      11.097  24.898  36.311  1.00  0.00    -0.217 NA
ATOM      3  C   UNL     1      12.072  24.067  35.908  1.00  0.00     0.182 A 
ATOM      4  N   UNL     1      13.402  24.327  35.893  1.00  0.00    -0.215 NA
ATOM      5  C   UNL     1      14.245  23.349  35.444  1.00  0.00     0.226 A 
ATOM      6  N   UNL     1      13.750  22.141  35.024  1.00  0.00    -0.217 NA
ATOM      7  C   UNL     1      12.409  21.876  35.038  1.00  0.00     0.152 A 
ATOM      8  C   UNL     1      11.563  22.883  35.497  1.00  0.00     0.127 A 
ATOM      9  N   UNL     1      10.231  22.910  35.622  1.00  0.00    -0.340 N 
ATOM     10  H   UNL     1       9.538  22.162  35.396  1.00  0.00     0.168 HD
ENDROOT
BRANCH   7  11
ATOM     11  N   UNL     1      11.916  20.611  34.596  1.00  0.00    -0.382 N 
ATOM     12  H   UNL     1      11.173  20.102  35.124  1.00  0.00     0.158 HD
ATOM     13  H   UNL     1      12.298  20.177  33.726  1.00  0.00     0.158 HD
ENDBRANCH   7  11
TORSDOF 1
ENDMDL
MODEL 5
REMARK VINA RESULT:    -4.310      0.800      2.437
REMARK INTER + INTRA:          -4.436
REMARK INTER:                  -4.436
REMARK INTRA:                   0.000
REMARK UNBOUND:                 0.000
REMARK SMILES Nc1ncnc2nc[nH]c12
REMARK SMILES IDX 8 1 7 2 6 3 5 4 4 5 3 6 2 7 10 8 9 9 1 11
REMARK H PARENT 9 10 1 12 1 13
REMARK Flexibility Score: inf
ROOT
ATOM      1  C   UNL     1      14.642  22.361  35.239  1.00  0.00     0.199 A 
ATOM      2  N   UNL     1      13.554  21.588  34.979  1.00  0.00    -0.217 NA
ATOM      3  C   UNL     1      12.540  22.390  35.342  1.00  0.00     0.182 A 
ATOM      4  N   UNL     1      11.217  22.100  35.285  1.00  0.00    -0.215 NA
ATOM      5  C   UNL     1      10.329  23.052  35.701  1.00  0.00     0.226 A 
ATOM      6  N   UNL     1      10.773  24.264  36.163  1.00  0.00    -0.217 NA
ATOM      7  C   UNL     1      12.107  24.560  36.222  1.00  0.00     0.152 A 
ATOM      8  C   UNL     1      12.999  23.580  35.794  1.00  0.00     0.127 A 
ATOM      9  N   UNL     1      14.336  23.586  35.738  1.00  0.00    -0.340 N 
ATOM     10  H   UNL     1      14.998  24.345  36.011  1.00  0.00     0.168 HD
ENDROOT
BRANCH   7  11
ATOM     11  N   UNL     1      12.546  25.829  36.708  1.00  0.00    -0.382 N 
ATOM     12  H   UNL     1      13.303  25.906  37.423  1.00  0.00     0.158 HD
ATOM     13  H   UNL     1      12.109  26.706  36.346  1.00  0.00     0.158 HD
ENDBRANCH   7  11
TORSDOF 1
ENDMDL
MODEL 6
REMARK VINA RESULT:    -4.275      1.205      3.246
REMARK INTER + INTRA:          -4.400
REMARK INTER:                  -4.400
REMARK INTRA:                   0.000
REMARK UNBOUND:                 0.000
REMARK SMILES Nc1ncnc2nc[nH]c12
REMARK SMILES IDX 8 1 7 2 6 3 5 4 4 5 3 6 2 7 10 8 9 9 1 11
REMARK H PARENT 9 10 1 12 1 13
REMARK Flexibility Score: inf
ROOT
ATOM      1  C   UNL     1      12.151  24.925  36.532  1.00  0.00     0.199 A 
ATOM      2  N   UNL     1      10.923  24.533  36.097  1.00  0.00    -0.217 NA
ATOM      3  C   UNL     1      11.196  23.374  35.477  1.00  0.00     0.182 A 
ATOM      4  N   UNL     1      10.308  22.559  34.857  1.00  0.00    -0.215 NA
ATOM      5  C   UNL     1      10.779  21.413  34.278  1.00  0.00     0.226 A 
ATOM      6  N   UNL     1      12.114  21.105  34.329  1.00  0.00    -0.217 NA
ATOM      7  C   UNL     1      13.012  21.925  34.954  1.00  0.00     0.152 A 
ATOM      8  C   UNL     1      12.517  23.088  35.538  1.00  0.00     0.127 A 
ATOM      9  N   UNL     1      13.147  24.062  36.206  1.00  0.00    -0.340 N 
ATOM     10  H   UNL     1      14.163  24.149  36.429  1.00  0.00     0.168 HD
ENDROOT
BRANCH   7  11
ATOM     11  N   UNL     1      14.398  21.584  34.994  1.00  0.00    -0.382 N 
ATOM     12  H   UNL     1      14.981  21.773  35.839  1.00  0.00     0.158 HD
ATOM     13  H   UNL     1      14.848  21.133  34.166  1.00  0.00     0.158 HD
ENDBRANCH   7  11
TORSDOF 1
ENDMDL
MODEL 7
REMARK VINA RESULT:    -4.132      2.706      4.603
REMARK INTER + INTRA:          -4.253
REMARK INTER:                  -4.253
REMARK INTRA:                   0.000
REMARK UNBOUND:                 0.000
REMARK SMILES Nc1ncnc2nc[nH]c12
REMARK SMILES IDX 8 1 7 2 6 3 5 4 4 5 3 6 2 7 10 8 9 9 1 11
REMARK H PARENT 9 10 1 12 1 13
REMARK Flexibility Score: inf
ROOT
ATOM      1  C   UNL     1       7.374  24.295  37.749  1.00  0.00     0.199 A 
ATOM      2  N   UNL     1       7.678  25.494  37.183  1.00  0.00    -0.217 NA
ATOM      3  C   UNL     1       8.746  25.192  36.427  1.00  0.00     0.182 A 
ATOM      4  N   UNL     1       9.449  26.044  35.642  1.00  0.00    -0.215 NA
ATOM      5  C   UNL     1      10.512  25.546  34.941  1.00  0.00     0.226 A 
ATOM      6  N   UNL     1      10.851  24.220  35.037  1.00  0.00    -0.217 NA
ATOM      7  C   UNL     1      10.143  23.359  35.828  1.00  0.00     0.152 A 
ATOM      8  C   UNL     1       9.062  23.881  36.535  1.00  0.00     0.127 A 
ATOM      9  N   UNL     1       8.203  23.288  37.372  1.00  0.00    -0.340 N 
ATOM     10  H   UNL     1       8.167  22.289  37.673  1.00  0.00     0.168 HD
ENDROOT
BRANCH   7  11
ATOM     11  N   UNL     1      10.514  21.983  35.912  1.00  0.00    -0.382 N 
ATOM     12  H   UNL     1      11.414  21.688  36.350  1.00  0.00     0.158 HD
ATOM     13  H   UNL     1       9.878  21.246  35.532  1.00  0.00     0.158 HD
ENDBRANCH   7  11
TORSDOF 1
ENDMDL
MODEL 8
REMARK VINA RESULT:    -4.117      1.040      3.715
REMARK INTER + INTRA:          -4.237
REMARK INTER:                  -4.237
REMARK INTRA:                   0.000
REMARK UNBOUND:                 0.000
REMARK SMILES Nc1ncnc2nc[nH]c12
REMARK SMILES IDX 8 1 7 2 6 3 5 4 4 5 3 6 2 7 10 8 9 9 1 11
REMARK H PARENT 9 10 1 12 1 13
REMARK Flexibility Score: inf
ROOT
ATOM      1  C   UNL     1       9.473  23.062  35.631  1.00  0.00     0.199 A 
ATOM      2  N   UNL     1      10.199  21.979  35.244  1.00  0.00    -0.217 NA
ATOM      3  C   UNL     1      11.460  22.434  35.331  1.00  0.00     0.182 A 
ATOM      4  N   UNL     1      12.591  21.742  35.052  1.00  0.00    -0.215 NA
ATOM      5  C   UNL     1      13.791  22.379  35.203  1.00  0.00     0.226 A 
ATOM      6  N   UNL     1      13.839  23.684  35.625  1.00  0.00    -0.217 NA
ATOM      7  C   UNL     1      12.699  24.384  35.908  1.00  0.00     0.152 A 
ATOM      8  C   UNL     1      11.485  23.720  35.749  1.00  0.00     0.127 A 
ATOM      9  N   UNL     1      10.231  24.143  35.947  1.00  0.00    -0.340 N 
ATOM     10  H   UNL     1       9.900  25.080  36.268  1.00  0.00     0.168 HD
ENDROOT
BRANCH   7  11
ATOM     11  N   UNL     1      12.773  25.741  36.345  1.00  0.00    -0.382 N 
ATOM     12  H   UNL     1      13.590  26.345  36.108  1.00  0.00     0.158 HD
ATOM     13  H   UNL     1      11.998  26.149  36.914  1.00  0.00     0.158 HD
ENDBRANCH   7  11
TORSDOF 1
ENDMDL
MODEL 9
REMARK VINA RESULT:    -4.011      3.613      4.401
REMARK INTER + INTRA:          -4.128
REMARK INTER:                  -4.128
REMARK INTRA:                   0.000
REMARK UNBOUND:                 0.000
REMARK SMILES Nc1ncnc2nc[nH]c12
REMARK SMILES IDX 8 1 7 2 6 3 5 4 4 5 3 6 2 7 10 8 9 9 1 11
REMARK H PARENT 9 10 1 12 1 13
REMARK Flexibility Score: inf
ROOT
ATOM      1  C   UNL     1       9.181  21.935  32.895  1.00  0.00     0.199 A 
ATOM      2  N   UNL     1       9.027  21.776  34.238  1.00  0.00    -0.217 NA
ATOM      3  C   UNL     1       9.285  23.009  34.703  1.00  0.00     0.182 A 
ATOM      4  N   UNL     1       9.269  23.405  35.998  1.00  0.00    -0.215 NA
ATOM      5  C   UNL     1       9.559  24.712  36.277  1.00  0.00     0.226 A 
ATOM      6  N   UNL     1       9.858  25.590  35.267  1.00  0.00    -0.217 NA
ATOM      7  C   UNL     1       9.875  25.193  33.959  1.00  0.00     0.152 A 
ATOM      8  C   UNL     1       9.576  23.860  33.691  1.00  0.00     0.127 A 
ATOM      9  N   UNL     1       9.517  23.198  32.529  1.00  0.00    -0.340 N 
ATOM     10  H   UNL     1       9.686  23.556  31.563  1.00  0.00     0.168 HD
ENDROOT
BRANCH   7  11
ATOM     11  N   UNL     1      10.189  26.125  32.923  1.00  0.00    -0.382 N 
ATOM     12  H   UNL     1      10.562  27.075  33.142  1.00  0.00     0.158 HD
ATOM     13  H   UNL     1      10.049  25.861  31.923  1.00  0.00     0.158 HD
ENDBRANCH   7  11
TORSDOF 1
ENDMDL
