MODEL 1
REMARK VINA RESULT:    -3.681      0.000      0.000
REMARK INTER + INTRA:          -7.626
REMARK INTER:                  -6.263
REMARK INTRA:                  -1.363
REMARK UNBOUND:                -1.363
REMARK SMILES CCCCCCCCCCCCCC(=O)[O-]
REMARK SMILES IDX 8 1 9 2 10 3 11 4 12 5 13 6 14 7 15 8 16 9 7 10 6 11 5 12
REMARK SMILES IDX 4 13 3 14 2 15 1 16
REMARK H PARENT
REMARK Flexibility Score: inf
ROOT
ATOM      1  C   UNL     1     -36.330   5.792  -3.630  1.00  0.00     0.000 C 
ENDROOT
BRANCH   1   2
ATOM      2  C   UNL     1     -35.632   4.498  -4.088  1.00  0.00     0.000 C 
BRANCH   2   3
ATOM      3  C   UNL     1     -35.131   4.512  -5.544  1.00  0.00     0.000 C 
BRANCH   3   4
ATOM      4  C   UNL     1     -34.480   3.199  -6.025  1.00  0.00     0.000 C 
BRANCH   4   5
ATOM      5  C   UNL     1     -35.355   2.339  -6.954  1.00  0.00     0.006 C 
BRANCH   5   6
ATOM      6  C   UNL     1     -36.302   1.405  -6.188  1.00  0.00     0.053 C 
BRANCH   6   7
ATOM      7  C   UNL     1     -35.533   0.560  -5.222  1.00  0.00     0.041 C 
ATOM      8  O   UNL     1     -34.732  -0.315  -5.643  1.00  0.00    -0.550 OA
ATOM      9  O   UNL     1     -35.664   0.773  -3.855  1.00  0.00    -0.550 OA
ENDBRANCH   6   7
ENDBRANCH   5   6
ENDBRANCH   4   5
ENDBRANCH   3   4
ENDBRANCH   2   3
ENDBRANCH   1   2
BRANCH   1  10
ATOM     10  C   UNL     1     -36.662   5.818  -2.122  1.00  0.00     0.000 C 
BRANCH  10  11
ATOM     11  C   UNL     1     -36.057   7.034  -1.406  1.00  0.00    -0.000 C 
BRANCH  11  12
ATOM     12  C   UNL     1     -34.659   7.353  -1.951  1.00  0.00    -0.000 C 
BRANCH  12  13
ATOM     13  C   UNL     1     -33.568   6.803  -1.024  1.00  0.00    -0.000 C 
BRANCH  13  14
ATOM     14  C   UNL     1     -32.753   5.706  -1.724  1.00  0.00    -0.000 C 
BRANCH  14  15
ATOM     15  C   UNL     1     -33.242   4.292  -1.373  1.00  0.00    -0.003 C 
ATOM     16  C   UNL     1     -33.343   4.059   0.134  1.00  0.00     0.004 C 
ENDBRANCH  14  15
ENDBRANCH  13  14
ENDBRANCH  12  13
ENDBRANCH  11  12
ENDBRANCH  10  11
ENDBRANCH   1  10
TORSDOF 12
ENDMDL
MODEL 2
REMARK VINA RESULT:    -3.639      3.785      5.671
REMARK INTER + INTRA:          -7.555
REMARK INTER:                  -5.452
REMARK INTRA:                  -2.102
REMARK UNBOUND:                -1.363
REMARK SMILES CCCCCCCCCCCCCC(=O)[O-]
REMARK SMILES IDX 8 1 9 2 10 3 11 4 12 5 13 6 14 7 15 8 16 9 7 10 6 11 5 12
REMARK SMILES IDX 4 13 3 14 2 15 1 16
REMARK H PARENT
REMARK Flexibility Score: inf
ROOT
ATOM      1  C   UNL     1     -36.900   4.555  -3.249  1.00  0.00     0.000 C 
ENDROOT
BRANCH   1   2
ATOM      2  C   UNL     1     -36.403   6.011  -3.169  1.00  0.00     0.000 C 
BRANCH   2   3
ATOM      3  C   UNL     1     -36.268   6.573  -1.742  1.00  0.00     0.000 C 
BRANCH   3   4
ATOM      4  C   UNL     1     -34.948   7.318  -1.454  1.00  0.00     0.000 C 
BRANCH   4   5
ATOM      5  C   UNL     1     -34.077   7.603  -2.690  1.00  0.00     0.006 C 
BRANCH   5   6
ATOM      6  C   UNL     1     -34.047   9.089  -3.070  1.00  0.00     0.053 C 
BRANCH   6   7
ATOM      7  C   UNL     1     -35.172   9.413  -4.001  1.00  0.00     0.041 C 
ATOM      8  O   UNL     1     -36.248   9.891  -3.553  1.00  0.00    -0.550 OA
ATOM      9  O   UNL     1     -35.016   9.233  -5.369  1.00  0.00    -0.550 OA
ENDBRANCH   6   7
ENDBRANCH   5   6
ENDBRANCH   4   5
ENDBRANCH   3   4
ENDBRANCH   2   3
ENDBRANCH   1   2
BRANCH   1  10
ATOM     10  C   UNL     1     -35.792   3.506  -3.008  1.00  0.00     0.000 C 
BRANCH  10  11
ATOM     11  C   UNL     1     -34.445   3.925  -3.615  1.00  0.00    -0.000 C 
BRANCH  11  12
ATOM     12  C   UNL     1     -33.343   3.945  -2.548  1.00  0.00    -0.000 C 
BRANCH  12  13
ATOM     13  C   UNL     1     -33.917   3.638  -1.159  1.00  0.00    -0.000 C 
BRANCH  13  14
ATOM     14  C   UNL     1     -33.123   4.364  -0.063  1.00  0.00    -0.000 C 
BRANCH  14  15
ATOM     15  C   UNL     1     -31.836   5.010  -0.598  1.00  0.00    -0.003 C 
ATOM     16  C   UNL     1     -31.629   6.433  -0.080  1.00  0.00     0.004 C 
ENDBRANCH  14  15
ENDBRANCH  13  14
ENDBRANCH  12  13
ENDBRANCH  11  12
ENDBRANCH  10  11
ENDBRANCH   1  10
TORSDOF 12
ENDMDL
MODEL 3
REMARK VINA RESULT:    -3.574      4.195      6.816
REMARK INTER + INTRA:          -7.445
REMARK INTER:                  -5.999
REMARK INTRA:                  -1.446
REMARK UNBOUND:                -1.363
REMARK SMILES CCCCCCCCCCCCCC(=O)[O-]
REMARK SMILES IDX 8 1 9 2 10 3 11 4 12 5 13 6 14 7 15 8 16 9 7 10 6 11 5 12
REMARK SMILES IDX 4 13 3 14 2 15 1 16
REMARK H PARENT
REMARK Flexibility Score: inf
ROOT
ATOM      1  C   UNL     1     -31.440   7.392  -1.472  1.00  0.00     0.000 C 
ENDROOT
BRANCH   1   2
ATOM      2  C   UNL     1     -30.282   8.358  -1.159  1.00  0.00     0.000 C 
BRANCH   2   3
ATOM      3  C   UNL     1     -28.883   7.714  -1.156  1.00  0.00     0.000 C 
BRANCH   3   4
ATOM      4  C   UNL     1     -28.435   7.117  -2.506  1.00  0.00     0.000 C 
BRANCH   4   5
ATOM      5  C   UNL     1     -27.989   5.645  -2.453  1.00  0.00     0.006 C 
BRANCH   5   6
ATOM      6  C   UNL     1     -27.797   5.130  -1.021  1.00  0.00     0.053 C 
BRANCH   6   7
ATOM      7  C   UNL     1     -28.275   3.717  -0.905  1.00  0.00     0.041 C 
ATOM      8  O   UNL     1     -29.037   3.232  -1.783  1.00  0.00    -0.550 OA
ATOM      9  O   UNL     1     -27.840   2.919   0.146  1.00  0.00    -0.550 OA
ENDBRANCH   6   7
ENDBRANCH   5   6
ENDBRANCH   4   5
ENDBRANCH   3   4
ENDBRANCH   2   3
ENDBRANCH   1   2
BRANCH   1  10
ATOM     10  C   UNL     1     -31.977   6.643  -0.232  1.00  0.00     0.000 C 
BRANCH  10  11
ATOM     11  C   UNL     1     -31.552   5.168  -0.207  1.00  0.00    -0.000 C 
BRANCH  11  12
ATOM     12  C   UNL     1     -32.544   4.297  -0.989  1.00  0.00    -0.000 C 
BRANCH  12  13
ATOM     13  C   UNL     1     -33.972   4.481  -0.462  1.00  0.00    -0.000 C 
BRANCH  13  14
ATOM     14  C   UNL     1     -34.941   4.819  -1.605  1.00  0.00    -0.000 C 
BRANCH  14  15
ATOM     15  C   UNL     1     -35.877   5.987  -1.260  1.00  0.00    -0.003 C 
ATOM     16  C   UNL     1     -35.356   7.332  -1.765  1.00  0.00     0.004 C 
ENDBRANCH  14  15
ENDBRANCH  13  14
ENDBRANCH  12  13
ENDBRANCH  11  12
ENDBRANCH  10  11
ENDBRANCH   1  10
TORSDOF 12
ENDMDL
MODEL 4
REMARK VINA RESULT:    -3.562      2.066      5.085
REMARK INTER + INTRA:          -7.425
REMARK INTER:                  -6.010
REMARK INTRA:                  -1.415
REMARK UNBOUND:                -1.363
REMARK SMILES CCCCCCCCCCCCCC(=O)[O-]
REMARK SMILES IDX 8 1 9 2 10 3 11 4 12 5 13 6 14 7 15 8 16 9 7 10 6 11 5 12
REMARK SMILES IDX 4 13 3 14 2 15 1 16
REMARK H PARENT
REMARK Flexibility Score: inf
ROOT
ATOM      1  C   UNL     1     -35.826   7.415  -2.452  1.00  0.00     0.000 C 
ENDROOT
BRANCH   1   2
ATOM      2  C   UNL     1     -34.327   7.623  -2.167  1.00  0.00     0.000 C 
BRANCH   2   3
ATOM      3  C   UNL     1     -33.778   6.823  -0.970  1.00  0.00     0.000 C 
BRANCH   3   4
ATOM      4  C   UNL     1     -32.718   5.760  -1.324  1.00  0.00     0.000 C 
BRANCH   4   5
ATOM      5  C   UNL     1     -32.554   4.633  -0.289  1.00  0.00     0.006 C 
BRANCH   5   6
ATOM      6  C   UNL     1     -33.856   3.865  -0.028  1.00  0.00     0.053 C 
BRANCH   6   7
ATOM      7  C   UNL     1     -33.684   2.417  -0.362  1.00  0.00     0.041 C 
ATOM      8  O   UNL     1     -32.569   1.985  -0.756  1.00  0.00    -0.550 OA
ATOM      9  O   UNL     1     -34.743   1.534  -0.190  1.00  0.00    -0.550 OA
ENDBRANCH   6   7
ENDBRANCH   5   6
ENDBRANCH   4   5
ENDBRANCH   3   4
ENDBRANCH   2   3
ENDBRANCH   1   2
BRANCH   1  10
ATOM     10  C   UNL     1     -36.427   6.178  -1.751  1.00  0.00     0.000 C 
BRANCH  10  11
ATOM     11  C   UNL     1     -36.846   5.084  -2.745  1.00  0.00    -0.000 C 
BRANCH  11  12
ATOM     12  C   UNL     1     -35.628   4.289  -3.233  1.00  0.00    -0.000 C 
BRANCH  12  13
ATOM     13  C   UNL     1     -35.983   2.811  -3.440  1.00  0.00    -0.000 C 
BRANCH  13  14
ATOM     14  C   UNL     1     -34.771   2.023  -3.957  1.00  0.00    -0.000 C 
BRANCH  14  15
ATOM     15  C   UNL     1     -34.959   1.533  -5.401  1.00  0.00    -0.003 C 
ATOM     16  C   UNL     1     -36.003   0.423  -5.518  1.00  0.00     0.004 C 
ENDBRANCH  14  15
ENDBRANCH  13  14
ENDBRANCH  12  13
ENDBRANCH  11  12
ENDBRANCH  10  11
ENDBRANCH   1  10
TORSDOF 12
ENDMDL
MODEL 5
REMARK VINA RESULT:    -3.561      3.762      6.699
REMARK INTER + INTRA:          -7.423
REMARK INTER:                  -5.821
REMARK INTRA:                  -1.602
REMARK UNBOUND:                -1.363
REMARK SMILES CCCCCCCCCCCCCC(=O)[O-]
REMARK SMILES IDX 8 1 9 2 10 3 11 4 12 5 13 6 14 7 15 8 16 9 7 10 6 11 5 12
REMARK SMILES IDX 4 13 3 14 2 15 1 16
REMARK H PARENT
REMARK Flexibility Score: inf
ROOT
ATOM      1  C   UNL     1     -35.002   3.537  -2.737  1.00  0.00     0.000 C 
ENDROOT
BRANCH   1   2
ATOM      2  C   UNL     1     -36.482   3.792  -3.076  1.00  0.00     0.000 C 
BRANCH   2   3
ATOM      3  C   UNL     1     -36.930   5.261  -2.965  1.00  0.00     0.000 C 
BRANCH   3   4
ATOM      4  C   UNL     1     -36.387   6.019  -1.736  1.00  0.00     0.000 C 
BRANCH   4   5
ATOM      5  C   UNL     1     -35.623   7.317  -2.055  1.00  0.00     0.006 C 
BRANCH   5   6
ATOM      6  C   UNL     1     -35.827   7.790  -3.500  1.00  0.00     0.053 C 
BRANCH   6   7
ATOM      7  C   UNL     1     -35.374   9.207  -3.654  1.00  0.00     0.041 C 
ATOM      8  O   UNL     1     -34.236   9.557  -3.244  1.00  0.00    -0.550 OA
ATOM      9  O   UNL     1     -36.189  10.132  -4.295  1.00  0.00    -0.550 OA
ENDBRANCH   6   7
ENDBRANCH   5   6
ENDBRANCH   4   5
ENDBRANCH   3   4
ENDBRANCH   2   3
ENDBRANCH   1   2
BRANCH   1  10
ATOM     10  C   UNL     1     -34.427   2.259  -3.385  1.00  0.00     0.000 C 
BRANCH  10  11
ATOM     11  C   UNL     1     -35.523   1.275  -3.820  1.00  0.00    -0.000 C 
BRANCH  11  12
ATOM     12  C   UNL     1     -35.211   0.677  -5.197  1.00  0.00    -0.000 C 
BRANCH  12  13
ATOM     13  C   UNL     1     -35.080   1.776  -6.258  1.00  0.00    -0.000 C 
BRANCH  13  14
ATOM     14  C   UNL     1     -36.448   2.398  -6.576  1.00  0.00    -0.000 C 
BRANCH  14  15
ATOM     15  C   UNL     1     -36.366   3.915  -6.809  1.00  0.00    -0.003 C 
ATOM     16  C   UNL     1     -35.026   4.508  -6.376  1.00  0.00     0.004 C 
ENDBRANCH  14  15
ENDBRANCH  13  14
ENDBRANCH  12  13
ENDBRANCH  11  12
ENDBRANCH  10  11
ENDBRANCH   1  10
TORSDOF 12
ENDMDL
MODEL 6
REMARK VINA RESULT:    -3.551      3.833      6.662
REMARK INTER + INTRA:          -7.406
REMARK INTER:                  -6.125
REMARK INTRA:                  -1.281
REMARK UNBOUND:                -1.363
REMARK SMILES CCCCCCCCCCCCCC(=O)[O-]
REMARK SMILES IDX 8 1 9 2 10 3 11 4 12 5 13 6 14 7 15 8 16 9 7 10 6 11 5 12
REMARK SMILES IDX 4 13 3 14 2 15 1 16
REMARK H PARENT
REMARK Flexibility Score: inf
ROOT
ATOM      1  C   UNL     1     -34.316   3.607  -1.940  1.00  0.00     0.000 C 
ENDROOT
BRANCH   1   2
ATOM      2  C   UNL     1     -34.625   4.769  -0.978  1.00  0.00     0.000 C 
BRANCH   2   3
ATOM      3  C   UNL     1     -35.843   5.627  -1.366  1.00  0.00     0.000 C 
BRANCH   3   4
ATOM      4  C   UNL     1     -35.586   7.148  -1.412  1.00  0.00     0.000 C 
BRANCH   4   5
ATOM      5  C   UNL     1     -34.784   7.638  -2.631  1.00  0.00     0.006 C 
BRANCH   5   6
ATOM      6  C   UNL     1     -35.679   8.154  -3.766  1.00  0.00     0.053 C 
BRANCH   6   7
ATOM      7  C   UNL     1     -35.655   9.649  -3.810  1.00  0.00     0.041 C 
ATOM      8  O   UNL     1     -34.677  10.282  -3.333  1.00  0.00    -0.550 OA
ATOM      9  O   UNL     1     -36.692  10.342  -4.422  1.00  0.00    -0.550 OA
ENDBRANCH   6   7
ENDBRANCH   5   6
ENDBRANCH   4   5
ENDBRANCH   3   4
ENDBRANCH   2   3
ENDBRANCH   1   2
BRANCH   1  10
ATOM     10  C   UNL     1     -35.070   3.697  -3.285  1.00  0.00     0.000 C 
BRANCH  10  11
ATOM     11  C   UNL     1     -34.156   4.119  -4.445  1.00  0.00    -0.000 C 
BRANCH  11  12
ATOM     12  C   UNL     1     -34.939   4.196  -5.761  1.00  0.00    -0.000 C 
BRANCH  12  13
ATOM     13  C   UNL     1     -34.782   2.903  -6.571  1.00  0.00    -0.000 C 
BRANCH  13  14
ATOM     14  C   UNL     1     -36.133   2.190  -6.735  1.00  0.00    -0.000 C 
BRANCH  14  15
ATOM     15  C   UNL     1     -36.242   0.926  -5.868  1.00  0.00    -0.003 C 
ATOM     16  C   UNL     1     -34.891   0.467  -5.319  1.00  0.00     0.004 C 
ENDBRANCH  14  15
ENDBRANCH  13  14
ENDBRANCH  12  13
ENDBRANCH  11  12
ENDBRANCH  10  11
ENDBRANCH   1  10
TORSDOF 12
ENDMDL
MODEL 7
REMARK VINA RESULT:    -3.546      7.157      8.942
REMARK INTER + INTRA:          -7.397
REMARK INTER:                  -5.663
REMARK INTRA:                  -1.734
REMARK UNBOUND:                -1.363
REMARK SMILES CCCCCCCCCCCCCC(=O)[O-]
REMARK SMILES IDX 8 1 9 2 10 3 11 4 12 5 13 6 14 7 15 8 16 9 7 10 6 11 5 12
REMARK SMILES IDX 4 13 3 14 2 15 1 16
REMARK H PARENT
REMARK Flexibility Score: inf
ROOT
ATOM      1  C   UNL     1     -28.584   5.337  -4.816  1.00  0.00     0.000 C 
ENDROOT
BRANCH   1   2
ATOM      2  C   UNL     1     -27.458   6.324  -4.456  1.00  0.00     0.000 C 
BRANCH   2   3
ATOM      3  C   UNL     1     -27.932   7.737  -4.071  1.00  0.00     0.000 C 
BRANCH   3   4
ATOM      4  C   UNL     1     -29.392   7.827  -3.580  1.00  0.00     0.000 C 
BRANCH   4   5
ATOM      5  C   UNL     1     -29.561   7.971  -2.057  1.00  0.00     0.006 C 
BRANCH   5   6
ATOM      6  C   UNL     1     -28.374   8.676  -1.388  1.00  0.00     0.053 C 
BRANCH   6   7
ATOM      7  C   UNL     1     -28.823   9.939  -0.725  1.00  0.00     0.041 C 
ATOM      8  O   UNL     1     -28.222  10.370   0.293  1.00  0.00    -0.550 OA
ATOM      9  O   UNL     1     -29.877  10.668  -1.262  1.00  0.00    -0.550 OA
ENDBRANCH   6   7
ENDBRANCH   5   6
ENDBRANCH   4   5
ENDBRANCH   3   4
ENDBRANCH   2   3
ENDBRANCH   1   2
BRANCH   1  10
ATOM     10  C   UNL     1     -28.163   3.854  -4.727  1.00  0.00     0.000 C 
BRANCH  10  11
ATOM     11  C   UNL     1     -28.551   3.212  -3.387  1.00  0.00    -0.000 C 
BRANCH  11  12
ATOM     12  C   UNL     1     -29.652   4.019  -2.688  1.00  0.00    -0.000 C 
BRANCH  12  13
ATOM     13  C   UNL     1     -29.241   4.386  -1.256  1.00  0.00    -0.000 C 
BRANCH  13  14
ATOM     14  C   UNL     1     -27.745   4.725  -1.184  1.00  0.00    -0.000 C 
BRANCH  14  15
ATOM     15  C   UNL     1     -27.099   4.263   0.132  1.00  0.00    -0.003 C 
ATOM     16  C   UNL     1     -27.701   2.963   0.662  1.00  0.00     0.004 C 
ENDBRANCH  14  15
ENDBRANCH  13  14
ENDBRANCH  12  13
ENDBRANCH  11  12
ENDBRANCH  10  11
ENDBRANCH   1  10
TORSDOF 12
ENDMDL
MODEL 8
REMARK VINA RESULT:    -3.523      1.811      3.497
REMARK INTER + INTRA:          -7.359
REMARK INTER:                  -5.737
REMARK INTRA:                  -1.621
REMARK UNBOUND:                -1.363
REMARK SMILES CCCCCCCCCCCCCC(=O)[O-]
REMARK SMILES IDX 8 1 9 2 10 3 11 4 12 5 13 6 14 7 15 8 16 9 7 10 6 11 5 12
REMARK SMILES IDX 4 13 3 14 2 15 1 16
REMARK H PARENT
REMARK Flexibility Score: inf
ROOT
ATOM      1  C   UNL     1     -34.369   8.608  -3.030  1.00  0.00     0.000 C 
ENDROOT
BRANCH   1   2
ATOM      2  C   UNL     1     -35.819   8.094  -2.969  1.00  0.00     0.000 C 
BRANCH   2   3
ATOM      3  C   UNL     1     -36.196   7.368  -1.665  1.00  0.00     0.000 C 
BRANCH   3   4
ATOM      4  C   UNL     1     -36.488   5.860  -1.815  1.00  0.00     0.000 C 
BRANCH   4   5
ATOM      5  C   UNL     1     -36.474   5.334  -3.262  1.00  0.00     0.006 C 
BRANCH   5   6
ATOM      6  C   UNL     1     -36.954   3.881  -3.374  1.00  0.00     0.053 C 
BRANCH   6   7
ATOM      7  C   UNL     1     -36.009   3.083  -4.215  1.00  0.00     0.041 C 
ATOM      8  O   UNL     1     -35.941   1.833  -4.079  1.00  0.00    -0.550 OA
ATOM      9  O   UNL     1     -35.239   3.713  -5.184  1.00  0.00    -0.550 OA
ENDBRANCH   6   7
ENDBRANCH   5   6
ENDBRANCH   4   5
ENDBRANCH   3   4
ENDBRANCH   2   3
ENDBRANCH   1   2
BRANCH   1  10
ATOM     10  C   UNL     1     -33.314   7.483  -3.110  1.00  0.00     0.000 C 
BRANCH  10  11
ATOM     11  C   UNL     1     -32.278   7.565  -1.978  1.00  0.00    -0.000 C 
BRANCH  11  12
ATOM     12  C   UNL     1     -32.772   6.829  -0.727  1.00  0.00    -0.000 C 
BRANCH  12  13
ATOM     13  C   UNL     1     -31.733   5.812  -0.240  1.00  0.00    -0.000 C 
BRANCH  13  14
ATOM     14  C   UNL     1     -32.401   4.481   0.136  1.00  0.00    -0.000 C 
BRANCH  14  15
ATOM     15  C   UNL     1     -33.541   4.102  -0.821  1.00  0.00    -0.003 C 
ATOM     16  C   UNL     1     -33.045   3.394  -2.081  1.00  0.00     0.004 C 
ENDBRANCH  14  15
ENDBRANCH  13  14
ENDBRANCH  12  13
ENDBRANCH  11  12
ENDBRANCH  10  11
ENDBRANCH   1  10
TORSDOF 12
ENDMDL
MODEL 9
REMARK VINA RESULT:    -3.521      1.551      2.922
REMARK INTER + INTRA:          -7.354
REMARK INTER:                  -5.549
REMARK INTRA:                  -1.804
REMARK UNBOUND:                -1.363
REMARK SMILES CCCCCCCCCCCCCC(=O)[O-]
REMARK SMILES IDX 8 1 9 2 10 3 11 4 12 5 13 6 14 7 15 8 16 9 7 10 6 11 5 12
REMARK SMILES IDX 4 13 3 14 2 15 1 16
REMARK H PARENT
REMARK Flexibility Score: inf
ROOT
ATOM      1  C   UNL     1     -35.903   5.138  -2.352  1.00  0.00     0.000 C 
ENDROOT
BRANCH   1   2
ATOM      2  C   UNL     1     -36.711   5.105  -3.662  1.00  0.00     0.000 C 
BRANCH   2   3
ATOM      3  C   UNL     1     -35.863   5.098  -4.947  1.00  0.00     0.000 C 
BRANCH   3   4
ATOM      4  C   UNL     1     -34.481   4.423  -4.816  1.00  0.00     0.000 C 
BRANCH   4   5
ATOM      5  C   UNL     1     -34.214   3.282  -5.813  1.00  0.00     0.006 C 
BRANCH   5   6
ATOM      6  C   UNL     1     -35.418   2.346  -5.986  1.00  0.00     0.053 C 
BRANCH   6   7
ATOM      7  C   UNL     1     -35.309   1.179  -5.056  1.00  0.00     0.041 C 
ATOM      8  O   UNL     1     -35.718   1.275  -3.869  1.00  0.00    -0.550 OA
ATOM      9  O   UNL     1     -34.802  -0.030  -5.514  1.00  0.00    -0.550 OA
ENDBRANCH   6   7
ENDBRANCH   5   6
ENDBRANCH   4   5
ENDBRANCH   3   4
ENDBRANCH   2   3
ENDBRANCH   1   2
BRANCH   1  10
ATOM     10  C   UNL     1     -36.160   6.398  -1.495  1.00  0.00     0.000 C 
BRANCH  10  11
ATOM     11  C   UNL     1     -34.859   7.075  -1.040  1.00  0.00    -0.000 C 
BRANCH  11  12
ATOM     12  C   UNL     1     -33.782   6.985  -2.128  1.00  0.00    -0.000 C 
BRANCH  12  13
ATOM     13  C   UNL     1     -33.638   8.319  -2.871  1.00  0.00    -0.000 C 
BRANCH  13  14
ATOM     14  C   UNL     1     -33.899   8.142  -4.374  1.00  0.00    -0.000 C 
BRANCH  14  15
ATOM     15  C   UNL     1     -35.114   8.947  -4.861  1.00  0.00    -0.003 C 
ATOM     16  C   UNL     1     -35.957   9.497  -3.711  1.00  0.00     0.004 C 
ENDBRANCH  14  15
ENDBRANCH  13  14
ENDBRANCH  12  13
ENDBRANCH  11  12
ENDBRANCH  10  11
ENDBRANCH   1  10
TORSDOF 12
ENDMDL
