MODEL 1
REMARK VINA RESULT:    -4.820      0.000      0.000
REMARK INTER + INTRA:          -5.694
REMARK INTER:                  -5.525
REMARK INTRA:                  -0.170
REMARK UNBOUND:                -0.170
REMARK SMILES CC=Cc1ccc(O)c(OC)c1
REMARK SMILES IDX 4 1 12 2 9 3 7 4 6 5 5 6 3 7 1 8 2 9 10 10 11 11 8 12
REMARK H PARENT 8 13
REMARK Flexibility Score: inf
ROOT
ATOM      1  C   UNL     1      -7.069   5.795   2.520  1.00  0.00    -0.022 A 
ATOM      2  C   UNL     1      -6.401   6.041   1.309  1.00  0.00     0.058 A 
ATOM      3  C   UNL     1      -6.943   5.608   0.082  1.00  0.00     0.161 A 
ATOM      4  C   UNL     1      -8.176   4.931   0.077  1.00  0.00     0.157 A 
ATOM      5  C   UNL     1      -8.850   4.699   1.279  1.00  0.00     0.051 A 
ATOM      6  C   UNL     1      -8.309   5.129   2.491  1.00  0.00     0.012 A 
ENDROOT
BRANCH   1   7
ATOM      7  C   UNL     1      -6.455   6.282   3.781  1.00  0.00     0.003 C 
ATOM      8  C   UNL     1      -6.347   6.689   6.208  1.00  0.00     0.035 C 
ATOM      9  C   UNL     1      -7.038   6.187   4.982  1.00  0.00    -0.030 C 
ENDBRANCH   1   7
BRANCH   3  10
ATOM     10  O   UNL     1      -6.290   5.833  -1.141  1.00  0.00    -0.493 OA
ATOM     11  C   UNL     1      -6.467   6.989  -1.952  1.00  0.00     0.278 C 
ENDBRANCH   3  10
BRANCH   4  12
ATOM     12  O   UNL     1      -8.748   4.485  -1.114  1.00  0.00    -0.504 OA
ATOM     13  H   UNL     1      -9.464   3.768  -1.134  1.00  0.00     0.293 HD
ENDBRANCH   4  12
TORSDOF 3
ENDMDL
MODEL 2
REMARK VINA RESULT:    -4.449      1.102      2.616
REMARK INTER + INTRA:          -5.269
REMARK INTER:                  -5.101
REMARK INTRA:                  -0.168
REMARK UNBOUND:                -0.170
REMARK SMILES CC=Cc1ccc(O)c(OC)c1
REMARK SMILES IDX 4 1 12 2 9 3 7 4 6 5 5 6 3 7 1 8 2 9 10 10 11 11 8 12
REMARK H PARENT 8 13
REMARK Flexibility Score: inf
ROOT
ATOM      1  C   UNL     1      -6.943   5.884   2.411  1.00  0.00    -0.022 A 
ATOM      2  C   UNL     1      -8.290   5.488   2.355  1.00  0.00     0.058 A 
ATOM      3  C   UNL     1      -8.885   5.117   1.132  1.00  0.00     0.161 A 
ATOM      4  C   UNL     1      -8.111   5.135  -0.042  1.00  0.00     0.157 A 
ATOM      5  C   UNL     1      -6.766   5.514   0.013  1.00  0.00     0.051 A 
ATOM      6  C   UNL     1      -6.182   5.881   1.227  1.00  0.00     0.012 A 
ENDROOT
BRANCH   1   7
ATOM      7  C   UNL     1      -6.366   6.256   3.727  1.00  0.00     0.003 C 
ATOM      8  C   UNL     1      -6.393   6.604   6.166  1.00  0.00     0.035 C 
ATOM      9  C   UNL     1      -7.050   6.229   4.877  1.00  0.00    -0.030 C 
ENDBRANCH   1   7
BRANCH   3  10
ATOM     10  O   UNL     1     -10.232   4.726   1.048  1.00  0.00    -0.493 OA
ATOM     11  C   UNL     1     -11.336   5.556   1.390  1.00  0.00     0.278 C 
ENDBRANCH   3  10
BRANCH   4  12
ATOM     12  O   UNL     1      -8.659   4.776  -1.273  1.00  0.00    -0.504 OA
ATOM     13  H   UNL     1      -8.150   4.221  -1.950  1.00  0.00     0.293 HD
ENDBRANCH   4  12
TORSDOF 3
ENDMDL
MODEL 3
REMARK VINA RESULT:    -4.425      1.459      2.539
REMARK INTER + INTRA:          -5.241
REMARK INTER:                  -5.063
REMARK INTRA:                  -0.178
REMARK UNBOUND:                -0.170
REMARK SMILES CC=Cc1ccc(O)c(OC)c1
REMARK SMILES IDX 4 1 12 2 9 3 7 4 6 5 5 6 3 7 1 8 2 9 10 10 11 11 8 12
REMARK H PARENT 8 13
REMARK Flexibility Score: inf
ROOT
ATOM      1  C   UNL     1      -7.418   5.653   1.426  1.00  0.00    -0.022 A 
ATOM      2  C   UNL     1      -8.598   5.531   0.674  1.00  0.00     0.058 A 
ATOM      3  C   UNL     1      -8.570   5.605  -0.734  1.00  0.00     0.161 A 
ATOM      4  C   UNL     1      -7.339   5.793  -1.387  1.00  0.00     0.157 A 
ATOM      5  C   UNL     1      -6.161   5.900  -0.642  1.00  0.00     0.051 A 
ATOM      6  C   UNL     1      -6.194   5.826   0.752  1.00  0.00     0.012 A 
ENDROOT
BRANCH   1   7
ATOM      7  C   UNL     1      -7.506   5.557   2.905  1.00  0.00     0.003 C 
ATOM      8  C   UNL     1      -6.896   6.113   5.226  1.00  0.00     0.035 C 
ATOM      9  C   UNL     1      -6.735   6.256   3.747  1.00  0.00    -0.030 C 
ENDBRANCH   1   7
BRANCH   3  10
ATOM     10  O   UNL     1      -9.737   5.496  -1.508  1.00  0.00    -0.493 OA
ATOM     11  C   UNL     1     -10.742   6.499  -1.600  1.00  0.00     0.278 C 
ENDBRANCH   3  10
BRANCH   4  12
ATOM     12  O   UNL     1      -7.265   5.874  -2.777  1.00  0.00    -0.504 OA
ATOM     13  H   UNL     1      -7.723   5.203  -3.382  1.00  0.00     0.293 HD
ENDBRANCH   4  12
TORSDOF 3
ENDMDL
MODEL 4
REMARK VINA RESULT:    -4.315      1.892      2.902
REMARK INTER + INTRA:          -5.115
REMARK INTER:                  -4.946
REMARK INTRA:                  -0.169
REMARK UNBOUND:                -0.170
REMARK SMILES CC=Cc1ccc(O)c(OC)c1
REMARK SMILES IDX 4 1 12 2 9 3 7 4 6 5 5 6 3 7 1 8 2 9 10 10 11 11 8 12
REMARK H PARENT 8 13
REMARK Flexibility Score: inf
ROOT
ATOM      1  C   UNL     1      -6.651   6.233   0.919  1.00  0.00    -0.022 A 
ATOM      2  C   UNL     1      -7.487   7.148   0.255  1.00  0.00     0.058 A 
ATOM      3  C   UNL     1      -7.393   7.333  -1.139  1.00  0.00     0.161 A 
ATOM      4  C   UNL     1      -6.457   6.581  -1.871  1.00  0.00     0.157 A 
ATOM      5  C   UNL     1      -5.635   5.660  -1.216  1.00  0.00     0.051 A 
ATOM      6  C   UNL     1      -5.731   5.480   0.165  1.00  0.00     0.012 A 
ENDROOT
BRANCH   1   7
ATOM      7  C   UNL     1      -6.801   6.072   2.387  1.00  0.00     0.003 C 
ATOM      8  C   UNL     1      -7.927   5.361   4.459  1.00  0.00     0.035 C 
ATOM      9  C   UNL     1      -7.859   5.499   2.972  1.00  0.00    -0.030 C 
ENDBRANCH   1   7
BRANCH   3  10
ATOM     10  O   UNL     1      -8.209   8.248  -1.825  1.00  0.00    -0.493 OA
ATOM     11  C   UNL     1      -9.570   8.014  -2.173  1.00  0.00     0.278 C 
ENDBRANCH   3  10
BRANCH   4  12
ATOM     12  O   UNL     1      -6.330   6.734  -3.251  1.00  0.00    -0.504 OA
ATOM     13  H   UNL     1      -5.963   7.579  -3.670  1.00  0.00     0.293 HD
ENDBRANCH   4  12
TORSDOF 3
ENDMDL
MODEL 5
REMARK VINA RESULT:    -4.176      2.756      4.319
REMARK INTER + INTRA:          -4.956
REMARK INTER:                  -4.779
REMARK INTRA:                  -0.178
REMARK UNBOUND:                -0.170
REMARK SMILES CC=Cc1ccc(O)c(OC)c1
REMARK SMILES IDX 4 1 12 2 9 3 7 4 6 5 5 6 3 7 1 8 2 9 10 10 11 11 8 12
REMARK H PARENT 8 13
REMARK Flexibility Score: inf
ROOT
ATOM      1  C   UNL     1      -7.253   6.193  -1.679  1.00  0.00    -0.022 A 
ATOM      2  C   UNL     1      -6.772   7.059  -2.675  1.00  0.00     0.058 A 
ATOM      3  C   UNL     1      -7.390   7.121  -3.941  1.00  0.00     0.161 A 
ATOM      4  C   UNL     1      -8.510   6.312  -4.198  1.00  0.00     0.157 A 
ATOM      5  C   UNL     1      -9.001   5.461  -3.204  1.00  0.00     0.051 A 
ATOM      6  C   UNL     1      -8.385   5.403  -1.952  1.00  0.00     0.012 A 
ENDROOT
BRANCH   1   7
ATOM      7  C   UNL     1      -6.569   6.176  -0.362  1.00  0.00     0.003 C 
ATOM      8  C   UNL     1      -6.445   6.200   2.098  1.00  0.00     0.035 C 
ATOM      9  C   UNL     1      -7.206   6.237   0.813  1.00  0.00    -0.030 C 
ENDBRANCH   1   7
BRANCH   3  10
ATOM     10  O   UNL     1      -6.921   7.971  -4.957  1.00  0.00    -0.493 OA
ATOM     11  C   UNL     1      -7.244   9.353  -5.067  1.00  0.00     0.278 C 
ENDBRANCH   3  10
BRANCH   4  12
ATOM     12  O   UNL     1      -9.152   6.341  -5.436  1.00  0.00    -0.504 OA
ATOM     13  H   UNL     1     -10.022   6.839  -5.582  1.00  0.00     0.293 HD
ENDBRANCH   4  12
TORSDOF 3
ENDMDL
MODEL 6
REMARK VINA RESULT:    -4.160      3.607      5.061
REMARK INTER + INTRA:          -4.937
REMARK INTER:                  -4.767
REMARK INTRA:                  -0.171
REMARK UNBOUND:                -0.170
REMARK SMILES CC=Cc1ccc(O)c(OC)c1
REMARK SMILES IDX 4 1 12 2 9 3 7 4 6 5 5 6 3 7 1 8 2 9 10 10 11 11 8 12
REMARK H PARENT 8 13
REMARK Flexibility Score: inf
ROOT
ATOM      1  C   UNL     1      -8.000   5.829  -1.740  1.00  0.00    -0.022 A 
ATOM      2  C   UNL     1      -8.626   6.216  -2.937  1.00  0.00     0.058 A 
ATOM      3  C   UNL     1      -8.105   7.267  -3.719  1.00  0.00     0.161 A 
ATOM      4  C   UNL     1      -6.938   7.925  -3.294  1.00  0.00     0.157 A 
ATOM      5  C   UNL     1      -6.305   7.532  -2.112  1.00  0.00     0.051 A 
ATOM      6  C   UNL     1      -6.824   6.491  -1.341  1.00  0.00     0.012 A 
ENDROOT
BRANCH   1   7
ATOM      7  C   UNL     1      -8.587   4.709  -0.963  1.00  0.00     0.003 C 
ATOM      8  C   UNL     1      -9.251   3.508   1.084  1.00  0.00     0.035 C 
ATOM      9  C   UNL     1      -8.628   4.667   0.374  1.00  0.00    -0.030 C 
ENDBRANCH   1   7
BRANCH   3  10
ATOM     10  O   UNL     1      -8.717   7.679  -4.914  1.00  0.00    -0.493 OA
ATOM     11  C   UNL     1      -8.473   7.097  -6.190  1.00  0.00     0.278 C 
ENDBRANCH   3  10
BRANCH   4  12
ATOM     12  O   UNL     1      -6.389   8.971  -4.036  1.00  0.00    -0.504 OA
ATOM     13  H   UNL     1      -5.484   9.372  -3.818  1.00  0.00     0.293 HD
ENDBRANCH   4  12
TORSDOF 3
ENDMDL
MODEL 7
REMARK VINA RESULT:    -4.160      2.701      5.426
REMARK INTER + INTRA:          -4.937
REMARK INTER:                  -4.864
REMARK INTRA:                  -0.073
REMARK UNBOUND:                -0.170
REMARK SMILES CC=Cc1ccc(O)c(OC)c1
REMARK SMILES IDX 4 1 12 2 9 3 7 4 6 5 5 6 3 7 1 8 2 9 10 10 11 11 8 12
REMARK H PARENT 8 13
REMARK Flexibility Score: inf
ROOT
ATOM      1  C   UNL     1      -7.960   5.477   0.934  1.00  0.00    -0.022 A 
ATOM      2  C   UNL     1      -8.651   5.362   2.152  1.00  0.00     0.058 A 
ATOM      3  C   UNL     1      -8.001   5.605   3.379  1.00  0.00     0.161 A 
ATOM      4  C   UNL     1      -6.646   5.978   3.375  1.00  0.00     0.157 A 
ATOM      5  C   UNL     1      -5.959   6.108   2.165  1.00  0.00     0.051 A 
ATOM      6  C   UNL     1      -6.608   5.866   0.952  1.00  0.00     0.012 A 
ENDROOT
BRANCH   1   7
ATOM      7  C   UNL     1      -8.698   5.219  -0.328  1.00  0.00     0.003 C 
ATOM      8  C   UNL     1      -9.048   5.259  -2.766  1.00  0.00     0.035 C 
ATOM      9  C   UNL     1      -8.251   5.568  -1.540  1.00  0.00    -0.030 C 
ENDBRANCH   1   7
BRANCH   3  10
ATOM     10  O   UNL     1      -8.667   5.487   4.610  1.00  0.00    -0.493 OA
ATOM     11  C   UNL     1      -9.091   6.587   5.408  1.00  0.00     0.278 C 
ENDBRANCH   3  10
BRANCH   4  12
ATOM     12  O   UNL     1      -5.963   6.227   4.566  1.00  0.00    -0.504 OA
ATOM     13  H   UNL     1      -6.364   6.779   5.314  1.00  0.00     0.293 HD
ENDBRANCH   4  12
TORSDOF 3
ENDMDL
MODEL 8
REMARK VINA RESULT:    -3.954      2.746      5.492
REMARK INTER + INTRA:          -4.702
REMARK INTER:                  -4.529
REMARK INTRA:                  -0.173
REMARK UNBOUND:                -0.170
REMARK SMILES CC=Cc1ccc(O)c(OC)c1
REMARK SMILES IDX 4 1 12 2 9 3 7 4 6 5 5 6 3 7 1 8 2 9 10 10 11 11 8 12
REMARK H PARENT 8 13
REMARK Flexibility Score: inf
ROOT
ATOM      1  C   UNL     1      -9.420   5.750  -0.939  1.00  0.00    -0.022 A 
ATOM      2  C   UNL     1      -8.419   5.432  -0.005  1.00  0.00     0.058 A 
ATOM      3  C   UNL     1      -8.652   5.566   1.378  1.00  0.00     0.161 A 
ATOM      4  C   UNL     1      -9.908   6.016   1.823  1.00  0.00     0.157 A 
ATOM      5  C   UNL     1     -10.910   6.318   0.897  1.00  0.00     0.051 A 
ATOM      6  C   UNL     1     -10.675   6.183  -0.473  1.00  0.00     0.012 A 
ENDROOT
BRANCH   1   7
ATOM      7  C   UNL     1      -9.122   5.579  -2.384  1.00  0.00     0.003 C 
ATOM      8  C   UNL     1      -8.852   6.320  -4.718  1.00  0.00     0.035 C 
ATOM      9  C   UNL     1      -9.181   6.570  -3.281  1.00  0.00    -0.030 C 
ENDBRANCH   1   7
BRANCH   3  10
ATOM     10  O   UNL     1      -7.665   5.265   2.332  1.00  0.00    -0.493 OA
ATOM     11  C   UNL     1      -6.556   6.102   2.640  1.00  0.00     0.278 C 
ENDBRANCH   3  10
BRANCH   4  12
ATOM     12  O   UNL     1     -10.181   6.164   3.182  1.00  0.00    -0.504 OA
ATOM     13  H   UNL     1     -11.083   6.478   3.522  1.00  0.00     0.293 HD
ENDBRANCH   4  12
TORSDOF 3
ENDMDL
