MODEL 1
REMARK VINA RESULT:    -4.769      0.000      0.000
REMARK INTER + INTRA:          -5.267
REMARK INTER:                  -5.187
REMARK INTRA:                  -0.080
REMARK UNBOUND:                -0.080
REMARK SMILES C=C(C)[C@H]1CC[C@H](C)C[C@H]1O
REMARK SMILES IDX 8 1 7 2 6 3 5 4 4 5 10 6 9 7 11 8 2 10 1 11 3 12
REMARK H PARENT 11 9
REMARK Flexibility Score: inf
ROOT
ATOM      1  C   UNL     1      10.636 -10.322  28.301  1.00  0.00     0.008 C 
ATOM      2  C   UNL     1      10.205  -9.240  27.305  1.00  0.00    -0.012 C 
ATOM      3  C   UNL     1       9.405  -8.135  28.022  1.00  0.00     0.004 C 
ATOM      4  C   UNL     1       8.992  -7.028  27.043  1.00  0.00     0.011 C 
ATOM      5  C   UNL     1      10.227  -6.436  26.334  1.00  0.00     0.043 C 
ATOM      6  C   UNL     1      11.034  -7.533  25.600  1.00  0.00     0.121 C 
ATOM      7  C   UNL     1      11.436  -8.645  26.589  1.00  0.00     0.035 C 
ENDROOT
BRANCH   6   8
ATOM      8  O   UNL     1      10.286  -8.080  24.544  1.00  0.00    -0.392 OA
ATOM      9  H   UNL     1      10.153  -9.042  24.754  1.00  0.00     0.210 HD
ENDBRANCH   6   8
BRANCH   5  10
ATOM     10  C   UNL     1       9.863  -5.275  25.412  1.00  0.00    -0.075 C 
ATOM     11  C   UNL     1       8.681  -5.221  24.773  1.00  0.00     0.008 C 
ATOM     12  C   UNL     1      10.840  -4.145  25.204  1.00  0.00     0.039 C 
ENDBRANCH   5  10
TORSDOF 2
ENDMDL
MODEL 2
REMARK VINA RESULT:    -4.742      1.670      2.644
REMARK INTER + INTRA:          -5.237
REMARK INTER:                  -5.048
REMARK INTRA:                  -0.189
REMARK UNBOUND:                -0.080
REMARK SMILES C=C(C)[C@H]1CC[C@H](C)C[C@H]1O
REMARK SMILES IDX 8 1 7 2 6 3 5 4 4 5 10 6 9 7 11 8 2 10 1 11 3 12
REMARK H PARENT 11 9
REMARK Flexibility Score: inf
ROOT
ATOM      1  C   UNL     1      12.303 -11.159  26.758  1.00  0.00     0.008 C 
ATOM      2  C   UNL     1      11.739  -9.734  26.748  1.00  0.00    -0.012 C 
ATOM      3  C   UNL     1      11.210  -9.374  25.346  1.00  0.00     0.004 C 
ATOM      4  C   UNL     1      10.615  -7.960  25.327  1.00  0.00     0.011 C 
ATOM      5  C   UNL     1       9.499  -7.822  26.383  1.00  0.00     0.043 C 
ATOM      6  C   UNL     1      10.019  -8.171  27.798  1.00  0.00     0.121 C 
ATOM      7  C   UNL     1      10.625  -9.588  27.806  1.00  0.00     0.035 C 
ENDROOT
BRANCH   6   8
ATOM      8  O   UNL     1      10.982  -7.238  28.219  1.00  0.00    -0.392 OA
ATOM      9  H   UNL     1      10.641  -6.340  27.969  1.00  0.00     0.210 HD
ENDBRANCH   6   8
BRANCH   5  10
ATOM     10  C   UNL     1       8.826  -6.453  26.338  1.00  0.00    -0.075 C 
ATOM     11  C   UNL     1       9.341  -5.433  25.630  1.00  0.00     0.008 C 
ATOM     12  C   UNL     1       7.544  -6.219  27.097  1.00  0.00     0.039 C 
ENDBRANCH   5  10
TORSDOF 2
ENDMDL
MODEL 3
REMARK VINA RESULT:    -4.740      1.539      4.344
REMARK INTER + INTRA:          -5.235
REMARK INTER:                  -5.052
REMARK INTRA:                  -0.183
REMARK UNBOUND:                -0.080
REMARK SMILES C=C(C)[C@H]1CC[C@H](C)C[C@H]1O
REMARK SMILES IDX 8 1 7 2 6 3 5 4 4 5 10 6 9 7 11 8 2 10 1 11 3 12
REMARK H PARENT 11 9
REMARK Flexibility Score: inf
ROOT
ATOM      1  C   UNL     1       9.109  -4.542  24.837  1.00  0.00     0.008 C 
ATOM      2  C   UNL     1       9.486  -5.484  25.986  1.00  0.00    -0.012 C 
ATOM      3  C   UNL     1       8.299  -6.400  26.342  1.00  0.00     0.004 C 
ATOM      4  C   UNL     1       8.669  -7.370  27.472  1.00  0.00     0.011 C 
ATOM      5  C   UNL     1       9.910  -8.205  27.092  1.00  0.00     0.043 C 
ATOM      6  C   UNL     1      11.113  -7.296  26.742  1.00  0.00     0.121 C 
ATOM      7  C   UNL     1      10.728  -6.319  25.614  1.00  0.00     0.035 C 
ENDROOT
BRANCH   6   8
ATOM      8  O   UNL     1      11.539  -6.578  27.872  1.00  0.00    -0.392 OA
ATOM      9  H   UNL     1      12.389  -6.129  27.623  1.00  0.00     0.210 HD
ENDBRANCH   6   8
BRANCH   5  10
ATOM     10  C   UNL     1      10.260  -9.239  28.159  1.00  0.00    -0.075 C 
ATOM     11  C   UNL     1      11.039 -10.300  27.888  1.00  0.00     0.008 C 
ATOM     12  C   UNL     1       9.732  -9.080  29.562  1.00  0.00     0.039 C 
ENDBRANCH   5  10
TORSDOF 2
ENDMDL
MODEL 4
REMARK VINA RESULT:    -4.672      0.340      1.096
REMARK INTER + INTRA:          -5.162
REMARK INTER:                  -5.011
REMARK INTRA:                  -0.150
REMARK UNBOUND:                -0.080
REMARK SMILES C=C(C)[C@H]1CC[C@H](C)C[C@H]1O
REMARK SMILES IDX 8 1 7 2 6 3 5 4 4 5 10 6 9 7 11 8 2 10 1 11 3 12
REMARK H PARENT 11 9
REMARK Flexibility Score: inf
ROOT
ATOM      1  C   UNL     1      11.060 -10.571  28.147  1.00  0.00     0.008 C 
ATOM      2  C   UNL     1      10.507  -9.473  27.231  1.00  0.00    -0.012 C 
ATOM      3  C   UNL     1       9.692  -8.451  28.047  1.00  0.00     0.004 C 
ATOM      4  C   UNL     1       9.155  -7.329  27.150  1.00  0.00     0.011 C 
ATOM      5  C   UNL     1      10.308  -6.632  26.397  1.00  0.00     0.043 C 
ATOM      6  C   UNL     1      11.128  -7.646  25.564  1.00  0.00     0.121 C 
ATOM      7  C   UNL     1      11.654  -8.775  26.472  1.00  0.00     0.035 C 
ENDROOT
BRANCH   6   8
ATOM      8  O   UNL     1      10.347  -8.190  24.530  1.00  0.00    -0.392 OA
ATOM      9  H   UNL     1       9.565  -8.625  24.959  1.00  0.00     0.210 HD
ENDBRANCH   6   8
BRANCH   5  10
ATOM     10  C   UNL     1       9.821  -5.456  25.555  1.00  0.00    -0.075 C 
ATOM     11  C   UNL     1      10.626  -4.424  25.247  1.00  0.00     0.008 C 
ATOM     12  C   UNL     1       8.403  -5.435  25.041  1.00  0.00     0.039 C 
ENDBRANCH   5  10
TORSDOF 2
ENDMDL
MODEL 5
REMARK VINA RESULT:    -4.595      1.057      4.361
REMARK INTER + INTRA:          -5.077
REMARK INTER:                  -4.948
REMARK INTRA:                  -0.129
REMARK UNBOUND:                -0.080
REMARK SMILES C=C(C)[C@H]1CC[C@H](C)C[C@H]1O
REMARK SMILES IDX 8 1 7 2 6 3 5 4 4 5 10 6 9 7 11 8 2 10 1 11 3 12
REMARK H PARENT 11 9
REMARK Flexibility Score: inf
ROOT
ATOM      1  C   UNL     1      10.468  -3.304  25.050  1.00  0.00     0.008 C 
ATOM      2  C   UNL     1      10.606  -4.818  25.250  1.00  0.00    -0.012 C 
ATOM      3  C   UNL     1      11.742  -5.128  26.245  1.00  0.00     0.004 C 
ATOM      4  C   UNL     1      11.875  -6.638  26.479  1.00  0.00     0.011 C 
ATOM      5  C   UNL     1      10.539  -7.235  26.970  1.00  0.00     0.043 C 
ATOM      6  C   UNL     1       9.392  -6.940  25.974  1.00  0.00     0.121 C 
ATOM      7  C   UNL     1       9.273  -5.422  25.737  1.00  0.00     0.035 C 
ENDROOT
BRANCH   6   8
ATOM      8  O   UNL     1       9.612  -7.598  24.752  1.00  0.00    -0.392 OA
ATOM      9  H   UNL     1       9.415  -8.560  24.903  1.00  0.00     0.210 HD
ENDBRANCH   6   8
BRANCH   5  10
ATOM     10  C   UNL     1      10.655  -8.723  27.292  1.00  0.00    -0.075 C 
ATOM     11  C   UNL     1       9.880  -9.309  28.222  1.00  0.00     0.008 C 
ATOM     12  C   UNL     1      11.654  -9.577  26.553  1.00  0.00     0.039 C 
ENDBRANCH   5  10
TORSDOF 2
ENDMDL
MODEL 6
REMARK VINA RESULT:    -4.310      3.136      4.471
REMARK INTER + INTRA:          -4.768
REMARK INTER:                  -4.576
REMARK INTRA:                  -0.192
REMARK UNBOUND:                -0.080
REMARK SMILES C=C(C)[C@H]1CC[C@H](C)C[C@H]1O
REMARK SMILES IDX 8 1 7 2 6 3 5 4 4 5 10 6 9 7 11 8 2 10 1 11 3 12
REMARK H PARENT 11 9
REMARK Flexibility Score: inf
ROOT
ATOM      1  C   UNL     1      12.471 -13.363  23.700  1.00  0.00     0.008 C 
ATOM      2  C   UNL     1      12.482 -12.043  24.479  1.00  0.00    -0.012 C 
ATOM      3  C   UNL     1      11.506 -11.034  23.843  1.00  0.00     0.004 C 
ATOM      4  C   UNL     1      11.482  -9.717  24.628  1.00  0.00     0.011 C 
ATOM      5  C   UNL     1      11.122  -9.968  26.108  1.00  0.00     0.043 C 
ATOM      6  C   UNL     1      12.102 -10.971  26.762  1.00  0.00     0.121 C 
ATOM      7  C   UNL     1      12.126 -12.288  25.960  1.00  0.00     0.035 C 
ENDROOT
BRANCH   6   8
ATOM      8  O   UNL     1      13.397 -10.430  26.831  1.00  0.00    -0.392 OA
ATOM      9  H   UNL     1      14.002 -11.072  26.376  1.00  0.00     0.210 HD
ENDBRANCH   6   8
BRANCH   5  10
ATOM     10  C   UNL     1      11.009  -8.670  26.903  1.00  0.00    -0.075 C 
ATOM     11  C   UNL     1      10.457  -8.637  28.129  1.00  0.00     0.008 C 
ATOM     12  C   UNL     1      11.531  -7.382  26.319  1.00  0.00     0.039 C 
ENDBRANCH   5  10
TORSDOF 2
ENDMDL
MODEL 7
REMARK VINA RESULT:    -4.195      5.238      7.508
REMARK INTER + INTRA:          -4.643
REMARK INTER:                  -4.460
REMARK INTRA:                  -0.182
REMARK UNBOUND:                -0.080
REMARK SMILES C=C(C)[C@H]1CC[C@H](C)C[C@H]1O
REMARK SMILES IDX 8 1 7 2 6 3 5 4 4 5 10 6 9 7 11 8 2 10 1 11 3 12
REMARK H PARENT 11 9
REMARK Flexibility Score: inf
ROOT
ATOM      1  C   UNL     1      12.281  -4.028  25.959  1.00  0.00     0.008 C 
ATOM      2  C   UNL     1      12.423  -2.602  25.415  1.00  0.00    -0.012 C 
ATOM      3  C   UNL     1      11.339  -1.686  26.015  1.00  0.00     0.004 C 
ATOM      4  C   UNL     1      11.486  -0.247  25.503  1.00  0.00     0.011 C 
ATOM      5  C   UNL     1      12.896   0.301  25.808  1.00  0.00     0.043 C 
ATOM      6  C   UNL     1      13.994  -0.604  25.201  1.00  0.00     0.121 C 
ATOM      7  C   UNL     1      13.832  -2.049  25.713  1.00  0.00     0.035 C 
ENDROOT
BRANCH   6   8
ATOM      8  O   UNL     1      13.936  -0.586  23.797  1.00  0.00    -0.392 OA
ATOM      9  H   UNL     1      14.381   0.251  23.502  1.00  0.00     0.210 HD
ENDBRANCH   6   8
BRANCH   5  10
ATOM     10  C   UNL     1      13.052   1.760  25.385  1.00  0.00    -0.075 C 
ATOM     11  C   UNL     1      12.020   2.472  24.901  1.00  0.00     0.008 C 
ATOM     12  C   UNL     1      14.392   2.439  25.512  1.00  0.00     0.039 C 
ENDBRANCH   5  10
TORSDOF 2
ENDMDL
MODEL 8
REMARK VINA RESULT:    -4.156      2.040      4.449
REMARK INTER + INTRA:          -4.600
REMARK INTER:                  -4.547
REMARK INTRA:                  -0.054
REMARK UNBOUND:                -0.080
REMARK SMILES C=C(C)[C@H]1CC[C@H](C)C[C@H]1O
REMARK SMILES IDX 8 1 7 2 6 3 5 4 4 5 10 6 9 7 11 8 2 10 1 11 3 12
REMARK H PARENT 11 9
REMARK Flexibility Score: inf
ROOT
ATOM      1  C   UNL     1       8.676  -6.654  26.945  1.00  0.00     0.008 C 
ATOM      2  C   UNL     1       9.971  -7.454  26.765  1.00  0.00    -0.012 C 
ATOM      3  C   UNL     1       9.882  -8.798  27.514  1.00  0.00     0.004 C 
ATOM      4  C   UNL     1      11.159  -9.625  27.320  1.00  0.00     0.011 C 
ATOM      5  C   UNL     1      11.442  -9.852  25.820  1.00  0.00     0.043 C 
ATOM      6  C   UNL     1      11.546  -8.509  25.059  1.00  0.00     0.121 C 
ATOM      7  C   UNL     1      10.262  -7.681  25.268  1.00  0.00     0.035 C 
ENDROOT
BRANCH   6   8
ATOM      8  O   UNL     1      12.663  -7.775  25.492  1.00  0.00    -0.392 OA
ATOM      9  H   UNL     1      13.456  -8.165  25.040  1.00  0.00     0.210 HD
ENDBRANCH   6   8
BRANCH   5  10
ATOM     10  C   UNL     1      12.662 -10.740  25.590  1.00  0.00    -0.075 C 
ATOM     11  C   UNL     1      13.730 -10.703  26.406  1.00  0.00     0.008 C 
ATOM     12  C   UNL     1      12.686 -11.697  24.425  1.00  0.00     0.039 C 
ENDBRANCH   5  10
TORSDOF 2
ENDMDL
MODEL 9
REMARK VINA RESULT:    -4.119      4.324      6.022
REMARK INTER + INTRA:          -4.560
REMARK INTER:                  -4.473
REMARK INTRA:                  -0.087
REMARK UNBOUND:                -0.080
REMARK SMILES C=C(C)[C@H]1CC[C@H](C)C[C@H]1O
REMARK SMILES IDX 8 1 7 2 6 3 5 4 4 5 10 6 9 7 11 8 2 10 1 11 3 12
REMARK H PARENT 11 9
REMARK Flexibility Score: inf
ROOT
ATOM      1  C   UNL     1      10.165  -9.256  34.959  1.00  0.00     0.008 C 
ATOM      2  C   UNL     1       9.679  -9.193  33.507  1.00  0.00    -0.012 C 
ATOM      3  C   UNL     1      10.361  -8.029  32.761  1.00  0.00     0.004 C 
ATOM      4  C   UNL     1       9.907  -7.970  31.297  1.00  0.00     0.011 C 
ATOM      5  C   UNL     1      10.179  -9.311  30.585  1.00  0.00     0.043 C 
ATOM      6  C   UNL     1       9.490 -10.487  31.318  1.00  0.00     0.121 C 
ATOM      7  C   UNL     1       9.945 -10.532  32.790  1.00  0.00     0.035 C 
ENDROOT
BRANCH   6   8
ATOM      8  O   UNL     1       8.092 -10.363  31.253  1.00  0.00    -0.392 OA
ATOM      9  H   UNL     1       7.827  -9.721  31.962  1.00  0.00     0.210 HD
ENDBRANCH   6   8
BRANCH   5  10
ATOM     10  C   UNL     1       9.815  -9.263  29.103  1.00  0.00    -0.075 C 
ATOM     11  C   UNL     1      10.514  -9.946  28.179  1.00  0.00     0.008 C 
ATOM     12  C   UNL     1       8.639  -8.438  28.644  1.00  0.00     0.039 C 
ENDBRANCH   5  10
TORSDOF 2
ENDMDL
