MODEL 1
REMARK VINA RESULT:    -4.766      0.000      0.000
REMARK INTER + INTRA:          -7.669
REMARK INTER:                  -7.274
REMARK INTRA:                  -0.395
REMARK UNBOUND:                -0.395
REMARK SMILES CCCCCCCCCC=CC(=O)[O-]
REMARK SMILES IDX 7 1 8 2 9 3 10 4 11 5 12 6 13 7 14 8 6 9 5 10 4 11 3 12 2 13
REMARK SMILES IDX 1 14
REMARK H PARENT
REMARK Flexibility Score: inf
ROOT
ATOM      1  C   UNL     1      -0.399  -6.216   7.689  1.00  0.00     0.000 C 
ENDROOT
BRANCH   1   2
ATOM      2  C   UNL     1      -1.185  -7.520   7.474  1.00  0.00     0.004 C 
BRANCH   2   3
ATOM      3  C   UNL     1      -2.529  -7.513   8.223  1.00  0.00     0.027 C 
BRANCH   3   4
ATOM      4  C   UNL     1      -2.898  -8.875   8.752  1.00  0.00    -0.025 C 
ATOM      5  C   UNL     1      -4.090  -9.478   8.614  1.00  0.00     0.020 C 
BRANCH   5   6
ATOM      6  C   UNL     1      -5.292  -8.919   7.961  1.00  0.00     0.064 C 
ATOM      7  O   UNL     1      -5.761  -9.403   6.898  1.00  0.00    -0.545 OA
ATOM      8  O   UNL     1      -5.907  -7.810   8.525  1.00  0.00    -0.545 OA
ENDBRANCH   5   6
ENDBRANCH   3   4
ENDBRANCH   2   3
ENDBRANCH   1   2
BRANCH   1   9
ATOM      9  C   UNL     1      -0.219  -5.407   6.392  1.00  0.00     0.000 C 
BRANCH   9  10
ATOM     10  C   UNL     1      -0.816  -3.986   6.418  1.00  0.00     0.000 C 
BRANCH  10  11
ATOM     11  C   UNL     1      -1.586  -3.578   5.149  1.00  0.00    -0.000 C 
BRANCH  11  12
ATOM     12  C   UNL     1      -1.523  -2.070   4.871  1.00  0.00    -0.000 C 
BRANCH  12  13
ATOM     13  C   UNL     1      -1.446  -1.792   3.366  1.00  0.00    -0.003 C 
ATOM     14  C   UNL     1      -1.234  -3.080   2.576  1.00  0.00     0.004 C 
ENDBRANCH  12  13
ENDBRANCH  11  12
ENDBRANCH  10  11
ENDBRANCH   9  10
ENDBRANCH   1   9
TORSDOF 9
ENDMDL
MODEL 2
REMARK VINA RESULT:    -4.650      4.430      7.271
REMARK INTER + INTRA:          -7.491
REMARK INTER:                  -6.902
REMARK INTRA:                  -0.589
REMARK UNBOUND:                -0.395
REMARK SMILES CCCCCCCCCC=CC(=O)[O-]
REMARK SMILES IDX 7 1 8 2 9 3 10 4 11 5 12 6 13 7 14 8 6 9 5 10 4 11 3 12 2 13
REMARK SMILES IDX 1 14
REMARK H PARENT
REMARK Flexibility Score: inf
ROOT
ATOM      1  C   UNL     1      -0.033  -3.330   8.999  1.00  0.00     0.000 C 
ENDROOT
BRANCH   1   2
ATOM      2  C   UNL     1      -0.065  -2.134   9.966  1.00  0.00     0.004 C 
BRANCH   2   3
ATOM      3  C   UNL     1       0.187  -0.801   9.241  1.00  0.00     0.027 C 
BRANCH   3   4
ATOM      4  C   UNL     1      -1.067   0.021   9.100  1.00  0.00    -0.025 C 
ATOM      5  C   UNL     1      -1.709   0.290   7.951  1.00  0.00     0.020 C 
BRANCH   5   6
ATOM      6  C   UNL     1      -1.299  -0.122   6.593  1.00  0.00     0.064 C 
ATOM      7  O   UNL     1      -1.074   0.713   5.679  1.00  0.00    -0.545 OA
ATOM      8  O   UNL     1      -1.183  -1.477   6.311  1.00  0.00    -0.545 OA
ENDBRANCH   5   6
ENDBRANCH   3   4
ENDBRANCH   2   3
ENDBRANCH   1   2
BRANCH   1   9
ATOM      9  C   UNL     1       1.233  -4.192   9.158  1.00  0.00     0.000 C 
BRANCH   9  10
ATOM     10  C   UNL     1       1.204  -5.542   8.415  1.00  0.00     0.000 C 
BRANCH  10  11
ATOM     11  C   UNL     1       0.390  -5.552   7.109  1.00  0.00    -0.000 C 
BRANCH  11  12
ATOM     12  C   UNL     1      -0.574  -6.742   7.015  1.00  0.00    -0.000 C 
BRANCH  12  13
ATOM     13  C   UNL     1      -1.400  -6.883   8.299  1.00  0.00    -0.003 C 
ATOM     14  C   UNL     1      -2.452  -7.978   8.162  1.00  0.00     0.004 C 
ENDBRANCH  12  13
ENDBRANCH  11  12
ENDBRANCH  10  11
ENDBRANCH   9  10
ENDBRANCH   1   9
TORSDOF 9
ENDMDL
MODEL 3
REMARK VINA RESULT:    -4.600      4.300      7.207
REMARK INTER + INTRA:          -7.416
REMARK INTER:                  -7.377
REMARK INTRA:                  -0.039
REMARK UNBOUND:                -0.395
REMARK SMILES CCCCCCCCCC=CC(=O)[O-]
REMARK SMILES IDX 7 1 8 2 9 3 10 4 11 5 12 6 13 7 14 8 6 9 5 10 4 11 3 12 2 13
REMARK SMILES IDX 1 14
REMARK H PARENT
REMARK Flexibility Score: inf
ROOT
ATOM      1  C   UNL     1      -0.223  -1.062  10.029  1.00  0.00     0.000 C 
ENDROOT
BRANCH   1   2
ATOM      2  C   UNL     1      -0.372  -0.027   8.900  1.00  0.00     0.004 C 
BRANCH   2   3
ATOM      3  C   UNL     1      -1.168  -0.587   7.709  1.00  0.00     0.027 C 
BRANCH   3   4
ATOM      4  C   UNL     1      -1.166   0.348   6.528  1.00  0.00    -0.025 C 
ATOM      5  C   UNL     1      -1.282  -0.010   5.239  1.00  0.00     0.020 C 
BRANCH   5   6
ATOM      6  C   UNL     1      -1.390  -1.386   4.711  1.00  0.00     0.064 C 
ATOM      7  O   UNL     1      -1.534  -1.622   3.483  1.00  0.00    -0.545 OA
ATOM      8  O   UNL     1      -1.355  -2.450   5.601  1.00  0.00    -0.545 OA
ENDBRANCH   5   6
ENDBRANCH   3   4
ENDBRANCH   2   3
ENDBRANCH   1   2
BRANCH   1   9
ATOM      9  C   UNL     1       1.185  -1.682  10.088  1.00  0.00     0.000 C 
BRANCH   9  10
ATOM     10  C   UNL     1       1.239  -3.206   9.864  1.00  0.00     0.000 C 
BRANCH  10  11
ATOM     11  C   UNL     1       0.180  -3.762   8.896  1.00  0.00    -0.000 C 
BRANCH  11  12
ATOM     12  C   UNL     1       0.466  -5.206   8.463  1.00  0.00    -0.000 C 
BRANCH  12  13
ATOM     13  C   UNL     1      -0.115  -5.489   7.072  1.00  0.00    -0.003 C 
ATOM     14  C   UNL     1      -0.534  -6.949   6.934  1.00  0.00     0.004 C 
ENDBRANCH  12  13
ENDBRANCH  11  12
ENDBRANCH  10  11
ENDBRANCH   9  10
ENDBRANCH   1   9
TORSDOF 9
ENDMDL
MODEL 4
REMARK VINA RESULT:    -4.584      4.643      7.508
REMARK INTER + INTRA:          -7.390
REMARK INTER:                  -6.828
REMARK INTRA:                  -0.562
REMARK UNBOUND:                -0.395
REMARK SMILES CCCCCCCCCC=CC(=O)[O-]
REMARK SMILES IDX 7 1 8 2 9 3 10 4 11 5 12 6 13 7 14 8 6 9 5 10 4 11 3 12 2 13
REMARK SMILES IDX 1 14
REMARK H PARENT
REMARK Flexibility Score: inf
ROOT
ATOM      1  C   UNL     1      -1.455  -0.809   4.815  1.00  0.00     0.000 C 
ENDROOT
BRANCH   1   2
ATOM      2  C   UNL     1      -1.208  -0.957   6.326  1.00  0.00     0.004 C 
BRANCH   2   3
ATOM      3  C   UNL     1      -1.212   0.402   7.045  1.00  0.00     0.027 C 
BRANCH   3   4
ATOM      4  C   UNL     1      -1.767   0.310   8.443  1.00  0.00    -0.025 C 
ATOM      5  C   UNL     1      -1.066   0.024   9.552  1.00  0.00     0.020 C 
BRANCH   5   6
ATOM      6  C   UNL     1       0.373  -0.301   9.628  1.00  0.00     0.064 C 
ATOM      7  O   UNL     1       0.785  -1.456   9.916  1.00  0.00    -0.545 OA
ATOM      8  O   UNL     1       1.301   0.706   9.400  1.00  0.00    -0.545 OA
ENDBRANCH   5   6
ENDBRANCH   3   4
ENDBRANCH   2   3
ENDBRANCH   1   2
BRANCH   1   9
ATOM      9  C   UNL     1      -1.484  -2.161   4.080  1.00  0.00     0.000 C 
BRANCH   9  10
ATOM     10  C   UNL     1      -1.915  -3.365   4.940  1.00  0.00     0.000 C 
BRANCH  10  11
ATOM     11  C   UNL     1      -0.820  -4.418   5.186  1.00  0.00    -0.000 C 
BRANCH  11  12
ATOM     12  C   UNL     1      -0.563  -4.676   6.677  1.00  0.00    -0.000 C 
BRANCH  12  13
ATOM     13  C   UNL     1       0.032  -6.071   6.899  1.00  0.00    -0.003 C 
ATOM     14  C   UNL     1      -1.045  -7.072   7.307  1.00  0.00     0.004 C 
ENDBRANCH  12  13
ENDBRANCH  11  12
ENDBRANCH  10  11
ENDBRANCH   9  10
ENDBRANCH   1   9
TORSDOF 9
ENDMDL
MODEL 5
REMARK VINA RESULT:    -4.578      4.278      7.039
REMARK INTER + INTRA:          -7.381
REMARK INTER:                  -6.921
REMARK INTRA:                  -0.460
REMARK UNBOUND:                -0.395
REMARK SMILES CCCCCCCCCC=CC(=O)[O-]
REMARK SMILES IDX 7 1 8 2 9 3 10 4 11 5 12 6 13 7 14 8 6 9 5 10 4 11 3 12 2 13
REMARK SMILES IDX 1 14
REMARK H PARENT
REMARK Flexibility Score: inf
ROOT
ATOM      1  C   UNL     1      -1.424  -0.292   7.834  1.00  0.00     0.000 C 
ENDROOT
BRANCH   1   2
ATOM      2  C   UNL     1      -1.034   0.440   6.538  1.00  0.00     0.004 C 
BRANCH   2   3
ATOM      3  C   UNL     1      -1.389  -0.379   5.286  1.00  0.00     0.027 C 
BRANCH   3   4
ATOM      4  C   UNL     1      -1.487  -1.854   5.574  1.00  0.00    -0.025 C 
ATOM      5  C   UNL     1      -1.502  -2.837   4.659  1.00  0.00     0.020 C 
BRANCH   5   6
ATOM      6  C   UNL     1      -1.473  -2.677   3.191  1.00  0.00     0.064 C 
ATOM      7  O   UNL     1      -1.610  -1.555   2.637  1.00  0.00    -0.545 OA
ATOM      8  O   UNL     1      -1.313  -3.804   2.396  1.00  0.00    -0.545 OA
ENDBRANCH   5   6
ENDBRANCH   3   4
ENDBRANCH   2   3
ENDBRANCH   1   2
BRANCH   1   9
ATOM      9  C   UNL     1      -0.254  -0.411   8.827  1.00  0.00     0.000 C 
BRANCH   9  10
ATOM     10  C   UNL     1      -0.365  -1.571   9.835  1.00  0.00     0.000 C 
BRANCH  10  11
ATOM     11  C   UNL     1       0.471  -2.817   9.493  1.00  0.00    -0.000 C 
BRANCH  11  12
ATOM     12  C   UNL     1      -0.263  -3.792   8.563  1.00  0.00    -0.000 C 
BRANCH  12  13
ATOM     13  C   UNL     1       0.703  -4.835   7.988  1.00  0.00    -0.003 C 
ATOM     14  C   UNL     1      -0.046  -5.913   7.211  1.00  0.00     0.004 C 
ENDBRANCH  12  13
ENDBRANCH  11  12
ENDBRANCH  10  11
ENDBRANCH   9  10
ENDBRANCH   1   9
TORSDOF 9
ENDMDL
MODEL 6
REMARK VINA RESULT:    -4.534      2.656      3.973
REMARK INTER + INTRA:          -7.314
REMARK INTER:                  -6.581
REMARK INTRA:                  -0.733
REMARK UNBOUND:                -0.395
REMARK SMILES CCCCCCCCCC=CC(=O)[O-]
REMARK SMILES IDX 7 1 8 2 9 3 10 4 11 5 12 6 13 7 14 8 6 9 5 10 4 11 3 12 2 13
REMARK SMILES IDX 1 14
REMARK H PARENT
REMARK Flexibility Score: inf
ROOT
ATOM      1  C   UNL     1      -0.360  -6.927   6.778  1.00  0.00     0.000 C 
ENDROOT
BRANCH   1   2
ATOM      2  C   UNL     1      -1.516  -7.107   7.777  1.00  0.00     0.004 C 
BRANCH   2   3
ATOM      3  C   UNL     1      -1.954  -8.577   7.891  1.00  0.00     0.027 C 
BRANCH   3   4
ATOM      4  C   UNL     1      -2.894  -8.807   9.046  1.00  0.00    -0.025 C 
ATOM      5  C   UNL     1      -4.231  -8.689   9.010  1.00  0.00     0.020 C 
BRANCH   5   6
ATOM      6  C   UNL     1      -5.050  -8.267   7.855  1.00  0.00     0.064 C 
ATOM      7  O   UNL     1      -5.190  -7.057   7.540  1.00  0.00    -0.545 OA
ATOM      8  O   UNL     1      -5.704  -9.237   7.108  1.00  0.00    -0.545 OA
ENDBRANCH   5   6
ENDBRANCH   3   4
ENDBRANCH   2   3
ENDBRANCH   1   2
BRANCH   1   9
ATOM      9  C   UNL     1       0.425  -5.623   7.004  1.00  0.00     0.000 C 
BRANCH   9  10
ATOM     10  C   UNL     1      -0.235  -4.619   7.971  1.00  0.00     0.000 C 
BRANCH  10  11
ATOM     11  C   UNL     1       0.520  -4.391   9.292  1.00  0.00    -0.000 C 
BRANCH  11  12
ATOM     12  C   UNL     1       1.534  -5.502   9.599  1.00  0.00    -0.000 C 
BRANCH  12  13
ATOM     13  C   UNL     1       2.971  -4.976   9.503  1.00  0.00    -0.003 C 
ATOM     14  C   UNL     1       3.020  -3.464   9.698  1.00  0.00     0.004 C 
ENDBRANCH  12  13
ENDBRANCH  11  12
ENDBRANCH  10  11
ENDBRANCH   9  10
ENDBRANCH   1   9
TORSDOF 9
ENDMDL
MODEL 7
REMARK VINA RESULT:    -4.394      6.926      9.191
REMARK INTER + INTRA:          -7.101
REMARK INTER:                  -6.406
REMARK INTRA:                  -0.695
REMARK UNBOUND:                -0.395
REMARK SMILES CCCCCCCCCC=CC(=O)[O-]
REMARK SMILES IDX 7 1 8 2 9 3 10 4 11 5 12 6 13 7 14 8 6 9 5 10 4 11 3 12 2 13
REMARK SMILES IDX 1 14
REMARK H PARENT
REMARK Flexibility Score: inf
ROOT
ATOM      1  C   UNL     1       2.996  -3.954   9.667  1.00  0.00     0.000 C 
ENDROOT
BRANCH   1   2
ATOM      2  C   UNL     1       2.216  -2.702  10.104  1.00  0.00     0.004 C 
BRANCH   2   3
ATOM      3  C   UNL     1       2.986  -1.408   9.792  1.00  0.00     0.027 C 
BRANCH   3   4
ATOM      4  C   UNL     1       4.451  -1.517  10.125  1.00  0.00    -0.025 C 
ATOM      5  C   UNL     1       5.435  -0.760   9.613  1.00  0.00     0.020 C 
BRANCH   5   6
ATOM      6  C   UNL     1       5.294   0.299   8.592  1.00  0.00     0.064 C 
ATOM      7  O   UNL     1       5.204   0.037   7.364  1.00  0.00    -0.545 OA
ATOM      8  O   UNL     1       5.286   1.626   9.000  1.00  0.00    -0.545 OA
ENDBRANCH   5   6
ENDBRANCH   3   4
ENDBRANCH   2   3
ENDBRANCH   1   2
BRANCH   1   9
ATOM      9  C   UNL     1       2.161  -5.243   9.771  1.00  0.00     0.000 C 
BRANCH   9  10
ATOM     10  C   UNL     1       0.675  -5.034  10.124  1.00  0.00     0.000 C 
BRANCH  10  11
ATOM     11  C   UNL     1      -0.305  -5.203   8.950  1.00  0.00    -0.000 C 
BRANCH  11  12
ATOM     12  C   UNL     1       0.403  -5.343   7.596  1.00  0.00    -0.000 C 
BRANCH  12  13
ATOM     13  C   UNL     1      -0.298  -6.382   6.713  1.00  0.00    -0.003 C 
ATOM     14  C   UNL     1      -1.169  -7.316   7.547  1.00  0.00     0.004 C 
ENDBRANCH  12  13
ENDBRANCH  11  12
ENDBRANCH  10  11
ENDBRANCH   9  10
ENDBRANCH   1   9
TORSDOF 9
ENDMDL
MODEL 8
REMARK VINA RESULT:    -4.306      4.564      7.113
REMARK INTER + INTRA:          -6.966
REMARK INTER:                  -6.129
REMARK INTRA:                  -0.837
REMARK UNBOUND:                -0.395
REMARK SMILES CCCCCCCCCC=CC(=O)[O-]
REMARK SMILES IDX 7 1 8 2 9 3 10 4 11 5 12 6 13 7 14 8 6 9 5 10 4 11 3 12 2 13
REMARK SMILES IDX 1 14
REMARK H PARENT
REMARK Flexibility Score: inf
ROOT
ATOM      1  C   UNL     1      -1.302  -7.307   7.520  1.00  0.00     0.000 C 
ENDROOT
BRANCH   1   2
ATOM      2  C   UNL     1      -0.306  -6.376   6.808  1.00  0.00     0.004 C 
BRANCH   2   3
ATOM      3  C   UNL     1       0.001  -5.119   7.639  1.00  0.00     0.027 C 
BRANCH   3   4
ATOM      4  C   UNL     1       0.161  -5.426   9.106  1.00  0.00    -0.025 C 
ATOM      5  C   UNL     1       1.277  -5.250   9.832  1.00  0.00     0.020 C 
BRANCH   5   6
ATOM      6  C   UNL     1       2.583  -4.765   9.340  1.00  0.00     0.064 C 
ATOM      7  O   UNL     1       2.984  -3.591   9.552  1.00  0.00    -0.545 OA
ATOM      8  O   UNL     1       3.382  -5.625   8.599  1.00  0.00    -0.545 OA
ENDBRANCH   5   6
ENDBRANCH   3   4
ENDBRANCH   2   3
ENDBRANCH   1   2
BRANCH   1   9
ATOM      9  C   UNL     1      -1.125  -8.784   7.124  1.00  0.00     0.000 C 
BRANCH   9  10
ATOM     10  C   UNL     1      -1.964  -9.786   7.942  1.00  0.00     0.000 C 
BRANCH  10  11
ATOM     11  C   UNL     1      -2.715  -9.183   9.143  1.00  0.00    -0.000 C 
BRANCH  11  12
ATOM     12  C   UNL     1      -4.187  -9.612   9.203  1.00  0.00    -0.000 C 
BRANCH  12  13
ATOM     13  C   UNL     1      -4.943  -9.161   7.948  1.00  0.00    -0.003 C 
ATOM     14  C   UNL     1      -5.035  -7.640   7.876  1.00  0.00     0.004 C 
ENDBRANCH  12  13
ENDBRANCH  11  12
ENDBRANCH  10  11
ENDBRANCH   9  10
ENDBRANCH   1   9
TORSDOF 9
ENDMDL
MODEL 9
REMARK VINA RESULT:    -4.249      3.206      4.508
REMARK INTER + INTRA:          -6.880
REMARK INTER:                  -6.438
REMARK INTRA:                  -0.441
REMARK UNBOUND:                -0.395
REMARK SMILES CCCCCCCCCC=CC(=O)[O-]
REMARK SMILES IDX 7 1 8 2 9 3 10 4 11 5 12 6 13 7 14 8 6 9 5 10 4 11 3 12 2 13
REMARK SMILES IDX 1 14
REMARK H PARENT
REMARK Flexibility Score: inf
ROOT
ATOM      1  C   UNL     1       0.725  -5.622   7.369  1.00  0.00     0.000 C 
ENDROOT
BRANCH   1   2
ATOM      2  C   UNL     1      -0.375  -6.539   6.808  1.00  0.00     0.004 C 
BRANCH   2   3
ATOM      3  C   UNL     1      -1.475  -6.818   7.845  1.00  0.00     0.027 C 
BRANCH   3   4
ATOM      4  C   UNL     1      -1.869  -8.272   7.887  1.00  0.00    -0.025 C 
ATOM      5  C   UNL     1      -3.106  -8.748   8.100  1.00  0.00     0.020 C 
BRANCH   5   6
ATOM      6  C   UNL     1      -4.321  -7.956   8.381  1.00  0.00     0.064 C 
ATOM      7  O   UNL     1      -4.864  -7.230   7.507  1.00  0.00    -0.545 OA
ATOM      8  O   UNL     1      -4.867  -7.994   9.657  1.00  0.00    -0.545 OA
ENDBRANCH   5   6
ENDBRANCH   3   4
ENDBRANCH   2   3
ENDBRANCH   1   2
BRANCH   1   9
ATOM      9  C   UNL     1       0.497  -5.251   8.845  1.00  0.00     0.000 C 
BRANCH   9  10
ATOM     10  C   UNL     1       1.702  -5.495   9.775  1.00  0.00     0.000 C 
BRANCH  10  11
ATOM     11  C   UNL     1       2.882  -4.526   9.585  1.00  0.00    -0.000 C 
BRANCH  11  12
ATOM     12  C   UNL     1       2.501  -3.063   9.849  1.00  0.00    -0.000 C 
BRANCH  12  13
ATOM     13  C   UNL     1       3.746  -2.212  10.125  1.00  0.00    -0.003 C 
ATOM     14  C   UNL     1       3.429  -0.723  10.033  1.00  0.00     0.004 C 
ENDBRANCH  12  13
ENDBRANCH  11  12
ENDBRANCH  10  11
ENDBRANCH   9  10
ENDBRANCH   1   9
TORSDOF 9
ENDMDL
