MODEL 1
REMARK VINA RESULT:    -1.246      0.000      0.000
REMARK INTER + INTRA:          -1.355
REMARK INTER:                  -1.355
REMARK INTRA:                   0.000
REMARK UNBOUND:                 0.000
REMARK SMILES Cc1cc(O)c2c(c1)C(=O)c1cc(O)cc(O)c1C2=O
REMARK SMILES IDX 1 1 2 2 8 3 7 4 6 5 4 6 3 7 19 8 20 9 18 10 11 11 9 12 10 13
REMARK SMILES IDX 12 14 13 15 15 16 16 17 5 18 17 20 14 22
REMARK H PARENT 5 19 17 21 14 23
REMARK Flexibility Score: inf
ROOT
ATOM      1  C   UNL     1      30.107  21.167  14.126  1.00  0.00     0.044 C 
ATOM      2  C   UNL     1      28.675  20.962  14.522  1.00  0.00    -0.047 A 
ATOM      3  C   UNL     1      27.715  20.641  13.555  1.00  0.00     0.016 A 
ATOM      4  C   UNL     1      26.367  20.475  13.912  1.00  0.00     0.038 A 
ATOM      5  C   UNL     1      25.971  20.633  15.259  1.00  0.00     0.076 A 
ATOM      6  C   UNL     1      26.932  21.039  16.218  1.00  0.00     0.127 A 
ATOM      7  C   UNL     1      28.273  21.179  15.844  1.00  0.00     0.050 A 
ATOM      8  C   UNL     1      24.568  20.305  15.620  1.00  0.00     0.201 C 
ATOM      9  O   UNL     1      24.303  19.875  16.775  1.00  0.00    -0.288 OA
ATOM     10  C   UNL     1      23.516  20.304  14.572  1.00  0.00     0.076 A 
ATOM     11  C   UNL     1      23.916  20.150  13.225  1.00  0.00     0.041 A 
ATOM     12  C   UNL     1      25.356  20.144  12.879  1.00  0.00     0.194 C 
ATOM     13  O   UNL     1      25.721  19.881  11.699  1.00  0.00    -0.289 OA
ATOM     14  C   UNL     1      22.944  20.007  12.219  1.00  0.00     0.059 A 
ATOM     15  C   UNL     1      21.586  20.031  12.537  1.00  0.00     0.120 A 
ATOM     16  C   UNL     1      21.186  20.224  13.861  1.00  0.00     0.093 A 
ATOM     17  C   UNL     1      22.132  20.389  14.878  1.00  0.00     0.131 A 
ENDROOT
BRANCH   6  18
ATOM     18  O   UNL     1      26.597  21.350  17.539  1.00  0.00    -0.507 OA
ATOM     19  H   UNL     1      25.948  20.807  18.092  1.00  0.00     0.293 HD
ENDBRANCH   6  18
BRANCH  17  20
ATOM     20  O   UNL     1      21.657  20.669  16.161  1.00  0.00    -0.507 OA
ATOM     21  H   UNL     1      21.604  21.602  16.546  1.00  0.00     0.293 HD
ENDBRANCH  17  20
BRANCH  15  22
ATOM     22  O   UNL     1      20.641  19.875  11.525  1.00  0.00    -0.508 OA
ATOM     23  H   UNL     1      20.429  20.625  10.877  1.00  0.00     0.293 HD
ENDBRANCH  15  22
TORSDOF 3
ENDMDL
MODEL 2
REMARK VINA RESULT:    -0.721      1.369      5.482
REMARK INTER + INTRA:          -0.784
REMARK INTER:                  -0.784
REMARK INTRA:                   0.000
REMARK UNBOUND:                 0.000
REMARK SMILES Cc1cc(O)c2c(c1)C(=O)c1cc(O)cc(O)c1C2=O
REMARK SMILES IDX 1 1 2 2 8 3 7 4 6 5 4 6 3 7 19 8 20 9 18 10 11 11 9 12 10 13
REMARK SMILES IDX 12 14 13 15 15 16 16 17 5 18 17 20 14 22
REMARK H PARENT 5 19 17 21 14 23
REMARK Flexibility Score: inf
ROOT
ATOM      1  C   UNL     1      20.922  19.875  11.394  1.00  0.00     0.044 C 
ATOM      2  C   UNL     1      21.851  20.088  12.552  1.00  0.00    -0.047 A 
ATOM      3  C   UNL     1      23.236  20.096  12.351  1.00  0.00     0.016 A 
ATOM      4  C   UNL     1      24.116  20.267  13.433  1.00  0.00     0.038 A 
ATOM      5  C   UNL     1      23.602  20.431  14.739  1.00  0.00     0.076 A 
ATOM      6  C   UNL     1      22.202  20.337  14.947  1.00  0.00     0.127 A 
ATOM      7  C   UNL     1      21.345  20.188  13.852  1.00  0.00     0.050 A 
ATOM      8  C   UNL     1      24.554  20.756  15.832  1.00  0.00     0.201 C 
ATOM      9  O   UNL     1      24.168  21.446  16.813  1.00  0.00    -0.288 OA
ATOM     10  C   UNL     1      25.994  20.429  15.678  1.00  0.00     0.076 A 
ATOM     11  C   UNL     1      26.505  20.263  14.370  1.00  0.00     0.041 A 
ATOM     12  C   UNL     1      25.582  20.266  13.212  1.00  0.00     0.194 C 
ATOM     13  O   UNL     1      26.043  20.244  12.036  1.00  0.00    -0.289 OA
ATOM     14  C   UNL     1      27.886  20.089  14.176  1.00  0.00     0.059 A 
ATOM     15  C   UNL     1      28.757  20.065  15.265  1.00  0.00     0.120 A 
ATOM     16  C   UNL     1      28.253  20.189  16.561  1.00  0.00     0.093 A 
ATOM     17  C   UNL     1      26.881  20.343  16.783  1.00  0.00     0.131 A 
ENDROOT
BRANCH   6  18
ATOM     18  O   UNL     1      21.626  20.350  16.219  1.00  0.00    -0.507 OA
ATOM     19  H   UNL     1      20.890  20.988  16.492  1.00  0.00     0.293 HD
ENDBRANCH   6  18
BRANCH  17  20
ATOM     20  O   UNL     1      26.442  20.367  18.109  1.00  0.00    -0.507 OA
ATOM     21  H   UNL     1      25.474  20.486  18.374  1.00  0.00     0.293 HD
ENDBRANCH  17  20
BRANCH  15  22
ATOM     22  O   UNL     1      30.125  19.905  15.047  1.00  0.00    -0.508 OA
ATOM     23  H   UNL     1      30.812  20.315  15.667  1.00  0.00     0.293 HD
ENDBRANCH  15  22
TORSDOF 3
ENDMDL
MODEL 3
REMARK VINA RESULT:     1.193      1.961      5.437
REMARK INTER + INTRA:           1.298
REMARK INTER:                   1.298
REMARK INTRA:                   0.000
REMARK UNBOUND:                 0.000
REMARK SMILES Cc1cc(O)c2c(c1)C(=O)c1cc(O)cc(O)c1C2=O
REMARK SMILES IDX 1 1 2 2 8 3 7 4 6 5 4 6 3 7 19 8 20 9 18 10 11 11 9 12 10 13
REMARK SMILES IDX 12 14 13 15 15 16 16 17 5 18 17 20 14 22
REMARK H PARENT 5 19 17 21 14 23
REMARK Flexibility Score: inf
ROOT
ATOM      1  C   UNL     1      21.450  19.888  15.218  1.00  0.00     0.044 C 
ATOM      2  C   UNL     1      22.931  20.109  15.142  1.00  0.00    -0.047 A 
ATOM      3  C   UNL     1      23.582  20.099  13.903  1.00  0.00     0.016 A 
ATOM      4  C   UNL     1      24.974  20.278  13.823  1.00  0.00     0.038 A 
ATOM      5  C   UNL     1      25.727  20.469  15.003  1.00  0.00     0.076 A 
ATOM      6  C   UNL     1      25.074  20.395  16.260  1.00  0.00     0.127 A 
ATOM      7  C   UNL     1      23.685  20.237  16.313  1.00  0.00     0.050 A 
ATOM      8  C   UNL     1      27.169  20.802  14.869  1.00  0.00     0.201 C 
ATOM      9  O   UNL     1      27.732  21.513  15.744  1.00  0.00    -0.288 OA
ATOM     10  C   UNL     1      27.893  20.457  13.619  1.00  0.00     0.076 A 
ATOM     11  C   UNL     1      27.136  20.262  12.441  1.00  0.00     0.041 A 
ATOM     12  C   UNL     1      25.656  20.257  12.507  1.00  0.00     0.194 C 
ATOM     13  O   UNL     1      24.976  20.210  11.444  1.00  0.00    -0.289 OA
ATOM     14  C   UNL     1      27.791  20.070  11.213  1.00  0.00     0.059 A 
ATOM     15  C   UNL     1      29.184  20.054  11.148  1.00  0.00     0.120 A 
ATOM     16  C   UNL     1      29.936  20.206  12.315  1.00  0.00     0.093 A 
ATOM     17  C   UNL     1      29.308  20.378  13.553  1.00  0.00     0.131 A 
ENDROOT
BRANCH   6  18
ATOM     18  O   UNL     1      25.764  20.436  17.473  1.00  0.00    -0.507 OA
ATOM     19  H   UNL     1      25.786  19.667  18.129  1.00  0.00     0.293 HD
ENDBRANCH   6  18
BRANCH  17  20
ATOM     20  O   UNL     1      30.123  20.430  14.686  1.00  0.00    -0.507 OA
ATOM     21  H   UNL     1      30.683  21.234  14.934  1.00  0.00     0.293 HD
ENDBRANCH  17  20
BRANCH  15  22
ATOM     22  O   UNL     1      29.812  19.875   9.916  1.00  0.00    -0.508 OA
ATOM     23  H   UNL     1      29.306  19.532   9.108  1.00  0.00     0.293 HD
ENDBRANCH  15  22
TORSDOF 3
ENDMDL
MODEL 4
REMARK VINA RESULT:     1.334      1.395      6.229
REMARK INTER + INTRA:           1.451
REMARK INTER:                   1.451
REMARK INTRA:                   0.000
REMARK UNBOUND:                 0.000
REMARK SMILES Cc1cc(O)c2c(c1)C(=O)c1cc(O)cc(O)c1C2=O
REMARK SMILES IDX 1 1 2 2 8 3 7 4 6 5 4 6 3 7 19 8 20 9 18 10 11 11 9 12 10 13
REMARK SMILES IDX 12 14 13 15 15 16 16 17 5 18 17 20 14 22
REMARK H PARENT 5 19 17 21 14 23
REMARK Flexibility Score: inf
ROOT
ATOM      1  C   UNL     1      20.201  20.253  15.873  1.00  0.00     0.044 C 
ATOM      2  C   UNL     1      21.481  20.285  15.090  1.00  0.00    -0.047 A 
ATOM      3  C   UNL     1      22.712  20.185  15.748  1.00  0.00     0.016 A 
ATOM      4  C   UNL     1      23.916  20.241  15.028  1.00  0.00     0.038 A 
ATOM      5  C   UNL     1      23.889  20.400  13.624  1.00  0.00     0.076 A 
ATOM      6  C   UNL     1      22.643  20.585  12.974  1.00  0.00     0.127 A 
ATOM      7  C   UNL     1      21.456  20.504  13.709  1.00  0.00     0.050 A 
ATOM      8  C   UNL     1      25.173  20.307  12.882  1.00  0.00     0.201 C 
ATOM      9  O   UNL     1      25.182  19.875  11.698  1.00  0.00    -0.288 OA
ATOM     10  C   UNL     1      26.455  20.542  13.593  1.00  0.00     0.076 A 
ATOM     11  C   UNL     1      26.479  20.385  14.998  1.00  0.00     0.041 A 
ATOM     12  C   UNL     1      25.216  20.143  15.734  1.00  0.00     0.194 C 
ATOM     13  O   UNL     1      25.245  19.877  16.968  1.00  0.00    -0.289 OA
ATOM     14  C   UNL     1      27.699  20.464  15.690  1.00  0.00     0.059 A 
ATOM     15  C   UNL     1      28.888  20.711  15.004  1.00  0.00     0.120 A 
ATOM     16  C   UNL     1      28.865  20.907  13.621  1.00  0.00     0.093 A 
ATOM     17  C   UNL     1      27.661  20.853  12.912  1.00  0.00     0.131 A 
ENDROOT
BRANCH   6  18
ATOM     18  O   UNL     1      22.538  20.885  11.613  1.00  0.00    -0.507 OA
ATOM     19  H   UNL     1      22.247  20.215  10.914  1.00  0.00     0.293 HD
ENDBRANCH   6  18
BRANCH  17  20
ATOM     20  O   UNL     1      27.704  21.150  11.547  1.00  0.00    -0.507 OA
ATOM     21  H   UNL     1      28.181  21.956  11.167  1.00  0.00     0.293 HD
ENDBRANCH  17  20
BRANCH  15  22
ATOM     22  O   UNL     1      30.088  20.772  15.710  1.00  0.00    -0.508 OA
ATOM     23  H   UNL     1      30.440  19.975  16.228  1.00  0.00     0.293 HD
ENDBRANCH  15  22
TORSDOF 3
ENDMDL
MODEL 5
REMARK VINA RESULT:     1.334      1.311      3.257
REMARK INTER + INTRA:           1.451
REMARK INTER:                   1.451
REMARK INTRA:                   0.000
REMARK UNBOUND:                 0.000
REMARK SMILES Cc1cc(O)c2c(c1)C(=O)c1cc(O)cc(O)c1C2=O
REMARK SMILES IDX 1 1 2 2 8 3 7 4 6 5 4 6 3 7 19 8 20 9 18 10 11 11 9 12 10 13
REMARK SMILES IDX 12 14 13 15 15 16 16 17 5 18 17 20 14 22
REMARK H PARENT 5 19 17 21 14 23
REMARK Flexibility Score: inf
ROOT
ATOM      1  C   UNL     1      30.123  20.034  16.884  1.00  0.00     0.044 C 
ATOM      2  C   UNL     1      28.966  20.132  15.935  1.00  0.00    -0.047 A 
ATOM      3  C   UNL     1      27.659  20.240  16.426  1.00  0.00     0.016 A 
ATOM      4  C   UNL     1      26.566  20.305  15.546  1.00  0.00     0.038 A 
ATOM      5  C   UNL     1      26.783  20.260  14.151  1.00  0.00     0.076 A 
ATOM      6  C   UNL     1      28.100  20.067  13.662  1.00  0.00     0.127 A 
ATOM      7  C   UNL     1      29.175  20.026  14.556  1.00  0.00     0.050 A 
ATOM      8  C   UNL     1      25.620  20.480  13.253  1.00  0.00     0.201 C 
ATOM      9  O   UNL     1      25.793  21.008  12.122  1.00  0.00    -0.288 OA
ATOM     10  C   UNL     1      24.243  20.253  13.759  1.00  0.00     0.076 A 
ATOM     11  C   UNL     1      24.030  20.294  15.157  1.00  0.00     0.041 A 
ATOM     12  C   UNL     1      25.185  20.410  16.076  1.00  0.00     0.194 C 
ATOM     13  O   UNL     1      24.995  20.574  17.313  1.00  0.00    -0.289 OA
ATOM     14  C   UNL     1      22.722  20.220  15.667  1.00  0.00     0.059 A 
ATOM     15  C   UNL     1      21.632  20.092  14.807  1.00  0.00     0.120 A 
ATOM     16  C   UNL     1      21.840  20.010  13.428  1.00  0.00     0.093 A 
ATOM     17  C   UNL     1      23.133  20.060  12.896  1.00  0.00     0.131 A 
ENDROOT
BRANCH   6  18
ATOM     18  O   UNL     1      28.382  19.875  12.307  1.00  0.00    -0.507 OA
ATOM     19  H   UNL     1      28.328  18.976  11.848  1.00  0.00     0.293 HD
ENDBRANCH   6  18
BRANCH  17  20
ATOM     20  O   UNL     1      23.269  19.879  11.517  1.00  0.00    -0.507 OA
ATOM     21  H   UNL     1      23.972  19.286  11.099  1.00  0.00     0.293 HD
ENDBRANCH  17  20
BRANCH  15  22
ATOM     22  O   UNL     1      20.344  20.033  15.335  1.00  0.00    -0.508 OA
ATOM     23  H   UNL     1      19.531  19.923  14.740  1.00  0.00     0.293 HD
ENDBRANCH  15  22
TORSDOF 3
ENDMDL
MODEL 6
REMARK VINA RESULT:     1.497      2.561      5.356
REMARK INTER + INTRA:           1.628
REMARK INTER:                   1.628
REMARK INTRA:                   0.000
REMARK UNBOUND:                 0.000
REMARK SMILES Cc1cc(O)c2c(c1)C(=O)c1cc(O)cc(O)c1C2=O
REMARK SMILES IDX 1 1 2 2 8 3 7 4 6 5 4 6 3 7 19 8 20 9 18 10 11 11 9 12 10 13
REMARK SMILES IDX 12 14 13 15 15 16 16 17 5 18 17 20 14 22
REMARK H PARENT 5 19 17 21 14 23
REMARK Flexibility Score: inf
ROOT
ATOM      1  C   UNL     1      29.918  20.439   8.491  1.00  0.00     0.044 C 
ATOM      2  C   UNL     1      28.927  20.464   9.616  1.00  0.00    -0.047 A 
ATOM      3  C   UNL     1      29.362  20.635  10.935  1.00  0.00     0.016 A 
ATOM      4  C   UNL     1      28.444  20.632  11.999  1.00  0.00     0.038 A 
ATOM      5  C   UNL     1      27.067  20.453  11.738  1.00  0.00     0.076 A 
ATOM      6  C   UNL     1      26.642  20.197  10.410  1.00  0.00     0.127 A 
ATOM      7  C   UNL     1      27.571  20.226   9.365  1.00  0.00     0.050 A 
ATOM      8  C   UNL     1      26.114  20.604  12.869  1.00  0.00     0.201 C 
ATOM      9  O   UNL     1      24.945  21.021  12.651  1.00  0.00    -0.288 OA
ATOM     10  C   UNL     1      26.594  20.444  14.265  1.00  0.00     0.076 A 
ATOM     11  C   UNL     1      27.973  20.619  14.521  1.00  0.00     0.041 A 
ATOM     12  C   UNL     1      28.915  20.805  13.394  1.00  0.00     0.194 C 
ATOM     13  O   UNL     1      30.125  21.087  13.621  1.00  0.00    -0.289 OA
ATOM     14  C   UNL     1      28.444  20.612  15.845  1.00  0.00     0.059 A 
ATOM     15  C   UNL     1      27.564  20.418  16.910  1.00  0.00     0.120 A 
ATOM     16  C   UNL     1      26.207  20.204  16.659  1.00  0.00     0.093 A 
ATOM     17  C   UNL     1      25.716  20.186  15.350  1.00  0.00     0.131 A 
ENDROOT
BRANCH   6  18
ATOM     18  O   UNL     1      25.321  19.875  10.089  1.00  0.00    -0.507 OA
ATOM     19  H   UNL     1      25.068  19.202   9.378  1.00  0.00     0.293 HD
ENDBRANCH   6  18
BRANCH  17  20
ATOM     20  O   UNL     1      24.365  19.875  15.173  1.00  0.00    -0.507 OA
ATOM     21  H   UNL     1      23.905  19.105  15.638  1.00  0.00     0.293 HD
ENDBRANCH  17  20
BRANCH  15  22
ATOM     22  O   UNL     1      28.053  20.427  18.215  1.00  0.00    -0.508 OA
ATOM     23  H   UNL     1      28.758  21.091  18.513  1.00  0.00     0.293 HD
ENDBRANCH  15  22
TORSDOF 3
ENDMDL
