MODEL 1
REMARK VINA RESULT:    -3.838      0.000      0.000
REMARK INTER + INTRA:          -9.844
REMARK INTER:                  -7.204
REMARK INTRA:                  -2.640
REMARK UNBOUND:                -2.640
REMARK SMILES CCCCCC=CCC=CCCCCCCCC(=O)OC
REMARK SMILES IDX 11 1 10 2 9 3 8 4 7 5 6 6 5 7 4 8 3 9 2 10 1 11 12 12 13 13
REMARK SMILES IDX 14 14 15 15 16 16 17 17 18 18 19 19 20 20 21 21
REMARK H PARENT
REMARK Flexibility Score: inf
ROOT
ATOM      1  C   UNL     1     -12.855  -8.965  92.383  1.00  0.00     0.027 C 
ENDROOT
BRANCH   1   2
ATOM      2  C   UNL     1     -13.178  -8.412  91.016  1.00  0.00    -0.031 C 
ATOM      3  C   UNL     1     -12.839  -9.002  89.854  1.00  0.00    -0.027 C 
BRANCH   3   4
ATOM      4  C   UNL     1     -12.157 -10.342  89.742  1.00  0.00     0.054 C 
BRANCH   4   5
ATOM      5  C   UNL     1     -10.759 -10.199  89.206  1.00  0.00    -0.027 C 
ATOM      6  C   UNL     1      -9.691 -10.220  90.016  1.00  0.00    -0.031 C 
BRANCH   6   7
ATOM      7  C   UNL     1      -8.292 -10.075  89.480  1.00  0.00     0.027 C 
BRANCH   7   8
ATOM      8  C   UNL     1      -7.807  -8.622  89.589  1.00  0.00     0.004 C 
BRANCH   8   9
ATOM      9  C   UNL     1      -8.428  -7.879  90.781  1.00  0.00     0.000 C 
BRANCH   9  10
ATOM     10  C   UNL     1      -7.383  -7.465  91.828  1.00  0.00    -0.003 C 
ATOM     11  C   UNL     1      -7.290  -8.495  92.951  1.00  0.00     0.004 C 
ENDBRANCH   9  10
ENDBRANCH   8   9
ENDBRANCH   7   8
ENDBRANCH   6   7
ENDBRANCH   4   5
ENDBRANCH   3   4
ENDBRANCH   1   2
BRANCH   1  12
ATOM     12  C   UNL     1     -11.466  -8.524  92.869  1.00  0.00     0.004 C 
BRANCH  12  13
ATOM     13  C   UNL     1     -10.694  -9.677  93.536  1.00  0.00     0.000 C 
BRANCH  13  14
ATOM     14  C   UNL     1     -11.389 -11.035  93.352  1.00  0.00     0.000 C 
BRANCH  14  15
ATOM     15  C   UNL     1     -11.133 -11.993  94.530  1.00  0.00     0.001 C 
BRANCH  15  16
ATOM     16  C   UNL     1     -11.800 -11.517  95.831  1.00  0.00     0.012 C 
BRANCH  16  17
ATOM     17  C   UNL     1     -13.293 -11.217  95.649  1.00  0.00     0.123 C 
BRANCH  17  18
ATOM     18  C   UNL     1     -13.655  -9.938  96.336  1.00  0.00     0.305 C 
ATOM     19  O   UNL     1     -13.099  -8.860  95.986  1.00  0.00    -0.252 OA
BRANCH  18  20
ATOM     20  O   UNL     1     -14.574  -9.959  97.388  1.00  0.00    -0.469 OA
ATOM     21  C   UNL     1     -15.754  -9.163  97.390  1.00  0.00     0.282 C 
ENDBRANCH  18  20
ENDBRANCH  17  18
ENDBRANCH  16  17
ENDBRANCH  15  16
ENDBRANCH  14  15
ENDBRANCH  13  14
ENDBRANCH  12  13
ENDBRANCH   1  12
TORSDOF 15
ENDMDL
MODEL 2
REMARK VINA RESULT:    -3.811      1.557      3.114
REMARK INTER + INTRA:          -9.793
REMARK INTER:                  -7.450
REMARK INTRA:                  -2.343
REMARK UNBOUND:                -2.640
REMARK SMILES CCCCCC=CCC=CCCCCCCCC(=O)OC
REMARK SMILES IDX 11 1 10 2 9 3 8 4 7 5 6 6 5 7 4 8 3 9 2 10 1 11 12 12 13 13
REMARK SMILES IDX 14 14 15 15 16 16 17 17 18 18 19 19 20 20 21 21
REMARK H PARENT
REMARK Flexibility Score: inf
ROOT
ATOM      1  C   UNL     1     -12.788 -10.212  91.946  1.00  0.00     0.027 C 
ENDROOT
BRANCH   1   2
ATOM      2  C   UNL     1     -12.519  -8.885  92.614  1.00  0.00    -0.031 C 
ATOM      3  C   UNL     1     -11.492  -8.645  93.450  1.00  0.00    -0.027 C 
BRANCH   3   4
ATOM      4  C   UNL     1     -10.409  -9.640  93.784  1.00  0.00     0.054 C 
BRANCH   4   5
ATOM      5  C   UNL     1      -9.272  -9.557  92.803  1.00  0.00    -0.027 C 
ATOM      6  C   UNL     1      -8.868  -8.384  92.293  1.00  0.00    -0.031 C 
BRANCH   6   7
ATOM      7  C   UNL     1      -7.731  -8.301  91.311  1.00  0.00     0.027 C 
BRANCH   7   8
ATOM      8  C   UNL     1      -8.215  -8.588  89.882  1.00  0.00     0.004 C 
BRANCH   8   9
ATOM      9  C   UNL     1      -7.644  -9.897  89.317  1.00  0.00     0.000 C 
BRANCH   9  10
ATOM     10  C   UNL     1      -8.735 -10.936  89.016  1.00  0.00    -0.003 C 
ATOM     11  C   UNL     1     -10.124 -10.380  89.320  1.00  0.00     0.004 C 
ENDBRANCH   9  10
ENDBRANCH   8   9
ENDBRANCH   7   8
ENDBRANCH   6   7
ENDBRANCH   4   5
ENDBRANCH   3   4
ENDBRANCH   1   2
BRANCH   1  12
ATOM     12  C   UNL     1     -14.248 -10.659  92.121  1.00  0.00     0.004 C 
BRANCH  12  13
ATOM     13  C   UNL     1     -14.558 -11.068  93.572  1.00  0.00     0.000 C 
BRANCH  13  14
ATOM     14  C   UNL     1     -13.508 -12.029  94.151  1.00  0.00     0.000 C 
BRANCH  14  15
ATOM     15  C   UNL     1     -12.997 -11.582  95.534  1.00  0.00     0.001 C 
BRANCH  15  16
ATOM     16  C   UNL     1     -13.659 -10.279  96.011  1.00  0.00     0.012 C 
BRANCH  16  17
ATOM     17  C   UNL     1     -13.098  -9.795  97.355  1.00  0.00     0.123 C 
BRANCH  17  18
ATOM     18  C   UNL     1     -13.922 -10.328  98.485  1.00  0.00     0.305 C 
ATOM     19  O   UNL     1     -13.652 -11.458  98.978  1.00  0.00    -0.252 OA
BRANCH  18  20
ATOM     20  O   UNL     1     -15.010  -9.586  98.952  1.00  0.00    -0.469 OA
ATOM     21  C   UNL     1     -14.961  -8.173  99.113  1.00  0.00     0.282 C 
ENDBRANCH  18  20
ENDBRANCH  17  18
ENDBRANCH  16  17
ENDBRANCH  15  16
ENDBRANCH  14  15
ENDBRANCH  13  14
ENDBRANCH  12  13
ENDBRANCH   1  12
TORSDOF 15
ENDMDL
MODEL 3
REMARK VINA RESULT:    -3.736      1.670      3.506
REMARK INTER + INTRA:          -9.653
REMARK INTER:                  -7.128
REMARK INTRA:                  -2.524
REMARK UNBOUND:                -2.640
REMARK SMILES CCCCCC=CCC=CCCCCCCCC(=O)OC
REMARK SMILES IDX 11 1 10 2 9 3 8 4 7 5 6 6 5 7 4 8 3 9 2 10 1 11 12 12 13 13
REMARK SMILES IDX 14 14 15 15 16 16 17 17 18 18 19 19 20 20 21 21
REMARK H PARENT
REMARK Flexibility Score: inf
ROOT
ATOM      1  C   UNL     1     -10.457 -10.224  89.160  1.00  0.00     0.027 C 
ENDROOT
BRANCH   1   2
ATOM      2  C   UNL     1      -9.024 -10.643  89.387  1.00  0.00    -0.031 C 
ATOM      3  C   UNL     1      -7.985  -9.791  89.477  1.00  0.00    -0.027 C 
BRANCH   3   4
ATOM      4  C   UNL     1      -8.105  -8.288  89.448  1.00  0.00     0.054 C 
BRANCH   4   5
ATOM      5  C   UNL     1      -7.852  -7.695  90.806  1.00  0.00    -0.027 C 
ATOM      6  C   UNL     1      -7.420  -8.445  91.831  1.00  0.00    -0.031 C 
BRANCH   6   7
ATOM      7  C   UNL     1      -7.168  -7.852  93.191  1.00  0.00     0.027 C 
BRANCH   7   8
ATOM      8  C   UNL     1      -7.807  -6.460  93.312  1.00  0.00     0.004 C 
BRANCH   8   9
ATOM      9  C   UNL     1      -6.776  -5.359  93.603  1.00  0.00     0.000 C 
BRANCH   9  10
ATOM     10  C   UNL     1      -5.531  -5.466  92.711  1.00  0.00    -0.003 C 
ATOM     11  C   UNL     1      -5.691  -4.635  91.440  1.00  0.00     0.004 C 
ENDBRANCH   9  10
ENDBRANCH   8   9
ENDBRANCH   7   8
ENDBRANCH   6   7
ENDBRANCH   4   5
ENDBRANCH   3   4
ENDBRANCH   1   2
BRANCH   1  12
ATOM     12  C   UNL     1     -11.285 -10.282  90.453  1.00  0.00     0.004 C 
BRANCH  12  13
ATOM     13  C   UNL     1     -11.433  -8.896  91.108  1.00  0.00     0.000 C 
BRANCH  13  14
ATOM     14  C   UNL     1     -10.936  -8.875  92.562  1.00  0.00     0.000 C 
BRANCH  14  15
ATOM     15  C   UNL     1     -10.400 -10.243  93.022  1.00  0.00     0.001 C 
BRANCH  15  16
ATOM     16  C   UNL     1     -11.252 -10.862  94.142  1.00  0.00     0.012 C 
BRANCH  16  17
ATOM     17  C   UNL     1     -12.285  -9.877  94.704  1.00  0.00     0.123 C 
BRANCH  17  18
ATOM     18  C   UNL     1     -13.478 -10.616  95.226  1.00  0.00     0.305 C 
ATOM     19  O   UNL     1     -14.588 -10.512  94.634  1.00  0.00    -0.252 OA
BRANCH  18  20
ATOM     20  O   UNL     1     -13.358 -11.380  96.390  1.00  0.00    -0.469 OA
ATOM     21  C   UNL     1     -12.979 -10.815  97.640  1.00  0.00     0.282 C 
ENDBRANCH  18  20
ENDBRANCH  17  18
ENDBRANCH  16  17
ENDBRANCH  15  16
ENDBRANCH  14  15
ENDBRANCH  13  14
ENDBRANCH  12  13
ENDBRANCH   1  12
TORSDOF 15
ENDMDL
MODEL 4
REMARK VINA RESULT:    -3.732      1.914      4.696
REMARK INTER + INTRA:          -9.645
REMARK INTER:                  -6.655
REMARK INTRA:                  -2.990
REMARK UNBOUND:                -2.640
REMARK SMILES CCCCCC=CCC=CCCCCCCCC(=O)OC
REMARK SMILES IDX 11 1 10 2 9 3 8 4 7 5 6 6 5 7 4 8 3 9 2 10 1 11 12 12 13 13
REMARK SMILES IDX 14 14 15 15 16 16 17 17 18 18 19 19 20 20 21 21
REMARK H PARENT
REMARK Flexibility Score: inf
ROOT
ATOM      1  C   UNL     1      -9.237 -10.991  89.469  1.00  0.00     0.027 C 
ENDROOT
BRANCH   1   2
ATOM      2  C   UNL     1      -8.007 -10.237  89.021  1.00  0.00    -0.031 C 
ATOM      3  C   UNL     1      -7.553  -9.108  89.596  1.00  0.00    -0.027 C 
BRANCH   3   4
ATOM      4  C   UNL     1      -8.155  -8.469  90.823  1.00  0.00     0.054 C 
BRANCH   4   5
ATOM      5  C   UNL     1      -8.806  -7.156  90.489  1.00  0.00    -0.027 C 
ATOM      6  C   UNL     1      -9.421  -6.955  89.313  1.00  0.00    -0.031 C 
BRANCH   6   7
ATOM      7  C   UNL     1     -10.072  -5.640  88.979  1.00  0.00     0.027 C 
BRANCH   7   8
ATOM      8  C   UNL     1     -11.513  -5.847  88.492  1.00  0.00     0.004 C 
BRANCH   8   9
ATOM      9  C   UNL     1     -11.761  -7.268  87.963  1.00  0.00     0.000 C 
BRANCH   9  10
ATOM     10  C   UNL     1     -12.851  -7.315  86.883  1.00  0.00    -0.003 C 
ATOM     11  C   UNL     1     -13.771  -8.517  87.080  1.00  0.00     0.004 C 
ENDBRANCH   9  10
ENDBRANCH   8   9
ENDBRANCH   7   8
ENDBRANCH   6   7
ENDBRANCH   4   5
ENDBRANCH   3   4
ENDBRANCH   1   2
BRANCH   1  12
ATOM     12  C   UNL     1     -10.466 -10.648  88.613  1.00  0.00     0.004 C 
BRANCH  12  13
ATOM     13  C   UNL     1     -11.748 -10.541  89.460  1.00  0.00     0.000 C 
BRANCH  13  14
ATOM     14  C   UNL     1     -11.457 -10.191  90.928  1.00  0.00     0.000 C 
BRANCH  14  15
ATOM     15  C   UNL     1     -12.003  -8.806  91.323  1.00  0.00     0.001 C 
BRANCH  15  16
ATOM     16  C   UNL     1     -11.521  -8.360  92.713  1.00  0.00     0.012 C 
BRANCH  16  17
ATOM     17  C   UNL     1     -10.888  -9.507  93.511  1.00  0.00     0.123 C 
BRANCH  17  18
ATOM     18  C   UNL     1     -11.783  -9.912  94.640  1.00  0.00     0.305 C 
ATOM     19  O   UNL     1     -11.315 -10.004  95.808  1.00  0.00    -0.252 OA
BRANCH  18  20
ATOM     20  O   UNL     1     -13.119 -10.228  94.378  1.00  0.00    -0.469 OA
ATOM     21  C   UNL     1     -14.137 -10.127  95.367  1.00  0.00     0.282 C 
ENDBRANCH  18  20
ENDBRANCH  17  18
ENDBRANCH  16  17
ENDBRANCH  15  16
ENDBRANCH  14  15
ENDBRANCH  13  14
ENDBRANCH  12  13
ENDBRANCH   1  12
TORSDOF 15
ENDMDL
MODEL 5
REMARK VINA RESULT:    -3.709      3.141      6.685
REMARK INTER + INTRA:          -9.602
REMARK INTER:                  -7.436
REMARK INTRA:                  -2.166
REMARK UNBOUND:                -2.640
REMARK SMILES CCCCCC=CCC=CCCCCCCCC(=O)OC
REMARK SMILES IDX 11 1 10 2 9 3 8 4 7 5 6 6 5 7 4 8 3 9 2 10 1 11 12 12 13 13
REMARK SMILES IDX 14 14 15 15 16 16 17 17 18 18 19 19 20 20 21 21
REMARK H PARENT
REMARK Flexibility Score: inf
ROOT
ATOM      1  C   UNL     1      -7.732  -8.757  89.680  1.00  0.00     0.027 C 
ENDROOT
BRANCH   1   2
ATOM      2  C   UNL     1      -7.932 -10.158  89.155  1.00  0.00    -0.031 C 
ATOM      3  C   UNL     1      -9.132 -10.742  88.974  1.00  0.00    -0.027 C 
BRANCH   3   4
ATOM      4  C   UNL     1     -10.458 -10.058  89.190  1.00  0.00     0.054 C 
BRANCH   4   5
ATOM      5  C   UNL     1     -11.078 -10.473  90.496  1.00  0.00    -0.027 C 
ATOM      6  C   UNL     1     -11.240  -9.604  91.505  1.00  0.00    -0.031 C 
BRANCH   6   7
ATOM      7  C   UNL     1     -11.860 -10.020  92.811  1.00  0.00     0.027 C 
BRANCH   7   8
ATOM      8  C   UNL     1     -10.828 -10.711  93.715  1.00  0.00     0.004 C 
BRANCH   8   9
ATOM      9  C   UNL     1     -11.434 -11.866  94.528  1.00  0.00     0.000 C 
BRANCH   9  10
ATOM     10  C   UNL     1     -12.829 -11.534  95.076  1.00  0.00    -0.003 C 
ATOM     11  C   UNL     1     -12.830 -11.514  96.603  1.00  0.00     0.004 C 
ENDBRANCH   9  10
ENDBRANCH   8   9
ENDBRANCH   7   8
ENDBRANCH   6   7
ENDBRANCH   4   5
ENDBRANCH   3   4
ENDBRANCH   1   2
BRANCH   1  12
ATOM     12  C   UNL     1      -7.662  -8.721  91.214  1.00  0.00     0.004 C 
BRANCH  12  13
ATOM     13  C   UNL     1      -8.416  -7.513  91.800  1.00  0.00     0.000 C 
BRANCH  13  14
ATOM     14  C   UNL     1      -7.839  -6.171  91.324  1.00  0.00     0.000 C 
BRANCH  14  15
ATOM     15  C   UNL     1      -8.899  -5.278  90.653  1.00  0.00     0.001 C 
BRANCH  15  16
ATOM     16  C   UNL     1     -10.145  -6.068  90.221  1.00  0.00     0.012 C 
BRANCH  16  17
ATOM     17  C   UNL     1     -10.220  -6.259  88.700  1.00  0.00     0.123 C 
BRANCH  17  18
ATOM     18  C   UNL     1     -11.640  -6.454  88.270  1.00  0.00     0.305 C 
ATOM     19  O   UNL     1     -11.902  -7.220  87.301  1.00  0.00    -0.252 OA
BRANCH  18  20
ATOM     20  O   UNL     1     -12.658  -5.750  88.919  1.00  0.00    -0.469 OA
ATOM     21  C   UNL     1     -13.742  -5.152  88.217  1.00  0.00     0.282 C 
ENDBRANCH  18  20
ENDBRANCH  17  18
ENDBRANCH  16  17
ENDBRANCH  15  16
ENDBRANCH  14  15
ENDBRANCH  13  14
ENDBRANCH  12  13
ENDBRANCH   1  12
TORSDOF 15
ENDMDL
MODEL 6
REMARK VINA RESULT:    -3.672      2.934      7.035
REMARK INTER + INTRA:          -9.532
REMARK INTER:                  -7.096
REMARK INTRA:                  -2.436
REMARK UNBOUND:                -2.640
REMARK SMILES CCCCCC=CCC=CCCCCCCCC(=O)OC
REMARK SMILES IDX 11 1 10 2 9 3 8 4 7 5 6 6 5 7 4 8 3 9 2 10 1 11 12 12 13 13
REMARK SMILES IDX 14 14 15 15 16 16 17 17 18 18 19 19 20 20 21 21
REMARK H PARENT
REMARK Flexibility Score: inf
ROOT
ATOM      1  C   UNL     1     -13.628 -10.093  92.584  1.00  0.00     0.027 C 
ENDROOT
BRANCH   1   2
ATOM      2  C   UNL     1     -14.219 -11.313  93.249  1.00  0.00    -0.031 C 
ATOM      3  C   UNL     1     -13.529 -12.168  94.027  1.00  0.00    -0.027 C 
BRANCH   3   4
ATOM      4  C   UNL     1     -12.083 -11.993  94.418  1.00  0.00     0.054 C 
BRANCH   4   5
ATOM      5  C   UNL     1     -11.957 -11.249  95.719  1.00  0.00    -0.027 C 
ATOM      6  C   UNL     1     -12.843 -11.414  96.712  1.00  0.00    -0.031 C 
BRANCH   6   7
ATOM      7  C   UNL     1     -12.717 -10.668  98.013  1.00  0.00     0.027 C 
BRANCH   7   8
ATOM      8  C   UNL     1     -14.012 -10.765  98.832  1.00  0.00     0.004 C 
BRANCH   8   9
ATOM      9  C   UNL     1     -14.873  -9.497  98.729  1.00  0.00     0.000 C 
BRANCH   9  10
ATOM     10  C   UNL     1     -15.523  -9.335  97.347  1.00  0.00    -0.003 C 
ATOM     11  C   UNL     1     -15.152  -7.995  96.717  1.00  0.00     0.004 C 
ENDBRANCH   9  10
ENDBRANCH   8   9
ENDBRANCH   7   8
ENDBRANCH   6   7
ENDBRANCH   4   5
ENDBRANCH   3   4
ENDBRANCH   1   2
BRANCH   1  12
ATOM     12  C   UNL     1     -13.845  -8.820  93.417  1.00  0.00     0.004 C 
BRANCH  12  13
ATOM     13  C   UNL     1     -12.652  -7.852  93.314  1.00  0.00     0.000 C 
BRANCH  13  14
ATOM     14  C   UNL     1     -11.775  -7.862  94.576  1.00  0.00     0.000 C 
BRANCH  14  15
ATOM     15  C   UNL     1     -10.336  -8.331  94.292  1.00  0.00     0.001 C 
BRANCH  15  16
ATOM     16  C   UNL     1     -10.023  -8.389  92.788  1.00  0.00     0.012 C 
BRANCH  16  17
ATOM     17  C   UNL     1      -9.757  -9.818  92.299  1.00  0.00     0.123 C 
BRANCH  17  18
ATOM     18  C   UNL     1      -9.610  -9.840  90.810  1.00  0.00     0.305 C 
ATOM     19  O   UNL     1      -8.599  -9.310  90.272  1.00  0.00    -0.252 OA
BRANCH  18  20
ATOM     20  O   UNL     1     -10.618 -10.410  90.028  1.00  0.00    -0.469 OA
ATOM     21  C   UNL     1     -10.376 -10.929  88.725  1.00  0.00     0.282 C 
ENDBRANCH  18  20
ENDBRANCH  17  18
ENDBRANCH  16  17
ENDBRANCH  15  16
ENDBRANCH  14  15
ENDBRANCH  13  14
ENDBRANCH  12  13
ENDBRANCH   1  12
TORSDOF 15
ENDMDL
MODEL 7
REMARK VINA RESULT:    -3.638      2.736      6.339
REMARK INTER + INTRA:          -9.468
REMARK INTER:                  -6.983
REMARK INTRA:                  -2.485
REMARK UNBOUND:                -2.640
REMARK SMILES CCCCCC=CCC=CCCCCCCCC(=O)OC
REMARK SMILES IDX 11 1 10 2 9 3 8 4 7 5 6 6 5 7 4 8 3 9 2 10 1 11 12 12 13 13
REMARK SMILES IDX 14 14 15 15 16 16 17 17 18 18 19 19 20 20 21 21
REMARK H PARENT
REMARK Flexibility Score: inf
ROOT
ATOM      1  C   UNL     1      -7.520  -9.886  89.499  1.00  0.00     0.027 C 
ENDROOT
BRANCH   1   2
ATOM      2  C   UNL     1      -8.080  -8.499  89.708  1.00  0.00    -0.031 C 
ATOM      3  C   UNL     1      -8.105  -7.856  90.890  1.00  0.00    -0.027 C 
BRANCH   3   4
ATOM      4  C   UNL     1      -7.506  -8.388  92.167  1.00  0.00     0.054 C 
BRANCH   4   5
ATOM      5  C   UNL     1      -8.548  -9.055  93.022  1.00  0.00    -0.027 C 
ATOM      6  C   UNL     1      -9.855  -8.791  92.870  1.00  0.00    -0.031 C 
BRANCH   6   7
ATOM      7  C   UNL     1     -10.897  -9.458  93.726  1.00  0.00     0.027 C 
BRANCH   7   8
ATOM      8  C   UNL     1     -11.467 -10.704  93.032  1.00  0.00     0.004 C 
BRANCH   8   9
ATOM      9  C   UNL     1     -11.812 -11.827  94.022  1.00  0.00     0.000 C 
BRANCH   9  10
ATOM     10  C   UNL     1     -11.474 -11.459  95.473  1.00  0.00    -0.003 C 
ATOM     11  C   UNL     1     -12.728 -11.436  96.343  1.00  0.00     0.004 C 
ENDBRANCH   9  10
ENDBRANCH   8   9
ENDBRANCH   7   8
ENDBRANCH   6   7
ENDBRANCH   4   5
ENDBRANCH   3   4
ENDBRANCH   1   2
BRANCH   1  12
ATOM     12  C   UNL     1      -8.573 -10.855  88.942  1.00  0.00     0.004 C 
BRANCH  12  13
ATOM     13  C   UNL     1      -9.961 -10.622  89.566  1.00  0.00     0.000 C 
BRANCH  13  14
ATOM     14  C   UNL     1     -11.092 -10.677  88.526  1.00  0.00     0.000 C 
BRANCH  14  15
ATOM     15  C   UNL     1     -11.867  -9.350  88.425  1.00  0.00     0.001 C 
BRANCH  15  16
ATOM     16  C   UNL     1     -11.823  -8.544  89.733  1.00  0.00     0.012 C 
BRANCH  16  17
ATOM     17  C   UNL     1     -11.505  -7.061  89.497  1.00  0.00     0.123 C 
BRANCH  17  18
ATOM     18  C   UNL     1     -12.766  -6.289  89.264  1.00  0.00     0.305 C 
ATOM     19  O   UNL     1     -12.703  -5.091  88.871  1.00  0.00    -0.252 OA
BRANCH  18  20
ATOM     20  O   UNL     1     -13.999  -6.892  89.526  1.00  0.00    -0.469 OA
ATOM     21  C   UNL     1     -15.006  -7.038  88.531  1.00  0.00     0.282 C 
ENDBRANCH  18  20
ENDBRANCH  17  18
ENDBRANCH  16  17
ENDBRANCH  15  16
ENDBRANCH  14  15
ENDBRANCH  13  14
ENDBRANCH  12  13
ENDBRANCH   1  12
TORSDOF 15
ENDMDL
MODEL 8
REMARK VINA RESULT:    -3.637      2.206      5.855
REMARK INTER + INTRA:          -9.467
REMARK INTER:                  -6.797
REMARK INTRA:                  -2.670
REMARK UNBOUND:                -2.640
REMARK SMILES CCCCCC=CCC=CCCCCCCCC(=O)OC
REMARK SMILES IDX 11 1 10 2 9 3 8 4 7 5 6 6 5 7 4 8 3 9 2 10 1 11 12 12 13 13
REMARK SMILES IDX 14 14 15 15 16 16 17 17 18 18 19 19 20 20 21 21
REMARK H PARENT
REMARK Flexibility Score: inf
ROOT
ATOM      1  C   UNL     1      -7.929  -8.086  90.176  1.00  0.00     0.027 C 
ENDROOT
BRANCH   1   2
ATOM      2  C   UNL     1      -9.058  -7.261  89.608  1.00  0.00    -0.031 C 
ATOM      3  C   UNL     1      -9.954  -6.581  90.347  1.00  0.00    -0.027 C 
BRANCH   3   4
ATOM      4  C   UNL     1      -9.918  -6.474  91.851  1.00  0.00     0.054 C 
BRANCH   4   5
ATOM      5  C   UNL     1     -10.853  -7.463  92.490  1.00  0.00    -0.027 C 
ATOM      6  C   UNL     1     -10.439  -8.684  92.860  1.00  0.00    -0.031 C 
BRANCH   6   7
ATOM      7  C   UNL     1     -11.375  -9.673  93.499  1.00  0.00     0.027 C 
BRANCH   7   8
ATOM      8  C   UNL     1     -10.748 -11.075  93.545  1.00  0.00     0.004 C 
BRANCH   8   9
ATOM      9  C   UNL     1     -11.487 -12.022  94.502  1.00  0.00     0.000 C 
BRANCH   9  10
ATOM     10  C   UNL     1     -11.609 -11.449  95.922  1.00  0.00    -0.003 C 
ATOM     11  C   UNL     1     -13.063 -11.429  96.385  1.00  0.00     0.004 C 
ENDBRANCH   9  10
ENDBRANCH   8   9
ENDBRANCH   7   8
ENDBRANCH   6   7
ENDBRANCH   4   5
ENDBRANCH   3   4
ENDBRANCH   1   2
BRANCH   1  12
ATOM     12  C   UNL     1      -7.858  -9.482  89.538  1.00  0.00     0.004 C 
BRANCH  12  13
ATOM     13  C   UNL     1      -9.081 -10.345  89.897  1.00  0.00     0.000 C 
BRANCH  13  14
ATOM     14  C   UNL     1      -9.689 -11.045  88.671  1.00  0.00     0.000 C 
BRANCH  14  15
ATOM     15  C   UNL     1     -11.183 -10.720  88.487  1.00  0.00     0.001 C 
BRANCH  15  16
ATOM     16  C   UNL     1     -11.856 -10.287  89.799  1.00  0.00     0.012 C 
BRANCH  16  17
ATOM     17  C   UNL     1     -12.651  -8.983  89.648  1.00  0.00     0.123 C 
BRANCH  17  18
ATOM     18  C   UNL     1     -14.039  -9.155  90.183  1.00  0.00     0.305 C 
ATOM     19  O   UNL     1     -14.254  -9.023  91.419  1.00  0.00    -0.252 OA
BRANCH  18  20
ATOM     20  O   UNL     1     -15.073  -9.502  89.310  1.00  0.00    -0.469 OA
ATOM     21  C   UNL     1     -14.967  -9.353  87.899  1.00  0.00     0.282 C 
ENDBRANCH  18  20
ENDBRANCH  17  18
ENDBRANCH  16  17
ENDBRANCH  15  16
ENDBRANCH  14  15
ENDBRANCH  13  14
ENDBRANCH  12  13
ENDBRANCH   1  12
TORSDOF 15
ENDMDL
MODEL 9
REMARK VINA RESULT:    -3.612      2.671      6.291
REMARK INTER + INTRA:          -9.419
REMARK INTER:                  -7.368
REMARK INTRA:                  -2.051
REMARK UNBOUND:                -2.640
REMARK SMILES CCCCCC=CCC=CCCCCCCCC(=O)OC
REMARK SMILES IDX 11 1 10 2 9 3 8 4 7 5 6 6 5 7 4 8 3 9 2 10 1 11 12 12 13 13
REMARK SMILES IDX 14 14 15 15 16 16 17 17 18 18 19 19 20 20 21 21
REMARK H PARENT
REMARK Flexibility Score: inf
ROOT
ATOM      1  C   UNL     1      -7.723  -7.281  91.139  1.00  0.00     0.027 C 
ENDROOT
BRANCH   1   2
ATOM      2  C   UNL     1      -7.341  -8.355  92.130  1.00  0.00    -0.031 C 
ATOM      3  C   UNL     1      -8.041  -8.654  93.240  1.00  0.00    -0.027 C 
BRANCH   3   4
ATOM      4  C   UNL     1      -9.355  -8.019  93.620  1.00  0.00     0.054 C 
BRANCH   4   5
ATOM      5  C   UNL     1     -10.516  -8.891  93.225  1.00  0.00    -0.027 C 
ATOM      6  C   UNL     1     -10.580 -10.181  93.586  1.00  0.00    -0.031 C 
BRANCH   6   7
ATOM      7  C   UNL     1     -11.740 -11.053  93.190  1.00  0.00     0.027 C 
BRANCH   7   8
ATOM      8  C   UNL     1     -12.150 -11.982  94.342  1.00  0.00     0.004 C 
BRANCH   8   9
ATOM      9  C   UNL     1     -13.125 -11.313  95.323  1.00  0.00     0.000 C 
BRANCH   9  10
ATOM     10  C   UNL     1     -12.626 -11.359  96.775  1.00  0.00    -0.003 C 
ATOM     11  C   UNL     1     -11.815 -10.112  97.118  1.00  0.00     0.004 C 
ENDBRANCH   9  10
ENDBRANCH   8   9
ENDBRANCH   7   8
ENDBRANCH   6   7
ENDBRANCH   4   5
ENDBRANCH   3   4
ENDBRANCH   1   2
BRANCH   1  12
ATOM     12  C   UNL     1      -8.611  -7.827  90.011  1.00  0.00     0.004 C 
BRANCH  12  13
ATOM     13  C   UNL     1      -8.227  -9.265  89.617  1.00  0.00     0.000 C 
BRANCH  13  14
ATOM     14  C   UNL     1      -9.332 -10.281  89.947  1.00  0.00     0.000 C 
BRANCH  14  15
ATOM     15  C   UNL     1      -9.867 -10.998  88.693  1.00  0.00     0.001 C 
BRANCH  15  16
ATOM     16  C   UNL     1     -11.337 -10.653  88.402  1.00  0.00     0.012 C 
BRANCH  16  17
ATOM     17  C   UNL     1     -12.121 -10.305  89.674  1.00  0.00     0.123 C 
BRANCH  17  18
ATOM     18  C   UNL     1     -13.593 -10.380  89.415  1.00  0.00     0.305 C 
ATOM     19  O   UNL     1     -14.291  -9.329  89.453  1.00  0.00    -0.252 OA
BRANCH  18  20
ATOM     20  O   UNL     1     -14.187 -11.623  89.176  1.00  0.00    -0.469 OA
ATOM     21  C   UNL     1     -15.545 -11.758  88.774  1.00  0.00     0.282 C 
ENDBRANCH  18  20
ENDBRANCH  17  18
ENDBRANCH  16  17
ENDBRANCH  15  16
ENDBRANCH  14  15
ENDBRANCH  13  14
ENDBRANCH  12  13
ENDBRANCH   1  12
TORSDOF 15
ENDMDL
