MODEL 1
REMARK VINA RESULT:    -5.356      0.000      0.000
REMARK INTER + INTRA:          -9.739
REMARK INTER:                  -8.174
REMARK INTRA:                  -1.565
REMARK UNBOUND:                -1.565
REMARK SMILES OC[C@@H]1O[C@H](O[C@]2(CO)O[C@H](CO)[C@H](O)[C@H]2O)[C@@H](O)[C@@H](O)[C@@H]1O
REMARK SMILES IDX 6 1 5 2 3 3 22 4 4 5 20 6 18 7 2 8 1 9 23 11 21 13 19 15
REMARK SMILES IDX 7 17 16 18 10 19 14 20 11 21 8 22 9 23 17 25 15 27 12 29
REMARK SMILES IDX 13 30
REMARK H PARENT 1 10 23 12 21 14 19 16 9 24 17 26 15 28 13 31
REMARK Flexibility Score: inf
ROOT
ATOM      1  O   UNL     1      -1.079  21.787  21.562  1.00  0.00    -0.313 OA
ENDROOT
BRANCH   1   2
ATOM      2  C   UNL     1      -1.527  22.263  22.830  1.00  0.00     0.285 C 
ATOM      3  C   UNL     1      -3.145  21.905  24.585  1.00  0.00     0.178 C 
ATOM      4  C   UNL     1      -2.347  23.031  25.303  1.00  0.00     0.177 C 
ATOM      5  O   UNL     1      -2.765  21.676  23.226  1.00  0.00    -0.341 OA
ATOM      6  C   UNL     1      -0.818  22.793  25.224  1.00  0.00     0.179 C 
ATOM      7  C   UNL     1      -0.412  22.110  23.889  1.00  0.00     0.202 C 
BRANCH   3   8
ATOM      8  C   UNL     1      -3.125  20.566  25.347  1.00  0.00     0.191 C 
BRANCH   8   9
ATOM      9  O   UNL     1      -3.954  20.636  26.476  1.00  0.00    -0.394 OA
ATOM     10  H   UNL     1      -3.460  20.216  27.226  1.00  0.00     0.210 HD
ENDBRANCH   8   9
ENDBRANCH   3   8
BRANCH   4  11
ATOM     11  O   UNL     1      -2.789  23.229  26.626  1.00  0.00    -0.387 OA
ATOM     12  H   UNL     1      -3.780  23.241  26.631  1.00  0.00     0.211 HD
ENDBRANCH   4  11
BRANCH   6  13
ATOM     13  O   UNL     1      -0.129  24.003  25.428  1.00  0.00    -0.387 OA
ATOM     14  H   UNL     1       0.147  24.346  24.538  1.00  0.00     0.211 HD
ENDBRANCH   6  13
BRANCH   7  15
ATOM     15  O   UNL     1       0.788  22.646  23.390  1.00  0.00    -0.385 OA
ATOM     16  H   UNL     1       0.634  22.842  22.428  1.00  0.00     0.211 HD
ENDBRANCH   7  15
ENDBRANCH   1   2
BRANCH   1  17
ATOM     17  C   UNL     1      -0.951  22.750  20.511  1.00  0.00     0.224 C 
ATOM     18  C   UNL     1      -1.508  24.098  21.058  1.00  0.00     0.208 C 
ATOM     19  O   UNL     1       0.407  22.952  20.142  1.00  0.00    -0.337 OA
ATOM     20  C   UNL     1      -0.296  25.010  21.086  1.00  0.00     0.180 C 
ATOM     21  C   UNL     1       0.646  24.336  20.094  1.00  0.00     0.179 C 
BRANCH  17  22
ATOM     22  C   UNL     1      -1.747  22.236  19.285  1.00  0.00     0.225 C 
BRANCH  22  23
ATOM     23  O   UNL     1      -0.902  21.562  18.391  1.00  0.00    -0.391 OA
ATOM     24  H   UNL     1      -0.824  20.633  18.732  1.00  0.00     0.210 HD
ENDBRANCH  22  23
ENDBRANCH  17  22
BRANCH  18  25
ATOM     25  O   UNL     1      -2.503  24.645  20.228  1.00  0.00    -0.385 OA
ATOM     26  H   UNL     1      -2.045  24.975  19.410  1.00  0.00     0.211 HD
ENDBRANCH  18  25
BRANCH  20  27
ATOM     27  O   UNL     1       0.248  25.099  22.382  1.00  0.00    -0.387 OA
ATOM     28  H   UNL     1      -0.472  24.899  23.034  1.00  0.00     0.211 HD
ENDBRANCH  20  27
BRANCH  21  29
ATOM     29  C   UNL     1       2.135  24.625  20.341  1.00  0.00     0.191 C 
BRANCH  29  30
ATOM     30  O   UNL     1       2.364  26.004  20.443  1.00  0.00    -0.394 OA
ATOM     31  H   UNL     1       1.473  26.441  20.427  1.00  0.00     0.210 HD
ENDBRANCH  29  30
ENDBRANCH  21  29
ENDBRANCH   1  17
TORSDOF 13
ENDMDL
MODEL 2
REMARK VINA RESULT:    -5.332      1.370      5.995
REMARK INTER + INTRA:          -9.703
REMARK INTER:                  -7.901
REMARK INTRA:                  -1.802
REMARK UNBOUND:                -1.565
REMARK SMILES OC[C@@H]1O[C@H](O[C@]2(CO)O[C@H](CO)[C@H](O)[C@H]2O)[C@@H](O)[C@@H](O)[C@@H]1O
REMARK SMILES IDX 6 1 5 2 3 3 22 4 4 5 20 6 18 7 2 8 1 9 23 11 21 13 19 15
REMARK SMILES IDX 7 17 16 18 10 19 14 20 11 21 8 22 9 23 17 25 15 27 12 29
REMARK SMILES IDX 13 30
REMARK H PARENT 1 10 23 12 21 14 19 16 9 24 17 26 15 28 13 31
REMARK Flexibility Score: inf
ROOT
ATOM      1  O   UNL     1       0.056  22.464  23.531  1.00  0.00    -0.313 OA
ENDROOT
BRANCH   1   2
ATOM      2  C   UNL     1      -0.558  23.215  22.485  1.00  0.00     0.285 C 
ATOM      3  C   UNL     1      -0.358  25.212  21.144  1.00  0.00     0.178 C 
ATOM      4  C   UNL     1      -1.600  24.627  20.411  1.00  0.00     0.177 C 
ATOM      5  O   UNL     1       0.026  24.507  22.326  1.00  0.00    -0.341 OA
ATOM      6  C   UNL     1      -1.419  23.123  20.084  1.00  0.00     0.179 C 
ATOM      7  C   UNL     1      -0.590  22.394  21.177  1.00  0.00     0.202 C 
BRANCH   3   8
ATOM      8  C   UNL     1       0.870  25.366  20.226  1.00  0.00     0.191 C 
BRANCH   8   9
ATOM      9  O   UNL     1       2.036  24.985  20.906  1.00  0.00    -0.394 OA
ATOM     10  H   UNL     1       1.879  24.074  21.264  1.00  0.00     0.210 HD
ENDBRANCH   8   9
ENDBRANCH   3   8
BRANCH   4  11
ATOM     11  O   UNL     1      -1.946  25.383  19.274  1.00  0.00    -0.387 OA
ATOM     12  H   UNL     1      -2.039  24.769  18.502  1.00  0.00     0.211 HD
ENDBRANCH   4  11
BRANCH   6  13
ATOM     13  O   UNL     1      -2.674  22.518  19.884  1.00  0.00    -0.387 OA
ATOM     14  H   UNL     1      -2.700  21.689  20.431  1.00  0.00     0.211 HD
ENDBRANCH   6  13
BRANCH   7  15
ATOM     15  O   UNL     1      -1.109  21.114  21.438  1.00  0.00    -0.385 OA
ATOM     16  H   UNL     1      -0.426  20.461  21.130  1.00  0.00     0.211 HD
ENDBRANCH   7  15
ENDBRANCH   1   2
BRANCH   1  17
ATOM     17  C   UNL     1      -0.773  22.079  24.632  1.00  0.00     0.224 C 
ATOM     18  C   UNL     1      -2.160  22.754  24.416  1.00  0.00     0.208 C 
ATOM     19  O   UNL     1      -0.970  20.672  24.678  1.00  0.00    -0.337 OA
ATOM     20  C   UNL     1      -3.106  21.586  24.208  1.00  0.00     0.180 C 
ATOM     21  C   UNL     1      -2.345  20.428  24.842  1.00  0.00     0.179 C 
BRANCH  17  22
ATOM     22  C   UNL     1      -0.087  22.546  25.941  1.00  0.00     0.225 C 
BRANCH  22  23
ATOM     23  O   UNL     1       0.192  23.920  25.892  1.00  0.00    -0.391 OA
ATOM     24  H   UNL     1      -0.679  24.374  25.746  1.00  0.00     0.210 HD
ENDBRANCH  22  23
ENDBRANCH  17  22
BRANCH  18  25
ATOM     25  O   UNL     1      -2.569  23.511  25.529  1.00  0.00    -0.385 OA
ATOM     26  H   UNL     1      -1.907  24.245  25.636  1.00  0.00     0.211 HD
ENDBRANCH  18  25
BRANCH  20  27
ATOM     27  O   UNL     1      -3.372  21.381  22.839  1.00  0.00    -0.387 OA
ATOM     28  H   UNL     1      -2.598  21.720  22.320  1.00  0.00     0.211 HD
ENDBRANCH  20  27
BRANCH  21  29
ATOM     29  C   UNL     1      -2.708  19.046  24.275  1.00  0.00     0.191 C 
BRANCH  29  30
ATOM     30  O   UNL     1      -1.797  18.663  23.280  1.00  0.00    -0.394 OA
ATOM     31  H   UNL     1      -2.320  18.186  22.584  1.00  0.00     0.210 HD
ENDBRANCH  29  30
ENDBRANCH  21  29
ENDBRANCH   1  17
TORSDOF 13
ENDMDL
MODEL 3
REMARK VINA RESULT:    -5.289      1.454      5.799
REMARK INTER + INTRA:          -9.637
REMARK INTER:                  -7.877
REMARK INTRA:                  -1.759
REMARK UNBOUND:                -1.565
REMARK SMILES OC[C@@H]1O[C@H](O[C@]2(CO)O[C@H](CO)[C@H](O)[C@H]2O)[C@@H](O)[C@@H](O)[C@@H]1O
REMARK SMILES IDX 6 1 5 2 3 3 22 4 4 5 20 6 18 7 2 8 1 9 23 11 21 13 19 15
REMARK SMILES IDX 7 17 16 18 10 19 14 20 11 21 8 22 9 23 17 25 15 27 12 29
REMARK SMILES IDX 13 30
REMARK H PARENT 1 10 23 12 21 14 19 16 9 24 17 26 15 28 13 31
REMARK Flexibility Score: inf
ROOT
ATOM      1  O   UNL     1      -0.845  23.503  23.913  1.00  0.00    -0.313 OA
ENDROOT
BRANCH   1   2
ATOM      2  C   UNL     1      -0.850  23.044  22.562  1.00  0.00     0.285 C 
ATOM      3  C   UNL     1      -2.275  22.552  20.676  1.00  0.00     0.178 C 
ATOM      4  C   UNL     1      -0.922  22.305  19.949  1.00  0.00     0.177 C 
ATOM      5  O   UNL     1      -2.165  22.766  22.085  1.00  0.00    -0.341 OA
ATOM      6  C   UNL     1       0.095  23.442  20.224  1.00  0.00     0.179 C 
ATOM      7  C   UNL     1      -0.066  24.020  21.657  1.00  0.00     0.202 C 
BRANCH   3   8
ATOM      8  C   UNL     1      -3.098  23.696  20.054  1.00  0.00     0.191 C 
BRANCH   8   9
ATOM      9  O   UNL     1      -3.765  23.246  18.905  1.00  0.00    -0.394 OA
ATOM     10  H   UNL     1      -3.375  22.366  18.669  1.00  0.00     0.210 HD
ENDBRANCH   8   9
ENDBRANCH   3   8
BRANCH   4  11
ATOM     11  O   UNL     1      -1.100  22.070  18.571  1.00  0.00    -0.387 OA
ATOM     12  H   UNL     1      -0.834  22.885  18.074  1.00  0.00     0.211 HD
ENDBRANCH   4  11
BRANCH   6  13
ATOM     13  O   UNL     1       1.406  22.986  19.985  1.00  0.00    -0.387 OA
ATOM     14  H   UNL     1       1.941  23.760  19.668  1.00  0.00     0.211 HD
ENDBRANCH   6  13
BRANCH   7  15
ATOM     15  O   UNL     1       1.185  24.297  22.236  1.00  0.00    -0.385 OA
ATOM     16  H   UNL     1       1.221  23.794  23.091  1.00  0.00     0.211 HD
ENDBRANCH   7  15
ENDBRANCH   1   2
BRANCH   1  17
ATOM     17  C   UNL     1      -1.056  22.524  24.935  1.00  0.00     0.224 C 
ATOM     18  C   UNL     1      -2.504  22.727  25.469  1.00  0.00     0.208 C 
ATOM     19  O   UNL     1      -0.955  21.200  24.428  1.00  0.00    -0.337 OA
ATOM     20  C   UNL     1      -3.221  21.448  25.079  1.00  0.00     0.180 C 
ATOM     21  C   UNL     1      -2.067  20.471  24.884  1.00  0.00     0.179 C 
BRANCH  17  22
ATOM     22  C   UNL     1       0.015  22.736  26.036  1.00  0.00     0.225 C 
BRANCH  22  23
ATOM     23  O   UNL     1       0.318  24.098  26.176  1.00  0.00    -0.391 OA
ATOM     24  H   UNL     1       0.707  24.386  25.309  1.00  0.00     0.210 HD
ENDBRANCH  22  23
ENDBRANCH  17  22
BRANCH  18  25
ATOM     25  O   UNL     1      -2.545  22.894  26.866  1.00  0.00    -0.385 OA
ATOM     26  H   UNL     1      -1.640  22.670  27.208  1.00  0.00     0.211 HD
ENDBRANCH  18  25
BRANCH  20  27
ATOM     27  O   UNL     1      -3.989  21.627  23.912  1.00  0.00    -0.387 OA
ATOM     28  H   UNL     1      -4.813  22.122  24.157  1.00  0.00     0.211 HD
ENDBRANCH  20  27
BRANCH  21  29
ATOM     29  C   UNL     1      -2.374  19.316  23.918  1.00  0.00     0.191 C 
BRANCH  29  30
ATOM     30  O   UNL     1      -1.950  19.628  22.618  1.00  0.00    -0.394 OA
ATOM     31  H   UNL     1      -2.061  18.803  22.078  1.00  0.00     0.210 HD
ENDBRANCH  29  30
ENDBRANCH  21  29
ENDBRANCH   1  17
TORSDOF 13
ENDMDL
MODEL 4
REMARK VINA RESULT:    -5.198      1.423      3.009
REMARK INTER + INTRA:          -9.499
REMARK INTER:                  -7.961
REMARK INTRA:                  -1.538
REMARK UNBOUND:                -1.565
REMARK SMILES OC[C@@H]1O[C@H](O[C@]2(CO)O[C@H](CO)[C@H](O)[C@H]2O)[C@@H](O)[C@@H](O)[C@@H]1O
REMARK SMILES IDX 6 1 5 2 3 3 22 4 4 5 20 6 18 7 2 8 1 9 23 11 21 13 19 15
REMARK SMILES IDX 7 17 16 18 10 19 14 20 11 21 8 22 9 23 17 25 15 27 12 29
REMARK SMILES IDX 13 30
REMARK H PARENT 1 10 23 12 21 14 19 16 9 24 17 26 15 28 13 31
REMARK Flexibility Score: inf
ROOT
ATOM      1  O   UNL     1      -0.063  22.428  22.054  1.00  0.00    -0.313 OA
ENDROOT
BRANCH   1   2
ATOM      2  C   UNL     1      -0.687  22.678  23.313  1.00  0.00     0.285 C 
ATOM      3  C   UNL     1      -2.466  21.965  24.781  1.00  0.00     0.178 C 
ATOM      4  C   UNL     1      -1.840  23.008  25.751  1.00  0.00     0.177 C 
ATOM      5  O   UNL     1      -1.917  21.970  23.462  1.00  0.00    -0.341 OA
ATOM      6  C   UNL     1      -0.298  22.868  25.829  1.00  0.00     0.179 C 
ATOM      7  C   UNL     1       0.307  22.424  24.468  1.00  0.00     0.202 C 
BRANCH   3   8
ATOM      8  C   UNL     1      -2.436  20.528  25.335  1.00  0.00     0.191 C 
BRANCH   8   9
ATOM      9  O   UNL     1      -1.641  19.708  24.521  1.00  0.00    -0.394 OA
ATOM     10  H   UNL     1      -0.786  19.564  25.001  1.00  0.00     0.210 HD
ENDBRANCH   8   9
ENDBRANCH   3   8
BRANCH   4  11
ATOM     11  O   UNL     1      -2.444  22.975  27.023  1.00  0.00    -0.387 OA
ATOM     12  H   UNL     1      -1.755  23.178  27.706  1.00  0.00     0.211 HD
ENDBRANCH   4  11
BRANCH   6  13
ATOM     13  O   UNL     1       0.273  24.069  26.292  1.00  0.00    -0.387 OA
ATOM     14  H   UNL     1      -0.436  24.764  26.279  1.00  0.00     0.211 HD
ENDBRANCH   6  13
BRANCH   7  15
ATOM     15  O   UNL     1       1.514  23.095  24.206  1.00  0.00    -0.385 OA
ATOM     16  H   UNL     1       2.055  22.494  23.630  1.00  0.00     0.211 HD
ENDBRANCH   7  15
ENDBRANCH   1   2
BRANCH   1  17
ATOM     17  C   UNL     1      -0.613  23.091  20.911  1.00  0.00     0.224 C 
ATOM     18  C   UNL     1      -1.247  21.993  20.008  1.00  0.00     0.208 C 
ATOM     19  O   UNL     1      -1.636  24.009  21.273  1.00  0.00    -0.337 OA
ATOM     20  C   UNL     1      -2.730  22.315  20.028  1.00  0.00     0.180 C 
ATOM     21  C   UNL     1      -2.743  23.783  20.437  1.00  0.00     0.179 C 
BRANCH  17  22
ATOM     22  C   UNL     1       0.533  23.853  20.197  1.00  0.00     0.225 C 
BRANCH  22  23
ATOM     23  O   UNL     1       1.578  22.978  19.863  1.00  0.00    -0.391 OA
ATOM     24  H   UNL     1       1.251  22.437  19.097  1.00  0.00     0.210 HD
ENDBRANCH  22  23
ENDBRANCH  17  22
BRANCH  18  25
ATOM     25  O   UNL     1      -0.763  22.036  18.687  1.00  0.00    -0.385 OA
ATOM     26  H   UNL     1       0.118  21.578  18.690  1.00  0.00     0.211 HD
ENDBRANCH  18  25
BRANCH  20  27
ATOM     27  O   UNL     1      -3.420  21.488  20.936  1.00  0.00    -0.387 OA
ATOM     28  H   UNL     1      -2.796  20.785  21.252  1.00  0.00     0.211 HD
ENDBRANCH  20  27
BRANCH  21  29
ATOM     29  C   UNL     1      -4.035  24.233  21.136  1.00  0.00     0.191 C 
BRANCH  29  30
ATOM     30  O   UNL     1      -4.125  23.675  22.420  1.00  0.00    -0.394 OA
ATOM     31  H   UNL     1      -3.656  24.299  23.033  1.00  0.00     0.210 HD
ENDBRANCH  29  30
ENDBRANCH  21  29
ENDBRANCH   1  17
TORSDOF 13
ENDMDL
MODEL 5
REMARK VINA RESULT:    -4.873      1.496      3.839
REMARK INTER + INTRA:          -9.002
REMARK INTER:                  -7.095
REMARK INTRA:                  -1.907
REMARK UNBOUND:                -1.565
REMARK SMILES OC[C@@H]1O[C@H](O[C@]2(CO)O[C@H](CO)[C@H](O)[C@H]2O)[C@@H](O)[C@@H](O)[C@@H]1O
REMARK SMILES IDX 6 1 5 2 3 3 22 4 4 5 20 6 18 7 2 8 1 9 23 11 21 13 19 15
REMARK SMILES IDX 7 17 16 18 10 19 14 20 11 21 8 22 9 23 17 25 15 27 12 29
REMARK SMILES IDX 13 30
REMARK H PARENT 1 10 23 12 21 14 19 16 9 24 17 26 15 28 13 31
REMARK Flexibility Score: inf
ROOT
ATOM      1  O   UNL     1      -0.591  24.287  22.021  1.00  0.00    -0.313 OA
ENDROOT
BRANCH   1   2
ATOM      2  C   UNL     1      -0.797  23.141  22.845  1.00  0.00     0.285 C 
ATOM      3  C   UNL     1      -0.125  22.077  24.905  1.00  0.00     0.178 C 
ATOM      4  C   UNL     1      -1.233  21.053  24.527  1.00  0.00     0.177 C 
ATOM      5  O   UNL     1       0.165  23.045  23.894  1.00  0.00    -0.341 OA
ATOM      6  C   UNL     1      -2.543  21.758  24.091  1.00  0.00     0.179 C 
ATOM      7  C   UNL     1      -2.256  23.092  23.348  1.00  0.00     0.202 C 
BRANCH   3   8
ATOM      8  C   UNL     1      -0.399  22.804  26.236  1.00  0.00     0.191 C 
BRANCH   8   9
ATOM      9  O   UNL     1       0.332  23.999  26.298  1.00  0.00    -0.394 OA
ATOM     10  H   UNL     1       0.776  24.022  27.184  1.00  0.00     0.210 HD
ENDBRANCH   8   9
ENDBRANCH   3   8
BRANCH   4  11
ATOM     11  O   UNL     1      -1.450  20.109  25.550  1.00  0.00    -0.387 OA
ATOM     12  H   UNL     1      -1.844  20.574  26.332  1.00  0.00     0.211 HD
ENDBRANCH   4  11
BRANCH   6  13
ATOM     13  O   UNL     1      -3.328  20.882  23.317  1.00  0.00    -0.387 OA
ATOM     14  H   UNL     1      -4.057  20.539  23.897  1.00  0.00     0.211 HD
ENDBRANCH   6  13
BRANCH   7  15
ATOM     15  O   UNL     1      -3.134  23.268  22.265  1.00  0.00    -0.385 OA
ATOM     16  H   UNL     1      -4.050  23.106  22.611  1.00  0.00     0.211 HD
ENDBRANCH   7  15
ENDBRANCH   1   2
BRANCH   1  17
ATOM     17  C   UNL     1      -0.394  24.058  20.622  1.00  0.00     0.224 C 
ATOM     18  C   UNL     1      -0.047  22.550  20.452  1.00  0.00     0.208 C 
ATOM     19  O   UNL     1      -1.570  24.328  19.871  1.00  0.00    -0.337 OA
ATOM     20  C   UNL     1      -1.216  21.994  19.659  1.00  0.00     0.180 C 
ATOM     21  C   UNL     1      -1.795  23.243  19.006  1.00  0.00     0.179 C 
BRANCH  17  22
ATOM     22  C   UNL     1       0.751  24.985  20.137  1.00  0.00     0.225 C 
BRANCH  22  23
ATOM     23  O   UNL     1       1.832  24.947  21.030  1.00  0.00    -0.391 OA
ATOM     24  H   UNL     1       2.598  25.363  20.555  1.00  0.00     0.210 HD
ENDBRANCH  22  23
ENDBRANCH  17  22
BRANCH  18  25
ATOM     25  O   UNL     1       1.153  22.349  19.744  1.00  0.00    -0.385 OA
ATOM     26  H   UNL     1       0.906  21.952  18.868  1.00  0.00     0.211 HD
ENDBRANCH  18  25
BRANCH  20  27
ATOM     27  O   UNL     1      -2.138  21.339  20.499  1.00  0.00    -0.387 OA
ATOM     28  H   UNL     1      -3.042  21.438  20.103  1.00  0.00     0.211 HD
ENDBRANCH  20  27
BRANCH  21  29
ATOM     29  C   UNL     1      -3.289  23.142  18.663  1.00  0.00     0.191 C 
BRANCH  29  30
ATOM     30  O   UNL     1      -4.077  23.589  19.733  1.00  0.00    -0.394 OA
ATOM     31  H   UNL     1      -4.323  24.529  19.531  1.00  0.00     0.210 HD
ENDBRANCH  29  30
ENDBRANCH  21  29
ENDBRANCH   1  17
TORSDOF 13
ENDMDL
MODEL 6
REMARK VINA RESULT:    -4.868      1.470      5.712
REMARK INTER + INTRA:          -8.995
REMARK INTER:                  -7.227
REMARK INTRA:                  -1.768
REMARK UNBOUND:                -1.565
REMARK SMILES OC[C@@H]1O[C@H](O[C@]2(CO)O[C@H](CO)[C@H](O)[C@H]2O)[C@@H](O)[C@@H](O)[C@@H]1O
REMARK SMILES IDX 6 1 5 2 3 3 22 4 4 5 20 6 18 7 2 8 1 9 23 11 21 13 19 15
REMARK SMILES IDX 7 17 16 18 10 19 14 20 11 21 8 22 9 23 17 25 15 27 12 29
REMARK SMILES IDX 13 30
REMARK H PARENT 1 10 23 12 21 14 19 16 9 24 17 26 15 28 13 31
REMARK Flexibility Score: inf
ROOT
ATOM      1  O   UNL     1      -3.202  22.751  23.133  1.00  0.00    -0.313 OA
ENDROOT
BRANCH   1   2
ATOM      2  C   UNL     1      -2.143  23.202  22.290  1.00  0.00     0.285 C 
ATOM      3  C   UNL     1      -0.268  22.470  20.958  1.00  0.00     0.178 C 
ATOM      4  C   UNL     1      -0.186  23.974  20.571  1.00  0.00     0.177 C 
ATOM      5  O   UNL     1      -1.205  22.168  21.994  1.00  0.00    -0.341 OA
ATOM      6  C   UNL     1      -1.577  24.547  20.196  1.00  0.00     0.179 C 
ATOM      7  C   UNL     1      -2.712  23.890  21.029  1.00  0.00     0.202 C 
BRANCH   3   8
ATOM      8  C   UNL     1      -0.532  21.547  19.753  1.00  0.00     0.191 C 
BRANCH   8   9
ATOM      9  O   UNL     1       0.617  21.444  18.957  1.00  0.00    -0.394 OA
ATOM     10  H   UNL     1       0.799  20.477  18.832  1.00  0.00     0.210 HD
ENDBRANCH   8   9
ENDBRANCH   3   8
BRANCH   4  11
ATOM     11  O   UNL     1       0.776  24.210  19.569  1.00  0.00    -0.387 OA
ATOM     12  H   UNL     1       0.481  23.764  18.735  1.00  0.00     0.211 HD
ENDBRANCH   4  11
BRANCH   6  13
ATOM     13  O   UNL     1      -1.573  25.949  20.326  1.00  0.00    -0.387 OA
ATOM     14  H   UNL     1      -1.733  26.163  21.282  1.00  0.00     0.211 HD
ENDBRANCH   6  13
BRANCH   7  15
ATOM     15  O   UNL     1      -3.679  24.838  21.406  1.00  0.00    -0.385 OA
ATOM     16  H   UNL     1      -4.006  24.570  22.305  1.00  0.00     0.211 HD
ENDBRANCH   7  15
ENDBRANCH   1   2
BRANCH   1  17
ATOM     17  C   UNL     1      -2.939  22.697  24.539  1.00  0.00     0.224 C 
ATOM     18  C   UNL     1      -2.783  21.194  24.916  1.00  0.00     0.208 C 
ATOM     19  O   UNL     1      -1.730  23.364  24.876  1.00  0.00    -0.337 OA
ATOM     20  C   UNL     1      -1.336  21.076  25.356  1.00  0.00     0.180 C 
ATOM     21  C   UNL     1      -0.980  22.516  25.710  1.00  0.00     0.179 C 
BRANCH  17  22
ATOM     22  C   UNL     1      -4.123  23.372  25.278  1.00  0.00     0.225 C 
BRANCH  22  23
ATOM     23  O   UNL     1      -3.751  23.737  26.580  1.00  0.00    -0.391 OA
ATOM     24  H   UNL     1      -4.573  24.083  27.016  1.00  0.00     0.210 HD
ENDBRANCH  22  23
ENDBRANCH  17  22
BRANCH  18  25
ATOM     25  O   UNL     1      -3.638  20.812  25.967  1.00  0.00    -0.385 OA
ATOM     26  H   UNL     1      -3.449  19.855  26.156  1.00  0.00     0.211 HD
ENDBRANCH  18  25
BRANCH  20  27
ATOM     27  O   UNL     1      -0.530  20.552  24.326  1.00  0.00    -0.387 OA
ATOM     28  H   UNL     1      -0.028  19.777  24.690  1.00  0.00     0.211 HD
ENDBRANCH  20  27
BRANCH  21  29
ATOM     29  C   UNL     1       0.516  22.845  25.590  1.00  0.00     0.191 C 
BRANCH  29  30
ATOM     30  O   UNL     1       0.884  23.007  24.247  1.00  0.00    -0.394 OA
ATOM     31  H   UNL     1       0.158  22.601  23.704  1.00  0.00     0.210 HD
ENDBRANCH  29  30
ENDBRANCH  21  29
ENDBRANCH   1  17
TORSDOF 13
ENDMDL
MODEL 7
REMARK VINA RESULT:    -4.813      1.701      2.549
REMARK INTER + INTRA:          -8.911
REMARK INTER:                  -7.200
REMARK INTRA:                  -1.710
REMARK UNBOUND:                -1.565
REMARK SMILES OC[C@@H]1O[C@H](O[C@]2(CO)O[C@H](CO)[C@H](O)[C@H]2O)[C@@H](O)[C@@H](O)[C@@H]1O
REMARK SMILES IDX 6 1 5 2 3 3 22 4 4 5 20 6 18 7 2 8 1 9 23 11 21 13 19 15
REMARK SMILES IDX 7 17 16 18 10 19 14 20 11 21 8 22 9 23 17 25 15 27 12 29
REMARK SMILES IDX 13 30
REMARK H PARENT 1 10 23 12 21 14 19 16 9 24 17 26 15 28 13 31
REMARK Flexibility Score: inf
ROOT
ATOM      1  O   UNL     1      -2.536  22.194  20.930  1.00  0.00    -0.313 OA
ENDROOT
BRANCH   1   2
ATOM      2  C   UNL     1      -2.009  21.787  22.193  1.00  0.00     0.285 C 
ATOM      3  C   UNL     1      -1.670  22.486  24.478  1.00  0.00     0.178 C 
ATOM      4  C   UNL     1      -1.147  21.031  24.655  1.00  0.00     0.177 C 
ATOM      5  O   UNL     1      -1.941  22.863  23.127  1.00  0.00    -0.341 OA
ATOM      6  C   UNL     1      -2.100  19.995  24.008  1.00  0.00     0.179 C 
ATOM      7  C   UNL     1      -2.779  20.560  22.730  1.00  0.00     0.202 C 
BRANCH   3   8
ATOM      8  C   UNL     1      -2.903  22.797  25.347  1.00  0.00     0.191 C 
BRANCH   8   9
ATOM      9  O   UNL     1      -2.506  23.183  26.636  1.00  0.00    -0.394 OA
ATOM     10  H   UNL     1      -2.499  24.174  26.653  1.00  0.00     0.210 HD
ENDBRANCH   8   9
ENDBRANCH   3   8
BRANCH   4  11
ATOM     11  O   UNL     1      -0.869  20.731  26.003  1.00  0.00    -0.387 OA
ATOM     12  H   UNL     1      -1.634  21.029  26.558  1.00  0.00     0.211 HD
ENDBRANCH   4  11
BRANCH   6  13
ATOM     13  O   UNL     1      -1.407  18.797  23.750  1.00  0.00    -0.387 OA
ATOM     14  H   UNL     1      -1.984  18.045  24.048  1.00  0.00     0.211 HD
ENDBRANCH   6  13
BRANCH   7  15
ATOM     15  O   UNL     1      -2.863  19.581  21.725  1.00  0.00    -0.385 OA
ATOM     16  H   UNL     1      -1.934  19.396  21.428  1.00  0.00     0.211 HD
ENDBRANCH   7  15
ENDBRANCH   1   2
BRANCH   1  17
ATOM     17  C   UNL     1      -1.597  22.616  19.937  1.00  0.00     0.224 C 
ATOM     18  C   UNL     1      -2.134  23.949  19.338  1.00  0.00     0.208 C 
ATOM     19  O   UNL     1      -0.314  22.869  20.495  1.00  0.00    -0.337 OA
ATOM     20  C   UNL     1      -1.095  24.977  19.745  1.00  0.00     0.180 C 
ATOM     21  C   UNL     1       0.131  24.115  20.022  1.00  0.00     0.179 C 
BRANCH  17  22
ATOM     22  C   UNL     1      -1.483  21.494  18.872  1.00  0.00     0.225 C 
BRANCH  22  23
ATOM     23  O   UNL     1      -2.688  20.784  18.770  1.00  0.00    -0.391 OA
ATOM     24  H   UNL     1      -2.855  20.661  17.799  1.00  0.00     0.210 HD
ENDBRANCH  22  23
ENDBRANCH  17  22
BRANCH  18  25
ATOM     25  O   UNL     1      -2.243  23.905  17.936  1.00  0.00    -0.385 OA
ATOM     26  H   UNL     1      -3.065  24.408  17.696  1.00  0.00     0.211 HD
ENDBRANCH  18  25
BRANCH  20  27
ATOM     27  O   UNL     1      -1.514  25.709  20.874  1.00  0.00    -0.387 OA
ATOM     28  H   UNL     1      -2.152  26.406  20.571  1.00  0.00     0.211 HD
ENDBRANCH  20  27
BRANCH  21  29
ATOM     29  C   UNL     1       1.127  24.733  21.016  1.00  0.00     0.191 C 
BRANCH  29  30
ATOM     30  O   UNL     1       0.814  24.358  22.331  1.00  0.00    -0.394 OA
ATOM     31  H   UNL     1       1.586  24.629  22.894  1.00  0.00     0.210 HD
ENDBRANCH  29  30
ENDBRANCH  21  29
ENDBRANCH   1  17
TORSDOF 13
ENDMDL
MODEL 8
REMARK VINA RESULT:    -4.803      2.068      4.034
REMARK INTER + INTRA:          -8.896
REMARK INTER:                  -7.069
REMARK INTRA:                  -1.826
REMARK UNBOUND:                -1.565
REMARK SMILES OC[C@@H]1O[C@H](O[C@]2(CO)O[C@H](CO)[C@H](O)[C@H]2O)[C@@H](O)[C@@H](O)[C@@H]1O
REMARK SMILES IDX 6 1 5 2 3 3 22 4 4 5 20 6 18 7 2 8 1 9 23 11 21 13 19 15
REMARK SMILES IDX 7 17 16 18 10 19 14 20 11 21 8 22 9 23 17 25 15 27 12 29
REMARK SMILES IDX 13 30
REMARK H PARENT 1 10 23 12 21 14 19 16 9 24 17 26 15 28 13 31
REMARK Flexibility Score: inf
ROOT
ATOM      1  O   UNL     1      -2.887  22.533  21.004  1.00  0.00    -0.313 OA
ENDROOT
BRANCH   1   2
ATOM      2  C   UNL     1      -2.231  22.052  22.177  1.00  0.00     0.285 C 
ATOM      3  C   UNL     1      -1.635  22.618  24.446  1.00  0.00     0.178 C 
ATOM      4  C   UNL     1      -1.114  21.152  24.484  1.00  0.00     0.177 C 
ATOM      5  O   UNL     1      -2.047  23.073  23.156  1.00  0.00    -0.341 OA
ATOM      6  C   UNL     1      -2.146  20.160  23.888  1.00  0.00     0.179 C 
ATOM      7  C   UNL     1      -2.953  20.802  22.726  1.00  0.00     0.202 C 
BRANCH   3   8
ATOM      8  C   UNL     1      -2.762  22.888  25.461  1.00  0.00     0.191 C 
BRANCH   8   9
ATOM      9  O   UNL     1      -2.230  23.046  26.749  1.00  0.00    -0.394 OA
ATOM     10  H   UNL     1      -2.922  23.501  27.295  1.00  0.00     0.210 HD
ENDBRANCH   8   9
ENDBRANCH   3   8
BRANCH   4  11
ATOM     11  O   UNL     1      -0.694  20.775  25.774  1.00  0.00    -0.387 OA
ATOM     12  H   UNL     1      -1.095  21.398  26.433  1.00  0.00     0.211 HD
ENDBRANCH   4  11
BRANCH   6  13
ATOM     13  O   UNL     1      -1.500  18.974  23.490  1.00  0.00    -0.387 OA
ATOM     14  H   UNL     1      -1.481  18.364  24.273  1.00  0.00     0.211 HD
ENDBRANCH   6  13
BRANCH   7  15
ATOM     15  O   UNL     1      -3.159  19.881  21.683  1.00  0.00    -0.385 OA
ATOM     16  H   UNL     1      -3.744  20.331  21.018  1.00  0.00     0.211 HD
ENDBRANCH   7  15
ENDBRANCH   1   2
BRANCH   1  17
ATOM     17  C   UNL     1      -2.095  22.658  19.819  1.00  0.00     0.224 C 
ATOM     18  C   UNL     1      -0.722  21.986  20.114  1.00  0.00     0.208 C 
ATOM     19  O   UNL     1      -2.687  21.988  18.714  1.00  0.00    -0.337 OA
ATOM     20  C   UNL     1      -0.685  20.802  19.165  1.00  0.00     0.180 C 
ATOM     21  C   UNL     1      -1.698  21.202  18.098  1.00  0.00     0.179 C 
BRANCH  17  22
ATOM     22  C   UNL     1      -1.955  24.167  19.490  1.00  0.00     0.225 C 
BRANCH  22  23
ATOM     23  O   UNL     1      -1.535  24.884  20.620  1.00  0.00    -0.391 OA
ATOM     24  H   UNL     1      -0.569  25.070  20.487  1.00  0.00     0.210 HD
ENDBRANCH  22  23
ENDBRANCH  17  22
BRANCH  18  25
ATOM     25  O   UNL     1       0.364  22.843  19.856  1.00  0.00    -0.385 OA
ATOM     26  H   UNL     1       0.680  23.176  20.737  1.00  0.00     0.211 HD
ENDBRANCH  18  25
BRANCH  20  27
ATOM     27  O   UNL     1      -1.030  19.606  19.825  1.00  0.00    -0.387 OA
ATOM     28  H   UNL     1      -0.228  19.023  19.849  1.00  0.00     0.211 HD
ENDBRANCH  20  27
BRANCH  21  29
ATOM     29  C   UNL     1      -2.344  20.016  17.365  1.00  0.00     0.191 C 
BRANCH  29  30
ATOM     30  O   UNL     1      -1.396  19.016  17.105  1.00  0.00    -0.394 OA
ATOM     31  H   UNL     1      -0.950  18.817  17.969  1.00  0.00     0.210 HD
ENDBRANCH  29  30
ENDBRANCH  21  29
ENDBRANCH   1  17
TORSDOF 13
ENDMDL
MODEL 9
REMARK VINA RESULT:    -4.698      1.729      5.665
REMARK INTER + INTRA:          -8.735
REMARK INTER:                  -7.165
REMARK INTRA:                  -1.570
REMARK UNBOUND:                -1.565
REMARK SMILES OC[C@@H]1O[C@H](O[C@]2(CO)O[C@H](CO)[C@H](O)[C@H]2O)[C@@H](O)[C@@H](O)[C@@H]1O
REMARK SMILES IDX 6 1 5 2 3 3 22 4 4 5 20 6 18 7 2 8 1 9 23 11 21 13 19 15
REMARK SMILES IDX 7 17 16 18 10 19 14 20 11 21 8 22 9 23 17 25 15 27 12 29
REMARK SMILES IDX 13 30
REMARK H PARENT 1 10 23 12 21 14 19 16 9 24 17 26 15 28 13 31
REMARK Flexibility Score: inf
ROOT
ATOM      1  O   UNL     1      -1.621  21.224  21.301  1.00  0.00    -0.313 OA
ENDROOT
BRANCH   1   2
ATOM      2  C   UNL     1      -1.372  22.623  21.179  1.00  0.00     0.285 C 
ATOM      3  C   UNL     1       0.346  24.315  21.304  1.00  0.00     0.178 C 
ATOM      4  C   UNL     1      -0.800  25.257  20.833  1.00  0.00     0.177 C 
ATOM      5  O   UNL     1      -0.068  22.987  21.630  1.00  0.00    -0.341 OA
ATOM      6  C   UNL     1      -1.589  24.651  19.644  1.00  0.00     0.179 C 
ATOM      7  C   UNL     1      -1.676  23.103  19.743  1.00  0.00     0.202 C 
BRANCH   3   8
ATOM      8  C   UNL     1       1.523  24.249  20.312  1.00  0.00     0.191 C 
BRANCH   8   9
ATOM      9  O   UNL     1       2.572  25.071  20.746  1.00  0.00    -0.394 OA
ATOM     10  H   UNL     1       2.582  25.866  20.154  1.00  0.00     0.210 HD
ENDBRANCH   8   9
ENDBRANCH   3   8
BRANCH   4  11
ATOM     11  O   UNL     1      -0.334  26.557  20.558  1.00  0.00    -0.387 OA
ATOM     12  H   UNL     1      -1.115  27.146  20.399  1.00  0.00     0.211 HD
ENDBRANCH   4  11
BRANCH   6  13
ATOM     13  O   UNL     1      -2.862  25.246  19.558  1.00  0.00    -0.387 OA
ATOM     14  H   UNL     1      -2.996  25.535  18.617  1.00  0.00     0.211 HD
ENDBRANCH   6  13
BRANCH   7  15
ATOM     15  O   UNL     1      -2.945  22.641  19.351  1.00  0.00    -0.385 OA
ATOM     16  H   UNL     1      -2.934  21.654  19.459  1.00  0.00     0.211 HD
ENDBRANCH   7  15
ENDBRANCH   1   2
BRANCH   1  17
ATOM     17  C   UNL     1      -2.330  20.786  22.463  1.00  0.00     0.224 C 
ATOM     18  C   UNL     1      -1.292  20.098  23.399  1.00  0.00     0.208 C 
ATOM     19  O   UNL     1      -2.908  21.874  23.171  1.00  0.00    -0.337 OA
ATOM     20  C   UNL     1      -1.255  20.994  24.623  1.00  0.00     0.180 C 
ATOM     21  C   UNL     1      -2.585  21.733  24.532  1.00  0.00     0.179 C 
BRANCH  17  22
ATOM     22  C   UNL     1      -3.450  19.814  22.009  1.00  0.00     0.225 C 
BRANCH  22  23
ATOM     23  O   UNL     1      -2.942  18.852  21.124  1.00  0.00    -0.391 OA
ATOM     24  H   UNL     1      -2.165  19.274  20.671  1.00  0.00     0.210 HD
ENDBRANCH  22  23
ENDBRANCH  17  22
BRANCH  18  25
ATOM     25  O   UNL     1      -1.679  18.796  23.767  1.00  0.00    -0.385 OA
ATOM     26  H   UNL     1      -1.719  18.262  22.931  1.00  0.00     0.211 HD
ENDBRANCH  18  25
BRANCH  20  27
ATOM     27  O   UNL     1      -0.144  21.860  24.590  1.00  0.00    -0.387 OA
ATOM     28  H   UNL     1      -0.056  22.285  25.481  1.00  0.00     0.211 HD
ENDBRANCH  20  27
BRANCH  21  29
ATOM     29  C   UNL     1      -2.593  23.106  25.223  1.00  0.00     0.191 C 
BRANCH  29  30
ATOM     30  O   UNL     1      -1.927  23.046  26.455  1.00  0.00    -0.394 OA
ATOM     31  H   UNL     1      -2.075  23.921  26.900  1.00  0.00     0.210 HD
ENDBRANCH  29  30
ENDBRANCH  21  29
ENDBRANCH   1  17
TORSDOF 13
ENDMDL
