MODEL 1
REMARK VINA RESULT:    -5.459      0.000      0.000
REMARK INTER + INTRA:          -6.187
REMARK INTER:                  -5.937
REMARK INTRA:                  -0.250
REMARK UNBOUND:                -0.250
REMARK SMILES O=C([O-])c1ccccc1O
REMARK SMILES IDX 4 1 9 2 5 3 8 4 6 5 7 6 2 7 1 8 3 9 10 10
REMARK H PARENT 10 11
REMARK Flexibility Score: inf
ROOT
ATOM      1  C   UNL     1     -31.233  42.754  19.522  1.00  0.00     0.039 A 
ATOM      2  C   UNL     1     -30.069  42.958  18.735  1.00  0.00     0.124 A 
ATOM      3  C   UNL     1     -31.306  41.619  20.349  1.00  0.00     0.014 A 
ATOM      4  C   UNL     1     -28.995  42.064  18.845  1.00  0.00     0.047 A 
ATOM      5  C   UNL     1     -30.234  40.727  20.431  1.00  0.00     0.001 A 
ATOM      6  C   UNL     1     -29.077  40.955  19.687  1.00  0.00     0.004 A 
ENDROOT
BRANCH   1   7
ATOM      7  C   UNL     1     -32.368  43.704  19.535  1.00  0.00     0.075 C 
ATOM      8  O   UNL     1     -32.917  44.043  20.617  1.00  0.00    -0.545 OA
ATOM      9  O   UNL     1     -32.887  44.183  18.338  1.00  0.00    -0.545 OA
ENDBRANCH   1   7
BRANCH   2  10
ATOM     10  O   UNL     1     -29.951  44.004  17.817  1.00  0.00    -0.507 OA
ATOM     11  H   UNL     1     -30.417  44.014  16.920  1.00  0.00     0.293 HD
ENDBRANCH   2  10
TORSDOF 2
ENDMDL
MODEL 2
REMARK VINA RESULT:    -4.885     12.613     14.167
REMARK INTER + INTRA:          -5.564
REMARK INTER:                  -5.313
REMARK INTRA:                  -0.251
REMARK UNBOUND:                -0.250
REMARK SMILES O=C([O-])c1ccccc1O
REMARK SMILES IDX 4 1 9 2 5 3 8 4 6 5 7 6 2 7 1 8 3 9 10 10
REMARK H PARENT 10 11
REMARK Flexibility Score: inf
ROOT
ATOM      1  C   UNL     1     -17.059  41.168  21.317  1.00  0.00     0.039 A 
ATOM      2  C   UNL     1     -17.804  42.312  20.926  1.00  0.00     0.124 A 
ATOM      3  C   UNL     1     -17.339  39.932  20.707  1.00  0.00     0.014 A 
ATOM      4  C   UNL     1     -18.752  42.202  19.901  1.00  0.00     0.047 A 
ATOM      5  C   UNL     1     -18.303  39.836  19.701  1.00  0.00     0.001 A 
ATOM      6  C   UNL     1     -19.002  40.972  19.292  1.00  0.00     0.004 A 
ENDROOT
BRANCH   1   7
ATOM      7  C   UNL     1     -15.973  41.223  22.322  1.00  0.00     0.075 C 
ATOM      8  O   UNL     1     -15.790  40.274  23.130  1.00  0.00    -0.545 OA
ATOM      9  O   UNL     1     -15.183  42.361  22.429  1.00  0.00    -0.545 OA
ENDBRANCH   1   7
BRANCH   2  10
ATOM     10  O   UNL     1     -17.658  43.555  21.545  1.00  0.00    -0.507 OA
ATOM     11  H   UNL     1     -16.809  44.102  21.506  1.00  0.00     0.293 HD
ENDBRANCH   2  10
TORSDOF 2
ENDMDL
MODEL 3
REMARK VINA RESULT:    -4.846     12.900     14.417
REMARK INTER + INTRA:          -5.521
REMARK INTER:                  -5.323
REMARK INTRA:                  -0.198
REMARK UNBOUND:                -0.250
REMARK SMILES O=C([O-])c1ccccc1O
REMARK SMILES IDX 4 1 9 2 5 3 8 4 6 5 7 6 2 7 1 8 3 9 10 10
REMARK H PARENT 10 11
REMARK Flexibility Score: inf
ROOT
ATOM      1  C   UNL     1     -17.138  41.893  21.430  1.00  0.00     0.039 A 
ATOM      2  C   UNL     1     -16.705  40.696  22.057  1.00  0.00     0.124 A 
ATOM      3  C   UNL     1     -16.346  43.049  21.548  1.00  0.00     0.014 A 
ATOM      4  C   UNL     1     -15.473  40.672  22.724  1.00  0.00     0.047 A 
ATOM      5  C   UNL     1     -15.130  43.012  22.234  1.00  0.00     0.001 A 
ATOM      6  C   UNL     1     -14.690  41.822  22.813  1.00  0.00     0.004 A 
ENDROOT
BRANCH   1   7
ATOM      7  C   UNL     1     -18.378  41.973  20.625  1.00  0.00     0.075 C 
ATOM      8  O   UNL     1     -18.684  43.029  20.009  1.00  0.00    -0.545 OA
ATOM      9  O   UNL     1     -19.259  40.898  20.597  1.00  0.00    -0.545 OA
ENDBRANCH   1   7
BRANCH   2  10
ATOM     10  O   UNL     1     -17.473  39.529  22.071  1.00  0.00    -0.507 OA
ATOM     11  H   UNL     1     -18.356  39.437  21.587  1.00  0.00     0.293 HD
ENDBRANCH   2  10
TORSDOF 2
ENDMDL
MODEL 4
REMARK VINA RESULT:    -4.845     15.459     16.759
REMARK INTER + INTRA:          -5.519
REMARK INTER:                  -5.293
REMARK INTRA:                  -0.226
REMARK UNBOUND:                -0.250
REMARK SMILES O=C([O-])c1ccccc1O
REMARK SMILES IDX 4 1 9 2 5 3 8 4 6 5 7 6 2 7 1 8 3 9 10 10
REMARK H PARENT 10 11
REMARK Flexibility Score: inf
ROOT
ATOM      1  C   UNL     1     -17.068  36.869  12.854  1.00  0.00     0.039 A 
ATOM      2  C   UNL     1     -16.529  36.019  11.851  1.00  0.00     0.124 A 
ATOM      3  C   UNL     1     -17.874  36.307  13.860  1.00  0.00     0.014 A 
ATOM      4  C   UNL     1     -16.756  34.639  11.920  1.00  0.00     0.047 A 
ATOM      5  C   UNL     1     -18.107  34.931  13.901  1.00  0.00     0.001 A 
ATOM      6  C   UNL     1     -17.541  34.097  12.938  1.00  0.00     0.004 A 
ENDROOT
BRANCH   1   7
ATOM      7  C   UNL     1     -16.792  38.322  12.906  1.00  0.00     0.075 C 
ATOM      8  O   UNL     1     -17.733  39.160  12.910  1.00  0.00    -0.545 OA
ATOM      9  O   UNL     1     -15.481  38.782  12.880  1.00  0.00    -0.545 OA
ENDBRANCH   1   7
BRANCH   2  10
ATOM     10  O   UNL     1     -15.798  36.503  10.764  1.00  0.00    -0.507 OA
ATOM     11  H   UNL     1     -14.892  36.943  10.851  1.00  0.00     0.293 HD
ENDBRANCH   2  10
TORSDOF 2
ENDMDL
MODEL 5
REMARK VINA RESULT:    -4.755     16.326     17.321
REMARK INTER + INTRA:          -5.422
REMARK INTER:                  -5.174
REMARK INTRA:                  -0.249
REMARK UNBOUND:                -0.250
REMARK SMILES O=C([O-])c1ccccc1O
REMARK SMILES IDX 4 1 9 2 5 3 8 4 6 5 7 6 2 7 1 8 3 9 10 10
REMARK H PARENT 10 11
REMARK Flexibility Score: inf
ROOT
ATOM      1  C   UNL     1     -16.308  35.829  13.997  1.00  0.00     0.039 A 
ATOM      2  C   UNL     1     -17.028  34.686  13.558  1.00  0.00     0.124 A 
ATOM      3  C   UNL     1     -15.617  36.604  13.049  1.00  0.00     0.014 A 
ATOM      4  C   UNL     1     -17.087  34.391  12.190  1.00  0.00     0.047 A 
ATOM      5  C   UNL     1     -15.670  36.282  11.690  1.00  0.00     0.001 A 
ATOM      6  C   UNL     1     -16.413  35.183  11.261  1.00  0.00     0.004 A 
ENDROOT
BRANCH   1   7
ATOM      7  C   UNL     1     -16.279  36.262  15.412  1.00  0.00     0.075 C 
ATOM      8  O   UNL     1     -16.070  35.435  16.339  1.00  0.00    -0.545 OA
ATOM      9  O   UNL     1     -16.551  37.585  15.740  1.00  0.00    -0.545 OA
ENDBRANCH   1   7
BRANCH   2  10
ATOM     10  O   UNL     1     -17.662  33.808  14.440  1.00  0.00    -0.507 OA
ATOM     11  H   UNL     1     -17.710  32.809  14.295  1.00  0.00     0.293 HD
ENDBRANCH   2  10
TORSDOF 2
ENDMDL
MODEL 6
REMARK VINA RESULT:    -4.714     12.961     14.289
REMARK INTER + INTRA:          -5.377
REMARK INTER:                  -5.142
REMARK INTRA:                  -0.236
REMARK UNBOUND:                -0.250
REMARK SMILES O=C([O-])c1ccccc1O
REMARK SMILES IDX 4 1 9 2 5 3 8 4 6 5 7 6 2 7 1 8 3 9 10 10
REMARK H PARENT 10 11
REMARK Flexibility Score: inf
ROOT
ATOM      1  C   UNL     1     -17.060  42.467  21.478  1.00  0.00     0.039 A 
ATOM      2  C   UNL     1     -16.722  41.093  21.608  1.00  0.00     0.124 A 
ATOM      3  C   UNL     1     -18.114  42.830  20.621  1.00  0.00     0.014 A 
ATOM      4  C   UNL     1     -17.481  40.128  20.933  1.00  0.00     0.047 A 
ATOM      5  C   UNL     1     -18.846  41.856  19.939  1.00  0.00     0.001 A 
ATOM      6  C   UNL     1     -18.536  40.506  20.103  1.00  0.00     0.004 A 
ENDROOT
BRANCH   1   7
ATOM      7  C   UNL     1     -16.370  43.536  22.234  1.00  0.00     0.075 C 
ATOM      8  O   UNL     1     -15.172  43.403  22.597  1.00  0.00    -0.545 OA
ATOM      9  O   UNL     1     -17.066  44.679  22.613  1.00  0.00    -0.545 OA
ENDBRANCH   1   7
BRANCH   2  10
ATOM     10  O   UNL     1     -15.632  40.652  22.361  1.00  0.00    -0.507 OA
ATOM     11  H   UNL     1     -15.368  39.679  22.444  1.00  0.00     0.293 HD
ENDBRANCH   2  10
TORSDOF 2
ENDMDL
MODEL 7
REMARK VINA RESULT:    -4.699     15.728     16.721
REMARK INTER + INTRA:          -5.361
REMARK INTER:                  -5.191
REMARK INTRA:                  -0.170
REMARK UNBOUND:                -0.250
REMARK SMILES O=C([O-])c1ccccc1O
REMARK SMILES IDX 4 1 9 2 5 3 8 4 6 5 7 6 2 7 1 8 3 9 10 10
REMARK H PARENT 10 11
REMARK Flexibility Score: inf
ROOT
ATOM      1  C   UNL     1     -16.739  36.883  12.881  1.00  0.00     0.039 A 
ATOM      2  C   UNL     1     -17.423  36.279  13.969  1.00  0.00     0.124 A 
ATOM      3  C   UNL     1     -16.359  36.084  11.788  1.00  0.00     0.014 A 
ATOM      4  C   UNL     1     -17.761  34.921  13.905  1.00  0.00     0.047 A 
ATOM      5  C   UNL     1     -16.686  34.726  11.750  1.00  0.00     0.001 A 
ATOM      6  C   UNL     1     -17.394  34.148  12.803  1.00  0.00     0.004 A 
ENDROOT
BRANCH   1   7
ATOM      7  C   UNL     1     -16.434  38.330  12.831  1.00  0.00     0.075 C 
ATOM      8  O   UNL     1     -15.244  38.743  12.859  1.00  0.00    -0.545 OA
ATOM      9  O   UNL     1     -17.468  39.259  12.821  1.00  0.00    -0.545 OA
ENDBRANCH   1   7
BRANCH   2  10
ATOM     10  O   UNL     1     -17.753  36.975  15.134  1.00  0.00    -0.507 OA
ATOM     11  H   UNL     1     -17.186  36.964  15.971  1.00  0.00     0.293 HD
ENDBRANCH   2  10
TORSDOF 2
ENDMDL
MODEL 8
REMARK VINA RESULT:    -4.672      2.297      3.540
REMARK INTER + INTRA:          -5.332
REMARK INTER:                  -5.091
REMARK INTRA:                  -0.241
REMARK UNBOUND:                -0.250
REMARK SMILES O=C([O-])c1ccccc1O
REMARK SMILES IDX 4 1 9 2 5 3 8 4 6 5 7 6 2 7 1 8 3 9 10 10
REMARK H PARENT 10 11
REMARK Flexibility Score: inf
ROOT
ATOM      1  C   UNL     1     -30.815  41.945  18.625  1.00  0.00     0.039 A 
ATOM      2  C   UNL     1     -30.833  43.239  18.040  1.00  0.00     0.124 A 
ATOM      3  C   UNL     1     -31.980  41.159  18.575  1.00  0.00     0.014 A 
ATOM      4  C   UNL     1     -31.983  43.679  17.373  1.00  0.00     0.047 A 
ATOM      5  C   UNL     1     -33.125  41.623  17.923  1.00  0.00     0.001 A 
ATOM      6  C   UNL     1     -33.123  42.877  17.315  1.00  0.00     0.004 A 
ENDROOT
BRANCH   1   7
ATOM      7  C   UNL     1     -29.608  41.370  19.261  1.00  0.00     0.075 C 
ATOM      8  O   UNL     1     -28.990  41.997  20.162  1.00  0.00    -0.545 OA
ATOM      9  O   UNL     1     -29.102  40.154  18.819  1.00  0.00    -0.545 OA
ENDBRANCH   1   7
BRANCH   2  10
ATOM     10  O   UNL     1     -29.755  44.122  18.127  1.00  0.00    -0.507 OA
ATOM     11  H   UNL     1     -29.643  44.927  17.525  1.00  0.00     0.293 HD
ENDBRANCH   2  10
TORSDOF 2
ENDMDL
MODEL 9
REMARK VINA RESULT:    -4.670     16.238     17.289
REMARK INTER + INTRA:          -5.329
REMARK INTER:                  -5.097
REMARK INTRA:                  -0.232
REMARK UNBOUND:                -0.250
REMARK SMILES O=C([O-])c1ccccc1O
REMARK SMILES IDX 4 1 9 2 5 3 8 4 6 5 7 6 2 7 1 8 3 9 10 10
REMARK H PARENT 10 11
REMARK Flexibility Score: inf
ROOT
ATOM      1  C   UNL     1     -17.093  35.084  13.278  1.00  0.00     0.039 A 
ATOM      2  C   UNL     1     -16.536  35.291  11.989  1.00  0.00     0.124 A 
ATOM      3  C   UNL     1     -16.716  35.940  14.329  1.00  0.00     0.014 A 
ATOM      4  C   UNL     1     -15.676  36.376  11.774  1.00  0.00     0.047 A 
ATOM      5  C   UNL     1     -15.840  37.004  14.101  1.00  0.00     0.001 A 
ATOM      6  C   UNL     1     -15.329  37.227  12.823  1.00  0.00     0.004 A 
ENDROOT
BRANCH   1   7
ATOM      7  C   UNL     1     -18.084  34.021  13.561  1.00  0.00     0.075 C 
ATOM      8  O   UNL     1     -17.824  32.813  13.320  1.00  0.00    -0.545 OA
ATOM      9  O   UNL     1     -19.346  34.357  14.036  1.00  0.00    -0.545 OA
ENDBRANCH   1   7
BRANCH   2  10
ATOM     10  O   UNL     1     -16.781  34.435  10.913  1.00  0.00    -0.507 OA
ATOM     11  H   UNL     1     -16.901  34.754   9.961  1.00  0.00     0.293 HD
ENDBRANCH   2  10
TORSDOF 2
ENDMDL
