MODEL 1
REMARK VINA RESULT:    -5.672      0.000      0.000
REMARK INTER + INTRA:         -10.295
REMARK INTER:                  -7.993
REMARK INTRA:                  -2.303
REMARK UNBOUND:                -2.303
REMARK SMILES C=C(CC[C@@H](C(=O)[O-])[C@@H]1[C@@H](O)C[C@]2(C)C3=C(CC[C@@]12C)[C@]1(C)CC[C@H](O)C(C)(C)[C@H]1CC3)C(C)C
REMARK SMILES IDX 4 1 5 2 6 3 7 4 8 5 9 6 10 7 19 8 12 9 13 10 18 11 20 12
REMARK SMILES IDX 14 13 15 14 17 15 16 16 32 17 21 18 31 19 30 20 23 21 22 22
REMARK SMILES IDX 27 23 24 24 25 25 28 26 29 27 11 28 26 30 3 32 2 33 1 34
REMARK SMILES IDX 33 35 34 36 35 37
REMARK H PARENT 11 29 26 31
REMARK Flexibility Score: inf
ROOT
ATOM      1  C   UNL     1      -5.079  28.474  46.697  1.00  0.00     0.014 C 
ENDROOT
BRANCH   1   2
ATOM      2  C   UNL     1      -6.176  29.569  46.522  1.00  0.00     0.042 C 
BRANCH   2   3
ATOM      3  C   UNL     1      -5.857  30.872  47.198  1.00  0.00     0.045 C 
ATOM      4  O   UNL     1      -6.728  31.638  47.617  1.00  0.00    -0.550 OA
ATOM      5  O   UNL     1      -4.528  31.308  47.224  1.00  0.00    -0.550 OA
ENDBRANCH   2   3
BRANCH   2   6
ATOM      6  C   UNL     1      -6.596  29.657  45.024  1.00  0.00     0.033 C 
ATOM      7  C   UNL     1      -6.346  30.977  44.232  1.00  0.00     0.119 C 
ATOM      8  C   UNL     1      -8.033  29.275  44.575  1.00  0.00    -0.017 C 
ATOM      9  C   UNL     1      -7.338  30.944  43.020  1.00  0.00     0.043 C 
ATOM     10  C   UNL     1      -7.879  29.503  43.030  1.00  0.00    -0.003 C 
ATOM     11  C   UNL     1      -8.512  27.830  44.792  1.00  0.00     0.012 C 
ATOM     12  C   UNL     1      -9.121  30.242  45.216  1.00  0.00     0.013 C 
ATOM     13  C   UNL     1      -6.818  28.561  42.291  1.00  0.00     0.017 C 
ATOM     14  C   UNL     1      -9.200  29.315  42.279  1.00  0.00    -0.064 C 
ATOM     15  C   UNL     1      -9.859  27.624  44.077  1.00  0.00     0.032 C 
ATOM     16  C   UNL     1     -10.164  28.461  42.787  1.00  0.00    -0.064 C 
ATOM     17  C   UNL     1      -9.248  29.683  40.798  1.00  0.00     0.032 C 
ATOM     18  C   UNL     1     -11.222  27.908  41.779  1.00  0.00    -0.008 C 
ATOM     19  C   UNL     1      -9.559  28.463  39.883  1.00  0.00     0.009 C 
ATOM     20  C   UNL     1     -10.283  27.306  40.673  1.00  0.00     0.007 C 
ATOM     21  C   UNL     1     -12.214  26.870  42.427  1.00  0.00     0.014 C 
ATOM     22  C   UNL     1     -12.148  29.063  41.249  1.00  0.00     0.016 C 
ATOM     23  C   UNL     1     -10.793  26.123  39.822  1.00  0.00    -0.006 C 
ATOM     24  C   UNL     1     -12.573  25.642  41.574  1.00  0.00     0.033 C 
ATOM     25  C   UNL     1     -11.414  25.053  40.774  1.00  0.00     0.120 C 
ATOM     26  C   UNL     1     -11.822  26.572  38.785  1.00  0.00     0.014 C 
ATOM     27  C   UNL     1      -9.587  25.477  39.077  1.00  0.00     0.014 C 
BRANCH   7  28
ATOM     28  O   UNL     1      -5.032  31.016  43.706  1.00  0.00    -0.393 OA
ATOM     29  H   UNL     1      -4.480  30.316  44.193  1.00  0.00     0.210 HD
ENDBRANCH   7  28
BRANCH  25  30
ATOM     30  O   UNL     1     -10.471  24.504  41.658  1.00  0.00    -0.393 OA
ATOM     31  H   UNL     1      -9.622  24.487  41.159  1.00  0.00     0.210 HD
ENDBRANCH  25  30
ENDBRANCH   2   6
ENDBRANCH   1   2
BRANCH   1  32
ATOM     32  C   UNL     1      -4.444  27.906  45.420  1.00  0.00     0.031 C 
BRANCH  32  33
ATOM     33  C   UNL     1      -4.971  26.495  45.180  1.00  0.00    -0.075 C 
ATOM     34  C   UNL     1      -5.775  25.926  46.104  1.00  0.00     0.008 C 
BRANCH  33  35
ATOM     35  C   UNL     1      -4.662  25.712  43.893  1.00  0.00     0.008 C 
ATOM     36  C   UNL     1      -5.954  25.174  43.244  1.00  0.00     0.012 C 
ATOM     37  C   UNL     1      -3.875  26.520  42.837  1.00  0.00     0.012 C 
ENDBRANCH  33  35
ENDBRANCH  32  33
ENDBRANCH   1  32
TORSDOF 8
ENDMDL
MODEL 2
REMARK VINA RESULT:    -5.171      2.379      4.769
REMARK INTER + INTRA:          -9.590
REMARK INTER:                  -8.221
REMARK INTRA:                  -1.370
REMARK UNBOUND:                -2.303
REMARK SMILES C=C(CC[C@@H](C(=O)[O-])[C@@H]1[C@@H](O)C[C@]2(C)C3=C(CC[C@@]12C)[C@]1(C)CC[C@H](O)C(C)(C)[C@H]1CC3)C(C)C
REMARK SMILES IDX 4 1 5 2 6 3 7 4 8 5 9 6 10 7 19 8 12 9 13 10 18 11 20 12
REMARK SMILES IDX 14 13 15 14 17 15 16 16 32 17 21 18 31 19 30 20 23 21 22 22
REMARK SMILES IDX 27 23 24 24 25 25 28 26 29 27 11 28 26 30 3 32 2 33 1 34
REMARK SMILES IDX 33 35 34 36 35 37
REMARK H PARENT 11 29 26 31
REMARK Flexibility Score: inf
ROOT
ATOM      1  C   UNL     1      -7.615  31.127  46.307  1.00  0.00     0.014 C 
ENDROOT
BRANCH   1   2
ATOM      2  C   UNL     1      -6.787  30.333  45.251  1.00  0.00     0.042 C 
BRANCH   2   3
ATOM      3  C   UNL     1      -5.396  29.982  45.698  1.00  0.00     0.045 C 
ATOM      4  O   UNL     1      -4.408  30.105  44.970  1.00  0.00    -0.550 OA
ATOM      5  O   UNL     1      -5.227  29.353  46.936  1.00  0.00    -0.550 OA
ENDBRANCH   2   3
BRANCH   2   6
ATOM      6  C   UNL     1      -7.642  29.160  44.686  1.00  0.00     0.033 C 
ATOM      7  C   UNL     1      -7.054  27.715  44.675  1.00  0.00     0.119 C 
ATOM      8  C   UNL     1      -8.299  29.255  43.282  1.00  0.00    -0.017 C 
ATOM      9  C   UNL     1      -7.866  26.930  43.590  1.00  0.00     0.043 C 
ATOM     10  C   UNL     1      -9.038  27.871  43.259  1.00  0.00    -0.003 C 
ATOM     11  C   UNL     1      -9.346  30.353  43.032  1.00  0.00     0.012 C 
ATOM     12  C   UNL     1      -7.205  29.366  42.133  1.00  0.00     0.013 C 
ATOM     13  C   UNL     1     -10.173  27.671  44.369  1.00  0.00     0.017 C 
ATOM     14  C   UNL     1      -9.715  27.595  41.914  1.00  0.00    -0.064 C 
ATOM     15  C   UNL     1     -10.018  30.119  41.667  1.00  0.00     0.032 C 
ATOM     16  C   UNL     1     -10.145  28.652  41.130  1.00  0.00    -0.064 C 
ATOM     17  C   UNL     1     -10.317  26.211  41.678  1.00  0.00     0.032 C 
ATOM     18  C   UNL     1     -11.252  28.345  40.072  1.00  0.00    -0.008 C 
ATOM     19  C   UNL     1     -11.857  26.252  41.459  1.00  0.00     0.009 C 
ATOM     20  C   UNL     1     -12.344  27.674  40.980  1.00  0.00     0.007 C 
ATOM     21  C   UNL     1     -11.745  29.627  39.300  1.00  0.00     0.014 C 
ATOM     22  C   UNL     1     -10.705  27.391  38.948  1.00  0.00     0.016 C 
ATOM     23  C   UNL     1     -13.827  27.776  40.564  1.00  0.00    -0.006 C 
ATOM     24  C   UNL     1     -13.257  29.729  39.039  1.00  0.00     0.033 C 
ATOM     25  C   UNL     1     -14.142  29.258  40.190  1.00  0.00     0.120 C 
ATOM     26  C   UNL     1     -14.153  26.851  39.392  1.00  0.00     0.014 C 
ATOM     27  C   UNL     1     -14.722  27.374  41.775  1.00  0.00     0.014 C 
BRANCH   7  28
ATOM     28  O   UNL     1      -7.265  27.067  45.917  1.00  0.00    -0.393 OA
ATOM     29  H   UNL     1      -7.510  26.100  45.726  1.00  0.00     0.210 HD
ENDBRANCH   7  28
BRANCH  25  30
ATOM     30  O   UNL     1     -13.993  30.133  41.278  1.00  0.00    -0.393 OA
ATOM     31  H   UNL     1     -13.061  30.024  41.578  1.00  0.00     0.210 HD
ENDBRANCH  25  30
ENDBRANCH   2   6
ENDBRANCH   1   2
BRANCH   1  32
ATOM     32  C   UNL     1      -7.952  32.589  45.980  1.00  0.00     0.031 C 
BRANCH  32  33
ATOM     33  C   UNL     1      -7.235  33.504  46.968  1.00  0.00    -0.075 C 
ATOM     34  C   UNL     1      -7.608  34.800  47.053  1.00  0.00     0.008 C 
BRANCH  33  35
ATOM     35  C   UNL     1      -6.136  32.992  47.912  1.00  0.00     0.008 C 
ATOM     36  C   UNL     1      -4.733  33.237  47.320  1.00  0.00     0.012 C 
ATOM     37  C   UNL     1      -6.189  33.601  49.332  1.00  0.00     0.012 C 
ENDBRANCH  33  35
ENDBRANCH  32  33
ENDBRANCH   1  32
TORSDOF 8
ENDMDL
MODEL 3
REMARK VINA RESULT:    -4.995     10.830     13.456
REMARK INTER + INTRA:          -9.342
REMARK INTER:                  -7.695
REMARK INTRA:                  -1.647
REMARK UNBOUND:                -2.303
REMARK SMILES C=C(CC[C@@H](C(=O)[O-])[C@@H]1[C@@H](O)C[C@]2(C)C3=C(CC[C@@]12C)[C@]1(C)CC[C@H](O)C(C)(C)[C@H]1CC3)C(C)C
REMARK SMILES IDX 4 1 5 2 6 3 7 4 8 5 9 6 10 7 19 8 12 9 13 10 18 11 20 12
REMARK SMILES IDX 14 13 15 14 17 15 16 16 32 17 21 18 31 19 30 20 23 21 22 22
REMARK SMILES IDX 27 23 24 24 25 25 28 26 29 27 11 28 26 30 3 32 2 33 1 34
REMARK SMILES IDX 33 35 34 36 35 37
REMARK H PARENT 11 29 26 31
REMARK Flexibility Score: inf
ROOT
ATOM      1  C   UNL     1     -22.042  22.133  41.118  1.00  0.00     0.014 C 
ENDROOT
BRANCH   1   2
ATOM      2  C   UNL     1     -22.145  23.608  40.623  1.00  0.00     0.042 C 
BRANCH   2   3
ATOM      3  C   UNL     1     -23.083  24.463  41.429  1.00  0.00     0.045 C 
ATOM      4  O   UNL     1     -23.673  25.437  40.956  1.00  0.00    -0.550 OA
ATOM      5  O   UNL     1     -23.180  24.238  42.807  1.00  0.00    -0.550 OA
ENDBRANCH   2   3
BRANCH   2   6
ATOM      6  C   UNL     1     -20.717  24.187  40.393  1.00  0.00     0.033 C 
ATOM      7  C   UNL     1     -20.130  25.215  41.409  1.00  0.00     0.119 C 
ATOM      8  C   UNL     1     -20.320  24.814  39.029  1.00  0.00    -0.017 C 
ATOM      9  C   UNL     1     -19.007  25.987  40.637  1.00  0.00     0.043 C 
ATOM     10  C   UNL     1     -18.825  25.171  39.344  1.00  0.00    -0.003 C 
ATOM     11  C   UNL     1     -20.337  23.922  37.776  1.00  0.00     0.012 C 
ATOM     12  C   UNL     1     -21.188  26.108  38.708  1.00  0.00     0.013 C 
ATOM     13  C   UNL     1     -17.867  23.930  39.662  1.00  0.00     0.017 C 
ATOM     14  C   UNL     1     -18.154  25.934  38.199  1.00  0.00    -0.064 C 
ATOM     15  C   UNL     1     -19.700  24.681  36.598  1.00  0.00     0.032 C 
ATOM     16  C   UNL     1     -18.588  25.744  36.898  1.00  0.00    -0.064 C 
ATOM     17  C   UNL     1     -16.760  26.510  38.434  1.00  0.00     0.032 C 
ATOM     18  C   UNL     1     -17.587  26.110  35.757  1.00  0.00    -0.008 C 
ATOM     19  C   UNL     1     -15.686  25.892  37.492  1.00  0.00     0.009 C 
ATOM     20  C   UNL     1     -16.332  25.273  36.193  1.00  0.00     0.007 C 
ATOM     21  C   UNL     1     -18.132  25.766  34.319  1.00  0.00     0.014 C 
ATOM     22  C   UNL     1     -17.320  27.659  35.720  1.00  0.00     0.016 C 
ATOM     23  C   UNL     1     -15.342  24.791  35.110  1.00  0.00    -0.006 C 
ATOM     24  C   UNL     1     -17.122  25.161  33.331  1.00  0.00     0.033 C 
ATOM     25  C   UNL     1     -16.153  24.150  33.940  1.00  0.00     0.120 C 
ATOM     26  C   UNL     1     -14.470  25.933  34.589  1.00  0.00     0.014 C 
ATOM     27  C   UNL     1     -14.414  23.698  35.721  1.00  0.00     0.014 C 
BRANCH   7  28
ATOM     28  O   UNL     1     -19.520  24.559  42.506  1.00  0.00    -0.393 OA
ATOM     29  H   UNL     1     -19.415  25.237  43.255  1.00  0.00     0.210 HD
ENDBRANCH   7  28
BRANCH  25  30
ATOM     30  O   UNL     1     -16.864  23.007  34.338  1.00  0.00    -0.393 OA
ATOM     31  H   UNL     1     -16.634  22.870  35.286  1.00  0.00     0.210 HD
ENDBRANCH  25  30
ENDBRANCH   2   6
ENDBRANCH   1   2
BRANCH   1  32
ATOM     32  C   UNL     1     -20.847  21.308  40.621  1.00  0.00     0.031 C 
BRANCH  32  33
ATOM     33  C   UNL     1     -20.082  20.756  41.820  1.00  0.00    -0.075 C 
ATOM     34  C   UNL     1     -20.772  20.226  42.853  1.00  0.00     0.008 C 
BRANCH  33  35
ATOM     35  C   UNL     1     -18.546  20.733  41.873  1.00  0.00     0.008 C 
ATOM     36  C   UNL     1     -18.027  21.222  43.241  1.00  0.00     0.012 C 
ATOM     37  C   UNL     1     -17.925  19.349  41.573  1.00  0.00     0.012 C 
ENDBRANCH  33  35
ENDBRANCH  32  33
ENDBRANCH   1  32
TORSDOF 8
ENDMDL
MODEL 4
REMARK VINA RESULT:    -4.889      5.861      9.660
REMARK INTER + INTRA:          -9.192
REMARK INTER:                  -8.109
REMARK INTRA:                  -1.083
REMARK UNBOUND:                -2.303
REMARK SMILES C=C(CC[C@@H](C(=O)[O-])[C@@H]1[C@@H](O)C[C@]2(C)C3=C(CC[C@@]12C)[C@]1(C)CC[C@H](O)C(C)(C)[C@H]1CC3)C(C)C
REMARK SMILES IDX 4 1 5 2 6 3 7 4 8 5 9 6 10 7 19 8 12 9 13 10 18 11 20 12
REMARK SMILES IDX 14 13 15 14 17 15 16 16 32 17 21 18 31 19 30 20 23 21 22 22
REMARK SMILES IDX 27 23 24 24 25 25 28 26 29 27 11 28 26 30 3 32 2 33 1 34
REMARK SMILES IDX 33 35 34 36 35 37
REMARK H PARENT 11 29 26 31
REMARK Flexibility Score: inf
ROOT
ATOM      1  C   UNL     1     -10.442  20.808  37.337  1.00  0.00     0.014 C 
ENDROOT
BRANCH   1   2
ATOM      2  C   UNL     1     -11.374  20.642  38.576  1.00  0.00     0.042 C 
BRANCH   2   3
ATOM      3  C   UNL     1     -11.306  19.286  39.219  1.00  0.00     0.045 C 
ATOM      4  O   UNL     1     -12.312  18.642  39.529  1.00  0.00    -0.550 OA
ATOM      5  O   UNL     1     -10.060  18.793  39.619  1.00  0.00    -0.550 OA
ENDBRANCH   2   3
BRANCH   2   6
ATOM      6  C   UNL     1     -11.204  21.862  39.530  1.00  0.00     0.033 C 
ATOM      7  C   UNL     1     -10.889  21.622  41.038  1.00  0.00     0.119 C 
ATOM      8  C   UNL     1     -12.281  22.980  39.596  1.00  0.00    -0.017 C 
ATOM      9  C   UNL     1     -11.328  22.928  41.782  1.00  0.00     0.043 C 
ATOM     10  C   UNL     1     -11.592  23.927  40.640  1.00  0.00    -0.003 C 
ATOM     11  C   UNL     1     -12.565  23.803  38.329  1.00  0.00     0.012 C 
ATOM     12  C   UNL     1     -13.671  22.418  40.126  1.00  0.00     0.013 C 
ATOM     13  C   UNL     1     -10.192  24.557  40.190  1.00  0.00     0.017 C 
ATOM     14  C   UNL     1     -12.480  25.113  41.026  1.00  0.00    -0.064 C 
ATOM     15  C   UNL     1     -13.488  24.984  38.682  1.00  0.00     0.032 C 
ATOM     16  C   UNL     1     -13.413  25.596  40.123  1.00  0.00    -0.064 C 
ATOM     17  C   UNL     1     -12.023  26.018  42.167  1.00  0.00     0.032 C 
ATOM     18  C   UNL     1     -13.905  27.063  40.331  1.00  0.00    -0.008 C 
ATOM     19  C   UNL     1     -11.761  27.482  41.708  1.00  0.00     0.009 C 
ATOM     20  C   UNL     1     -12.533  27.826  40.376  1.00  0.00     0.007 C 
ATOM     21  C   UNL     1     -14.886  27.554  39.200  1.00  0.00     0.014 C 
ATOM     22  C   UNL     1     -14.735  27.194  41.659  1.00  0.00     0.016 C 
ATOM     23  C   UNL     1     -12.484  29.303  39.929  1.00  0.00    -0.006 C 
ATOM     24  C   UNL     1     -14.691  28.997  38.704  1.00  0.00     0.033 C 
ATOM     25  C   UNL     1     -13.236  29.440  38.568  1.00  0.00     0.120 C 
ATOM     26  C   UNL     1     -13.100  30.233  40.973  1.00  0.00     0.014 C 
ATOM     27  C   UNL     1     -10.997  29.718  39.712  1.00  0.00     0.014 C 
BRANCH   7  28
ATOM     28  O   UNL     1      -9.498  21.458  41.251  1.00  0.00    -0.393 OA
ATOM     29  H   UNL     1      -9.335  21.449  42.253  1.00  0.00     0.210 HD
ENDBRANCH   7  28
BRANCH  25  30
ATOM     30  O   UNL     1     -12.623  28.711  37.536  1.00  0.00    -0.393 OA
ATOM     31  H   UNL     1     -12.411  29.372  36.838  1.00  0.00     0.210 HD
ENDBRANCH  25  30
ENDBRANCH   2   6
ENDBRANCH   1   2
BRANCH   1  32
ATOM     32  C   UNL     1     -10.444  19.678  36.300  1.00  0.00     0.031 C 
BRANCH  32  33
ATOM     33  C   UNL     1     -10.895  20.231  34.952  1.00  0.00    -0.075 C 
ATOM     34  C   UNL     1     -11.232  21.535  34.855  1.00  0.00     0.008 C 
BRANCH  33  35
ATOM     35  C   UNL     1     -10.929  19.367  33.681  1.00  0.00     0.008 C 
ATOM     36  C   UNL     1     -11.607  20.116  32.515  1.00  0.00     0.012 C 
ATOM     37  C   UNL     1      -9.540  18.876  33.214  1.00  0.00     0.012 C 
ENDBRANCH  33  35
ENDBRANCH  32  33
ENDBRANCH   1  32
TORSDOF 8
ENDMDL
MODEL 5
REMARK VINA RESULT:    -4.867      1.977      7.820
REMARK INTER + INTRA:          -9.162
REMARK INTER:                  -7.432
REMARK INTRA:                  -1.730
REMARK UNBOUND:                -2.303
REMARK SMILES C=C(CC[C@@H](C(=O)[O-])[C@@H]1[C@@H](O)C[C@]2(C)C3=C(CC[C@@]12C)[C@]1(C)CC[C@H](O)C(C)(C)[C@H]1CC3)C(C)C
REMARK SMILES IDX 4 1 5 2 6 3 7 4 8 5 9 6 10 7 19 8 12 9 13 10 18 11 20 12
REMARK SMILES IDX 14 13 15 14 17 15 16 16 32 17 21 18 31 19 30 20 23 21 22 22
REMARK SMILES IDX 27 23 24 24 25 25 28 26 29 27 11 28 26 30 3 32 2 33 1 34
REMARK SMILES IDX 33 35 34 36 35 37
REMARK H PARENT 11 29 26 31
REMARK Flexibility Score: inf
ROOT
ATOM      1  C   UNL     1     -11.961  25.781  42.367  1.00  0.00     0.014 C 
ENDROOT
BRANCH   1   2
ATOM      2  C   UNL     1     -10.616  25.591  41.600  1.00  0.00     0.042 C 
BRANCH   2   3
ATOM      3  C   UNL     1     -10.745  24.822  40.315  1.00  0.00     0.045 C 
ATOM      4  O   UNL     1     -11.599  25.080  39.464  1.00  0.00    -0.550 OA
ATOM      5  O   UNL     1      -9.964  23.675  40.137  1.00  0.00    -0.550 OA
ENDBRANCH   2   3
BRANCH   2   6
ATOM      6  C   UNL     1      -9.864  26.952  41.512  1.00  0.00     0.033 C 
ATOM      7  C   UNL     1      -9.275  27.419  40.145  1.00  0.00     0.119 C 
ATOM      8  C   UNL     1      -8.710  27.291  42.496  1.00  0.00    -0.017 C 
ATOM      9  C   UNL     1      -8.159  28.461  40.493  1.00  0.00     0.043 C 
ATOM     10  C   UNL     1      -8.371  28.738  41.992  1.00  0.00    -0.003 C 
ATOM     11  C   UNL     1      -9.027  27.377  43.998  1.00  0.00     0.012 C 
ATOM     12  C   UNL     1      -7.483  26.295  42.321  1.00  0.00     0.013 C 
ATOM     13  C   UNL     1      -9.541  29.819  42.144  1.00  0.00     0.017 C 
ATOM     14  C   UNL     1      -7.156  29.333  42.707  1.00  0.00    -0.064 C 
ATOM     15  C   UNL     1      -7.806  27.940  44.748  1.00  0.00     0.032 C 
ATOM     16  C   UNL     1      -6.851  28.932  43.997  1.00  0.00    -0.064 C 
ATOM     17  C   UNL     1      -6.594  30.658  42.197  1.00  0.00     0.032 C 
ATOM     18  C   UNL     1      -5.969  29.898  44.850  1.00  0.00    -0.008 C 
ATOM     19  C   UNL     1      -6.682  31.798  43.252  1.00  0.00     0.009 C 
ATOM     20  C   UNL     1      -6.790  31.231  44.720  1.00  0.00     0.007 C 
ATOM     21  C   UNL     1      -5.761  29.404  46.331  1.00  0.00     0.014 C 
ATOM     22  C   UNL     1      -4.517  30.001  44.258  1.00  0.00     0.016 C 
ATOM     23  C   UNL     1      -6.706  32.275  45.855  1.00  0.00    -0.006 C 
ATOM     24  C   UNL     1      -5.826  30.480  47.428  1.00  0.00     0.033 C 
ATOM     25  C   UNL     1      -6.900  31.545  47.222  1.00  0.00     0.120 C 
ATOM     26  C   UNL     1      -5.375  33.026  45.838  1.00  0.00     0.014 C 
ATOM     27  C   UNL     1      -7.860  33.308  45.681  1.00  0.00     0.014 C 
BRANCH   7  28
ATOM     28  O   UNL     1     -10.254  28.086  39.368  1.00  0.00    -0.393 OA
ATOM     29  H   UNL     1     -10.844  27.380  38.938  1.00  0.00     0.210 HD
ENDBRANCH   7  28
BRANCH  25  30
ATOM     30  O   UNL     1      -8.168  30.955  47.343  1.00  0.00    -0.393 OA
ATOM     31  H   UNL     1      -8.140  30.152  46.774  1.00  0.00     0.210 HD
ENDBRANCH  25  30
ENDBRANCH   2   6
ENDBRANCH   1   2
BRANCH   1  32
ATOM     32  C   UNL     1     -12.381  27.219  42.700  1.00  0.00     0.031 C 
BRANCH  32  33
ATOM     33  C   UNL     1     -13.473  27.662  41.731  1.00  0.00    -0.075 C 
ATOM     34  C   UNL     1     -14.736  27.219  41.915  1.00  0.00     0.008 C 
BRANCH  33  35
ATOM     35  C   UNL     1     -13.199  28.642  40.579  1.00  0.00     0.008 C 
ATOM     36  C   UNL     1     -13.946  28.220  39.297  1.00  0.00     0.012 C 
ATOM     37  C   UNL     1     -13.556  30.111  40.901  1.00  0.00     0.012 C 
ENDBRANCH  33  35
ENDBRANCH  32  33
ENDBRANCH   1  32
TORSDOF 8
ENDMDL
MODEL 6
REMARK VINA RESULT:    -4.856      1.598      3.045
REMARK INTER + INTRA:          -9.146
REMARK INTER:                  -7.297
REMARK INTRA:                  -1.849
REMARK UNBOUND:                -2.303
REMARK SMILES C=C(CC[C@@H](C(=O)[O-])[C@@H]1[C@@H](O)C[C@]2(C)C3=C(CC[C@@]12C)[C@]1(C)CC[C@H](O)C(C)(C)[C@H]1CC3)C(C)C
REMARK SMILES IDX 4 1 5 2 6 3 7 4 8 5 9 6 10 7 19 8 12 9 13 10 18 11 20 12
REMARK SMILES IDX 14 13 15 14 17 15 16 16 32 17 21 18 31 19 30 20 23 21 22 22
REMARK SMILES IDX 27 23 24 24 25 25 28 26 29 27 11 28 26 30 3 32 2 33 1 34
REMARK SMILES IDX 33 35 34 36 35 37
REMARK H PARENT 11 29 26 31
REMARK Flexibility Score: inf
ROOT
ATOM      1  C   UNL     1      -8.128  29.742  45.663  1.00  0.00     0.014 C 
ENDROOT
BRANCH   1   2
ATOM      2  C   UNL     1      -8.293  30.419  44.268  1.00  0.00     0.042 C 
BRANCH   2   3
ATOM      3  C   UNL     1      -7.470  31.663  44.086  1.00  0.00     0.045 C 
ATOM      4  O   UNL     1      -7.928  32.703  43.606  1.00  0.00    -0.550 OA
ATOM      5  O   UNL     1      -6.095  31.601  44.333  1.00  0.00    -0.550 OA
ENDBRANCH   2   3
BRANCH   2   6
ATOM      6  C   UNL     1      -8.171  29.346  43.145  1.00  0.00     0.033 C 
ATOM      7  C   UNL     1      -7.202  29.592  41.948  1.00  0.00     0.119 C 
ATOM      8  C   UNL     1      -9.434  28.789  42.432  1.00  0.00    -0.017 C 
ATOM      9  C   UNL     1      -7.712  28.672  40.787  1.00  0.00     0.043 C 
ATOM     10  C   UNL     1      -8.744  27.758  41.473  1.00  0.00    -0.003 C 
ATOM     11  C   UNL     1     -10.476  28.029  43.270  1.00  0.00     0.012 C 
ATOM     12  C   UNL     1     -10.202  29.929  41.631  1.00  0.00     0.013 C 
ATOM     13  C   UNL     1      -7.959  26.560  42.188  1.00  0.00     0.017 C 
ATOM     14  C   UNL     1      -9.739  27.094  40.517  1.00  0.00    -0.064 C 
ATOM     15  C   UNL     1     -11.512  27.381  42.333  1.00  0.00     0.032 C 
ATOM     16  C   UNL     1     -11.063  26.949  40.895  1.00  0.00    -0.064 C 
ATOM     17  C   UNL     1      -9.190  26.207  39.403  1.00  0.00     0.032 C 
ATOM     18  C   UNL     1     -11.893  25.848  40.160  1.00  0.00    -0.008 C 
ATOM     19  C   UNL     1      -9.654  24.726  39.526  1.00  0.00     0.009 C 
ATOM     20  C   UNL     1     -10.973  24.595  40.382  1.00  0.00     0.007 C 
ATOM     21  C   UNL     1     -13.354  25.691  40.727  1.00  0.00     0.014 C 
ATOM     22  C   UNL     1     -12.092  26.214  38.645  1.00  0.00     0.016 C 
ATOM     23  C   UNL     1     -11.616  23.192  40.420  1.00  0.00    -0.006 C 
ATOM     24  C   UNL     1     -13.884  24.254  40.866  1.00  0.00     0.033 C 
ATOM     25  C   UNL     1     -12.860  23.237  41.363  1.00  0.00     0.120 C 
ATOM     26  C   UNL     1     -12.024  22.717  39.026  1.00  0.00     0.014 C 
ATOM     27  C   UNL     1     -10.589  22.178  41.009  1.00  0.00     0.014 C 
BRANCH   7  28
ATOM     28  O   UNL     1      -5.883  29.187  42.266  1.00  0.00    -0.393 OA
ATOM     29  H   UNL     1      -5.495  29.868  42.911  1.00  0.00     0.210 HD
ENDBRANCH   7  28
BRANCH  25  30
ATOM     30  O   UNL     1     -12.518  23.533  42.693  1.00  0.00    -0.393 OA
ATOM     31  H   UNL     1     -11.793  24.196  42.637  1.00  0.00     0.210 HD
ENDBRANCH  25  30
ENDBRANCH   2   6
ENDBRANCH   1   2
BRANCH   1  32
ATOM     32  C   UNL     1      -7.655  28.282  45.683  1.00  0.00     0.031 C 
BRANCH  32  33
ATOM     33  C   UNL     1      -6.226  28.222  46.212  1.00  0.00    -0.075 C 
ATOM     34  C   UNL     1      -5.725  29.287  46.876  1.00  0.00     0.008 C 
BRANCH  33  35
ATOM     35  C   UNL     1      -5.349  26.968  46.066  1.00  0.00     0.008 C 
ATOM     36  C   UNL     1      -6.119  25.697  46.476  1.00  0.00     0.012 C 
ATOM     37  C   UNL     1      -4.774  26.763  44.646  1.00  0.00     0.012 C 
ENDBRANCH  33  35
ENDBRANCH  32  33
ENDBRANCH   1  32
TORSDOF 8
ENDMDL
MODEL 7
REMARK VINA RESULT:    -4.746      2.053      7.627
REMARK INTER + INTRA:          -8.991
REMARK INTER:                  -7.401
REMARK INTRA:                  -1.590
REMARK UNBOUND:                -2.303
REMARK SMILES C=C(CC[C@@H](C(=O)[O-])[C@@H]1[C@@H](O)C[C@]2(C)C3=C(CC[C@@]12C)[C@]1(C)CC[C@H](O)C(C)(C)[C@H]1CC3)C(C)C
REMARK SMILES IDX 4 1 5 2 6 3 7 4 8 5 9 6 10 7 19 8 12 9 13 10 18 11 20 12
REMARK SMILES IDX 14 13 15 14 17 15 16 16 32 17 21 18 31 19 30 20 23 21 22 22
REMARK SMILES IDX 27 23 24 24 25 25 28 26 29 27 11 28 26 30 3 32 2 33 1 34
REMARK SMILES IDX 33 35 34 36 35 37
REMARK H PARENT 11 29 26 31
REMARK Flexibility Score: inf
ROOT
ATOM      1  C   UNL     1     -10.095  25.260  40.780  1.00  0.00     0.014 C 
ENDROOT
BRANCH   1   2
ATOM      2  C   UNL     1      -8.672  24.903  41.309  1.00  0.00     0.042 C 
BRANCH   2   3
ATOM      3  C   UNL     1      -8.064  23.688  40.667  1.00  0.00     0.045 C 
ATOM      4  O   UNL     1      -7.271  22.948  41.253  1.00  0.00    -0.550 OA
ATOM      5  O   UNL     1      -8.288  23.466  39.304  1.00  0.00    -0.550 OA
ENDBRANCH   2   3
BRANCH   2   6
ATOM      6  C   UNL     1      -7.784  26.183  41.335  1.00  0.00     0.033 C 
ATOM      7  C   UNL     1      -6.570  26.296  40.362  1.00  0.00     0.119 C 
ATOM      8  C   UNL     1      -7.185  26.712  42.667  1.00  0.00    -0.017 C 
ATOM      9  C   UNL     1      -5.610  27.358  40.997  1.00  0.00     0.043 C 
ATOM     10  C   UNL     1      -6.453  27.988  42.120  1.00  0.00    -0.003 C 
ATOM     11  C   UNL     1      -8.147  27.161  43.779  1.00  0.00     0.012 C 
ATOM     12  C   UNL     1      -6.169  25.668  43.305  1.00  0.00     0.013 C 
ATOM     13  C   UNL     1      -7.397  29.107  41.475  1.00  0.00     0.017 C 
ATOM     14  C   UNL     1      -5.639  28.701  43.204  1.00  0.00    -0.064 C 
ATOM     15  C   UNL     1      -7.349  27.850  44.900  1.00  0.00     0.032 C 
ATOM     16  C   UNL     1      -6.027  28.608  44.529  1.00  0.00    -0.064 C 
ATOM     17  C   UNL     1      -4.727  29.850  42.783  1.00  0.00     0.032 C 
ATOM     18  C   UNL     1      -5.518  29.723  45.497  1.00  0.00    -0.008 C 
ATOM     19  C   UNL     1      -5.135  31.210  43.419  1.00  0.00     0.009 C 
ATOM     20  C   UNL     1      -5.990  31.010  44.730  1.00  0.00     0.007 C 
ATOM     21  C   UNL     1      -6.092  29.587  46.958  1.00  0.00     0.014 C 
ATOM     22  C   UNL     1      -3.958  29.641  45.674  1.00  0.00     0.016 C 
ATOM     23  C   UNL     1      -6.299  32.290  45.537  1.00  0.00    -0.006 C 
ATOM     24  C   UNL     1      -6.508  30.894  47.653  1.00  0.00     0.033 C 
ATOM     25  C   UNL     1      -7.204  31.910  46.751  1.00  0.00     0.120 C 
ATOM     26  C   UNL     1      -5.022  32.977  46.021  1.00  0.00     0.014 C 
ATOM     27  C   UNL     1      -7.084  33.285  44.631  1.00  0.00     0.014 C 
BRANCH   7  28
ATOM     28  O   UNL     1      -6.972  26.787  39.097  1.00  0.00    -0.393 OA
ATOM     29  H   UNL     1      -6.874  26.033  38.424  1.00  0.00     0.210 HD
ENDBRANCH   7  28
BRANCH  25  30
ATOM     30  O   UNL     1      -8.452  31.402  46.356  1.00  0.00    -0.393 OA
ATOM     31  H   UNL     1      -8.436  31.402  45.371  1.00  0.00     0.210 HD
ENDBRANCH  25  30
ENDBRANCH   2   6
ENDBRANCH   1   2
BRANCH   1  32
ATOM     32  C   UNL     1     -10.578  26.703  40.984  1.00  0.00     0.031 C 
BRANCH  32  33
ATOM     33  C   UNL     1     -11.840  26.696  41.841  1.00  0.00    -0.075 C 
ATOM     34  C   UNL     1     -11.736  26.933  43.167  1.00  0.00     0.008 C 
BRANCH  33  35
ATOM     35  C   UNL     1     -13.238  26.481  41.240  1.00  0.00     0.008 C 
ATOM     36  C   UNL     1     -13.614  24.986  41.223  1.00  0.00     0.012 C 
ATOM     37  C   UNL     1     -14.360  27.267  41.956  1.00  0.00     0.012 C 
ENDBRANCH  33  35
ENDBRANCH  32  33
ENDBRANCH   1  32
TORSDOF 8
ENDMDL
MODEL 8
REMARK VINA RESULT:    -4.743      1.782      3.642
REMARK INTER + INTRA:          -8.987
REMARK INTER:                  -8.075
REMARK INTRA:                  -0.912
REMARK UNBOUND:                -2.303
REMARK SMILES C=C(CC[C@@H](C(=O)[O-])[C@@H]1[C@@H](O)C[C@]2(C)C3=C(CC[C@@]12C)[C@]1(C)CC[C@H](O)C(C)(C)[C@H]1CC3)C(C)C
REMARK SMILES IDX 4 1 5 2 6 3 7 4 8 5 9 6 10 7 19 8 12 9 13 10 18 11 20 12
REMARK SMILES IDX 14 13 15 14 17 15 16 16 32 17 21 18 31 19 30 20 23 21 22 22
REMARK SMILES IDX 27 23 24 24 25 25 28 26 29 27 11 28 26 30 3 32 2 33 1 34
REMARK SMILES IDX 33 35 34 36 35 37
REMARK H PARENT 11 29 26 31
REMARK Flexibility Score: inf
ROOT
ATOM      1  C   UNL     1      -7.854  29.443  46.073  1.00  0.00     0.014 C 
ENDROOT
BRANCH   1   2
ATOM      2  C   UNL     1      -6.476  29.151  45.404  1.00  0.00     0.042 C 
BRANCH   2   3
ATOM      3  C   UNL     1      -5.450  28.574  46.337  1.00  0.00     0.045 C 
ATOM      4  O   UNL     1      -4.572  29.257  46.870  1.00  0.00    -0.550 OA
ATOM      5  O   UNL     1      -5.391  27.185  46.495  1.00  0.00    -0.550 OA
ENDBRANCH   2   3
BRANCH   2   6
ATOM      6  C   UNL     1      -6.694  28.386  44.065  1.00  0.00     0.033 C 
ATOM      7  C   UNL     1      -5.733  28.647  42.864  1.00  0.00     0.119 C 
ATOM      8  C   UNL     1      -8.084  28.369  43.372  1.00  0.00    -0.017 C 
ATOM      9  C   UNL     1      -6.516  28.199  41.583  1.00  0.00     0.043 C 
ATOM     10  C   UNL     1      -7.740  27.453  42.145  1.00  0.00    -0.003 C 
ATOM     11  C   UNL     1      -9.270  27.733  44.117  1.00  0.00     0.012 C 
ATOM     12  C   UNL     1      -8.529  29.828  42.921  1.00  0.00     0.013 C 
ATOM     13  C   UNL     1      -7.299  25.956  42.498  1.00  0.00     0.017 C 
ATOM     14  C   UNL     1      -8.911  27.325  41.167  1.00  0.00    -0.064 C 
ATOM     15  C   UNL     1     -10.475  27.626  43.165  1.00  0.00     0.032 C 
ATOM     16  C   UNL     1     -10.210  27.448  41.630  1.00  0.00    -0.064 C 
ATOM     17  C   UNL     1      -8.667  26.618  39.836  1.00  0.00     0.032 C 
ATOM     18  C   UNL     1     -11.337  26.815  40.753  1.00  0.00    -0.008 C 
ATOM     19  C   UNL     1      -9.522  25.328  39.673  1.00  0.00     0.009 C 
ATOM     20  C   UNL     1     -10.797  25.348  40.602  1.00  0.00     0.007 C 
ATOM     21  C   UNL     1     -12.766  26.918  41.409  1.00  0.00     0.014 C 
ATOM     22  C   UNL     1     -11.474  27.572  39.382  1.00  0.00     0.016 C 
ATOM     23  C   UNL     1     -11.805  24.197  40.390  1.00  0.00    -0.006 C 
ATOM     24  C   UNL     1     -13.670  25.681  41.277  1.00  0.00     0.033 C 
ATOM     25  C   UNL     1     -12.956  24.341  41.435  1.00  0.00     0.120 C 
ATOM     26  C   UNL     1     -12.373  24.195  38.971  1.00  0.00     0.014 C 
ATOM     27  C   UNL     1     -11.084  22.838  40.637  1.00  0.00     0.014 C 
BRANCH   7  28
ATOM     28  O   UNL     1      -4.571  27.844  42.955  1.00  0.00    -0.393 OA
ATOM     29  H   UNL     1      -3.911  28.170  42.256  1.00  0.00     0.210 HD
ENDBRANCH   7  28
BRANCH  25  30
ATOM     30  O   UNL     1     -12.503  24.209  42.758  1.00  0.00    -0.393 OA
ATOM     31  H   UNL     1     -13.301  24.328  43.322  1.00  0.00     0.210 HD
ENDBRANCH  25  30
ENDBRANCH   2   6
ENDBRANCH   1   2
BRANCH   1  32
ATOM     32  C   UNL     1      -7.925  30.628  47.046  1.00  0.00     0.031 C 
BRANCH  32  33
ATOM     33  C   UNL     1      -7.608  31.917  46.296  1.00  0.00    -0.075 C 
ATOM     34  C   UNL     1      -8.482  32.372  45.372  1.00  0.00     0.008 C 
BRANCH  33  35
ATOM     35  C   UNL     1      -6.351  32.750  46.591  1.00  0.00     0.008 C 
ATOM     36  C   UNL     1      -5.775  32.417  47.983  1.00  0.00     0.012 C 
ATOM     37  C   UNL     1      -5.229  32.594  45.540  1.00  0.00     0.012 C 
ENDBRANCH  33  35
ENDBRANCH  32  33
ENDBRANCH   1  32
TORSDOF 8
ENDMDL
MODEL 9
REMARK VINA RESULT:    -4.634      6.260     10.106
REMARK INTER + INTRA:          -8.833
REMARK INTER:                  -7.072
REMARK INTRA:                  -1.762
REMARK UNBOUND:                -2.303
REMARK SMILES C=C(CC[C@@H](C(=O)[O-])[C@@H]1[C@@H](O)C[C@]2(C)C3=C(CC[C@@]12C)[C@]1(C)CC[C@H](O)C(C)(C)[C@H]1CC3)C(C)C
REMARK SMILES IDX 4 1 5 2 6 3 7 4 8 5 9 6 10 7 19 8 12 9 13 10 18 11 20 12
REMARK SMILES IDX 14 13 15 14 17 15 16 16 32 17 21 18 31 19 30 20 23 21 22 22
REMARK SMILES IDX 27 23 24 24 25 25 28 26 29 27 11 28 26 30 3 32 2 33 1 34
REMARK SMILES IDX 33 35 34 36 35 37
REMARK H PARENT 11 29 26 31
REMARK Flexibility Score: inf
ROOT
ATOM      1  C   UNL     1     -14.435  26.795  41.288  1.00  0.00     0.014 C 
ENDROOT
BRANCH   1   2
ATOM      2  C   UNL     1     -14.507  27.841  40.133  1.00  0.00     0.042 C 
BRANCH   2   3
ATOM      3  C   UNL     1     -13.642  29.051  40.344  1.00  0.00     0.045 C 
ATOM      4  O   UNL     1     -13.923  30.161  39.886  1.00  0.00    -0.550 OA
ATOM      5  O   UNL     1     -12.396  28.887  40.958  1.00  0.00    -0.550 OA
ENDBRANCH   2   3
BRANCH   2   6
ATOM      6  C   UNL     1     -14.355  27.120  38.760  1.00  0.00     0.033 C 
ATOM      7  C   UNL     1     -13.100  27.403  37.877  1.00  0.00     0.119 C 
ATOM      8  C   UNL     1     -15.502  27.145  37.714  1.00  0.00    -0.017 C 
ATOM      9  C   UNL     1     -13.505  27.007  36.417  1.00  0.00     0.043 C 
ATOM     10  C   UNL     1     -14.841  26.262  36.598  1.00  0.00    -0.003 C 
ATOM     11  C   UNL     1     -16.850  26.504  38.084  1.00  0.00     0.012 C 
ATOM     12  C   UNL     1     -15.798  28.623  37.208  1.00  0.00     0.013 C 
ATOM     13  C   UNL     1     -14.522  24.748  37.008  1.00  0.00     0.017 C 
ATOM     14  C   UNL     1     -15.700  26.181  35.334  1.00  0.00    -0.064 C 
ATOM     15  C   UNL     1     -17.749  26.443  36.836  1.00  0.00     0.032 C 
ATOM     16  C   UNL     1     -17.075  26.309  35.427  1.00  0.00    -0.064 C 
ATOM     17  C   UNL     1     -15.105  25.511  34.097  1.00  0.00     0.032 C 
ATOM     18  C   UNL     1     -17.923  25.719  34.255  1.00  0.00    -0.008 C 
ATOM     19  C   UNL     1     -15.890  24.239  33.663  1.00  0.00     0.009 C 
ATOM     20  C   UNL     1     -17.370  24.250  34.208  1.00  0.00     0.007 C 
ATOM     21  C   UNL     1     -19.476  25.823  34.498  1.00  0.00     0.014 C 
ATOM     22  C   UNL     1     -17.675  26.520  32.925  1.00  0.00     0.016 C 
ATOM     23  C   UNL     1     -18.289  23.121  33.690  1.00  0.00    -0.006 C 
ATOM     24  C   UNL     1     -20.317  24.605  34.083  1.00  0.00     0.033 C 
ATOM     25  C   UNL     1     -19.681  23.250  34.385  1.00  0.00     0.120 C 
ATOM     26  C   UNL     1     -18.447  23.171  32.171  1.00  0.00     0.014 C 
ATOM     27  C   UNL     1     -17.671  21.745  34.080  1.00  0.00     0.014 C 
BRANCH   7  28
ATOM     28  O   UNL     1     -12.012  26.581  38.256  1.00  0.00    -0.393 OA
ATOM     29  H   UNL     1     -11.868  26.694  39.255  1.00  0.00     0.210 HD
ENDBRANCH   7  28
BRANCH  25  30
ATOM     30  O   UNL     1     -19.608  23.071  35.776  1.00  0.00    -0.393 OA
ATOM     31  H   UNL     1     -19.129  23.860  36.118  1.00  0.00     0.210 HD
ENDBRANCH  25  30
ENDBRANCH   2   6
ENDBRANCH   1   2
BRANCH   1  32
ATOM     32  C   UNL     1     -14.343  25.316  40.890  1.00  0.00     0.031 C 
BRANCH  32  33
ATOM     33  C   UNL     1     -13.011  24.746  41.369  1.00  0.00    -0.075 C 
ATOM     34  C   UNL     1     -12.169  25.540  42.067  1.00  0.00     0.008 C 
BRANCH  33  35
ATOM     35  C   UNL     1     -12.612  23.281  41.133  1.00  0.00     0.008 C 
ATOM     36  C   UNL     1     -12.247  23.034  39.654  1.00  0.00     0.012 C 
ATOM     37  C   UNL     1     -11.445  22.793  42.020  1.00  0.00     0.012 C 
ENDBRANCH  33  35
ENDBRANCH  32  33
ENDBRANCH   1  32
TORSDOF 8
ENDMDL
