MODEL 1
REMARK VINA RESULT:    -4.077      0.000      0.000
REMARK INTER + INTRA:          -6.532
REMARK INTER:                  -6.222
REMARK INTRA:                  -0.311
REMARK UNBOUND:                -0.311
REMARK SMILES CC1=CCC[C@H](C)C(=O)C[C@@H](C(C)C)C(=O)C1
REMARK SMILES IDX 8 1 9 2 6 3 7 4 5 5 4 6 3 7 2 8 1 9 10 11 11 12 15 13 16 14
REMARK SMILES IDX 17 15 12 17 13 18 14 19
REMARK H PARENT
REMARK Flexibility Score: 70.00
ROOT
ATOM      1  C   UNL     1      53.065  32.337  31.694  1.00  0.00     0.136 C 
ATOM      2  O   UNL     1      53.456  31.529  32.526  1.00  0.00    -0.299 OA
ENDROOT
BRANCH   1   3
ATOM      3  C   UNL     1      51.692  32.177  31.082  1.00  0.00     0.053 C 
ATOM      4  C   UNL     1      51.624  30.936  30.185  1.00  0.00     0.016 C 
BRANCH   3   5
ATOM      5  C   UNL     1      50.635  32.122  32.212  1.00  0.00     0.015 C 
BRANCH   5   6
ATOM      6  C   UNL     1      50.241  33.478  32.831  1.00  0.00     0.028 C 
BRANCH   6   7
ATOM      7  C   UNL     1      49.751  34.549  31.881  1.00  0.00    -0.028 C 
ATOM      8  C   UNL     1      50.262  35.795  31.725  1.00  0.00    -0.070 CG0
ATOM      9  C   UNL     1      49.543  36.734  30.787  1.00  0.00     0.039 C 
ATOM     10  G   UNL     1      51.545  36.277  32.376  1.00  0.00     0.000 G0
ENDBRANCH   6   7
ENDBRANCH   5   6
ENDBRANCH   3   5
ENDBRANCH   1   3
BRANCH   1  11
ATOM     11  C   UNL     1      53.928  33.528  31.356  1.00  0.00     0.087 C 
BRANCH  11  12
ATOM     12  C   UNL     1      53.702  34.717  32.340  1.00  0.00     0.066 C 
BRANCH  12  13
ATOM     13  C   UNL     1      52.794  35.749  31.682  1.00  0.00     0.140 C 
ATOM     14  O   UNL     1      53.101  36.190  30.584  1.00  0.00    -0.299 OA
BRANCH  13  15
ATOM     15  C   UNL     1      51.565  36.302  32.375  1.00  0.00     0.106 CG0
ATOM     16  G   UNL     1      50.295  35.808  31.707  1.00  0.00     0.000 G0
ENDBRANCH  13  15
ENDBRANCH  12  13
BRANCH  12  17
ATOM     17  C   UNL     1      55.050  35.369  32.797  1.00  0.00    -0.006 C 
ATOM     18  C   UNL     1      55.112  35.564  34.325  1.00  0.00     0.008 C 
ATOM     19  C   UNL     1      56.266  34.520  32.372  1.00  0.00     0.008 C 
ENDBRANCH  12  17
ENDBRANCH  11  12
ENDBRANCH   1  11
TORSDOF 1
ENDMDL
MODEL 2
REMARK VINA RESULT:    -3.990      2.226      4.645
REMARK INTER + INTRA:          -6.400
REMARK INTER:                  -6.301
REMARK INTRA:                  -0.099
REMARK UNBOUND:                -0.311
REMARK SMILES CC1=CCC[C@H](C)C(=O)C[C@@H](C(C)C)C(=O)C1
REMARK SMILES IDX 8 1 9 2 6 3 7 4 5 5 4 6 3 7 2 8 1 9 10 11 11 12 15 13 16 14
REMARK SMILES IDX 17 15 12 17 13 18 14 19
REMARK H PARENT
REMARK Flexibility Score: 70.00
ROOT
ATOM      1  C   UNL     1      51.285  34.198  31.924  1.00  0.00     0.136 C 
ATOM      2  O   UNL     1      50.718  33.759  32.916  1.00  0.00    -0.299 OA
ENDROOT
BRANCH   1   3
ATOM      3  C   UNL     1      51.055  35.631  31.501  1.00  0.00     0.053 C 
ATOM      4  C   UNL     1      50.250  36.399  32.554  1.00  0.00     0.016 C 
BRANCH   3   5
ATOM      5  C   UNL     1      52.422  36.304  31.226  1.00  0.00     0.015 C 
BRANCH   5   6
ATOM      6  C   UNL     1      53.226  36.728  32.471  1.00  0.00     0.028 C 
BRANCH   6   7
ATOM      7  C   UNL     1      54.734  36.648  32.375  1.00  0.00    -0.028 C 
ATOM      8  C   UNL     1      55.524  35.627  32.787  1.00  0.00    -0.070 CG0
ATOM      9  C   UNL     1      57.018  35.812  32.684  1.00  0.00     0.039 C 
ATOM     10  G   UNL     1      55.001  34.289  33.275  1.00  0.00     0.000 G0
ENDBRANCH   6   7
ENDBRANCH   5   6
ENDBRANCH   3   5
ENDBRANCH   1   3
BRANCH   1  11
ATOM     11  C   UNL     1      52.272  33.323  31.189  1.00  0.00     0.087 C 
BRANCH  11  12
ATOM     12  C   UNL     1      53.267  32.614  32.158  1.00  0.00     0.066 C 
BRANCH  12  13
ATOM     13  C   UNL     1      54.592  33.366  32.157  1.00  0.00     0.140 C 
ATOM     14  O   UNL     1      55.375  33.182  31.236  1.00  0.00    -0.299 OA
BRANCH  13  15
ATOM     15  C   UNL     1      55.004  34.277  33.297  1.00  0.00     0.106 CG0
ATOM     16  G   UNL     1      55.533  35.600  32.773  1.00  0.00     0.000 G0
ENDBRANCH  13  15
ENDBRANCH  12  13
BRANCH  12  17
ATOM     17  C   UNL     1      53.479  31.108  31.786  1.00  0.00    -0.006 C 
ATOM     18  C   UNL     1      53.645  30.220  33.036  1.00  0.00     0.008 C 
ATOM     19  C   UNL     1      52.302  30.554  30.958  1.00  0.00     0.008 C 
ENDBRANCH  12  17
ENDBRANCH  11  12
ENDBRANCH   1  11
TORSDOF 1
ENDMDL
MODEL 3
REMARK VINA RESULT:    -3.856      2.043      4.531
REMARK INTER + INTRA:          -6.196
REMARK INTER:                  -6.225
REMARK INTRA:                   0.029
REMARK UNBOUND:                -0.311
REMARK SMILES CC1=CCC[C@H](C)C(=O)C[C@@H](C(C)C)C(=O)C1
REMARK SMILES IDX 8 1 9 2 6 3 7 4 5 5 4 6 3 7 2 8 1 9 10 11 11 12 15 13 16 14
REMARK SMILES IDX 17 15 12 17 13 18 14 19
REMARK H PARENT
REMARK Flexibility Score: 70.00
ROOT
ATOM      1  C   UNL     1      50.408  32.336  31.633  1.00  0.00     0.136 C 
ATOM      2  O   UNL     1      50.021  31.521  30.807  1.00  0.00    -0.299 OA
ENDROOT
BRANCH   1   3
ATOM      3  C   UNL     1      51.835  32.280  32.130  1.00  0.00     0.053 C 
ATOM      4  C   UNL     1      52.440  30.888  31.926  1.00  0.00     0.016 C 
BRANCH   3   5
ATOM      5  C   UNL     1      52.665  33.374  31.415  1.00  0.00     0.015 C 
BRANCH   5   6
ATOM      6  C   UNL     1      53.109  34.562  32.290  1.00  0.00     0.028 C 
BRANCH   6   7
ATOM      7  C   UNL     1      52.908  35.949  31.717  1.00  0.00    -0.028 C 
ATOM      8  C   UNL     1      51.739  36.627  31.617  1.00  0.00    -0.070 CG0
ATOM      9  C   UNL     1      51.763  37.962  30.913  1.00  0.00     0.039 C 
ATOM     10  G   UNL     1      50.430  36.165  32.229  1.00  0.00     0.000 G0
ENDBRANCH   6   7
ENDBRANCH   5   6
ENDBRANCH   3   5
ENDBRANCH   1   3
BRANCH   1  11
ATOM     11  C   UNL     1      49.477  33.439  32.076  1.00  0.00     0.087 C 
BRANCH  11  12
ATOM     12  C   UNL     1      49.011  34.331  30.885  1.00  0.00     0.066 C 
BRANCH  12  13
ATOM     13  C   UNL     1      49.426  35.774  31.145  1.00  0.00     0.140 C 
ATOM     14  O   UNL     1      48.986  36.654  30.419  1.00  0.00    -0.299 OA
BRANCH  13  15
ATOM     15  C   UNL     1      50.422  36.146  32.225  1.00  0.00     0.106 CG0
ATOM     16  G   UNL     1      51.730  36.622  31.620  1.00  0.00     0.000 G0
ENDBRANCH  13  15
ENDBRANCH  12  13
BRANCH  12  17
ATOM     17  C   UNL     1      47.468  34.229  30.641  1.00  0.00    -0.006 C 
ATOM     18  C   UNL     1      47.111  33.105  29.648  1.00  0.00     0.008 C 
ATOM     19  C   UNL     1      46.700  33.971  31.954  1.00  0.00     0.008 C 
ENDBRANCH  12  17
ENDBRANCH  11  12
ENDBRANCH   1  11
TORSDOF 1
ENDMDL
MODEL 4
REMARK VINA RESULT:    -3.798      1.974      3.431
REMARK INTER + INTRA:          -6.108
REMARK INTER:                  -6.184
REMARK INTRA:                   0.077
REMARK UNBOUND:                -0.311
REMARK SMILES CC1=CCC[C@H](C)C(=O)C[C@@H](C(C)C)C(=O)C1
REMARK SMILES IDX 8 1 9 2 6 3 7 4 5 5 4 6 3 7 2 8 1 9 10 11 11 12 15 13 16 14
REMARK SMILES IDX 17 15 12 17 13 18 14 19
REMARK H PARENT
REMARK Flexibility Score: 70.00
ROOT
ATOM      1  C   UNL     1      50.980  33.187  31.811  1.00  0.00     0.136 C 
ATOM      2  O   UNL     1      50.522  32.542  32.745  1.00  0.00    -0.299 OA
ENDROOT
BRANCH   1   3
ATOM      3  C   UNL     1      50.096  34.164  31.070  1.00  0.00     0.053 C 
ATOM      4  C   UNL     1      48.645  33.675  31.020  1.00  0.00     0.016 C 
BRANCH   3   5
ATOM      5  C   UNL     1      50.205  35.555  31.741  1.00  0.00     0.015 C 
BRANCH   5   6
ATOM      6  C   UNL     1      51.190  36.543  31.085  1.00  0.00     0.028 C 
BRANCH   6   7
ATOM      7  C   UNL     1      52.219  37.188  31.989  1.00  0.00    -0.028 C 
ATOM      8  C   UNL     1      53.421  36.676  32.350  1.00  0.00    -0.070 CG0
ATOM      9  C   UNL     1      54.242  37.455  33.348  1.00  0.00     0.039 C 
ATOM     10  G   UNL     1      54.020  35.412  31.761  1.00  0.00     0.000 G0
ENDBRANCH   6   7
ENDBRANCH   5   6
ENDBRANCH   3   5
ENDBRANCH   1   3
BRANCH   1  11
ATOM     11  C   UNL     1      52.444  33.056  31.470  1.00  0.00     0.087 C 
BRANCH  11  12
ATOM     12  C   UNL     1      53.346  33.030  32.742  1.00  0.00     0.066 C 
BRANCH  12  13
ATOM     13  C   UNL     1      54.163  34.315  32.807  1.00  0.00     0.140 C 
ATOM     14  O   UNL     1      54.905  34.495  33.761  1.00  0.00    -0.299 OA
BRANCH  13  15
ATOM     15  C   UNL     1      54.030  35.409  31.766  1.00  0.00     0.106 CG0
ATOM     16  G   UNL     1      53.428  36.665  32.370  1.00  0.00     0.000 G0
ENDBRANCH  13  15
ENDBRANCH  12  13
BRANCH  12  17
ATOM     17  C   UNL     1      54.279  31.773  32.779  1.00  0.00    -0.006 C 
ATOM     18  C   UNL     1      53.478  30.456  32.741  1.00  0.00     0.008 C 
ATOM     19  C   UNL     1      55.270  31.766  31.598  1.00  0.00     0.008 C 
ENDBRANCH  12  17
ENDBRANCH  11  12
ENDBRANCH   1  11
TORSDOF 1
ENDMDL
MODEL 5
REMARK VINA RESULT:    -3.783      2.717      4.990
REMARK INTER + INTRA:          -6.084
REMARK INTER:                  -5.737
REMARK INTRA:                  -0.347
REMARK UNBOUND:                -0.311
REMARK SMILES CC1=CCC[C@H](C)C(=O)C[C@@H](C(C)C)C(=O)C1
REMARK SMILES IDX 8 1 9 2 6 3 7 4 5 5 4 6 3 7 2 8 1 9 10 11 11 12 15 13 16 14
REMARK SMILES IDX 17 15 12 17 13 18 14 19
REMARK H PARENT
REMARK Flexibility Score: 70.00
ROOT
ATOM      1  C   UNL     1      53.341  32.916  32.143  1.00  0.00     0.136 C 
ATOM      2  O   UNL     1      52.594  32.846  31.177  1.00  0.00    -0.299 OA
ENDROOT
BRANCH   1   3
ATOM      3  C   UNL     1      54.332  31.805  32.408  1.00  0.00     0.053 C 
ATOM      4  C   UNL     1      53.619  30.473  32.661  1.00  0.00     0.016 C 
BRANCH   3   5
ATOM      5  C   UNL     1      55.314  31.708  31.215  1.00  0.00     0.015 C 
BRANCH   5   6
ATOM      6  C   UNL     1      56.690  32.372  31.421  1.00  0.00     0.028 C 
BRANCH   6   7
ATOM      7  C   UNL     1      57.052  32.778  32.833  1.00  0.00    -0.028 C 
ATOM      8  C   UNL     1      57.104  34.038  33.331  1.00  0.00    -0.070 CG0
ATOM      9  C   UNL     1      57.593  34.211  34.748  1.00  0.00     0.039 C 
ATOM     10  G   UNL     1      56.634  35.271  32.580  1.00  0.00     0.000 G0
ENDBRANCH   6   7
ENDBRANCH   5   6
ENDBRANCH   3   5
ENDBRANCH   1   3
BRANCH   1  11
ATOM     11  C   UNL     1      53.317  34.153  33.009  1.00  0.00     0.087 C 
BRANCH  11  12
ATOM     12  C   UNL     1      53.983  35.376  32.306  1.00  0.00     0.066 C 
BRANCH  12  13
ATOM     13  C   UNL     1      55.265  35.743  33.044  1.00  0.00     0.140 C 
ATOM     14  O   UNL     1      55.195  36.479  34.018  1.00  0.00    -0.299 OA
BRANCH  13  15
ATOM     15  C   UNL     1      56.629  35.287  32.567  1.00  0.00     0.106 CG0
ATOM     16  G   UNL     1      57.086  34.053  33.324  1.00  0.00     0.000 G0
ENDBRANCH  13  15
ENDBRANCH  12  13
BRANCH  12  17
ATOM     17  C   UNL     1      53.016  36.605  32.221  1.00  0.00    -0.006 C 
ATOM     18  C   UNL     1      52.944  37.188  30.795  1.00  0.00     0.008 C 
ATOM     19  C   UNL     1      51.585  36.234  32.659  1.00  0.00     0.008 C 
ENDBRANCH  12  17
ENDBRANCH  11  12
ENDBRANCH   1  11
TORSDOF 1
ENDMDL
MODEL 6
REMARK VINA RESULT:    -3.774      2.105      4.154
REMARK INTER + INTRA:          -6.070
REMARK INTER:                  -6.051
REMARK INTRA:                  -0.019
REMARK UNBOUND:                -0.311
REMARK SMILES CC1=CCC[C@H](C)C(=O)C[C@@H](C(C)C)C(=O)C1
REMARK SMILES IDX 8 1 9 2 6 3 7 4 5 5 4 6 3 7 2 8 1 9 10 11 11 12 15 13 16 14
REMARK SMILES IDX 17 15 12 17 13 18 14 19
REMARK H PARENT
REMARK Flexibility Score: 70.00
ROOT
ATOM      1  C   UNL     1      54.448  33.963  32.111  1.00  0.00     0.136 C 
ATOM      2  O   UNL     1      54.290  34.323  33.269  1.00  0.00    -0.299 OA
ENDROOT
BRANCH   1   3
ATOM      3  C   UNL     1      55.555  32.991  31.772  1.00  0.00     0.053 C 
ATOM      4  C   UNL     1      56.549  32.855  32.930  1.00  0.00     0.016 C 
BRANCH   3   5
ATOM      5  C   UNL     1      54.932  31.626  31.391  1.00  0.00     0.015 C 
BRANCH   5   6
ATOM      6  C   UNL     1      53.654  31.233  32.158  1.00  0.00     0.028 C 
BRANCH   6   7
ATOM      7  C   UNL     1      52.490  30.722  31.336  1.00  0.00    -0.028 C 
ATOM      8  C   UNL     1      51.222  31.199  31.335  1.00  0.00    -0.070 CG0
ATOM      9  C   UNL     1      50.197  30.463  30.507  1.00  0.00     0.039 C 
ATOM     10  G   UNL     1      50.787  32.464  32.052  1.00  0.00     0.000 G0
ENDBRANCH   6   7
ENDBRANCH   5   6
ENDBRANCH   3   5
ENDBRANCH   1   3
BRANCH   1  11
ATOM     11  C   UNL     1      53.479  34.431  31.052  1.00  0.00     0.087 C 
BRANCH  11  12
ATOM     12  C   UNL     1      52.074  34.762  31.643  1.00  0.00     0.066 C 
BRANCH  12  13
ATOM     13  C   UNL     1      51.076  33.702  31.193  1.00  0.00     0.140 C 
ATOM     14  O   UNL     1      50.461  33.875  30.152  1.00  0.00    -0.299 OA
BRANCH  13  15
ATOM     15  C   UNL     1      50.768  32.476  32.030  1.00  0.00     0.106 CG0
ATOM     16  G   UNL     1      51.219  31.209  31.326  1.00  0.00     0.000 G0
ENDBRANCH  13  15
ENDBRANCH  12  13
BRANCH  12  17
ATOM     17  C   UNL     1      51.587  36.194  31.241  1.00  0.00    -0.006 C 
ATOM     18  C   UNL     1      50.386  36.659  32.089  1.00  0.00     0.008 C 
ATOM     19  C   UNL     1      52.711  37.240  31.388  1.00  0.00     0.008 C 
ENDBRANCH  12  17
ENDBRANCH  11  12
ENDBRANCH   1  11
TORSDOF 1
ENDMDL
MODEL 7
REMARK VINA RESULT:    -3.769      1.618      2.094
REMARK INTER + INTRA:          -6.062
REMARK INTER:                  -5.830
REMARK INTRA:                  -0.232
REMARK UNBOUND:                -0.311
REMARK SMILES CC1=CCC[C@H](C)C(=O)C[C@@H](C(C)C)C(=O)C1
REMARK SMILES IDX 8 1 9 2 6 3 7 4 5 5 4 6 3 7 2 8 1 9 10 11 11 12 15 13 16 14
REMARK SMILES IDX 17 15 12 17 13 18 14 19
REMARK H PARENT
REMARK Flexibility Score: 70.00
ROOT
ATOM      1  C   UNL     1      52.492  33.638  30.931  1.00  0.00     0.136 C 
ATOM      2  O   UNL     1      53.571  33.202  31.308  1.00  0.00    -0.299 OA
ENDROOT
BRANCH   1   3
ATOM      3  C   UNL     1      51.275  32.741  30.944  1.00  0.00     0.053 C 
ATOM      4  C   UNL     1      51.587  31.371  30.331  1.00  0.00     0.016 C 
BRANCH   3   5
ATOM      5  C   UNL     1      50.757  32.610  32.397  1.00  0.00     0.015 C 
BRANCH   5   6
ATOM      6  C   UNL     1      49.522  33.462  32.751  1.00  0.00     0.028 C 
BRANCH   6   7
ATOM      7  C   UNL     1      48.728  34.033  31.595  1.00  0.00    -0.028 C 
ATOM      8  C   UNL     1      48.550  35.343  31.298  1.00  0.00    -0.070 CG0
ATOM      9  C   UNL     1      47.629  35.682  30.151  1.00  0.00     0.039 C 
ATOM     10  G   UNL     1      49.272  36.481  31.996  1.00  0.00     0.000 G0
ENDBRANCH   6   7
ENDBRANCH   5   6
ENDBRANCH   3   5
ENDBRANCH   1   3
BRANCH   1  11
ATOM     11  C   UNL     1      52.377  35.091  30.538  1.00  0.00     0.087 C 
BRANCH  11  12
ATOM     12  C   UNL     1      51.893  35.984  31.722  1.00  0.00     0.066 C 
BRANCH  12  13
ATOM     13  C   UNL     1      50.629  36.728  31.307  1.00  0.00     0.140 C 
ATOM     14  O   UNL     1      50.708  37.590  30.443  1.00  0.00    -0.299 OA
BRANCH  13  15
ATOM     15  C   UNL     1      49.292  36.486  31.979  1.00  0.00     0.106 CG0
ATOM     16  G   UNL     1      48.542  35.350  31.308  1.00  0.00     0.000 G0
ENDBRANCH  13  15
ENDBRANCH  12  13
BRANCH  12  17
ATOM     17  C   UNL     1      52.999  36.985  32.196  1.00  0.00    -0.006 C 
ATOM     18  C   UNL     1      53.928  36.362  33.258  1.00  0.00     0.008 C 
ATOM     19  C   UNL     1      53.872  37.468  31.020  1.00  0.00     0.008 C 
ENDBRANCH  12  17
ENDBRANCH  11  12
ENDBRANCH   1  11
TORSDOF 1
ENDMDL
MODEL 8
REMARK VINA RESULT:    -3.749      2.079      5.234
REMARK INTER + INTRA:          -6.033
REMARK INTER:                  -5.706
REMARK INTRA:                  -0.327
REMARK UNBOUND:                -0.311
REMARK SMILES CC1=CCC[C@H](C)C(=O)C[C@@H](C(C)C)C(=O)C1
REMARK SMILES IDX 8 1 9 2 6 3 7 4 5 5 4 6 3 7 2 8 1 9 10 11 11 12 15 13 16 14
REMARK SMILES IDX 17 15 12 17 13 18 14 19
REMARK H PARENT
REMARK Flexibility Score: 70.00
ROOT
ATOM      1  C   UNL     1      52.285  35.960  30.917  1.00  0.00     0.136 C 
ATOM      2  O   UNL     1      51.116  36.305  30.810  1.00  0.00    -0.299 OA
ENDROOT
BRANCH   1   3
ATOM      3  C   UNL     1      53.345  36.990  31.235  1.00  0.00     0.053 C 
ATOM      4  C   UNL     1      53.124  38.279  30.438  1.00  0.00     0.016 C 
BRANCH   3   5
ATOM      5  C   UNL     1      53.352  37.256  32.760  1.00  0.00     0.015 C 
BRANCH   5   6
ATOM      6  C   UNL     1      54.580  36.731  33.530  1.00  0.00     0.028 C 
BRANCH   6   7
ATOM      7  C   UNL     1      55.570  35.891  32.752  1.00  0.00    -0.028 C 
ATOM      8  C   UNL     1      55.696  34.542  32.786  1.00  0.00    -0.070 CG0
ATOM      9  C   UNL     1      56.828  33.925  32.000  1.00  0.00     0.039 C 
ATOM     10  G   UNL     1      54.732  33.613  33.501  1.00  0.00     0.000 G0
ENDBRANCH   6   7
ENDBRANCH   5   6
ENDBRANCH   3   5
ENDBRANCH   1   3
BRANCH   1  11
ATOM     11  C   UNL     1      52.636  34.495  30.814  1.00  0.00     0.087 C 
BRANCH  11  12
ATOM     12  C   UNL     1      52.427  33.743  32.164  1.00  0.00     0.066 C 
BRANCH  12  13
ATOM     13  C   UNL     1      53.710  33.009  32.535  1.00  0.00     0.140 C 
ATOM     14  O   UNL     1      53.896  31.885  32.093  1.00  0.00    -0.299 OA
BRANCH  13  15
ATOM     15  C   UNL     1      54.728  33.596  33.493  1.00  0.00     0.106 CG0
ATOM     16  G   UNL     1      55.677  34.534  32.770  1.00  0.00     0.000 G0
ENDBRANCH  13  15
ENDBRANCH  12  13
BRANCH  12  17
ATOM     17  C   UNL     1      51.214  32.753  32.106  1.00  0.00    -0.006 C 
ATOM     18  C   UNL     1      49.900  33.418  32.563  1.00  0.00     0.008 C 
ATOM     19  C   UNL     1      51.000  32.198  30.683  1.00  0.00     0.008 C 
ENDBRANCH  12  17
ENDBRANCH  11  12
ENDBRANCH   1  11
TORSDOF 1
ENDMDL
MODEL 9
REMARK VINA RESULT:    -3.639      2.405      4.656
REMARK INTER + INTRA:          -5.865
REMARK INTER:                  -5.634
REMARK INTRA:                  -0.231
REMARK UNBOUND:                -0.311
REMARK SMILES CC1=CCC[C@H](C)C(=O)C[C@@H](C(C)C)C(=O)C1
REMARK SMILES IDX 8 1 9 2 6 3 7 4 5 5 4 6 3 7 2 8 1 9 10 11 11 12 15 13 16 14
REMARK SMILES IDX 17 15 12 17 13 18 14 19
REMARK H PARENT
REMARK Flexibility Score: 70.00
ROOT
ATOM      1  C   UNL     1      49.945  35.530  32.132  1.00  0.00     0.136 C 
ATOM      2  O   UNL     1      48.852  35.277  31.643  1.00  0.00    -0.299 OA
ENDROOT
BRANCH   1   3
ATOM      3  C   UNL     1      50.945  34.418  32.349  1.00  0.00     0.053 C 
ATOM      4  C   UNL     1      50.249  33.117  32.762  1.00  0.00     0.016 C 
BRANCH   3   5
ATOM      5  C   UNL     1      51.783  34.232  31.061  1.00  0.00     0.015 C 
BRANCH   5   6
ATOM      6  C   UNL     1      53.313  34.189  31.253  1.00  0.00     0.028 C 
BRANCH   6   7
ATOM      7  C   UNL     1      53.865  34.837  32.504  1.00  0.00    -0.028 C 
ATOM      8  C   UNL     1      54.180  36.145  32.673  1.00  0.00    -0.070 CG0
ATOM      9  C   UNL     1      54.816  36.548  33.981  1.00  0.00     0.039 C 
ATOM     10  G   UNL     1      53.865  37.234  31.664  1.00  0.00     0.000 G0
ENDBRANCH   6   7
ENDBRANCH   5   6
ENDBRANCH   3   5
ENDBRANCH   1   3
BRANCH   1  11
ATOM     11  C   UNL     1      50.307  36.965  32.432  1.00  0.00     0.087 C 
BRANCH  11  12
ATOM     12  C   UNL     1      51.251  37.573  31.349  1.00  0.00     0.066 C 
BRANCH  12  13
ATOM     13  C   UNL     1      52.575  37.961  31.997  1.00  0.00     0.140 C 
ATOM     14  O   UNL     1      52.600  38.914  32.763  1.00  0.00    -0.299 OA
BRANCH  13  15
ATOM     15  C   UNL     1      53.873  37.253  31.667  1.00  0.00     0.106 CG0
ATOM     16  G   UNL     1      54.164  36.153  32.672  1.00  0.00     0.000 G0
ENDBRANCH  13  15
ENDBRANCH  12  13
BRANCH  12  17
ATOM     17  C   UNL     1      50.603  38.800  30.624  1.00  0.00    -0.006 C 
ATOM     18  C   UNL     1      51.572  39.460  29.623  1.00  0.00     0.008 C 
ATOM     19  C   UNL     1      49.325  38.399  29.860  1.00  0.00     0.008 C 
ENDBRANCH  12  17
ENDBRANCH  11  12
ENDBRANCH   1  11
TORSDOF 1
ENDMDL
