MODEL 1
REMARK VINA RESULT:    -6.486      0.000      0.000
REMARK INTER + INTRA:          -7.055
REMARK INTER:                  -7.055
REMARK INTRA:                   0.000
REMARK UNBOUND:                 0.000
REMARK SMILES Cc1cc(O)c2c(c1)C(=O)c1cc(O)cc(O)c1C2=O
REMARK SMILES IDX 1 1 2 2 8 3 7 4 6 5 4 6 3 7 19 8 20 9 18 10 11 11 9 12 10 13
REMARK SMILES IDX 12 14 13 15 15 16 16 17 5 18 17 20 14 22
REMARK H PARENT 5 19 17 21 14 23
REMARK Flexibility Score: inf
ROOT
ATOM      1  C   UNL     1      30.178  34.202  16.610  1.00  0.00     0.044 C 
ATOM      2  C   UNL     1      30.881  33.870  17.893  1.00  0.00    -0.047 A 
ATOM      3  C   UNL     1      31.759  34.791  18.473  1.00  0.00     0.016 A 
ATOM      4  C   UNL     1      32.405  34.501  19.688  1.00  0.00     0.038 A 
ATOM      5  C   UNL     1      32.169  33.265  20.334  1.00  0.00     0.076 A 
ATOM      6  C   UNL     1      31.200  32.378  19.789  1.00  0.00     0.127 A 
ATOM      7  C   UNL     1      30.592  32.680  18.566  1.00  0.00     0.050 A 
ATOM      8  C   UNL     1      32.986  32.924  21.531  1.00  0.00     0.201 C 
ATOM      9  O   UNL     1      33.121  31.722  21.885  1.00  0.00    -0.288 OA
ATOM     10  C   UNL     1      33.743  33.985  22.246  1.00  0.00     0.076 A 
ATOM     11  C   UNL     1      33.919  35.240  21.625  1.00  0.00     0.041 A 
ATOM     12  C   UNL     1      33.323  35.494  20.295  1.00  0.00     0.194 C 
ATOM     13  O   UNL     1      33.583  36.568  19.684  1.00  0.00    -0.289 OA
ATOM     14  C   UNL     1      34.663  36.242  22.273  1.00  0.00     0.059 A 
ATOM     15  C   UNL     1      35.225  36.007  23.532  1.00  0.00     0.120 A 
ATOM     16  C   UNL     1      35.046  34.770  24.151  1.00  0.00     0.093 A 
ATOM     17  C   UNL     1      34.309  33.758  23.523  1.00  0.00     0.131 A 
ENDROOT
BRANCH   6  18
ATOM     18  O   UNL     1      30.784  31.215  20.439  1.00  0.00    -0.507 OA
ATOM     19  H   UNL     1      29.928  31.143  20.969  1.00  0.00     0.293 HD
ENDBRANCH   6  18
BRANCH  17  20
ATOM     20  O   UNL     1      34.134  32.536  24.172  1.00  0.00    -0.507 OA
ATOM     21  H   UNL     1      33.258  32.289  24.617  1.00  0.00     0.293 HD
ENDBRANCH  17  20
BRANCH  15  22
ATOM     22  O   UNL     1      35.962  36.997  24.177  1.00  0.00    -0.508 OA
ATOM     23  H   UNL     1      36.897  36.820  24.525  1.00  0.00     0.293 HD
ENDBRANCH  15  22
TORSDOF 3
ENDMDL
MODEL 2
REMARK VINA RESULT:    -6.197      1.507      5.593
REMARK INTER + INTRA:          -6.741
REMARK INTER:                  -6.741
REMARK INTRA:                   0.000
REMARK UNBOUND:                 0.000
REMARK SMILES Cc1cc(O)c2c(c1)C(=O)c1cc(O)cc(O)c1C2=O
REMARK SMILES IDX 1 1 2 2 8 3 7 4 6 5 4 6 3 7 19 8 20 9 18 10 11 11 9 12 10 13
REMARK SMILES IDX 12 14 13 15 15 16 16 17 5 18 17 20 14 22
REMARK H PARENT 5 19 17 21 14 23
REMARK Flexibility Score: inf
ROOT
ATOM      1  C   UNL     1      35.606  36.834  23.126  1.00  0.00     0.044 C 
ATOM      2  C   UNL     1      34.681  35.794  22.564  1.00  0.00    -0.047 A 
ATOM      3  C   UNL     1      33.934  36.065  21.414  1.00  0.00     0.016 A 
ATOM      4  C   UNL     1      33.083  35.090  20.864  1.00  0.00     0.038 A 
ATOM      5  C   UNL     1      32.976  33.820  21.477  1.00  0.00     0.076 A 
ATOM      6  C   UNL     1      33.813  33.521  22.587  1.00  0.00     0.127 A 
ATOM      7  C   UNL     1      34.631  34.517  23.129  1.00  0.00     0.050 A 
ATOM      8  C   UNL     1      31.951  32.870  20.965  1.00  0.00     0.201 C 
ATOM      9  O   UNL     1      31.532  31.934  21.698  1.00  0.00    -0.288 OA
ATOM     10  C   UNL     1      31.331  33.087  19.632  1.00  0.00     0.076 A 
ATOM     11  C   UNL     1      31.496  34.334  18.992  1.00  0.00     0.041 A 
ATOM     12  C   UNL     1      32.308  35.391  19.636  1.00  0.00     0.194 C 
ATOM     13  O   UNL     1      32.354  36.545  19.128  1.00  0.00    -0.289 OA
ATOM     14  C   UNL     1      30.885  34.567  17.747  1.00  0.00     0.059 A 
ATOM     15  C   UNL     1      30.121  33.570  17.133  1.00  0.00     0.120 A 
ATOM     16  C   UNL     1      29.963  32.334  17.759  1.00  0.00     0.093 A 
ATOM     17  C   UNL     1      30.561  32.081  19.000  1.00  0.00     0.131 A 
ENDROOT
BRANCH   6  18
ATOM     18  O   UNL     1      33.895  32.248  23.155  1.00  0.00    -0.507 OA
ATOM     19  H   UNL     1      34.732  31.877  23.581  1.00  0.00     0.293 HD
ENDBRANCH   6  18
BRANCH  17  20
ATOM     20  O   UNL     1      30.398  30.831  19.597  1.00  0.00    -0.507 OA
ATOM     21  H   UNL     1      29.672  30.658  20.283  1.00  0.00     0.293 HD
ENDBRANCH  17  20
BRANCH  15  22
ATOM     22  O   UNL     1      29.515  33.798  15.900  1.00  0.00    -0.508 OA
ATOM     23  H   UNL     1      29.335  34.736  15.563  1.00  0.00     0.293 HD
ENDBRANCH  15  22
TORSDOF 3
ENDMDL
MODEL 3
REMARK VINA RESULT:    -5.897      1.043      3.226
REMARK INTER + INTRA:          -6.414
REMARK INTER:                  -6.414
REMARK INTRA:                   0.000
REMARK UNBOUND:                 0.000
REMARK SMILES Cc1cc(O)c2c(c1)C(=O)c1cc(O)cc(O)c1C2=O
REMARK SMILES IDX 1 1 2 2 8 3 7 4 6 5 4 6 3 7 19 8 20 9 18 10 11 11 9 12 10 13
REMARK SMILES IDX 12 14 13 15 15 16 16 17 5 18 17 20 14 22
REMARK H PARENT 5 19 17 21 14 23
REMARK Flexibility Score: inf
ROOT
ATOM      1  C   UNL     1      29.759  32.677  17.297  1.00  0.00     0.044 C 
ATOM      2  C   UNL     1      30.679  33.449  18.197  1.00  0.00    -0.047 A 
ATOM      3  C   UNL     1      31.111  32.894  19.404  1.00  0.00     0.016 A 
ATOM      4  C   UNL     1      31.992  33.598  20.244  1.00  0.00     0.038 A 
ATOM      5  C   UNL     1      32.448  34.883  19.868  1.00  0.00     0.076 A 
ATOM      6  C   UNL     1      32.082  35.396  18.594  1.00  0.00     0.127 A 
ATOM      7  C   UNL     1      31.184  34.687  17.791  1.00  0.00     0.050 A 
ATOM      8  C   UNL     1      33.250  35.665  20.849  1.00  0.00     0.201 C 
ATOM      9  O   UNL     1      33.324  36.919  20.750  1.00  0.00    -0.288 OA
ATOM     10  C   UNL     1      33.871  34.986  22.016  1.00  0.00     0.076 A 
ATOM     11  C   UNL     1      33.461  33.677  22.348  1.00  0.00     0.041 A 
ATOM     12  C   UNL     1      32.450  32.988  21.515  1.00  0.00     0.194 C 
ATOM     13  O   UNL     1      31.991  31.871  21.880  1.00  0.00    -0.289 OA
ATOM     14  C   UNL     1      34.013  33.035  23.471  1.00  0.00     0.059 A 
ATOM     15  C   UNL     1      34.971  33.680  24.259  1.00  0.00     0.120 A 
ATOM     16  C   UNL     1      35.385  34.971  23.928  1.00  0.00     0.093 A 
ATOM     17  C   UNL     1      34.847  35.629  22.815  1.00  0.00     0.131 A 
ENDROOT
BRANCH   6  18
ATOM     18  O   UNL     1      32.611  36.578  18.071  1.00  0.00    -0.507 OA
ATOM     19  H   UNL     1      33.081  37.277  18.627  1.00  0.00     0.293 HD
ENDBRANCH   6  18
BRANCH  17  20
ATOM     20  O   UNL     1      35.289  36.914  22.500  1.00  0.00    -0.507 OA
ATOM     21  H   UNL     1      34.814  37.488  21.813  1.00  0.00     0.293 HD
ENDBRANCH  17  20
BRANCH  15  22
ATOM     22  O   UNL     1      35.520  33.048  25.370  1.00  0.00    -0.508 OA
ATOM     23  H   UNL     1      36.395  32.539  25.313  1.00  0.00     0.293 HD
ENDBRANCH  15  22
TORSDOF 3
ENDMDL
MODEL 4
REMARK VINA RESULT:    -5.883      1.306      3.250
REMARK INTER + INTRA:          -6.399
REMARK INTER:                  -6.399
REMARK INTRA:                   0.000
REMARK UNBOUND:                 0.000
REMARK SMILES Cc1cc(O)c2c(c1)C(=O)c1cc(O)cc(O)c1C2=O
REMARK SMILES IDX 1 1 2 2 8 3 7 4 6 5 4 6 3 7 19 8 20 9 18 10 11 11 9 12 10 13
REMARK SMILES IDX 12 14 13 15 15 16 16 17 5 18 17 20 14 22
REMARK H PARENT 5 19 17 21 14 23
REMARK Flexibility Score: inf
ROOT
ATOM      1  C   UNL     1      29.262  31.315  17.456  1.00  0.00     0.044 C 
ATOM      2  C   UNL     1      30.121  32.352  18.119  1.00  0.00    -0.047 A 
ATOM      3  C   UNL     1      30.721  32.085  19.353  1.00  0.00     0.016 A 
ATOM      4  C   UNL     1      31.547  33.039  19.972  1.00  0.00     0.038 A 
ATOM      5  C   UNL     1      31.776  34.286  19.344  1.00  0.00     0.076 A 
ATOM      6  C   UNL     1      31.244  34.509  18.044  1.00  0.00     0.127 A 
ATOM      7  C   UNL     1      30.404  33.554  17.464  1.00  0.00     0.050 A 
ATOM      8  C   UNL     1      32.524  35.331  20.096  1.00  0.00     0.201 C 
ATOM      9  O   UNL     1      32.402  36.545  19.783  1.00  0.00    -0.288 OA
ATOM     10  C   UNL     1      33.325  34.961  21.292  1.00  0.00     0.076 A 
ATOM     11  C   UNL     1      33.141  33.690  21.877  1.00  0.00     0.041 A 
ATOM     12  C   UNL     1      32.185  32.734  21.275  1.00  0.00     0.194 C 
ATOM     13  O   UNL     1      31.926  31.649  21.864  1.00  0.00    -0.289 OA
ATOM     14  C   UNL     1      33.864  33.340  23.030  1.00  0.00     0.059 A 
ATOM     15  C   UNL     1      34.772  34.238  23.600  1.00  0.00     0.120 A 
ATOM     16  C   UNL     1      34.962  35.492  23.020  1.00  0.00     0.093 A 
ATOM     17  C   UNL     1      34.250  35.862  21.871  1.00  0.00     0.131 A 
ENDROOT
BRANCH   6  18
ATOM     18  O   UNL     1      31.550  35.638  17.282  1.00  0.00    -0.507 OA
ATOM     19  H   UNL     1      32.427  35.768  16.799  1.00  0.00     0.293 HD
ENDBRANCH   6  18
BRANCH  17  20
ATOM     20  O   UNL     1      34.470  37.118  21.305  1.00  0.00    -0.507 OA
ATOM     21  H   UNL     1      34.566  37.241  20.303  1.00  0.00     0.293 HD
ENDBRANCH  17  20
BRANCH  15  22
ATOM     22  O   UNL     1      35.491  33.894  24.741  1.00  0.00    -0.508 OA
ATOM     23  H   UNL     1      35.544  32.935  25.065  1.00  0.00     0.293 HD
ENDBRANCH  15  22
TORSDOF 3
ENDMDL
MODEL 5
REMARK VINA RESULT:    -5.861     19.072     19.984
REMARK INTER + INTRA:          -6.374
REMARK INTER:                  -6.374
REMARK INTRA:                   0.000
REMARK UNBOUND:                 0.000
REMARK SMILES Cc1cc(O)c2c(c1)C(=O)c1cc(O)cc(O)c1C2=O
REMARK SMILES IDX 1 1 2 2 8 3 7 4 6 5 4 6 3 7 19 8 20 9 18 10 11 11 9 12 10 13
REMARK SMILES IDX 12 14 13 15 15 16 16 17 5 18 17 20 14 22
REMARK H PARENT 5 19 17 21 14 23
REMARK Flexibility Score: inf
ROOT
ATOM      1  C   UNL     1      16.568  22.615  18.226  1.00  0.00     0.044 C 
ATOM      2  C   UNL     1      17.339  22.096  19.403  1.00  0.00    -0.047 A 
ATOM      3  C   UNL     1      16.821  22.223  20.695  1.00  0.00     0.016 A 
ATOM      4  C   UNL     1      17.524  21.719  21.804  1.00  0.00     0.038 A 
ATOM      5  C   UNL     1      18.769  21.075  21.616  1.00  0.00     0.076 A 
ATOM      6  C   UNL     1      19.239  20.862  20.291  1.00  0.00     0.127 A 
ATOM      7  C   UNL     1      18.534  21.397  19.209  1.00  0.00     0.050 A 
ATOM      8  C   UNL     1      19.559  20.694  22.819  1.00  0.00     0.201 C 
ATOM      9  O   UNL     1      20.803  20.513  22.729  1.00  0.00    -0.288 OA
ATOM     10  C   UNL     1      18.908  20.640  24.154  1.00  0.00     0.076 A 
ATOM     11  C   UNL     1      17.635  21.226  24.322  1.00  0.00     0.041 A 
ATOM     12  C   UNL     1      16.953  21.851  23.166  1.00  0.00     0.194 C 
ATOM     13  O   UNL     1      15.875  22.484  23.339  1.00  0.00    -0.289 OA
ATOM     14  C   UNL     1      17.022  21.215  25.586  1.00  0.00     0.059 A 
ATOM     15  C   UNL     1      17.660  20.622  26.680  1.00  0.00     0.120 A 
ATOM     16  C   UNL     1      18.914  20.036  26.516  1.00  0.00     0.093 A 
ATOM     17  C   UNL     1      19.544  20.037  25.265  1.00  0.00     0.131 A 
ENDROOT
BRANCH   6  18
ATOM     18  O   UNL     1      20.371  20.098  20.000  1.00  0.00    -0.507 OA
ATOM     19  H   UNL     1      21.137  20.424  19.429  1.00  0.00     0.293 HD
ENDBRANCH   6  18
BRANCH  17  20
ATOM     20  O   UNL     1      20.792  19.430  25.126  1.00  0.00    -0.507 OA
ATOM     21  H   UNL     1      21.010  18.549  25.578  1.00  0.00     0.293 HD
ENDBRANCH  17  20
BRANCH  15  22
ATOM     22  O   UNL     1      17.055  20.609  27.934  1.00  0.00    -0.508 OA
ATOM     23  H   UNL     1      17.458  20.100  28.712  1.00  0.00     0.293 HD
ENDBRANCH  15  22
TORSDOF 3
ENDMDL
MODEL 6
REMARK VINA RESULT:    -5.853      3.622      7.042
REMARK INTER + INTRA:          -6.367
REMARK INTER:                  -6.367
REMARK INTRA:                   0.000
REMARK UNBOUND:                 0.000
REMARK SMILES Cc1cc(O)c2c(c1)C(=O)c1cc(O)cc(O)c1C2=O
REMARK SMILES IDX 1 1 2 2 8 3 7 4 6 5 4 6 3 7 19 8 20 9 18 10 11 11 9 12 10 13
REMARK SMILES IDX 12 14 13 15 15 16 16 17 5 18 17 20 14 22
REMARK H PARENT 5 19 17 21 14 23
REMARK Flexibility Score: inf
ROOT
ATOM      1  C   UNL     1      33.725  36.293  17.428  1.00  0.00     0.044 C 
ATOM      2  C   UNL     1      32.813  35.151  17.771  1.00  0.00    -0.047 A 
ATOM      3  C   UNL     1      31.541  35.070  17.198  1.00  0.00     0.016 A 
ATOM      4  C   UNL     1      30.687  33.993  17.494  1.00  0.00     0.038 A 
ATOM      5  C   UNL     1      31.115  32.978  18.381  1.00  0.00     0.076 A 
ATOM      6  C   UNL     1      32.446  33.017  18.880  1.00  0.00     0.127 A 
ATOM      7  C   UNL     1      33.264  34.113  18.591  1.00  0.00     0.050 A 
ATOM      8  C   UNL     1      30.132  31.939  18.795  1.00  0.00     0.201 C 
ATOM      9  O   UNL     1      30.311  31.285  19.858  1.00  0.00    -0.288 OA
ATOM     10  C   UNL     1      28.877  31.747  18.022  1.00  0.00     0.076 A 
ATOM     11  C   UNL     1      28.488  32.731  17.089  1.00  0.00     0.041 A 
ATOM     12  C   UNL     1      29.346  33.917  16.867  1.00  0.00     0.194 C 
ATOM     13  O   UNL     1      28.941  34.856  16.128  1.00  0.00    -0.289 OA
ATOM     14  C   UNL     1      27.285  32.582  16.376  1.00  0.00     0.059 A 
ATOM     15  C   UNL     1      26.473  31.462  16.580  1.00  0.00     0.120 A 
ATOM     16  C   UNL     1      26.859  30.484  17.495  1.00  0.00     0.093 A 
ATOM     17  C   UNL     1      28.053  30.613  18.217  1.00  0.00     0.131 A 
ENDROOT
BRANCH   6  18
ATOM     18  O   UNL     1      33.007  31.980  19.628  1.00  0.00    -0.507 OA
ATOM     19  H   UNL     1      33.998  31.786  19.663  1.00  0.00     0.293 HD
ENDBRANCH   6  18
BRANCH  17  20
ATOM     20  O   UNL     1      28.421  29.612  19.116  1.00  0.00    -0.507 OA
ATOM     21  H   UNL     1      27.743  28.964  19.499  1.00  0.00     0.293 HD
ENDBRANCH  17  20
BRANCH  15  22
ATOM     22  O   UNL     1      25.282  31.311  15.875  1.00  0.00    -0.508 OA
ATOM     23  H   UNL     1      25.239  30.776  15.016  1.00  0.00     0.293 HD
ENDBRANCH  15  22
TORSDOF 3
ENDMDL
MODEL 7
REMARK VINA RESULT:    -5.736      1.671      6.386
REMARK INTER + INTRA:          -6.239
REMARK INTER:                  -6.239
REMARK INTRA:                   0.000
REMARK UNBOUND:                 0.000
REMARK SMILES Cc1cc(O)c2c(c1)C(=O)c1cc(O)cc(O)c1C2=O
REMARK SMILES IDX 1 1 2 2 8 3 7 4 6 5 4 6 3 7 19 8 20 9 18 10 11 11 9 12 10 13
REMARK SMILES IDX 12 14 13 15 15 16 16 17 5 18 17 20 14 22
REMARK H PARENT 5 19 17 21 14 23
REMARK Flexibility Score: inf
ROOT
ATOM      1  C   UNL     1      35.433  35.433  23.635  1.00  0.00     0.044 C 
ATOM      2  C   UNL     1      34.635  35.233  22.381  1.00  0.00    -0.047 A 
ATOM      3  C   UNL     1      33.802  34.119  22.247  1.00  0.00     0.016 A 
ATOM      4  C   UNL     1      33.031  33.934  21.086  1.00  0.00     0.038 A 
ATOM      5  C   UNL     1      33.095  34.882  20.038  1.00  0.00     0.076 A 
ATOM      6  C   UNL     1      33.868  36.061  20.225  1.00  0.00     0.127 A 
ATOM      7  C   UNL     1      34.646  36.207  21.378  1.00  0.00     0.050 A 
ATOM      8  C   UNL     1      32.392  34.576  18.762  1.00  0.00     0.201 C 
ATOM      9  O   UNL     1      32.741  35.147  17.694  1.00  0.00    -0.288 OA
ATOM     10  C   UNL     1      31.353  33.514  18.717  1.00  0.00     0.076 A 
ATOM     11  C   UNL     1      31.248  32.610  19.796  1.00  0.00     0.041 A 
ATOM     12  C   UNL     1      32.143  32.753  20.967  1.00  0.00     0.194 C 
ATOM     13  O   UNL     1      32.136  31.875  21.873  1.00  0.00    -0.289 OA
ATOM     14  C   UNL     1      30.295  31.577  19.752  1.00  0.00     0.059 A 
ATOM     15  C   UNL     1      29.445  31.441  18.650  1.00  0.00     0.120 A 
ATOM     16  C   UNL     1      29.541  32.337  17.586  1.00  0.00     0.093 A 
ATOM     17  C   UNL     1      30.485  33.373  17.609  1.00  0.00     0.131 A 
ENDROOT
BRANCH   6  18
ATOM     18  O   UNL     1      33.864  37.123  19.318  1.00  0.00    -0.507 OA
ATOM     19  H   UNL     1      33.196  37.218  18.568  1.00  0.00     0.293 HD
ENDBRANCH   6  18
BRANCH  17  20
ATOM     20  O   UNL     1      30.549  34.263  16.537  1.00  0.00    -0.507 OA
ATOM     21  H   UNL     1      29.843  34.274  15.809  1.00  0.00     0.293 HD
ENDBRANCH  17  20
BRANCH  15  22
ATOM     22  O   UNL     1      28.500  30.420  18.604  1.00  0.00    -0.508 OA
ATOM     23  H   UNL     1      27.630  30.525  18.095  1.00  0.00     0.293 HD
ENDBRANCH  15  22
TORSDOF 3
ENDMDL
MODEL 8
REMARK VINA RESULT:    -5.688      1.302      6.268
REMARK INTER + INTRA:          -6.187
REMARK INTER:                  -6.187
REMARK INTRA:                   0.000
REMARK UNBOUND:                 0.000
REMARK SMILES Cc1cc(O)c2c(c1)C(=O)c1cc(O)cc(O)c1C2=O
REMARK SMILES IDX 1 1 2 2 8 3 7 4 6 5 4 6 3 7 19 8 20 9 18 10 11 11 9 12 10 13
REMARK SMILES IDX 12 14 13 15 15 16 16 17 5 18 17 20 14 22
REMARK H PARENT 5 19 17 21 14 23
REMARK Flexibility Score: inf
ROOT
ATOM      1  C   UNL     1      35.168  33.416  25.667  1.00  0.00     0.044 C 
ATOM      2  C   UNL     1      34.837  33.886  24.280  1.00  0.00    -0.047 A 
ATOM      3  C   UNL     1      33.889  33.202  23.514  1.00  0.00     0.016 A 
ATOM      4  C   UNL     1      33.553  33.647  22.223  1.00  0.00     0.038 A 
ATOM      5  C   UNL     1      34.179  34.797  21.688  1.00  0.00     0.076 A 
ATOM      6  C   UNL     1      35.067  35.541  22.512  1.00  0.00     0.127 A 
ATOM      7  C   UNL     1      35.404  35.062  23.782  1.00  0.00     0.050 A 
ATOM      8  C   UNL     1      33.920  35.148  20.265  1.00  0.00     0.201 C 
ATOM      9  O   UNL     1      34.733  35.874  19.633  1.00  0.00    -0.288 OA
ATOM     10  C   UNL     1      32.764  34.549  19.547  1.00  0.00     0.076 A 
ATOM     11  C   UNL     1      32.099  33.443  20.116  1.00  0.00     0.041 A 
ATOM     12  C   UNL     1      32.536  32.917  21.429  1.00  0.00     0.194 C 
ATOM     13  O   UNL     1      32.027  31.854  21.881  1.00  0.00    -0.289 OA
ATOM     14  C   UNL     1      31.028  32.843  19.432  1.00  0.00     0.059 A 
ATOM     15  C   UNL     1      30.610  33.339  18.193  1.00  0.00     0.120 A 
ATOM     16  C   UNL     1      31.259  34.437  17.631  1.00  0.00     0.093 A 
ATOM     17  C   UNL     1      32.330  35.049  18.296  1.00  0.00     0.131 A 
ENDROOT
BRANCH   6  18
ATOM     18  O   UNL     1      35.605  36.772  22.131  1.00  0.00    -0.507 OA
ATOM     19  H   UNL     1      36.587  36.998  22.193  1.00  0.00     0.293 HD
ENDBRANCH   6  18
BRANCH  17  20
ATOM     20  O   UNL     1      32.952  36.155  17.717  1.00  0.00    -0.507 OA
ATOM     21  H   UNL     1      33.816  36.536  18.088  1.00  0.00     0.293 HD
ENDBRANCH  17  20
BRANCH  15  22
ATOM     22  O   UNL     1      29.548  32.748  17.513  1.00  0.00    -0.508 OA
ATOM     23  H   UNL     1      28.667  32.550  17.974  1.00  0.00     0.293 HD
ENDBRANCH  15  22
TORSDOF 3
ENDMDL
MODEL 9
REMARK VINA RESULT:    -5.553      2.370      7.051
REMARK INTER + INTRA:          -6.040
REMARK INTER:                  -6.040
REMARK INTRA:                   0.000
REMARK UNBOUND:                 0.000
REMARK SMILES Cc1cc(O)c2c(c1)C(=O)c1cc(O)cc(O)c1C2=O
REMARK SMILES IDX 1 1 2 2 8 3 7 4 6 5 4 6 3 7 19 8 20 9 18 10 11 11 9 12 10 13
REMARK SMILES IDX 12 14 13 15 15 16 16 17 5 18 17 20 14 22
REMARK H PARENT 5 19 17 21 14 23
REMARK Flexibility Score: inf
ROOT
ATOM      1  C   UNL     1      34.204  32.623  22.776  1.00  0.00     0.044 C 
ATOM      2  C   UNL     1      33.468  33.099  21.558  1.00  0.00    -0.047 A 
ATOM      3  C   UNL     1      32.451  32.320  21.001  1.00  0.00     0.016 A 
ATOM      4  C   UNL     1      31.739  32.767  19.874  1.00  0.00     0.038 A 
ATOM      5  C   UNL     1      32.051  34.018  19.293  1.00  0.00     0.076 A 
ATOM      6  C   UNL     1      33.018  34.847  19.926  1.00  0.00     0.127 A 
ATOM      7  C   UNL     1      33.730  34.367  21.030  1.00  0.00     0.050 A 
ATOM      8  C   UNL     1      31.390  34.390  18.012  1.00  0.00     0.201 C 
ATOM      9  O   UNL     1      31.911  35.254  17.258  1.00  0.00    -0.288 OA
ATOM     10  C   UNL     1      30.175  33.662  17.560  1.00  0.00     0.076 A 
ATOM     11  C   UNL     1      29.829  32.446  18.187  1.00  0.00     0.041 A 
ATOM     12  C   UNL     1      30.654  31.932  19.304  1.00  0.00     0.194 C 
ATOM     13  O   UNL     1      30.421  30.788  19.783  1.00  0.00    -0.289 OA
ATOM     14  C   UNL     1      28.704  31.728  17.747  1.00  0.00     0.059 A 
ATOM     15  C   UNL     1      27.920  32.211  16.695  1.00  0.00     0.120 A 
ATOM     16  C   UNL     1      28.254  33.417  16.078  1.00  0.00     0.093 A 
ATOM     17  C   UNL     1      29.372  34.148  16.501  1.00  0.00     0.131 A 
ENDROOT
BRANCH   6  18
ATOM     18  O   UNL     1      33.275  36.159  19.522  1.00  0.00    -0.507 OA
ATOM     19  H   UNL     1      33.870  36.796  20.031  1.00  0.00     0.293 HD
ENDBRANCH   6  18
BRANCH  17  20
ATOM     20  O   UNL     1      29.675  35.357  15.875  1.00  0.00    -0.507 OA
ATOM     21  H   UNL     1      29.564  35.482  14.875  1.00  0.00     0.293 HD
ENDBRANCH  17  20
BRANCH  15  22
ATOM     22  O   UNL     1      26.804  31.503  16.257  1.00  0.00    -0.508 OA
ATOM     23  H   UNL     1      26.706  31.213  15.291  1.00  0.00     0.293 HD
ENDBRANCH  15  22
TORSDOF 3
ENDMDL
