MODEL 1
REMARK VINA RESULT:    -4.018      0.000      0.000
REMARK INTER + INTRA:          -4.670
REMARK INTER:                  -4.605
REMARK INTRA:                  -0.065
REMARK UNBOUND:                -0.065
REMARK SMILES CC(C)[C@@H]([NH3+])C(=O)[O-]
REMARK SMILES IDX 4 1 5 2 6 6 7 7 8 8 2 9 1 10 3 11
REMARK H PARENT 5 3 5 4 5 5
REMARK Flexibility Score: inf
ROOT
ATOM      1  C   UNL     1     161.929 152.884 232.109  1.00  0.00     0.230 C 
ENDROOT
BRANCH   1   2
ATOM      2  N   UNL     1     163.132 152.317 231.479  1.00  0.00    -0.350 N 
ATOM      3  H   UNL     1     163.361 152.862 230.616  1.00  0.00     0.345 HD
ATOM      4  H   UNL     1     162.989 151.317 231.211  1.00  0.00     0.345 HD
ATOM      5  H   UNL     1     163.951 152.391 232.125  1.00  0.00     0.345 HD
ENDBRANCH   1   2
BRANCH   1   6
ATOM      6  C   UNL     1     161.586 154.226 231.510  1.00  0.00     0.099 C 
ATOM      7  O   UNL     1     162.412 154.840 230.782  1.00  0.00    -0.544 OA
ATOM      8  O   UNL     1     160.326 154.773 231.721  1.00  0.00    -0.544 OA
ENDBRANCH   1   6
BRANCH   1   9
ATOM      9  C   UNL     1     160.702 151.924 232.059  1.00  0.00     0.047 C 
ATOM     10  C   UNL     1     160.807 150.806 233.108  1.00  0.00     0.014 C 
ATOM     11  C   UNL     1     160.449 151.321 230.667  1.00  0.00     0.014 C 
ENDBRANCH   1   9
TORSDOF 3
ENDMDL
MODEL 2
REMARK VINA RESULT:    -4.015     12.305     13.623
REMARK INTER + INTRA:          -4.667
REMARK INTER:                  -4.601
REMARK INTRA:                  -0.066
REMARK UNBOUND:                -0.065
REMARK SMILES CC(C)[C@@H]([NH3+])C(=O)[O-]
REMARK SMILES IDX 4 1 5 2 6 6 7 7 8 8 2 9 1 10 3 11
REMARK H PARENT 5 3 5 4 5 5
REMARK Flexibility Score: inf
ROOT
ATOM      1  C   UNL     1     156.064 165.130 232.116  1.00  0.00     0.230 C 
ENDROOT
BRANCH   1   2
ATOM      2  N   UNL     1     154.855 165.693 231.493  1.00  0.00    -0.350 N 
ATOM      3  H   UNL     1     155.123 166.502 230.887  1.00  0.00     0.345 HD
ATOM      4  H   UNL     1     154.175 166.029 232.212  1.00  0.00     0.345 HD
ATOM      5  H   UNL     1     154.394 164.981 230.883  1.00  0.00     0.345 HD
ENDBRANCH   1   2
BRANCH   1   6
ATOM      6  C   UNL     1     156.410 163.791 231.513  1.00  0.00     0.099 C 
ATOM      7  O   UNL     1     155.587 163.178 230.783  1.00  0.00    -0.544 OA
ATOM      8  O   UNL     1     157.671 163.246 231.725  1.00  0.00    -0.544 OA
ENDBRANCH   1   6
BRANCH   1   9
ATOM      9  C   UNL     1     157.286 166.096 232.063  1.00  0.00     0.047 C 
ATOM     10  C   UNL     1     157.171 167.224 233.099  1.00  0.00     0.014 C 
ATOM     11  C   UNL     1     157.545 166.685 230.666  1.00  0.00     0.014 C 
ENDBRANCH   1   9
TORSDOF 3
ENDMDL
MODEL 3
REMARK VINA RESULT:    -3.846     13.317     14.177
REMARK INTER + INTRA:          -4.474
REMARK INTER:                  -4.408
REMARK INTRA:                  -0.066
REMARK UNBOUND:                -0.065
REMARK SMILES CC(C)[C@@H]([NH3+])C(=O)[O-]
REMARK SMILES IDX 4 1 5 2 6 6 7 7 8 8 2 9 1 10 3 11
REMARK H PARENT 5 3 5 4 5 5
REMARK Flexibility Score: inf
ROOT
ATOM      1  C   UNL     1     157.442 166.757 232.014  1.00  0.00     0.230 C 
ENDROOT
BRANCH   1   2
ATOM      2  N   UNL     1     158.801 167.182 231.644  1.00  0.00    -0.350 N 
ATOM      3  H   UNL     1     158.942 167.038 230.618  1.00  0.00     0.345 HD
ATOM      4  H   UNL     1     159.527 166.633 232.159  1.00  0.00     0.345 HD
ATOM      5  H   UNL     1     158.931 168.200 231.841  1.00  0.00     0.345 HD
ENDBRANCH   1   2
BRANCH   1   6
ATOM      6  C   UNL     1     157.122 165.401 231.434  1.00  0.00     0.099 C 
ATOM      7  O   UNL     1     158.031 164.676 230.946  1.00  0.00    -0.544 OA
ATOM      8  O   UNL     1     155.820 164.921 231.480  1.00  0.00    -0.544 OA
ENDBRANCH   1   6
BRANCH   1   9
ATOM      9  C   UNL     1     157.192 166.775 233.553  1.00  0.00     0.047 C 
ATOM     10  C   UNL     1     157.567 168.128 234.177  1.00  0.00     0.014 C 
ATOM     11  C   UNL     1     157.895 165.633 234.304  1.00  0.00     0.014 C 
ENDBRANCH   1   9
TORSDOF 3
ENDMDL
MODEL 4
REMARK VINA RESULT:    -3.833      2.017      2.527
REMARK INTER + INTRA:          -4.458
REMARK INTER:                  -4.387
REMARK INTRA:                  -0.072
REMARK UNBOUND:                -0.065
REMARK SMILES CC(C)[C@@H]([NH3+])C(=O)[O-]
REMARK SMILES IDX 4 1 5 2 6 6 7 7 8 8 2 9 1 10 3 11
REMARK H PARENT 5 3 5 4 5 5
REMARK Flexibility Score: inf
ROOT
ATOM      1  C   UNL     1     160.546 151.286 232.030  1.00  0.00     0.230 C 
ENDROOT
BRANCH   1   2
ATOM      2  N   UNL     1     159.207 150.803 231.657  1.00  0.00    -0.350 N 
ATOM      3  H   UNL     1     158.746 151.505 231.035  1.00  0.00     0.345 HD
ATOM      4  H   UNL     1     158.604 150.660 232.499  1.00  0.00     0.345 HD
ATOM      5  H   UNL     1     159.278 149.907 231.124  1.00  0.00     0.345 HD
ENDBRANCH   1   2
BRANCH   1   6
ATOM      6  C   UNL     1     160.807 152.656 231.453  1.00  0.00     0.099 C 
ATOM      7  O   UNL     1     161.977 153.119 231.391  1.00  0.00    -0.544 OA
ATOM      8  O   UNL     1     159.752 153.399 230.938  1.00  0.00    -0.544 OA
ENDBRANCH   1   6
BRANCH   1   9
ATOM      9  C   UNL     1     160.794 151.276 233.569  1.00  0.00     0.047 C 
ATOM     10  C   UNL     1     160.439 149.920 234.197  1.00  0.00     0.014 C 
ATOM     11  C   UNL     1     160.074 152.410 234.316  1.00  0.00     0.014 C 
ENDBRANCH   1   9
TORSDOF 3
ENDMDL
MODEL 5
REMARK VINA RESULT:    -3.811     12.965     13.860
REMARK INTER + INTRA:          -4.433
REMARK INTER:                  -4.494
REMARK INTRA:                   0.061
REMARK UNBOUND:                -0.065
REMARK SMILES CC(C)[C@@H]([NH3+])C(=O)[O-]
REMARK SMILES IDX 4 1 5 2 6 6 7 7 8 8 2 9 1 10 3 11
REMARK H PARENT 5 3 5 4 5 5
REMARK Flexibility Score: inf
ROOT
ATOM      1  C   UNL     1     157.608 166.397 231.176  1.00  0.00     0.230 C 
ENDROOT
BRANCH   1   2
ATOM      2  N   UNL     1     156.401 167.020 230.611  1.00  0.00    -0.350 N 
ATOM      3  H   UNL     1     156.124 167.838 231.201  1.00  0.00     0.345 HD
ATOM      4  H   UNL     1     155.601 166.347 230.582  1.00  0.00     0.345 HD
ATOM      5  H   UNL     1     156.590 167.375 229.647  1.00  0.00     0.345 HD
ENDBRANCH   1   2
BRANCH   1   6
ATOM      6  C   UNL     1     157.878 166.905 232.570  1.00  0.00     0.099 C 
ATOM      7  O   UNL     1     156.947 167.004 233.414  1.00  0.00    -0.544 OA
ATOM      8  O   UNL     1     159.176 167.224 232.949  1.00  0.00    -0.544 OA
ENDBRANCH   1   6
BRANCH   1   9
ATOM      9  C   UNL     1     157.560 164.838 231.153  1.00  0.00     0.047 C 
ATOM     10  C   UNL     1     156.164 164.303 231.505  1.00  0.00     0.014 C 
ATOM     11  C   UNL     1     158.622 164.177 232.046  1.00  0.00     0.014 C 
ENDBRANCH   1   9
TORSDOF 3
ENDMDL
MODEL 6
REMARK VINA RESULT:    -3.726      2.484      3.455
REMARK INTER + INTRA:          -4.335
REMARK INTER:                  -4.350
REMARK INTRA:                   0.014
REMARK UNBOUND:                -0.065
REMARK SMILES CC(C)[C@@H]([NH3+])C(=O)[O-]
REMARK SMILES IDX 4 1 5 2 6 6 7 7 8 8 2 9 1 10 3 11
REMARK H PARENT 5 3 5 4 5 5
REMARK Flexibility Score: inf
ROOT
ATOM      1  C   UNL     1     160.385 151.705 231.339  1.00  0.00     0.230 C 
ENDROOT
BRANCH   1   2
ATOM      2  N   UNL     1     161.631 151.113 230.826  1.00  0.00    -0.350 N 
ATOM      3  H   UNL     1     161.620 151.134 229.781  1.00  0.00     0.345 HD
ATOM      4  H   UNL     1     161.737 150.119 231.135  1.00  0.00     0.345 HD
ATOM      5  H   UNL     1     162.457 151.667 231.145  1.00  0.00     0.345 HD
ENDBRANCH   1   2
BRANCH   1   6
ATOM      6  C   UNL     1     160.141 151.298 232.771  1.00  0.00     0.099 C 
ATOM      7  O   UNL     1     159.048 150.777 233.118  1.00  0.00    -0.544 OA
ATOM      8  O   UNL     1     161.151 151.453 233.713  1.00  0.00    -0.544 OA
ENDBRANCH   1   6
BRANCH   1   9
ATOM      9  C   UNL     1     160.338 153.257 231.187  1.00  0.00     0.047 C 
ATOM     10  C   UNL     1     161.700 153.902 231.486  1.00  0.00     0.014 C 
ATOM     11  C   UNL     1     159.239 153.924 232.030  1.00  0.00     0.014 C 
ENDBRANCH   1   9
TORSDOF 3
ENDMDL
MODEL 7
REMARK VINA RESULT:    -3.718     13.444     14.415
REMARK INTER + INTRA:          -4.327
REMARK INTER:                  -4.279
REMARK INTRA:                  -0.047
REMARK UNBOUND:                -0.065
REMARK SMILES CC(C)[C@@H]([NH3+])C(=O)[O-]
REMARK SMILES IDX 4 1 5 2 6 6 7 7 8 8 2 9 1 10 3 11
REMARK H PARENT 5 3 5 4 5 5
REMARK Flexibility Score: inf
ROOT
ATOM      1  C   UNL     1     158.192 166.380 232.927  1.00  0.00     0.230 C 
ENDROOT
BRANCH   1   2
ATOM      2  N   UNL     1     159.276 167.287 232.517  1.00  0.00    -0.350 N 
ATOM      3  H   UNL     1     160.176 166.967 232.944  1.00  0.00     0.345 HD
ATOM      4  H   UNL     1     159.093 168.268 232.830  1.00  0.00     0.345 HD
ATOM      5  H   UNL     1     159.394 167.269 231.479  1.00  0.00     0.345 HD
ENDBRANCH   1   2
BRANCH   1   6
ATOM      6  C   UNL     1     157.573 166.830 234.228  1.00  0.00     0.099 C 
ATOM      7  O   UNL     1     157.168 165.990 235.076  1.00  0.00    -0.544 OA
ATOM      8  O   UNL     1     157.489 168.186 234.518  1.00  0.00    -0.544 OA
ENDBRANCH   1   6
BRANCH   1   9
ATOM      9  C   UNL     1     157.102 166.193 231.828  1.00  0.00     0.047 C 
ATOM     10  C   UNL     1     156.700 164.720 231.666  1.00  0.00     0.014 C 
ATOM     11  C   UNL     1     157.494 166.788 230.466  1.00  0.00     0.014 C 
ENDBRANCH   1   9
TORSDOF 3
ENDMDL
MODEL 8
REMARK VINA RESULT:    -3.699      2.864      3.513
REMARK INTER + INTRA:          -4.305
REMARK INTER:                  -4.249
REMARK INTRA:                  -0.056
REMARK UNBOUND:                -0.065
REMARK SMILES CC(C)[C@@H]([NH3+])C(=O)[O-]
REMARK SMILES IDX 4 1 5 2 6 6 7 7 8 8 2 9 1 10 3 11
REMARK H PARENT 5 3 5 4 5 5
REMARK Flexibility Score: inf
ROOT
ATOM      1  C   UNL     1     159.619 151.874 232.913  1.00  0.00     0.230 C 
ENDROOT
BRANCH   1   2
ATOM      2  N   UNL     1     158.729 150.707 233.013  1.00  0.00    -0.350 N 
ATOM      3  H   UNL     1     158.042 150.860 233.786  1.00  0.00     0.345 HD
ATOM      4  H   UNL     1     159.266 149.832 233.216  1.00  0.00     0.345 HD
ATOM      5  H   UNL     1     158.187 150.584 232.128  1.00  0.00     0.345 HD
ENDBRANCH   1   2
BRANCH   1   6
ATOM      6  C   UNL     1     160.052 152.344 234.280  1.00  0.00     0.099 C 
ATOM      7  O   UNL     1     159.629 153.432 234.754  1.00  0.00    -0.544 OA
ATOM      8  O   UNL     1     160.889 151.546 235.050  1.00  0.00    -0.544 OA
ENDBRANCH   1   6
BRANCH   1   9
ATOM      9  C   UNL     1     160.854 151.625 231.995  1.00  0.00     0.047 C 
ATOM     10  C   UNL     1     161.809 152.828 231.980  1.00  0.00     0.014 C 
ATOM     11  C   UNL     1     160.482 151.227 230.557  1.00  0.00     0.014 C 
ENDBRANCH   1   9
TORSDOF 3
ENDMDL
MODEL 9
REMARK VINA RESULT:    -3.661      2.791      3.202
REMARK INTER + INTRA:          -4.261
REMARK INTER:                  -4.204
REMARK INTRA:                  -0.057
REMARK UNBOUND:                -0.065
REMARK SMILES CC(C)[C@@H]([NH3+])C(=O)[O-]
REMARK SMILES IDX 4 1 5 2 6 6 7 7 8 8 2 9 1 10 3 11
REMARK H PARENT 5 3 5 4 5 5
REMARK Flexibility Score: inf
ROOT
ATOM      1  C   UNL     1     160.254 151.538 232.725  1.00  0.00     0.230 C 
ENDROOT
BRANCH   1   2
ATOM      2  N   UNL     1     159.034 150.795 232.369  1.00  0.00    -0.350 N 
ATOM      3  H   UNL     1     158.406 150.741 233.203  1.00  0.00     0.345 HD
ATOM      4  H   UNL     1     159.256 149.822 232.057  1.00  0.00     0.345 HD
ATOM      5  H   UNL     1     158.513 151.292 231.612  1.00  0.00     0.345 HD
ENDBRANCH   1   2
BRANCH   1   6
ATOM      6  C   UNL     1     161.190 151.639 231.546  1.00  0.00     0.099 C 
ATOM      7  O   UNL     1     160.887 151.128 230.434  1.00  0.00    -0.544 OA
ATOM      8  O   UNL     1     162.379 152.346 231.669  1.00  0.00    -0.544 OA
ENDBRANCH   1   6
BRANCH   1   9
ATOM      9  C   UNL     1     159.960 152.947 233.323  1.00  0.00     0.047 C 
ATOM     10  C   UNL     1     159.759 152.892 234.845  1.00  0.00     0.014 C 
ATOM     11  C   UNL     1     158.772 153.662 232.658  1.00  0.00     0.014 C 
ENDBRANCH   1   9
TORSDOF 3
ENDMDL
