MODEL 1
REMARK VINA RESULT:    -4.493      0.000      0.000
REMARK INTER + INTRA:          -4.493
REMARK INTER:                  -4.493
REMARK INTRA:                   0.000
REMARK UNBOUND:                 0.000
REMARK SMILES CC1=CC[C@H]2[C@H](C1)C2(C)C
REMARK SMILES IDX 1 1 2 2 3 3 4 4 5 5 6 6 7 7 8 8 9 9 10 10
REMARK H PARENT
REMARK Flexibility Score: inf
ROOT
ATOM      1  C   UNL     1     146.876 148.269 130.603  1.00  0.00     0.039 C 
ATOM      2  C   UNL     1     146.257 147.240 131.504  1.00  0.00    -0.077 C 
ATOM      3  C   UNL     1     145.745 147.622 132.711  1.00  0.00    -0.028 C 
ATOM      4  C   UNL     1     145.081 146.628 133.661  1.00  0.00     0.031 C 
ATOM      5  C   UNL     1     144.602 145.432 132.829  1.00  0.00     0.003 C 
ATOM      6  C   UNL     1     145.966 144.892 132.259  1.00  0.00     0.003 C 
ATOM      7  C   UNL     1     146.152 145.785 131.028  1.00  0.00     0.034 C 
ATOM      8  C   UNL     1     144.901 143.950 132.774  1.00  0.00    -0.029 C 
ATOM      9  C   UNL     1     144.166 143.134 131.706  1.00  0.00     0.012 C 
ATOM     10  C   UNL     1     145.162 143.278 134.124  1.00  0.00     0.012 C 
ENDROOT
TORSDOF 0
ENDMDL
MODEL 2
REMARK VINA RESULT:    -4.455      1.014      3.823
REMARK INTER + INTRA:          -4.455
REMARK INTER:                  -4.455
REMARK INTRA:                   0.000
REMARK UNBOUND:                 0.000
REMARK SMILES CC1=CC[C@H]2[C@H](C1)C2(C)C
REMARK SMILES IDX 1 1 2 2 3 3 4 4 5 5 6 6 7 7 8 8 9 9 10 10
REMARK H PARENT
REMARK Flexibility Score: inf
ROOT
ATOM      1  C   UNL     1     143.860 142.576 130.571  1.00  0.00     0.039 C 
ATOM      2  C   UNL     1     144.463 143.594 131.495  1.00  0.00    -0.077 C 
ATOM      3  C   UNL     1     144.880 143.212 132.738  1.00  0.00    -0.028 C 
ATOM      4  C   UNL     1     145.523 144.194 133.714  1.00  0.00     0.031 C 
ATOM      5  C   UNL     1     146.105 145.354 132.898  1.00  0.00     0.003 C 
ATOM      6  C   UNL     1     144.805 145.941 132.232  1.00  0.00     0.003 C 
ATOM      7  C   UNL     1     144.661 145.034 131.005  1.00  0.00     0.034 C 
ATOM      8  C   UNL     1     145.874 146.846 132.801  1.00  0.00    -0.029 C 
ATOM      9  C   UNL     1     146.710 147.612 131.772  1.00  0.00     0.012 C 
ATOM     10  C   UNL     1     145.556 147.553 134.121  1.00  0.00     0.012 C 
ENDROOT
TORSDOF 0
ENDMDL
MODEL 3
REMARK VINA RESULT:    -4.043      1.798      2.637
REMARK INTER + INTRA:          -4.043
REMARK INTER:                  -4.043
REMARK INTRA:                   0.000
REMARK UNBOUND:                 0.000
REMARK SMILES CC1=CC[C@H]2[C@H](C1)C2(C)C
REMARK SMILES IDX 1 1 2 2 3 3 4 4 5 5 6 6 7 7 8 8 9 9 10 10
REMARK H PARENT
REMARK Flexibility Score: inf
ROOT
ATOM      1  C   UNL     1     142.563 147.245 130.733  1.00  0.00     0.039 C 
ATOM      2  C   UNL     1     143.544 146.485 131.578  1.00  0.00    -0.077 C 
ATOM      3  C   UNL     1     143.114 145.867 132.718  1.00  0.00    -0.028 C 
ATOM      4  C   UNL     1     144.058 145.060 133.606  1.00  0.00     0.031 C 
ATOM      5  C   UNL     1     145.246 144.614 132.745  1.00  0.00     0.003 C 
ATOM      6  C   UNL     1     145.861 146.003 132.331  1.00  0.00     0.003 C 
ATOM      7  C   UNL     1     145.001 146.361 131.114  1.00  0.00     0.034 C 
ATOM      8  C   UNL     1     146.741 144.844 132.744  1.00  0.00    -0.029 C 
ATOM      9  C   UNL     1     147.543 144.188 131.616  1.00  0.00     0.012 C 
ATOM     10  C   UNL     1     147.399 144.929 134.124  1.00  0.00     0.012 C 
ENDROOT
TORSDOF 0
ENDMDL
MODEL 4
REMARK VINA RESULT:    -4.038     12.555     13.104
REMARK INTER + INTRA:          -4.038
REMARK INTER:                  -4.038
REMARK INTRA:                   0.000
REMARK UNBOUND:                 0.000
REMARK SMILES CC1=CC[C@H]2[C@H](C1)C2(C)C
REMARK SMILES IDX 1 1 2 2 3 3 4 4 5 5 6 6 7 7 8 8 9 9 10 10
REMARK H PARENT
REMARK Flexibility Score: inf
ROOT
ATOM      1  C   UNL     1     136.364 140.390 125.568  1.00  0.00     0.039 C 
ATOM      2  C   UNL     1     136.011 139.532 126.748  1.00  0.00    -0.077 C 
ATOM      3  C   UNL     1     135.287 140.066 127.776  1.00  0.00    -0.028 C 
ATOM      4  C   UNL     1     134.875 139.239 128.991  1.00  0.00     0.031 C 
ATOM      5  C   UNL     1     134.878 137.763 128.578  1.00  0.00     0.003 C 
ATOM      6  C   UNL     1     136.392 137.555 128.201  1.00  0.00     0.003 C 
ATOM      7  C   UNL     1     136.412 138.052 126.752  1.00  0.00     0.034 C 
ATOM      8  C   UNL     1     135.627 136.515 128.989  1.00  0.00    -0.029 C 
ATOM      9  C   UNL     1     135.294 135.225 128.233  1.00  0.00     0.012 C 
ATOM     10  C   UNL     1     135.949 136.398 130.481  1.00  0.00     0.012 C 
ENDROOT
TORSDOF 0
ENDMDL
MODEL 5
REMARK VINA RESULT:    -4.008      1.840      2.776
REMARK INTER + INTRA:          -4.008
REMARK INTER:                  -4.008
REMARK INTRA:                   0.000
REMARK UNBOUND:                 0.000
REMARK SMILES CC1=CC[C@H]2[C@H](C1)C2(C)C
REMARK SMILES IDX 1 1 2 2 3 3 4 4 5 5 6 6 7 7 8 8 9 9 10 10
REMARK H PARENT
REMARK Flexibility Score: inf
ROOT
ATOM      1  C   UNL     1     148.013 143.857 130.559  1.00  0.00     0.039 C 
ATOM      2  C   UNL     1     147.021 144.503 131.483  1.00  0.00    -0.077 C 
ATOM      3  C   UNL     1     147.427 144.925 132.717  1.00  0.00    -0.028 C 
ATOM      4  C   UNL     1     146.472 145.611 133.692  1.00  0.00     0.031 C 
ATOM      5  C   UNL     1     145.324 146.217 132.877  1.00  0.00     0.003 C 
ATOM      6  C   UNL     1     144.692 144.927 132.233  1.00  0.00     0.003 C 
ATOM      7  C   UNL     1     145.584 144.738 131.001  1.00  0.00     0.034 C 
ATOM      8  C   UNL     1     143.825 146.031 132.795  1.00  0.00    -0.029 C 
ATOM      9  C   UNL     1     143.077 146.876 131.760  1.00  0.00     0.012 C 
ATOM     10  C   UNL     1     143.120 145.752 134.125  1.00  0.00     0.012 C 
ENDROOT
TORSDOF 0
ENDMDL
MODEL 6
REMARK VINA RESULT:    -3.768      1.155      4.124
REMARK INTER + INTRA:          -3.768
REMARK INTER:                  -3.768
REMARK INTRA:                   0.000
REMARK UNBOUND:                 0.000
REMARK SMILES CC1=CC[C@H]2[C@H](C1)C2(C)C
REMARK SMILES IDX 1 1 2 2 3 3 4 4 5 5 6 6 7 7 8 8 9 9 10 10
REMARK H PARENT
REMARK Flexibility Score: inf
ROOT
ATOM      1  C   UNL     1     143.795 142.584 132.167  1.00  0.00     0.039 C 
ATOM      2  C   UNL     1     144.481 143.899 131.932  1.00  0.00    -0.077 C 
ATOM      3  C   UNL     1     144.663 144.344 130.654  1.00  0.00    -0.028 C 
ATOM      4  C   UNL     1     145.331 145.683 130.351  1.00  0.00     0.031 C 
ATOM      5  C   UNL     1     145.185 146.573 131.591  1.00  0.00     0.003 C 
ATOM      6  C   UNL     1     145.982 145.738 132.660  1.00  0.00     0.003 C 
ATOM      7  C   UNL     1     144.909 144.752 133.133  1.00  0.00     0.034 C 
ATOM      8  C   UNL     1     146.122 147.241 132.572  1.00  0.00    -0.029 C 
ATOM      9  C   UNL     1     145.480 148.034 133.714  1.00  0.00     0.012 C 
ATOM     10  C   UNL     1     147.424 147.785 131.978  1.00  0.00     0.012 C 
ENDROOT
TORSDOF 0
ENDMDL
MODEL 7
REMARK VINA RESULT:    -3.715      0.909      2.130
REMARK INTER + INTRA:          -3.715
REMARK INTER:                  -3.715
REMARK INTRA:                   0.000
REMARK UNBOUND:                 0.000
REMARK SMILES CC1=CC[C@H]2[C@H](C1)C2(C)C
REMARK SMILES IDX 1 1 2 2 3 3 4 4 5 5 6 6 7 7 8 8 9 9 10 10
REMARK H PARENT
REMARK Flexibility Score: inf
ROOT
ATOM      1  C   UNL     1     146.872 148.271 132.246  1.00  0.00     0.039 C 
ATOM      2  C   UNL     1     146.224 146.938 132.004  1.00  0.00    -0.077 C 
ATOM      3  C   UNL     1     146.077 146.483 130.725  1.00  0.00    -0.028 C 
ATOM      4  C   UNL     1     145.449 145.127 130.415  1.00  0.00     0.031 C 
ATOM      5  C   UNL     1     145.594 144.246 131.662  1.00  0.00     0.003 C 
ATOM      6  C   UNL     1     144.756 145.065 132.712  1.00  0.00     0.003 C 
ATOM      7  C   UNL     1     145.795 146.080 133.201  1.00  0.00     0.034 C 
ATOM      8  C   UNL     1     144.656 143.559 132.629  1.00  0.00    -0.029 C 
ATOM      9  C   UNL     1     145.296 142.787 133.787  1.00  0.00     0.012 C 
ATOM     10  C   UNL     1     143.379 142.980 132.013  1.00  0.00     0.012 C 
ENDROOT
TORSDOF 0
ENDMDL
MODEL 8
REMARK VINA RESULT:    -3.615     12.620     13.720
REMARK INTER + INTRA:          -3.615
REMARK INTER:                  -3.615
REMARK INTRA:                   0.000
REMARK UNBOUND:                 0.000
REMARK SMILES CC1=CC[C@H]2[C@H](C1)C2(C)C
REMARK SMILES IDX 1 1 2 2 3 3 4 4 5 5 6 6 7 7 8 8 9 9 10 10
REMARK H PARENT
REMARK Flexibility Score: inf
ROOT
ATOM      1  C   UNL     1     155.091 135.337 130.758  1.00  0.00     0.039 C 
ATOM      2  C   UNL     1     154.323 135.383 129.468  1.00  0.00    -0.077 C 
ATOM      3  C   UNL     1     154.974 135.163 128.289  1.00  0.00    -0.028 C 
ATOM      4  C   UNL     1     154.245 135.172 126.947  1.00  0.00     0.031 C 
ATOM      5  C   UNL     1     152.765 134.875 127.216  1.00  0.00     0.003 C 
ATOM      6  C   UNL     1     152.367 136.102 128.118  1.00  0.00     0.003 C 
ATOM      7  C   UNL     1     152.806 135.612 129.502  1.00  0.00     0.034 C 
ATOM      8  C   UNL     1     151.453 135.602 127.022  1.00  0.00    -0.029 C 
ATOM      9  C   UNL     1     150.185 134.883 127.494  1.00  0.00     0.012 C 
ATOM     10  C   UNL     1     151.352 136.459 125.757  1.00  0.00     0.012 C 
ENDROOT
TORSDOF 0
ENDMDL
MODEL 9
REMARK VINA RESULT:    -3.372      1.742      3.124
REMARK INTER + INTRA:          -3.372
REMARK INTER:                  -3.372
REMARK INTRA:                   0.000
REMARK UNBOUND:                 0.000
REMARK SMILES CC1=CC[C@H]2[C@H](C1)C2(C)C
REMARK SMILES IDX 1 1 2 2 3 3 4 4 5 5 6 6 7 7 8 8 9 9 10 10
REMARK H PARENT
REMARK Flexibility Score: inf
ROOT
ATOM      1  C   UNL     1     142.631 147.226 132.175  1.00  0.00     0.039 C 
ATOM      2  C   UNL     1     143.897 146.436 132.010  1.00  0.00    -0.077 C 
ATOM      3  C   UNL     1     144.362 146.166 130.754  1.00  0.00    -0.028 C 
ATOM      4  C   UNL     1     145.655 145.388 130.520  1.00  0.00     0.031 C 
ATOM      5  C   UNL     1     146.519 145.523 131.780  1.00  0.00     0.003 C 
ATOM      6  C   UNL     1     145.598 144.836 132.856  1.00  0.00     0.003 C 
ATOM      7  C   UNL     1     144.681 145.999 133.253  1.00  0.00     0.034 C 
ATOM      8  C   UNL     1     147.088 144.583 132.820  1.00  0.00    -0.029 C 
ATOM      9  C   UNL     1     147.894 145.215 133.958  1.00  0.00     0.012 C 
ATOM     10  C   UNL     1     147.548 143.220 132.297  1.00  0.00     0.012 C 
ENDROOT
TORSDOF 0
ENDMDL
