MODEL 1
REMARK VINA RESULT:    -2.720      0.000      0.000
REMARK INTER + INTRA:          -5.337
REMARK INTER:                  -4.946
REMARK INTRA:                  -0.391
REMARK UNBOUND:                -0.391
REMARK SMILES CCCCCCCCCCCCCC[C@@H](C)C(=O)[O-]
REMARK SMILES IDX 9 1 10 2 11 3 12 4 13 5 14 6 15 7 16 8 17 9 18 10 19 11 8 12
REMARK SMILES IDX 7 13 6 14 5 15 4 16 3 17 2 18 1 19
REMARK H PARENT
REMARK Flexibility Score: inf
ROOT
ATOM      1  C   UNL     1       6.337 -22.935 -18.291  1.00  0.00     0.000 C 
ENDROOT
BRANCH   1   2
ATOM      2  C   UNL     1       7.678 -22.833 -17.541  1.00  0.00     0.000 C 
BRANCH   2   3
ATOM      3  C   UNL     1       8.789 -22.215 -18.404  1.00  0.00     0.000 C 
BRANCH   3   4
ATOM      4  C   UNL     1      10.026 -23.123 -18.516  1.00  0.00     0.000 C 
BRANCH   4   5
ATOM      5  C   UNL     1      10.862 -22.814 -19.777  1.00  0.00     0.001 C 
BRANCH   5   6
ATOM      6  C   UNL     1      10.102 -23.058 -21.095  1.00  0.00     0.009 C 
BRANCH   6   7
ATOM      7  C   UNL     1       9.826 -21.776 -21.911  1.00  0.00     0.032 C 
ATOM      8  C   UNL     1      11.068 -21.376 -22.713  1.00  0.00     0.014 C 
BRANCH   7   9
ATOM      9  C   UNL     1       8.662 -21.957 -22.849  1.00  0.00     0.044 C 
ATOM     10  O   UNL     1       7.650 -21.214 -22.751  1.00  0.00    -0.550 OA
ATOM     11  O   UNL     1       8.711 -22.916 -23.855  1.00  0.00    -0.550 OA
ENDBRANCH   7   9
ENDBRANCH   6   7
ENDBRANCH   5   6
ENDBRANCH   4   5
ENDBRANCH   3   4
ENDBRANCH   2   3
ENDBRANCH   1   2
BRANCH   1  12
ATOM     12  C   UNL     1       5.146 -23.125 -17.341  1.00  0.00     0.000 C 
BRANCH  12  13
ATOM     13  C   UNL     1       5.213 -22.193 -16.118  1.00  0.00    -0.000 C 
BRANCH  13  14
ATOM     14  C   UNL     1       6.075 -20.940 -16.366  1.00  0.00    -0.000 C 
BRANCH  14  15
ATOM     15  C   UNL     1       6.814 -20.399 -15.129  1.00  0.00    -0.000 C 
BRANCH  15  16
ATOM     16  C   UNL     1       8.302 -20.117 -15.397  1.00  0.00    -0.000 C 
BRANCH  16  17
ATOM     17  C   UNL     1       9.209 -20.517 -14.218  1.00  0.00    -0.000 C 
BRANCH  17  18
ATOM     18  C   UNL     1      10.720 -20.392 -14.484  1.00  0.00    -0.003 C 
ATOM     19  C   UNL     1      11.125 -20.872 -15.877  1.00  0.00     0.004 C 
ENDBRANCH  17  18
ENDBRANCH  16  17
ENDBRANCH  15  16
ENDBRANCH  14  15
ENDBRANCH  13  14
ENDBRANCH  12  13
ENDBRANCH   1  12
TORSDOF 14
ENDMDL
MODEL 2
REMARK VINA RESULT:    -2.251      3.611      6.003
REMARK INTER + INTRA:          -4.485
REMARK INTER:                  -3.678
REMARK INTRA:                  -0.807
REMARK UNBOUND:                -0.391
REMARK SMILES CCCCCCCCCCCCCC[C@@H](C)C(=O)[O-]
REMARK SMILES IDX 9 1 10 2 11 3 12 4 13 5 14 6 15 7 16 8 17 9 18 10 19 11 8 12
REMARK SMILES IDX 7 13 6 14 5 15 4 16 3 17 2 18 1 19
REMARK H PARENT
REMARK Flexibility Score: inf
ROOT
ATOM      1  C   UNL     1       5.390 -21.182 -15.621  1.00  0.00     0.000 C 
ENDROOT
BRANCH   1   2
ATOM      2  C   UNL     1       6.779 -20.586 -15.916  1.00  0.00     0.000 C 
BRANCH   2   3
ATOM      3  C   UNL     1       7.396 -21.146 -17.208  1.00  0.00     0.000 C 
BRANCH   3   4
ATOM      4  C   UNL     1       8.531 -22.149 -16.936  1.00  0.00     0.000 C 
BRANCH   4   5
ATOM      5  C   UNL     1       8.786 -23.080 -18.141  1.00  0.00     0.001 C 
BRANCH   5   6
ATOM      6  C   UNL     1       8.135 -22.588 -19.448  1.00  0.00     0.009 C 
BRANCH   6   7
ATOM      7  C   UNL     1       9.103 -22.528 -20.650  1.00  0.00     0.032 C 
ATOM      8  C   UNL     1       8.335 -22.703 -21.963  1.00  0.00     0.014 C 
BRANCH   7   9
ATOM      9  C   UNL     1       9.861 -21.227 -20.685  1.00  0.00     0.044 C 
ATOM     10  O   UNL     1       9.411 -20.252 -21.342  1.00  0.00    -0.550 OA
ATOM     11  O   UNL     1      11.039 -21.078 -19.961  1.00  0.00    -0.550 OA
ENDBRANCH   7   9
ENDBRANCH   6   7
ENDBRANCH   5   6
ENDBRANCH   4   5
ENDBRANCH   3   4
ENDBRANCH   2   3
ENDBRANCH   1   2
BRANCH   1  12
ATOM     12  C   UNL     1       5.091 -22.425 -16.472  1.00  0.00     0.000 C 
BRANCH  12  13
ATOM     13  C   UNL     1       3.630 -22.889 -16.344  1.00  0.00    -0.000 C 
BRANCH  13  14
ATOM     14  C   UNL     1       2.757 -21.909 -15.537  1.00  0.00    -0.000 C 
BRANCH  14  15
ATOM     15  C   UNL     1       1.371 -21.617 -16.141  1.00  0.00    -0.000 C 
BRANCH  15  16
ATOM     16  C   UNL     1       0.297 -22.618 -15.684  1.00  0.00    -0.000 C 
BRANCH  16  17
ATOM     17  C   UNL     1      -1.132 -22.052 -15.790  1.00  0.00    -0.000 C 
BRANCH  17  18
ATOM     18  C   UNL     1      -2.195 -22.805 -14.970  1.00  0.00    -0.003 C 
ATOM     19  C   UNL     1      -2.299 -22.313 -13.527  1.00  0.00     0.004 C 
ENDBRANCH  17  18
ENDBRANCH  16  17
ENDBRANCH  15  16
ENDBRANCH  14  15
ENDBRANCH  13  14
ENDBRANCH  12  13
ENDBRANCH   1  12
TORSDOF 14
ENDMDL
MODEL 3
REMARK VINA RESULT:    -2.214     11.485     14.938
REMARK INTER + INTRA:          -4.418
REMARK INTER:                  -3.444
REMARK INTRA:                  -0.973
REMARK UNBOUND:                -0.391
REMARK SMILES CCCCCCCCCCCCCC[C@@H](C)C(=O)[O-]
REMARK SMILES IDX 9 1 10 2 11 3 12 4 13 5 14 6 15 7 16 8 17 9 18 10 19 11 8 12
REMARK SMILES IDX 7 13 6 14 5 15 4 16 3 17 2 18 1 19
REMARK H PARENT
REMARK Flexibility Score: inf
ROOT
ATOM      1  C   UNL     1      -4.140 -22.104 -16.457  1.00  0.00     0.000 C 
ENDROOT
BRANCH   1   2
ATOM      2  C   UNL     1      -5.437 -21.276 -16.472  1.00  0.00     0.000 C 
BRANCH   2   3
ATOM      3  C   UNL     1      -6.575 -21.979 -17.231  1.00  0.00     0.000 C 
BRANCH   3   4
ATOM      4  C   UNL     1      -7.966 -21.614 -16.683  1.00  0.00     0.000 C 
BRANCH   4   5
ATOM      5  C   UNL     1      -7.889 -20.970 -15.282  1.00  0.00     0.001 C 
BRANCH   5   6
ATOM      6  C   UNL     1      -8.884 -21.572 -14.271  1.00  0.00     0.009 C 
BRANCH   6   7
ATOM      7  C   UNL     1      -8.294 -21.793 -12.860  1.00  0.00     0.032 C 
ATOM      8  C   UNL     1      -6.776 -21.985 -12.941  1.00  0.00     0.014 C 
BRANCH   7   9
ATOM      9  C   UNL     1      -8.604 -20.638 -11.944  1.00  0.00     0.044 C 
ATOM     10  O   UNL     1      -8.783 -20.839 -10.715  1.00  0.00    -0.550 OA
ATOM     11  O   UNL     1      -8.653 -19.340 -12.440  1.00  0.00    -0.550 OA
ENDBRANCH   7   9
ENDBRANCH   6   7
ENDBRANCH   5   6
ENDBRANCH   4   5
ENDBRANCH   3   4
ENDBRANCH   2   3
ENDBRANCH   1   2
BRANCH   1  12
ATOM     12  C   UNL     1      -3.985 -22.928 -15.170  1.00  0.00     0.000 C 
BRANCH  12  13
ATOM     13  C   UNL     1      -2.693 -22.589 -14.405  1.00  0.00    -0.000 C 
BRANCH  13  14
ATOM     14  C   UNL     1      -1.426 -23.125 -15.100  1.00  0.00    -0.000 C 
BRANCH  14  15
ATOM     15  C   UNL     1      -0.517 -22.050 -15.722  1.00  0.00    -0.000 C 
BRANCH  15  16
ATOM     16  C   UNL     1       0.904 -22.561 -16.010  1.00  0.00    -0.000 C 
BRANCH  16  17
ATOM     17  C   UNL     1       1.941 -21.426 -16.105  1.00  0.00    -0.000 C 
BRANCH  17  18
ATOM     18  C   UNL     1       3.231 -21.650 -15.295  1.00  0.00    -0.003 C 
ATOM     19  C   UNL     1       4.431 -22.016 -16.167  1.00  0.00     0.004 C 
ENDBRANCH  17  18
ENDBRANCH  16  17
ENDBRANCH  15  16
ENDBRANCH  14  15
ENDBRANCH  13  14
ENDBRANCH  12  13
ENDBRANCH   1  12
TORSDOF 14
ENDMDL
MODEL 4
REMARK VINA RESULT:    -2.136      3.127      5.469
REMARK INTER + INTRA:          -4.276
REMARK INTER:                  -3.551
REMARK INTRA:                  -0.725
REMARK UNBOUND:                -0.391
REMARK SMILES CCCCCCCCCCCCCC[C@@H](C)C(=O)[O-]
REMARK SMILES IDX 9 1 10 2 11 3 12 4 13 5 14 6 15 7 16 8 17 9 18 10 19 11 8 12
REMARK SMILES IDX 7 13 6 14 5 15 4 16 3 17 2 18 1 19
REMARK H PARENT
REMARK Flexibility Score: inf
ROOT
ATOM      1  C   UNL     1       7.280 -21.421 -16.508  1.00  0.00     0.000 C 
ENDROOT
BRANCH   1   2
ATOM      2  C   UNL     1       7.214 -22.352 -17.733  1.00  0.00     0.000 C 
BRANCH   2   3
ATOM      3  C   UNL     1       8.545 -23.073 -17.996  1.00  0.00     0.000 C 
BRANCH   3   4
ATOM      4  C   UNL     1       9.760 -22.280 -17.483  1.00  0.00     0.000 C 
BRANCH   4   5
ATOM      5  C   UNL     1      10.646 -21.762 -18.636  1.00  0.00     0.001 C 
BRANCH   5   6
ATOM      6  C   UNL     1      10.259 -22.332 -20.014  1.00  0.00     0.009 C 
BRANCH   6   7
ATOM      7  C   UNL     1       9.299 -21.432 -20.822  1.00  0.00     0.032 C 
ATOM      8  C   UNL     1      10.090 -20.405 -21.638  1.00  0.00     0.014 C 
BRANCH   7   9
ATOM      9  C   UNL     1       8.428 -22.241 -21.747  1.00  0.00     0.044 C 
ATOM     10  O   UNL     1       8.849 -22.564 -22.888  1.00  0.00    -0.550 OA
ATOM     11  O   UNL     1       7.172 -22.672 -21.334  1.00  0.00    -0.550 OA
ENDBRANCH   7   9
ENDBRANCH   6   7
ENDBRANCH   5   6
ENDBRANCH   4   5
ENDBRANCH   3   4
ENDBRANCH   2   3
ENDBRANCH   1   2
BRANCH   1  12
ATOM     12  C   UNL     1       5.887 -21.041 -15.984  1.00  0.00     0.000 C 
BRANCH  12  13
ATOM     13  C   UNL     1       4.825 -22.106 -16.308  1.00  0.00    -0.000 C 
BRANCH  13  14
ATOM     14  C   UNL     1       3.508 -21.895 -15.536  1.00  0.00    -0.000 C 
BRANCH  14  15
ATOM     15  C   UNL     1       2.361 -22.843 -15.928  1.00  0.00    -0.000 C 
BRANCH  15  16
ATOM     16  C   UNL     1       0.990 -22.147 -15.951  1.00  0.00    -0.000 C 
BRANCH  16  17
ATOM     17  C   UNL     1      -0.116 -22.980 -15.276  1.00  0.00    -0.000 C 
BRANCH  17  18
ATOM     18  C   UNL     1      -1.532 -22.384 -15.370  1.00  0.00    -0.003 C 
ATOM     19  C   UNL     1      -2.360 -22.604 -14.104  1.00  0.00     0.004 C 
ENDBRANCH  17  18
ENDBRANCH  16  17
ENDBRANCH  15  16
ENDBRANCH  14  15
ENDBRANCH  13  14
ENDBRANCH  12  13
ENDBRANCH   1  12
TORSDOF 14
ENDMDL
MODEL 5
REMARK VINA RESULT:    -2.117     10.102     13.274
REMARK INTER + INTRA:          -4.241
REMARK INTER:                  -3.585
REMARK INTRA:                  -0.656
REMARK UNBOUND:                -0.391
REMARK SMILES CCCCCCCCCCCCCC[C@@H](C)C(=O)[O-]
REMARK SMILES IDX 9 1 10 2 11 3 12 4 13 5 14 6 15 7 16 8 17 9 18 10 19 11 8 12
REMARK SMILES IDX 7 13 6 14 5 15 4 16 3 17 2 18 1 19
REMARK H PARENT
REMARK Flexibility Score: inf
ROOT
ATOM      1  C   UNL     1      -2.126 -22.241 -15.533  1.00  0.00     0.000 C 
ENDROOT
BRANCH   1   2
ATOM      2  C   UNL     1      -3.265 -23.113 -14.973  1.00  0.00     0.000 C 
BRANCH   2   3
ATOM      3  C   UNL     1      -4.652 -22.493 -15.210  1.00  0.00     0.000 C 
BRANCH   3   4
ATOM      4  C   UNL     1      -4.790 -21.871 -16.611  1.00  0.00     0.000 C 
BRANCH   4   5
ATOM      5  C   UNL     1      -6.267 -21.676 -17.018  1.00  0.00     0.001 C 
BRANCH   5   6
ATOM      6  C   UNL     1      -7.063 -20.790 -16.040  1.00  0.00     0.009 C 
BRANCH   6   7
ATOM      7  C   UNL     1      -8.412 -21.397 -15.594  1.00  0.00     0.032 C 
ATOM      8  C   UNL     1      -8.876 -22.458 -16.597  1.00  0.00     0.014 C 
BRANCH   7   9
ATOM      9  C   UNL     1      -8.316 -22.013 -14.223  1.00  0.00     0.044 C 
ATOM     10  O   UNL     1      -9.029 -23.006 -13.926  1.00  0.00    -0.550 OA
ATOM     11  O   UNL     1      -7.411 -21.517 -13.291  1.00  0.00    -0.550 OA
ENDBRANCH   7   9
ENDBRANCH   6   7
ENDBRANCH   5   6
ENDBRANCH   4   5
ENDBRANCH   3   4
ENDBRANCH   2   3
ENDBRANCH   1   2
BRANCH   1  12
ATOM     12  C   UNL     1      -0.758 -22.932 -15.438  1.00  0.00     0.000 C 
BRANCH  12  13
ATOM     13  C   UNL     1       0.394 -22.024 -15.907  1.00  0.00    -0.000 C 
BRANCH  13  14
ATOM     14  C   UNL     1       1.767 -22.721 -15.851  1.00  0.00    -0.000 C 
BRANCH  14  15
ATOM     15  C   UNL     1       2.972 -21.778 -15.677  1.00  0.00    -0.000 C 
BRANCH  15  16
ATOM     16  C   UNL     1       4.267 -22.344 -16.282  1.00  0.00    -0.000 C 
BRANCH  16  17
ATOM     17  C   UNL     1       5.499 -21.469 -15.985  1.00  0.00    -0.000 C 
BRANCH  17  18
ATOM     18  C   UNL     1       6.658 -21.609 -16.988  1.00  0.00    -0.003 C 
ATOM     19  C   UNL     1       6.537 -22.847 -17.875  1.00  0.00     0.004 C 
ENDBRANCH  17  18
ENDBRANCH  16  17
ENDBRANCH  15  16
ENDBRANCH  14  15
ENDBRANCH  13  14
ENDBRANCH  12  13
ENDBRANCH   1  12
TORSDOF 14
ENDMDL
MODEL 6
REMARK VINA RESULT:    -1.996      1.841      4.329
REMARK INTER + INTRA:          -4.021
REMARK INTER:                  -2.759
REMARK INTRA:                  -1.261
REMARK UNBOUND:                -0.391
REMARK SMILES CCCCCCCCCCCCCC[C@@H](C)C(=O)[O-]
REMARK SMILES IDX 9 1 10 2 11 3 12 4 13 5 14 6 15 7 16 8 17 9 18 10 19 11 8 12
REMARK SMILES IDX 7 13 6 14 5 15 4 16 3 17 2 18 1 19
REMARK H PARENT
REMARK Flexibility Score: inf
ROOT
ATOM      1  C   UNL     1       8.609 -20.913 -15.454  1.00  0.00     0.000 C 
ENDROOT
BRANCH   1   2
ATOM      2  C   UNL     1      10.111 -21.225 -15.585  1.00  0.00     0.000 C 
BRANCH   2   3
ATOM      3  C   UNL     1      10.570 -21.302 -17.050  1.00  0.00     0.000 C 
BRANCH   3   4
ATOM      4  C   UNL     1      11.115 -22.691 -17.427  1.00  0.00     0.000 C 
BRANCH   4   5
ATOM      5  C   UNL     1      10.770 -23.076 -18.882  1.00  0.00     0.001 C 
BRANCH   5   6
ATOM      6  C   UNL     1      10.032 -21.965 -19.654  1.00  0.00     0.009 C 
BRANCH   6   7
ATOM      7  C   UNL     1       9.308 -22.457 -20.927  1.00  0.00     0.032 C 
ATOM      8  C   UNL     1       7.839 -22.765 -20.619  1.00  0.00     0.014 C 
BRANCH   7   9
ATOM      9  C   UNL     1       9.383 -21.439 -22.035  1.00  0.00     0.044 C 
ATOM     10  O   UNL     1       9.691 -21.797 -23.201  1.00  0.00    -0.550 OA
ATOM     11  O   UNL     1       9.074 -20.106 -21.788  1.00  0.00    -0.550 OA
ENDBRANCH   7   9
ENDBRANCH   6   7
ENDBRANCH   5   6
ENDBRANCH   4   5
ENDBRANCH   3   4
ENDBRANCH   2   3
ENDBRANCH   1   2
BRANCH   1  12
ATOM     12  C   UNL     1       7.833 -21.212 -16.745  1.00  0.00     0.000 C 
BRANCH  12  13
ATOM     13  C   UNL     1       7.520 -22.710 -16.911  1.00  0.00    -0.000 C 
BRANCH  13  14
ATOM     14  C   UNL     1       6.200 -23.125 -16.234  1.00  0.00    -0.000 C 
BRANCH  14  15
ATOM     15  C   UNL     1       4.934 -22.464 -16.808  1.00  0.00    -0.000 C 
BRANCH  15  16
ATOM     16  C   UNL     1       4.452 -21.266 -15.974  1.00  0.00    -0.000 C 
BRANCH  16  17
ATOM     17  C   UNL     1       3.118 -21.535 -15.254  1.00  0.00    -0.000 C 
BRANCH  17  18
ATOM     18  C   UNL     1       2.228 -22.609 -15.906  1.00  0.00    -0.003 C 
ATOM     19  C   UNL     1       0.751 -22.220 -15.946  1.00  0.00     0.004 C 
ENDBRANCH  17  18
ENDBRANCH  16  17
ENDBRANCH  15  16
ENDBRANCH  14  15
ENDBRANCH  13  14
ENDBRANCH  12  13
ENDBRANCH   1  12
TORSDOF 14
ENDMDL
MODEL 7
REMARK VINA RESULT:    -1.993      9.259     12.504
REMARK INTER + INTRA:          -4.016
REMARK INTER:                  -3.980
REMARK INTRA:                  -0.036
REMARK UNBOUND:                -0.391
REMARK SMILES CCCCCCCCCCCCCC[C@@H](C)C(=O)[O-]
REMARK SMILES IDX 9 1 10 2 11 3 12 4 13 5 14 6 15 7 16 8 17 9 18 10 19 11 8 12
REMARK SMILES IDX 7 13 6 14 5 15 4 16 3 17 2 18 1 19
REMARK H PARENT
REMARK Flexibility Score: inf
ROOT
ATOM      1  C   UNL     1       0.490 -22.263 -15.873  1.00  0.00     0.000 C 
ENDROOT
BRANCH   1   2
ATOM      2  C   UNL     1      -0.718 -23.125 -15.460  1.00  0.00     0.000 C 
BRANCH   2   3
ATOM      3  C   UNL     1      -1.858 -22.289 -14.858  1.00  0.00     0.000 C 
BRANCH   3   4
ATOM      4  C   UNL     1      -2.805 -23.125 -13.979  1.00  0.00     0.000 C 
BRANCH   4   5
ATOM      5  C   UNL     1      -4.290 -22.851 -14.299  1.00  0.00     0.001 C 
BRANCH   5   6
ATOM      6  C   UNL     1      -5.189 -22.791 -13.049  1.00  0.00     0.009 C 
BRANCH   6   7
ATOM      7  C   UNL     1      -6.551 -22.102 -13.284  1.00  0.00     0.032 C 
ATOM      8  C   UNL     1      -7.388 -22.901 -14.288  1.00  0.00     0.014 C 
BRANCH   7   9
ATOM      9  C   UNL     1      -7.323 -21.950 -12.000  1.00  0.00     0.044 C 
ATOM     10  O   UNL     1      -7.202 -22.806 -11.085  1.00  0.00    -0.550 OA
ATOM     11  O   UNL     1      -8.142 -20.844 -11.797  1.00  0.00    -0.550 OA
ENDBRANCH   7   9
ENDBRANCH   6   7
ENDBRANCH   5   6
ENDBRANCH   4   5
ENDBRANCH   3   4
ENDBRANCH   2   3
ENDBRANCH   1   2
BRANCH   1  12
ATOM     12  C   UNL     1       1.758 -23.100 -16.100  1.00  0.00     0.000 C 
BRANCH  12  13
ATOM     13  C   UNL     1       3.046 -22.289 -15.877  1.00  0.00    -0.000 C 
BRANCH  13  14
ATOM     14  C   UNL     1       4.306 -23.012 -16.391  1.00  0.00    -0.000 C 
BRANCH  14  15
ATOM     15  C   UNL     1       5.577 -22.145 -16.455  1.00  0.00    -0.000 C 
BRANCH  15  16
ATOM     16  C   UNL     1       5.495 -20.894 -15.565  1.00  0.00    -0.000 C 
BRANCH  16  17
ATOM     17  C   UNL     1       6.775 -20.039 -15.614  1.00  0.00    -0.000 C 
BRANCH  17  18
ATOM     18  C   UNL     1       8.070 -20.780 -15.235  1.00  0.00    -0.003 C 
ATOM     19  C   UNL     1       8.631 -21.629 -16.375  1.00  0.00     0.004 C 
ENDBRANCH  17  18
ENDBRANCH  16  17
ENDBRANCH  15  16
ENDBRANCH  14  15
ENDBRANCH  13  14
ENDBRANCH  12  13
ENDBRANCH   1  12
TORSDOF 14
ENDMDL
MODEL 8
REMARK VINA RESULT:    -1.929      8.717     11.682
REMARK INTER + INTRA:          -3.899
REMARK INTER:                  -3.563
REMARK INTRA:                  -0.336
REMARK UNBOUND:                -0.391
REMARK SMILES CCCCCCCCCCCCCC[C@@H](C)C(=O)[O-]
REMARK SMILES IDX 9 1 10 2 11 3 12 4 13 5 14 6 15 7 16 8 17 9 18 10 19 11 8 12
REMARK SMILES IDX 7 13 6 14 5 15 4 16 3 17 2 18 1 19
REMARK H PARENT
REMARK Flexibility Score: inf
ROOT
ATOM      1  C   UNL     1       0.826 -22.694 -16.052  1.00  0.00     0.000 C 
ENDROOT
BRANCH   1   2
ATOM      2  C   UNL     1      -0.523 -22.057 -15.672  1.00  0.00     0.000 C 
BRANCH   2   3
ATOM      3  C   UNL     1      -1.444 -23.033 -14.923  1.00  0.00     0.000 C 
BRANCH   3   4
ATOM      4  C   UNL     1      -2.804 -22.409 -14.566  1.00  0.00     0.000 C 
BRANCH   4   5
ATOM      5  C   UNL     1      -3.827 -22.547 -15.714  1.00  0.00     0.001 C 
BRANCH   5   6
ATOM      6  C   UNL     1      -5.279 -22.720 -15.228  1.00  0.00     0.009 C 
BRANCH   6   7
ATOM      7  C   UNL     1      -6.235 -21.595 -15.684  1.00  0.00     0.032 C 
ATOM      8  C   UNL     1      -6.415 -21.634 -17.205  1.00  0.00     0.014 C 
BRANCH   7   9
ATOM      9  C   UNL     1      -7.581 -21.709 -15.019  1.00  0.00     0.044 C 
ATOM     10  O   UNL     1      -8.619 -21.341 -15.628  1.00  0.00    -0.550 OA
ATOM     11  O   UNL     1      -7.693 -22.258 -13.746  1.00  0.00    -0.550 OA
ENDBRANCH   7   9
ENDBRANCH   6   7
ENDBRANCH   5   6
ENDBRANCH   4   5
ENDBRANCH   3   4
ENDBRANCH   2   3
ENDBRANCH   1   2
BRANCH   1  12
ATOM     12  C   UNL     1       2.020 -21.796 -15.697  1.00  0.00     0.000 C 
BRANCH  12  13
ATOM     13  C   UNL     1       3.372 -22.480 -15.964  1.00  0.00    -0.000 C 
BRANCH  13  14
ATOM     14  C   UNL     1       4.573 -21.540 -15.747  1.00  0.00    -0.000 C 
BRANCH  14  15
ATOM     15  C   UNL     1       5.881 -21.981 -16.430  1.00  0.00    -0.000 C 
BRANCH  15  16
ATOM     16  C   UNL     1       6.934 -20.862 -16.487  1.00  0.00    -0.000 C 
BRANCH  16  17
ATOM     17  C   UNL     1       7.825 -20.813 -15.232  1.00  0.00    -0.000 C 
BRANCH  17  18
ATOM     18  C   UNL     1       9.340 -20.870 -15.504  1.00  0.00    -0.003 C 
ATOM     19  C   UNL     1      10.169 -20.179 -14.422  1.00  0.00     0.004 C 
ENDBRANCH  17  18
ENDBRANCH  16  17
ENDBRANCH  15  16
ENDBRANCH  14  15
ENDBRANCH  13  14
ENDBRANCH  12  13
ENDBRANCH   1  12
TORSDOF 14
ENDMDL
MODEL 9
REMARK VINA RESULT:    -1.866      7.438     10.231
REMARK INTER + INTRA:          -3.784
REMARK INTER:                  -3.516
REMARK INTRA:                  -0.268
REMARK UNBOUND:                -0.391
REMARK SMILES CCCCCCCCCCCCCC[C@@H](C)C(=O)[O-]
REMARK SMILES IDX 9 1 10 2 11 3 12 4 13 5 14 6 15 7 16 8 17 9 18 10 19 11 8 12
REMARK SMILES IDX 7 13 6 14 5 15 4 16 3 17 2 18 1 19
REMARK H PARENT
REMARK Flexibility Score: inf
ROOT
ATOM      1  C   UNL     1       0.616 -22.347 -15.764  1.00  0.00     0.000 C 
ENDROOT
BRANCH   1   2
ATOM      2  C   UNL     1       1.946 -23.120 -15.703  1.00  0.00     0.000 C 
BRANCH   2   3
ATOM      3  C   UNL     1       3.164 -22.188 -15.596  1.00  0.00     0.000 C 
BRANCH   3   4
ATOM      4  C   UNL     1       4.131 -22.338 -16.783  1.00  0.00     0.000 C 
BRANCH   4   5
ATOM      5  C   UNL     1       5.460 -23.005 -16.370  1.00  0.00     0.001 C 
BRANCH   5   6
ATOM      6  C   UNL     1       6.672 -22.529 -17.195  1.00  0.00     0.009 C 
BRANCH   6   7
ATOM      7  C   UNL     1       7.922 -22.202 -16.348  1.00  0.00     0.032 C 
ATOM      8  C   UNL     1       9.143 -22.010 -17.253  1.00  0.00     0.014 C 
BRANCH   7   9
ATOM      9  C   UNL     1       7.718 -20.964 -15.515  1.00  0.00     0.044 C 
ATOM     10  O   UNL     1       8.517 -20.693 -14.581  1.00  0.00    -0.550 OA
ATOM     11  O   UNL     1       6.672 -20.091 -15.795  1.00  0.00    -0.550 OA
ENDBRANCH   7   9
ENDBRANCH   6   7
ENDBRANCH   5   6
ENDBRANCH   4   5
ENDBRANCH   3   4
ENDBRANCH   2   3
ENDBRANCH   1   2
BRANCH   1  12
ATOM     12  C   UNL     1      -0.537 -23.111 -15.096  1.00  0.00     0.000 C 
BRANCH  12  13
ATOM     13  C   UNL     1      -1.819 -22.266 -14.989  1.00  0.00    -0.000 C 
BRANCH  13  14
ATOM     14  C   UNL     1      -3.097 -23.123 -14.913  1.00  0.00    -0.000 C 
BRANCH  14  15
ATOM     15  C   UNL     1      -4.035 -22.797 -13.736  1.00  0.00    -0.000 C 
BRANCH  15  16
ATOM     16  C   UNL     1      -5.523 -22.886 -14.113  1.00  0.00    -0.000 C 
BRANCH  16  17
ATOM     17  C   UNL     1      -6.454 -22.376 -12.998  1.00  0.00    -0.000 C 
BRANCH  17  18
ATOM     18  C   UNL     1      -7.959 -22.564 -13.266  1.00  0.00    -0.003 C 
ATOM     19  C   UNL     1      -8.491 -21.648 -14.368  1.00  0.00     0.004 C 
ENDBRANCH  17  18
ENDBRANCH  16  17
ENDBRANCH  15  16
ENDBRANCH  14  15
ENDBRANCH  13  14
ENDBRANCH  12  13
ENDBRANCH   1  12
TORSDOF 14
ENDMDL
