MODEL 1
REMARK VINA RESULT:    -4.295      0.000      0.000
REMARK INTER + INTRA:         -16.085
REMARK INTER:                 -11.325
REMARK INTRA:                  -4.760
REMARK UNBOUND:                -4.760
REMARK SMILES CCCCCCCCCCCCCCCCCCCCCCCCCCCCCC(=O)[O-]
REMARK SMILES IDX 16 1 17 2 18 3 19 4 20 5 21 6 22 7 23 8 24 9 25 10 26 11
REMARK SMILES IDX 27 12 28 13 29 14 30 15 31 16 32 17 15 18 14 19 13 20 12 21
REMARK SMILES IDX 11 22 10 23 9 24 8 25 7 26 6 27 5 28 4 29 3 30 2 31 1 32
REMARK H PARENT
REMARK Flexibility Score: inf
ROOT
ATOM      1  C   UNL     1      55.585  23.988  47.394  1.00  0.00     0.000 C 
ENDROOT
BRANCH   1   2
ATOM      2  C   UNL     1      54.255  23.713  48.123  1.00  0.00     0.000 C 
BRANCH   2   3
ATOM      3  C   UNL     1      53.860  24.865  49.064  1.00  0.00     0.000 C 
BRANCH   3   4
ATOM      4  C   UNL     1      54.616  24.836  50.406  1.00  0.00     0.000 C 
BRANCH   4   5
ATOM      5  C   UNL     1      53.660  24.779  51.608  1.00  0.00     0.000 C 
BRANCH   5   6
ATOM      6  C   UNL     1      52.651  23.632  51.459  1.00  0.00     0.000 C 
BRANCH   6   7
ATOM      7  C   UNL     1      52.402  22.947  52.811  1.00  0.00     0.000 C 
BRANCH   7   8
ATOM      8  C   UNL     1      52.945  23.755  53.998  1.00  0.00     0.000 C 
BRANCH   8   9
ATOM      9  C   UNL     1      52.419  23.252  55.352  1.00  0.00     0.000 C 
BRANCH   9  10
ATOM     10  C   UNL     1      51.244  24.113  55.834  1.00  0.00     0.000 C 
BRANCH  10  11
ATOM     11  C   UNL     1      50.055  23.235  56.249  1.00  0.00     0.000 C 
BRANCH  11  12
ATOM     12  C   UNL     1      49.575  22.303  55.122  1.00  0.00     0.000 C 
BRANCH  12  13
ATOM     13  C   UNL     1      48.306  22.768  54.379  1.00  0.00     0.006 C 
BRANCH  13  14
ATOM     14  C   UNL     1      47.150  23.185  55.310  1.00  0.00     0.053 C 
BRANCH  14  15
ATOM     15  C   UNL     1      46.608  22.034  56.103  1.00  0.00     0.041 C 
ATOM     16  O   UNL     1      46.376  22.162  57.335  1.00  0.00    -0.550 OA
ATOM     17  O   UNL     1      46.393  20.806  55.490  1.00  0.00    -0.550 OA
ENDBRANCH  14  15
ENDBRANCH  13  14
ENDBRANCH  12  13
ENDBRANCH  11  12
ENDBRANCH  10  11
ENDBRANCH   9  10
ENDBRANCH   8   9
ENDBRANCH   7   8
ENDBRANCH   6   7
ENDBRANCH   5   6
ENDBRANCH   4   5
ENDBRANCH   3   4
ENDBRANCH   2   3
ENDBRANCH   1   2
BRANCH   1  18
ATOM     18  C   UNL     1      56.757  23.196  47.999  1.00  0.00     0.000 C 
BRANCH  18  19
ATOM     19  C   UNL     1      56.787  21.726  47.532  1.00  0.00     0.000 C 
BRANCH  19  20
ATOM     20  C   UNL     1      56.892  20.731  48.702  1.00  0.00     0.000 C 
BRANCH  20  21
ATOM     21  C   UNL     1      55.512  20.224  49.155  1.00  0.00     0.000 C 
BRANCH  21  22
ATOM     22  C   UNL     1      54.992  20.945  50.410  1.00  0.00     0.000 C 
BRANCH  22  23
ATOM     23  C   UNL     1      56.080  21.617  51.269  1.00  0.00     0.000 C 
BRANCH  23  24
ATOM     24  C   UNL     1      55.773  21.705  52.778  1.00  0.00    -0.000 C 
BRANCH  24  25
ATOM     25  C   UNL     1      56.744  20.946  53.705  1.00  0.00    -0.000 C 
BRANCH  25  26
ATOM     26  C   UNL     1      56.354  20.932  55.200  1.00  0.00    -0.000 C 
BRANCH  26  27
ATOM     27  C   UNL     1      57.454  21.449  56.148  1.00  0.00    -0.000 C 
BRANCH  27  28
ATOM     28  C   UNL     1      57.212  22.848  56.743  1.00  0.00    -0.000 C 
BRANCH  28  29
ATOM     29  C   UNL     1      55.938  23.565  56.255  1.00  0.00    -0.000 C 
BRANCH  29  30
ATOM     30  C   UNL     1      56.209  24.576  55.128  1.00  0.00    -0.000 C 
BRANCH  30  31
ATOM     31  C   UNL     1      57.703  24.678  54.781  1.00  0.00    -0.003 C 
ATOM     32  C   UNL     1      57.960  24.673  53.275  1.00  0.00     0.004 C 
ENDBRANCH  30  31
ENDBRANCH  29  30
ENDBRANCH  28  29
ENDBRANCH  27  28
ENDBRANCH  26  27
ENDBRANCH  25  26
ENDBRANCH  24  25
ENDBRANCH  23  24
ENDBRANCH  22  23
ENDBRANCH  21  22
ENDBRANCH  20  21
ENDBRANCH  19  20
ENDBRANCH  18  19
ENDBRANCH   1  18
TORSDOF 28
ENDMDL
MODEL 2
REMARK VINA RESULT:    -3.949      3.044      7.123
REMARK INTER + INTRA:         -15.174
REMARK INTER:                 -11.206
REMARK INTRA:                  -3.968
REMARK UNBOUND:                -4.760
REMARK SMILES CCCCCCCCCCCCCCCCCCCCCCCCCCCCCC(=O)[O-]
REMARK SMILES IDX 16 1 17 2 18 3 19 4 20 5 21 6 22 7 23 8 24 9 25 10 26 11
REMARK SMILES IDX 27 12 28 13 29 14 30 15 31 16 32 17 15 18 14 19 13 20 12 21
REMARK SMILES IDX 11 22 10 23 9 24 8 25 7 26 6 27 5 28 4 29 3 30 2 31 1 32
REMARK H PARENT
REMARK Flexibility Score: inf
ROOT
ATOM      1  C   UNL     1      56.006  20.563  49.201  1.00  0.00     0.000 C 
ENDROOT
BRANCH   1   2
ATOM      2  C   UNL     1      56.554  21.556  48.157  1.00  0.00     0.000 C 
BRANCH   2   3
ATOM      3  C   UNL     1      56.270  23.019  48.542  1.00  0.00     0.000 C 
BRANCH   3   4
ATOM      4  C   UNL     1      55.785  23.873  47.355  1.00  0.00     0.000 C 
BRANCH   4   5
ATOM      5  C   UNL     1      54.291  24.217  47.462  1.00  0.00     0.000 C 
BRANCH   5   6
ATOM      6  C   UNL     1      53.726  23.813  48.829  1.00  0.00     0.000 C 
BRANCH   6   7
ATOM      7  C   UNL     1      53.524  25.047  49.722  1.00  0.00     0.000 C 
BRANCH   7   8
ATOM      8  C   UNL     1      54.517  25.107  50.891  1.00  0.00     0.000 C 
BRANCH   8   9
ATOM      9  C   UNL     1      53.873  24.745  52.238  1.00  0.00     0.000 C 
BRANCH   9  10
ATOM     10  C   UNL     1      54.800  25.118  53.403  1.00  0.00     0.000 C 
BRANCH  10  11
ATOM     11  C   UNL     1      54.133  24.820  54.753  1.00  0.00     0.000 C 
BRANCH  11  12
ATOM     12  C   UNL     1      55.111  24.237  55.789  1.00  0.00     0.000 C 
BRANCH  12  13
ATOM     13  C   UNL     1      55.168  22.696  55.845  1.00  0.00     0.006 C 
BRANCH  13  14
ATOM     14  C   UNL     1      56.592  22.116  55.722  1.00  0.00     0.053 C 
BRANCH  14  15
ATOM     15  C   UNL     1      56.965  21.810  54.301  1.00  0.00     0.041 C 
ATOM     16  O   UNL     1      56.958  20.621  53.884  1.00  0.00    -0.550 OA
ATOM     17  O   UNL     1      57.356  22.834  53.449  1.00  0.00    -0.550 OA
ENDBRANCH  14  15
ENDBRANCH  13  14
ENDBRANCH  12  13
ENDBRANCH  11  12
ENDBRANCH  10  11
ENDBRANCH   9  10
ENDBRANCH   8   9
ENDBRANCH   7   8
ENDBRANCH   6   7
ENDBRANCH   5   6
ENDBRANCH   4   5
ENDBRANCH   3   4
ENDBRANCH   2   3
ENDBRANCH   1   2
BRANCH   1  18
ATOM     18  C   UNL     1      55.722  21.237  50.554  1.00  0.00     0.000 C 
BRANCH  18  19
ATOM     19  C   UNL     1      54.268  21.031  51.029  1.00  0.00     0.000 C 
BRANCH  19  20
ATOM     20  C   UNL     1      54.050  21.474  52.487  1.00  0.00     0.000 C 
BRANCH  20  21
ATOM     21  C   UNL     1      52.853  20.755  53.135  1.00  0.00     0.000 C 
BRANCH  21  22
ATOM     22  C   UNL     1      52.128  21.622  54.179  1.00  0.00     0.000 C 
BRANCH  22  23
ATOM     23  C   UNL     1      50.698  22.043  53.791  1.00  0.00     0.000 C 
BRANCH  23  24
ATOM     24  C   UNL     1      50.054  23.115  54.694  1.00  0.00    -0.000 C 
BRANCH  24  25
ATOM     25  C   UNL     1      50.982  23.745  55.753  1.00  0.00    -0.000 C 
BRANCH  25  26
ATOM     26  C   UNL     1      50.296  24.140  57.080  1.00  0.00    -0.000 C 
BRANCH  26  27
ATOM     27  C   UNL     1      48.912  23.495  57.295  1.00  0.00    -0.000 C 
BRANCH  27  28
ATOM     28  C   UNL     1      47.749  24.478  57.521  1.00  0.00    -0.000 C 
BRANCH  28  29
ATOM     29  C   UNL     1      46.652  24.466  56.439  1.00  0.00    -0.000 C 
BRANCH  29  30
ATOM     30  C   UNL     1      46.707  23.220  55.538  1.00  0.00    -0.000 C 
BRANCH  30  31
ATOM     31  C   UNL     1      45.756  22.111  56.017  1.00  0.00    -0.003 C 
ATOM     32  C   UNL     1      46.359  20.714  55.871  1.00  0.00     0.004 C 
ENDBRANCH  30  31
ENDBRANCH  29  30
ENDBRANCH  28  29
ENDBRANCH  27  28
ENDBRANCH  26  27
ENDBRANCH  25  26
ENDBRANCH  24  25
ENDBRANCH  23  24
ENDBRANCH  22  23
ENDBRANCH  21  22
ENDBRANCH  20  21
ENDBRANCH  19  20
ENDBRANCH  18  19
ENDBRANCH   1  18
TORSDOF 28
ENDMDL
MODEL 3
REMARK VINA RESULT:    -3.905      3.478      7.283
REMARK INTER + INTRA:         -15.057
REMARK INTER:                 -10.951
REMARK INTRA:                  -4.107
REMARK UNBOUND:                -4.760
REMARK SMILES CCCCCCCCCCCCCCCCCCCCCCCCCCCCCC(=O)[O-]
REMARK SMILES IDX 16 1 17 2 18 3 19 4 20 5 21 6 22 7 23 8 24 9 25 10 26 11
REMARK SMILES IDX 27 12 28 13 29 14 30 15 31 16 32 17 15 18 14 19 13 20 12 21
REMARK SMILES IDX 11 22 10 23 9 24 8 25 7 26 6 27 5 28 4 29 3 30 2 31 1 32
REMARK H PARENT
REMARK Flexibility Score: inf
ROOT
ATOM      1  C   UNL     1      55.501  20.421  49.441  1.00  0.00     0.000 C 
ENDROOT
BRANCH   1   2
ATOM      2  C   UNL     1      56.783  20.606  48.605  1.00  0.00     0.000 C 
BRANCH   2   3
ATOM      3  C   UNL     1      56.645  21.742  47.575  1.00  0.00     0.000 C 
BRANCH   3   4
ATOM      4  C   UNL     1      56.761  23.144  48.203  1.00  0.00     0.000 C 
BRANCH   4   5
ATOM      5  C   UNL     1      55.393  23.828  48.350  1.00  0.00     0.000 C 
BRANCH   5   6
ATOM      6  C   UNL     1      55.355  24.732  49.589  1.00  0.00     0.000 C 
BRANCH   6   7
ATOM      7  C   UNL     1      56.648  24.589  50.407  1.00  0.00     0.000 C 
BRANCH   7   8
ATOM      8  C   UNL     1      56.393  24.520  51.919  1.00  0.00     0.000 C 
BRANCH   8   9
ATOM      9  C   UNL     1      57.689  24.413  52.738  1.00  0.00     0.000 C 
BRANCH   9  10
ATOM     10  C   UNL     1      57.404  23.847  54.135  1.00  0.00     0.000 C 
BRANCH  10  11
ATOM     11  C   UNL     1      56.782  22.446  54.044  1.00  0.00     0.000 C 
BRANCH  11  12
ATOM     12  C   UNL     1      56.784  21.701  55.391  1.00  0.00     0.000 C 
BRANCH  12  13
ATOM     13  C   UNL     1      56.331  22.536  56.606  1.00  0.00     0.006 C 
BRANCH  13  14
ATOM     14  C   UNL     1      57.091  22.215  57.909  1.00  0.00     0.053 C 
BRANCH  14  15
ATOM     15  C   UNL     1      58.577  22.356  57.755  1.00  0.00     0.041 C 
ATOM     16  O   UNL     1      59.339  21.391  58.032  1.00  0.00    -0.550 OA
ATOM     17  O   UNL     1      59.123  23.564  57.341  1.00  0.00    -0.550 OA
ENDBRANCH  14  15
ENDBRANCH  13  14
ENDBRANCH  12  13
ENDBRANCH  11  12
ENDBRANCH  10  11
ENDBRANCH   9  10
ENDBRANCH   8   9
ENDBRANCH   7   8
ENDBRANCH   6   7
ENDBRANCH   5   6
ENDBRANCH   4   5
ENDBRANCH   3   4
ENDBRANCH   2   3
ENDBRANCH   1   2
BRANCH   1  18
ATOM     18  C   UNL     1      55.636  21.013  50.855  1.00  0.00     0.000 C 
BRANCH  18  19
ATOM     19  C   UNL     1      54.344  21.708  51.336  1.00  0.00     0.000 C 
BRANCH  19  20
ATOM     20  C   UNL     1      53.783  21.092  52.630  1.00  0.00     0.000 C 
BRANCH  20  21
ATOM     21  C   UNL     1      52.748  22.008  53.304  1.00  0.00     0.000 C 
BRANCH  21  22
ATOM     22  C   UNL     1      53.199  22.507  54.687  1.00  0.00     0.000 C 
BRANCH  22  23
ATOM     23  C   UNL     1      53.321  24.037  54.816  1.00  0.00     0.000 C 
BRANCH  23  24
ATOM     24  C   UNL     1      52.496  24.675  55.953  1.00  0.00    -0.000 C 
BRANCH  24  25
ATOM     25  C   UNL     1      51.934  23.696  57.004  1.00  0.00    -0.000 C 
BRANCH  25  26
ATOM     26  C   UNL     1      50.949  24.315  58.021  1.00  0.00    -0.000 C 
BRANCH  26  27
ATOM     27  C   UNL     1      49.540  24.582  57.458  1.00  0.00    -0.000 C 
BRANCH  27  28
ATOM     28  C   UNL     1      48.593  23.368  57.435  1.00  0.00    -0.000 C 
BRANCH  28  29
ATOM     29  C   UNL     1      47.463  23.429  56.390  1.00  0.00    -0.000 C 
BRANCH  29  30
ATOM     30  C   UNL     1      47.981  23.581  54.949  1.00  0.00    -0.000 C 
BRANCH  30  31
ATOM     31  C   UNL     1      48.597  22.280  54.409  1.00  0.00    -0.003 C 
ATOM     32  C   UNL     1      49.198  22.447  53.014  1.00  0.00     0.004 C 
ENDBRANCH  30  31
ENDBRANCH  29  30
ENDBRANCH  28  29
ENDBRANCH  27  28
ENDBRANCH  26  27
ENDBRANCH  25  26
ENDBRANCH  24  25
ENDBRANCH  23  24
ENDBRANCH  22  23
ENDBRANCH  21  22
ENDBRANCH  20  21
ENDBRANCH  19  20
ENDBRANCH  18  19
ENDBRANCH   1  18
TORSDOF 28
ENDMDL
MODEL 4
REMARK VINA RESULT:    -3.825      2.030      6.751
REMARK INTER + INTRA:         -14.846
REMARK INTER:                 -10.857
REMARK INTRA:                  -3.989
REMARK UNBOUND:                -4.760
REMARK SMILES CCCCCCCCCCCCCCCCCCCCCCCCCCCCCC(=O)[O-]
REMARK SMILES IDX 16 1 17 2 18 3 19 4 20 5 21 6 22 7 23 8 24 9 25 10 26 11
REMARK SMILES IDX 27 12 28 13 29 14 30 15 31 16 32 17 15 18 14 19 13 20 12 21
REMARK SMILES IDX 11 22 10 23 9 24 8 25 7 26 6 27 5 28 4 29 3 30 2 31 1 32
REMARK H PARENT
REMARK Flexibility Score: inf
ROOT
ATOM      1  C   UNL     1      56.655  20.962  51.651  1.00  0.00     0.000 C 
ENDROOT
BRANCH   1   2
ATOM      2  C   UNL     1      55.634  21.416  50.589  1.00  0.00     0.000 C 
BRANCH   2   3
ATOM      3  C   UNL     1      55.774  20.627  49.275  1.00  0.00     0.000 C 
BRANCH   3   4
ATOM      4  C   UNL     1      56.417  21.449  48.142  1.00  0.00     0.000 C 
BRANCH   4   5
ATOM      5  C   UNL     1      56.635  22.916  48.544  1.00  0.00     0.000 C 
BRANCH   5   6
ATOM      6  C   UNL     1      56.884  23.797  47.313  1.00  0.00     0.000 C 
BRANCH   6   7
ATOM      7  C   UNL     1      55.996  25.051  47.351  1.00  0.00     0.000 C 
BRANCH   7   8
ATOM      8  C   UNL     1      54.545  24.766  46.940  1.00  0.00     0.000 C 
BRANCH   8   9
ATOM      9  C   UNL     1      53.535  25.096  48.049  1.00  0.00     0.000 C 
BRANCH   9  10
ATOM     10  C   UNL     1      53.580  24.037  49.160  1.00  0.00     0.000 C 
BRANCH  10  11
ATOM     11  C   UNL     1      53.114  24.627  50.499  1.00  0.00     0.000 C 
BRANCH  11  12
ATOM     12  C   UNL     1      54.102  24.356  51.648  1.00  0.00     0.000 C 
BRANCH  12  13
ATOM     13  C   UNL     1      53.463  23.864  52.963  1.00  0.00     0.006 C 
BRANCH  13  14
ATOM     14  C   UNL     1      52.347  22.818  52.767  1.00  0.00     0.053 C 
BRANCH  14  15
ATOM     15  C   UNL     1      52.550  21.598  53.615  1.00  0.00     0.041 C 
ATOM     16  O   UNL     1      53.071  21.697  54.758  1.00  0.00    -0.550 OA
ATOM     17  O   UNL     1      52.198  20.346  53.128  1.00  0.00    -0.550 OA
ENDBRANCH  14  15
ENDBRANCH  13  14
ENDBRANCH  12  13
ENDBRANCH  11  12
ENDBRANCH  10  11
ENDBRANCH   9  10
ENDBRANCH   8   9
ENDBRANCH   7   8
ENDBRANCH   6   7
ENDBRANCH   5   6
ENDBRANCH   4   5
ENDBRANCH   3   4
ENDBRANCH   2   3
ENDBRANCH   1   2
BRANCH   1  18
ATOM     18  C   UNL     1      56.399  21.612  53.021  1.00  0.00     0.000 C 
BRANCH  18  19
ATOM     19  C   UNL     1      57.078  22.991  53.162  1.00  0.00     0.000 C 
BRANCH  19  20
ATOM     20  C   UNL     1      57.067  23.515  54.610  1.00  0.00     0.000 C 
BRANCH  20  21
ATOM     21  C   UNL     1      56.563  22.454  55.604  1.00  0.00     0.000 C 
BRANCH  21  22
ATOM     22  C   UNL     1      55.589  23.027  56.647  1.00  0.00     0.000 C 
BRANCH  22  23
ATOM     23  C   UNL     1      54.814  24.278  56.193  1.00  0.00     0.000 C 
BRANCH  23  24
ATOM     24  C   UNL     1      53.753  24.798  57.184  1.00  0.00    -0.000 C 
BRANCH  24  25
ATOM     25  C   UNL     1      52.602  23.824  57.508  1.00  0.00    -0.000 C 
BRANCH  25  26
ATOM     26  C   UNL     1      51.200  24.465  57.598  1.00  0.00    -0.000 C 
BRANCH  26  27
ATOM     27  C   UNL     1      50.092  23.673  56.876  1.00  0.00    -0.000 C 
BRANCH  27  28
ATOM     28  C   UNL     1      49.974  23.927  55.362  1.00  0.00    -0.000 C 
BRANCH  28  29
ATOM     29  C   UNL     1      48.744  23.296  54.680  1.00  0.00    -0.000 C 
BRANCH  29  30
ATOM     30  C   UNL     1      48.848  21.767  54.542  1.00  0.00    -0.000 C 
BRANCH  30  31
ATOM     31  C   UNL     1      47.639  21.042  55.154  1.00  0.00    -0.003 C 
ATOM     32  C   UNL     1      46.756  21.969  55.988  1.00  0.00     0.004 C 
ENDBRANCH  30  31
ENDBRANCH  29  30
ENDBRANCH  28  29
ENDBRANCH  27  28
ENDBRANCH  26  27
ENDBRANCH  25  26
ENDBRANCH  24  25
ENDBRANCH  23  24
ENDBRANCH  22  23
ENDBRANCH  21  22
ENDBRANCH  20  21
ENDBRANCH  19  20
ENDBRANCH  18  19
ENDBRANCH   1  18
TORSDOF 28
ENDMDL
MODEL 5
REMARK VINA RESULT:    -3.799      1.370      3.316
REMARK INTER + INTRA:         -14.777
REMARK INTER:                 -10.526
REMARK INTRA:                  -4.251
REMARK UNBOUND:                -4.760
REMARK SMILES CCCCCCCCCCCCCCCCCCCCCCCCCCCCCC(=O)[O-]
REMARK SMILES IDX 16 1 17 2 18 3 19 4 20 5 21 6 22 7 23 8 24 9 25 10 26 11
REMARK SMILES IDX 27 12 28 13 29 14 30 15 31 16 32 17 15 18 14 19 13 20 12 21
REMARK SMILES IDX 11 22 10 23 9 24 8 25 7 26 6 27 5 28 4 29 3 30 2 31 1 32
REMARK H PARENT
REMARK Flexibility Score: inf
ROOT
ATOM      1  C   UNL     1      54.767  24.777  49.947  1.00  0.00     0.000 C 
ENDROOT
BRANCH   1   2
ATOM      2  C   UNL     1      53.872  24.952  51.190  1.00  0.00     0.000 C 
BRANCH   2   3
ATOM      3  C   UNL     1      52.990  23.717  51.448  1.00  0.00     0.000 C 
BRANCH   3   4
ATOM      4  C   UNL     1      52.711  23.477  52.944  1.00  0.00     0.000 C 
BRANCH   4   5
ATOM      5  C   UNL     1      52.017  22.129  53.194  1.00  0.00     0.000 C 
BRANCH   5   6
ATOM      6  C   UNL     1      50.494  22.255  53.055  1.00  0.00     0.000 C 
BRANCH   6   7
ATOM      7  C   UNL     1      49.800  21.984  54.398  1.00  0.00     0.000 C 
BRANCH   7   8
ATOM      8  C   UNL     1      48.524  22.816  54.589  1.00  0.00     0.000 C 
BRANCH   8   9
ATOM      9  C   UNL     1      48.782  24.144  55.317  1.00  0.00     0.000 C 
BRANCH   9  10
ATOM     10  C   UNL     1      49.436  23.898  56.683  1.00  0.00     0.000 C 
BRANCH  10  11
ATOM     11  C   UNL     1      48.447  23.238  57.655  1.00  0.00     0.000 C 
BRANCH  11  12
ATOM     12  C   UNL     1      47.116  24.004  57.766  1.00  0.00     0.000 C 
BRANCH  12  13
ATOM     13  C   UNL     1      45.851  23.123  57.812  1.00  0.00     0.006 C 
BRANCH  13  14
ATOM     14  C   UNL     1      45.499  22.458  56.466  1.00  0.00     0.053 C 
BRANCH  14  15
ATOM     15  C   UNL     1      45.501  20.960  56.548  1.00  0.00     0.041 C 
ATOM     16  O   UNL     1      46.480  20.300  56.108  1.00  0.00    -0.550 OA
ATOM     17  O   UNL     1      44.405  20.291  57.076  1.00  0.00    -0.550 OA
ENDBRANCH  14  15
ENDBRANCH  13  14
ENDBRANCH  12  13
ENDBRANCH  11  12
ENDBRANCH  10  11
ENDBRANCH   9  10
ENDBRANCH   8   9
ENDBRANCH   7   8
ENDBRANCH   6   7
ENDBRANCH   5   6
ENDBRANCH   4   5
ENDBRANCH   3   4
ENDBRANCH   2   3
ENDBRANCH   1   2
BRANCH   1  18
ATOM     18  C   UNL     1      56.249  25.052  50.253  1.00  0.00     0.000 C 
BRANCH  18  19
ATOM     19  C   UNL     1      57.147  24.935  49.003  1.00  0.00     0.000 C 
BRANCH  19  20
ATOM     20  C   UNL     1      56.355  24.574  47.733  1.00  0.00     0.000 C 
BRANCH  20  21
ATOM     21  C   UNL     1      57.068  23.498  46.896  1.00  0.00     0.000 C 
BRANCH  21  22
ATOM     22  C   UNL     1      57.098  22.124  47.588  1.00  0.00     0.000 C 
BRANCH  22  23
ATOM     23  C   UNL     1      55.780  21.713  48.270  1.00  0.00     0.000 C 
BRANCH  23  24
ATOM     24  C   UNL     1      55.915  20.677  49.406  1.00  0.00    -0.000 C 
BRANCH  24  25
ATOM     25  C   UNL     1      55.167  21.012  50.712  1.00  0.00    -0.000 C 
BRANCH  25  26
ATOM     26  C   UNL     1      56.000  21.763  51.774  1.00  0.00    -0.000 C 
BRANCH  26  27
ATOM     27  C   UNL     1      55.675  21.371  53.229  1.00  0.00    -0.000 C 
BRANCH  27  28
ATOM     28  C   UNL     1      56.483  22.109  54.312  1.00  0.00    -0.000 C 
BRANCH  28  29
ATOM     29  C   UNL     1      56.148  23.604  54.484  1.00  0.00    -0.000 C 
BRANCH  29  30
ATOM     30  C   UNL     1      55.732  23.967  55.921  1.00  0.00    -0.000 C 
BRANCH  30  31
ATOM     31  C   UNL     1      54.246  24.350  56.019  1.00  0.00    -0.003 C 
ATOM     32  C   UNL     1      53.378  23.211  56.550  1.00  0.00     0.004 C 
ENDBRANCH  30  31
ENDBRANCH  29  30
ENDBRANCH  28  29
ENDBRANCH  27  28
ENDBRANCH  26  27
ENDBRANCH  25  26
ENDBRANCH  24  25
ENDBRANCH  23  24
ENDBRANCH  22  23
ENDBRANCH  21  22
ENDBRANCH  20  21
ENDBRANCH  19  20
ENDBRANCH  18  19
ENDBRANCH   1  18
TORSDOF 28
ENDMDL
MODEL 6
REMARK VINA RESULT:    -3.784      1.953      4.057
REMARK INTER + INTRA:         -14.738
REMARK INTER:                 -11.770
REMARK INTRA:                  -2.968
REMARK UNBOUND:                -4.760
REMARK SMILES CCCCCCCCCCCCCCCCCCCCCCCCCCCCCC(=O)[O-]
REMARK SMILES IDX 16 1 17 2 18 3 19 4 20 5 21 6 22 7 23 8 24 9 25 10 26 11
REMARK SMILES IDX 27 12 28 13 29 14 30 15 31 16 32 17 15 18 14 19 13 20 12 21
REMARK SMILES IDX 11 22 10 23 9 24 8 25 7 26 6 27 5 28 4 29 3 30 2 31 1 32
REMARK H PARENT
REMARK Flexibility Score: inf
ROOT
ATOM      1  C   UNL     1      55.706  21.401  50.204  1.00  0.00     0.000 C 
ENDROOT
BRANCH   1   2
ATOM      2  C   UNL     1      54.482  20.876  50.979  1.00  0.00     0.000 C 
BRANCH   2   3
ATOM      3  C   UNL     1      54.288  21.605  52.320  1.00  0.00     0.000 C 
BRANCH   3   4
ATOM      4  C   UNL     1      53.165  20.997  53.182  1.00  0.00     0.000 C 
BRANCH   4   5
ATOM      5  C   UNL     1      52.916  21.807  54.464  1.00  0.00     0.000 C 
BRANCH   5   6
ATOM      6  C   UNL     1      51.443  22.222  54.579  1.00  0.00     0.000 C 
BRANCH   6   7
ATOM      7  C   UNL     1      50.759  22.190  53.204  1.00  0.00     0.000 C 
BRANCH   7   8
ATOM      8  C   UNL     1      49.281  22.602  53.264  1.00  0.00     0.000 C 
BRANCH   8   9
ATOM      9  C   UNL     1      48.525  21.941  54.426  1.00  0.00     0.000 C 
BRANCH   9  10
ATOM     10  C   UNL     1      47.616  22.956  55.131  1.00  0.00     0.000 C 
BRANCH  10  11
ATOM     11  C   UNL     1      46.909  22.317  56.336  1.00  0.00     0.000 C 
BRANCH  11  12
ATOM     12  C   UNL     1      45.558  21.678  55.967  1.00  0.00     0.000 C 
BRANCH  12  13
ATOM     13  C   UNL     1      45.053  20.596  56.944  1.00  0.00     0.006 C 
BRANCH  13  14
ATOM     14  C   UNL     1      43.878  21.051  57.833  1.00  0.00     0.053 C 
BRANCH  14  15
ATOM     15  C   UNL     1      42.579  20.416  57.435  1.00  0.00     0.041 C 
ATOM     16  O   UNL     1      41.490  21.025  57.620  1.00  0.00    -0.550 OA
ATOM     17  O   UNL     1      42.566  19.137  56.894  1.00  0.00    -0.550 OA
ENDBRANCH  14  15
ENDBRANCH  13  14
ENDBRANCH  12  13
ENDBRANCH  11  12
ENDBRANCH  10  11
ENDBRANCH   9  10
ENDBRANCH   8   9
ENDBRANCH   7   8
ENDBRANCH   6   7
ENDBRANCH   5   6
ENDBRANCH   4   5
ENDBRANCH   3   4
ENDBRANCH   2   3
ENDBRANCH   1   2
BRANCH   1  18
ATOM     18  C   UNL     1      56.024  20.545  48.966  1.00  0.00     0.000 C 
BRANCH  18  19
ATOM     19  C   UNL     1      56.719  21.350  47.848  1.00  0.00     0.000 C 
BRANCH  19  20
ATOM     20  C   UNL     1      56.778  22.859  48.147  1.00  0.00     0.000 C 
BRANCH  20  21
ATOM     21  C   UNL     1      56.010  23.685  47.101  1.00  0.00     0.000 C 
BRANCH  21  22
ATOM     22  C   UNL     1      55.070  24.726  47.732  1.00  0.00     0.000 C 
BRANCH  22  23
ATOM     23  C   UNL     1      53.717  24.169  48.215  1.00  0.00     0.000 C 
BRANCH  23  24
ATOM     24  C   UNL     1      53.509  24.165  49.743  1.00  0.00    -0.000 C 
BRANCH  24  25
ATOM     25  C   UNL     1      54.431  25.102  50.548  1.00  0.00    -0.000 C 
BRANCH  25  26
ATOM     26  C   UNL     1      55.710  24.444  51.114  1.00  0.00    -0.000 C 
BRANCH  26  27
ATOM     27  C   UNL     1      56.094  24.917  52.529  1.00  0.00    -0.000 C 
BRANCH  27  28
ATOM     28  C   UNL     1      54.926  25.057  53.522  1.00  0.00    -0.000 C 
BRANCH  28  29
ATOM     29  C   UNL     1      55.117  24.343  54.874  1.00  0.00    -0.000 C 
BRANCH  29  30
ATOM     30  C   UNL     1      56.596  24.109  55.229  1.00  0.00    -0.000 C 
BRANCH  30  31
ATOM     31  C   UNL     1      56.911  22.624  55.471  1.00  0.00    -0.003 C 
ATOM     32  C   UNL     1      57.275  22.328  56.925  1.00  0.00     0.004 C 
ENDBRANCH  30  31
ENDBRANCH  29  30
ENDBRANCH  28  29
ENDBRANCH  27  28
ENDBRANCH  26  27
ENDBRANCH  25  26
ENDBRANCH  24  25
ENDBRANCH  23  24
ENDBRANCH  22  23
ENDBRANCH  21  22
ENDBRANCH  20  21
ENDBRANCH  19  20
ENDBRANCH  18  19
ENDBRANCH   1  18
TORSDOF 28
ENDMDL
MODEL 7
REMARK VINA RESULT:    -3.779      3.227      9.364
REMARK INTER + INTRA:         -14.724
REMARK INTER:                 -10.695
REMARK INTRA:                  -4.029
REMARK UNBOUND:                -4.760
REMARK SMILES CCCCCCCCCCCCCCCCCCCCCCCCCCCCCC(=O)[O-]
REMARK SMILES IDX 16 1 17 2 18 3 19 4 20 5 21 6 22 7 23 8 24 9 25 10 26 11
REMARK SMILES IDX 27 12 28 13 29 14 30 15 31 16 32 17 15 18 14 19 13 20 12 21
REMARK SMILES IDX 11 22 10 23 9 24 8 25 7 26 6 27 5 28 4 29 3 30 2 31 1 32
REMARK H PARENT
REMARK Flexibility Score: inf
ROOT
ATOM      1  C   UNL     1      52.579  21.809  53.158  1.00  0.00     0.000 C 
ENDROOT
BRANCH   1   2
ATOM      2  C   UNL     1      52.704  23.317  52.862  1.00  0.00     0.000 C 
BRANCH   2   3
ATOM      3  C   UNL     1      52.596  23.623  51.357  1.00  0.00     0.000 C 
BRANCH   3   4
ATOM      4  C   UNL     1      53.534  24.758  50.903  1.00  0.00     0.000 C 
BRANCH   4   5
ATOM      5  C   UNL     1      53.826  24.699  49.395  1.00  0.00     0.000 C 
BRANCH   5   6
ATOM      6  C   UNL     1      53.874  23.249  48.897  1.00  0.00     0.000 C 
BRANCH   6   7
ATOM      7  C   UNL     1      55.271  22.906  48.356  1.00  0.00     0.000 C 
BRANCH   7   8
ATOM      8  C   UNL     1      55.965  21.796  49.158  1.00  0.00     0.000 C 
BRANCH   8   9
ATOM      9  C   UNL     1      55.177  21.385  50.411  1.00  0.00     0.000 C 
BRANCH   9  10
ATOM     10  C   UNL     1      55.934  21.780  51.686  1.00  0.00     0.000 C 
BRANCH  10  11
ATOM     11  C   UNL     1      56.550  23.180  51.546  1.00  0.00     0.000 C 
BRANCH  11  12
ATOM     12  C   UNL     1      56.647  23.929  52.887  1.00  0.00     0.000 C 
BRANCH  12  13
ATOM     13  C   UNL     1      55.990  23.216  54.087  1.00  0.00     0.006 C 
BRANCH  13  14
ATOM     14  C   UNL     1      56.972  22.866  55.224  1.00  0.00     0.053 C 
BRANCH  14  15
ATOM     15  C   UNL     1      56.775  21.471  55.741  1.00  0.00     0.041 C 
ATOM     16  O   UNL     1      56.242  20.592  55.013  1.00  0.00    -0.550 OA
ATOM     17  O   UNL     1      57.147  21.152  57.041  1.00  0.00    -0.550 OA
ENDBRANCH  14  15
ENDBRANCH  13  14
ENDBRANCH  12  13
ENDBRANCH  11  12
ENDBRANCH  10  11
ENDBRANCH   9  10
ENDBRANCH   8   9
ENDBRANCH   7   8
ENDBRANCH   6   7
ENDBRANCH   5   6
ENDBRANCH   4   5
ENDBRANCH   3   4
ENDBRANCH   2   3
ENDBRANCH   1   2
BRANCH   1  18
ATOM     18  C   UNL     1      51.338  21.483  54.007  1.00  0.00     0.000 C 
BRANCH  18  19
ATOM     19  C   UNL     1      50.016  21.802  53.277  1.00  0.00     0.000 C 
BRANCH  19  20
ATOM     20  C   UNL     1      49.190  22.889  53.988  1.00  0.00     0.000 C 
BRANCH  20  21
ATOM     21  C   UNL     1      49.653  23.108  55.439  1.00  0.00     0.000 C 
BRANCH  21  22
ATOM     22  C   UNL     1      49.681  24.593  55.841  1.00  0.00     0.000 C 
BRANCH  22  23
ATOM     23  C   UNL     1      48.580  25.017  56.832  1.00  0.00     0.000 C 
BRANCH  23  24
ATOM     24  C   UNL     1      47.410  24.024  56.989  1.00  0.00    -0.000 C 
BRANCH  24  25
ATOM     25  C   UNL     1      46.242  24.202  55.998  1.00  0.00    -0.000 C 
BRANCH  25  26
ATOM     26  C   UNL     1      45.479  22.907  55.639  1.00  0.00    -0.000 C 
BRANCH  26  27
ATOM     27  C   UNL     1      46.264  21.610  55.917  1.00  0.00    -0.000 C 
BRANCH  27  28
ATOM     28  C   UNL     1      45.788  20.794  57.132  1.00  0.00    -0.000 C 
BRANCH  28  29
ATOM     29  C   UNL     1      44.332  20.293  57.064  1.00  0.00    -0.000 C 
BRANCH  29  30
ATOM     30  C   UNL     1      43.385  21.061  58.004  1.00  0.00    -0.000 C 
BRANCH  30  31
ATOM     31  C   UNL     1      42.009  21.314  57.368  1.00  0.00    -0.003 C 
ATOM     32  C   UNL     1      41.914  22.682  56.694  1.00  0.00     0.004 C 
ENDBRANCH  30  31
ENDBRANCH  29  30
ENDBRANCH  28  29
ENDBRANCH  27  28
ENDBRANCH  26  27
ENDBRANCH  25  26
ENDBRANCH  24  25
ENDBRANCH  23  24
ENDBRANCH  22  23
ENDBRANCH  21  22
ENDBRANCH  20  21
ENDBRANCH  19  20
ENDBRANCH  18  19
ENDBRANCH   1  18
TORSDOF 28
ENDMDL
MODEL 8
REMARK VINA RESULT:    -3.761      2.295      6.010
REMARK INTER + INTRA:         -14.679
REMARK INTER:                 -11.188
REMARK INTRA:                  -3.491
REMARK UNBOUND:                -4.760
REMARK SMILES CCCCCCCCCCCCCCCCCCCCCCCCCCCCCC(=O)[O-]
REMARK SMILES IDX 16 1 17 2 18 3 19 4 20 5 21 6 22 7 23 8 24 9 25 10 26 11
REMARK SMILES IDX 27 12 28 13 29 14 30 15 31 16 32 17 15 18 14 19 13 20 12 21
REMARK SMILES IDX 11 22 10 23 9 24 8 25 7 26 6 27 5 28 4 29 3 30 2 31 1 32
REMARK H PARENT
REMARK Flexibility Score: inf
ROOT
ATOM      1  C   UNL     1      52.441  20.623  53.252  1.00  0.00     0.000 C 
ENDROOT
BRANCH   1   2
ATOM      2  C   UNL     1      51.389  21.072  54.285  1.00  0.00     0.000 C 
BRANCH   2   3
ATOM      3  C   UNL     1      50.572  22.280  53.793  1.00  0.00     0.000 C 
BRANCH   3   4
ATOM      4  C   UNL     1      50.124  23.212  54.935  1.00  0.00     0.000 C 
BRANCH   4   5
ATOM      5  C   UNL     1      51.304  23.974  55.557  1.00  0.00     0.000 C 
BRANCH   5   6
ATOM      6  C   UNL     1      51.151  24.088  57.079  1.00  0.00     0.000 C 
BRANCH   6   7
ATOM      7  C   UNL     1      49.759  23.610  57.523  1.00  0.00     0.000 C 
BRANCH   7   8
ATOM      8  C   UNL     1      48.815  24.768  57.874  1.00  0.00     0.000 C 
BRANCH   8   9
ATOM      9  C   UNL     1      47.332  24.377  57.783  1.00  0.00     0.000 C 
BRANCH   9  10
ATOM     10  C   UNL     1      46.742  24.791  56.429  1.00  0.00     0.000 C 
BRANCH  10  11
ATOM     11  C   UNL     1      46.479  23.562  55.546  1.00  0.00     0.000 C 
BRANCH  11  12
ATOM     12  C   UNL     1      44.985  23.207  55.443  1.00  0.00     0.000 C 
BRANCH  12  13
ATOM     13  C   UNL     1      44.020  24.225  56.085  1.00  0.00     0.006 C 
BRANCH  13  14
ATOM     14  C   UNL     1      43.264  23.685  57.315  1.00  0.00     0.053 C 
BRANCH  14  15
ATOM     15  C   UNL     1      41.937  23.086  56.955  1.00  0.00     0.041 C 
ATOM     16  O   UNL     1      41.382  22.259  57.727  1.00  0.00    -0.550 OA
ATOM     17  O   UNL     1      41.330  23.411  55.750  1.00  0.00    -0.550 OA
ENDBRANCH  14  15
ENDBRANCH  13  14
ENDBRANCH  12  13
ENDBRANCH  11  12
ENDBRANCH  10  11
ENDBRANCH   9  10
ENDBRANCH   8   9
ENDBRANCH   7   8
ENDBRANCH   6   7
ENDBRANCH   5   6
ENDBRANCH   4   5
ENDBRANCH   3   4
ENDBRANCH   2   3
ENDBRANCH   1   2
BRANCH   1  18
ATOM     18  C   UNL     1      53.607  21.620  53.135  1.00  0.00     0.000 C 
BRANCH  18  19
ATOM     19  C   UNL     1      54.547  21.584  54.358  1.00  0.00     0.000 C 
BRANCH  19  20
ATOM     20  C   UNL     1      56.035  21.538  53.964  1.00  0.00     0.000 C 
BRANCH  20  21
ATOM     21  C   UNL     1      56.288  22.179  52.589  1.00  0.00     0.000 C 
BRANCH  21  22
ATOM     22  C   UNL     1      56.780  23.633  52.687  1.00  0.00     0.000 C 
BRANCH  22  23
ATOM     23  C   UNL     1      56.007  24.639  51.814  1.00  0.00     0.000 C 
BRANCH  23  24
ATOM     24  C   UNL     1      54.505  24.780  52.135  1.00  0.00    -0.000 C 
BRANCH  24  25
ATOM     25  C   UNL     1      53.553  24.742  50.922  1.00  0.00    -0.000 C 
BRANCH  25  26
ATOM     26  C   UNL     1      53.794  23.582  49.931  1.00  0.00    -0.000 C 
BRANCH  26  27
ATOM     27  C   UNL     1      53.801  24.004  48.449  1.00  0.00    -0.000 C 
BRANCH  27  28
ATOM     28  C   UNL     1      55.106  23.719  47.683  1.00  0.00    -0.000 C 
BRANCH  28  29
ATOM     29  C   UNL     1      56.209  23.014  48.495  1.00  0.00    -0.000 C 
BRANCH  29  30
ATOM     30  C   UNL     1      56.874  21.856  47.731  1.00  0.00    -0.000 C 
BRANCH  30  31
ATOM     31  C   UNL     1      56.471  20.481  48.286  1.00  0.00    -0.003 C 
ATOM     32  C   UNL     1      55.748  20.576  49.628  1.00  0.00     0.004 C 
ENDBRANCH  30  31
ENDBRANCH  29  30
ENDBRANCH  28  29
ENDBRANCH  27  28
ENDBRANCH  26  27
ENDBRANCH  25  26
ENDBRANCH  24  25
ENDBRANCH  23  24
ENDBRANCH  22  23
ENDBRANCH  21  22
ENDBRANCH  20  21
ENDBRANCH  19  20
ENDBRANCH  18  19
ENDBRANCH   1  18
TORSDOF 28
ENDMDL
MODEL 9
REMARK VINA RESULT:    -3.744      1.298      2.393
REMARK INTER + INTRA:         -14.632
REMARK INTER:                 -10.857
REMARK INTRA:                  -3.775
REMARK UNBOUND:                -4.760
REMARK SMILES CCCCCCCCCCCCCCCCCCCCCCCCCCCCCC(=O)[O-]
REMARK SMILES IDX 16 1 17 2 18 3 19 4 20 5 21 6 22 7 23 8 24 9 25 10 26 11
REMARK SMILES IDX 27 12 28 13 29 14 30 15 31 16 32 17 15 18 14 19 13 20 12 21
REMARK SMILES IDX 11 22 10 23 9 24 8 25 7 26 6 27 5 28 4 29 3 30 2 31 1 32
REMARK H PARENT
REMARK Flexibility Score: inf
ROOT
ATOM      1  C   UNL     1      53.379  24.239  49.839  1.00  0.00     0.000 C 
ENDROOT
BRANCH   1   2
ATOM      2  C   UNL     1      54.311  25.125  50.688  1.00  0.00     0.000 C 
BRANCH   2   3
ATOM      3  C   UNL     1      53.957  25.071  52.186  1.00  0.00     0.000 C 
BRANCH   3   4
ATOM      4  C   UNL     1      55.197  25.002  53.097  1.00  0.00     0.000 C 
BRANCH   4   5
ATOM      5  C   UNL     1      54.819  24.822  54.576  1.00  0.00     0.000 C 
BRANCH   5   6
ATOM      6  C   UNL     1      53.321  24.531  54.733  1.00  0.00     0.000 C 
BRANCH   6   7
ATOM      7  C   UNL     1      53.095  23.101  55.246  1.00  0.00     0.000 C 
BRANCH   7   8
ATOM      8  C   UNL     1      51.610  22.715  55.301  1.00  0.00     0.000 C 
BRANCH   8   9
ATOM      9  C   UNL     1      51.091  22.151  53.970  1.00  0.00     0.000 C 
BRANCH   9  10
ATOM     10  C   UNL     1      49.560  22.236  53.902  1.00  0.00     0.000 C 
BRANCH  10  11
ATOM     11  C   UNL     1      49.079  23.670  54.166  1.00  0.00     0.000 C 
BRANCH  11  12
ATOM     12  C   UNL     1      47.837  23.727  55.074  1.00  0.00     0.000 C 
BRANCH  12  13
ATOM     13  C   UNL     1      47.803  22.682  56.209  1.00  0.00     0.006 C 
BRANCH  13  14
ATOM     14  C   UNL     1      46.381  22.282  56.651  1.00  0.00     0.053 C 
BRANCH  14  15
ATOM     15  C   UNL     1      45.982  20.928  56.142  1.00  0.00     0.041 C 
ATOM     16  O   UNL     1      45.057  20.284  56.705  1.00  0.00    -0.550 OA
ATOM     17  O   UNL     1      46.657  20.362  55.069  1.00  0.00    -0.550 OA
ENDBRANCH  14  15
ENDBRANCH  13  14
ENDBRANCH  12  13
ENDBRANCH  11  12
ENDBRANCH  10  11
ENDBRANCH   9  10
ENDBRANCH   8   9
ENDBRANCH   7   8
ENDBRANCH   6   7
ENDBRANCH   5   6
ENDBRANCH   4   5
ENDBRANCH   3   4
ENDBRANCH   2   3
ENDBRANCH   1   2
BRANCH   1  18
ATOM     18  C   UNL     1      54.070  23.715  48.568  1.00  0.00     0.000 C 
BRANCH  18  19
ATOM     19  C   UNL     1      55.561  24.106  48.497  1.00  0.00     0.000 C 
BRANCH  19  20
ATOM     20  C   UNL     1      56.490  22.887  48.348  1.00  0.00     0.000 C 
BRANCH  20  21
ATOM     21  C   UNL     1      55.711  21.561  48.377  1.00  0.00     0.000 C 
BRANCH  21  22
ATOM     22  C   UNL     1      55.984  20.735  49.646  1.00  0.00     0.000 C 
BRANCH  22  23
ATOM     23  C   UNL     1      55.181  21.168  50.887  1.00  0.00     0.000 C 
BRANCH  23  24
ATOM     24  C   UNL     1      56.008  21.805  52.023  1.00  0.00    -0.000 C 
BRANCH  24  25
ATOM     25  C   UNL     1      55.678  21.316  53.448  1.00  0.00    -0.000 C 
BRANCH  25  26
ATOM     26  C   UNL     1      56.732  21.659  54.524  1.00  0.00    -0.000 C 
BRANCH  26  27
ATOM     27  C   UNL     1      56.341  21.236  55.953  1.00  0.00    -0.000 C 
BRANCH  27  28
ATOM     28  C   UNL     1      56.877  22.136  57.082  1.00  0.00    -0.000 C 
BRANCH  28  29
ATOM     29  C   UNL     1      58.404  22.103  57.286  1.00  0.00    -0.000 C 
BRANCH  29  30
ATOM     30  C   UNL     1      58.945  23.361  57.989  1.00  0.00    -0.000 C 
BRANCH  30  31
ATOM     31  C   UNL     1      59.507  24.390  56.995  1.00  0.00    -0.003 C 
ATOM     32  C   UNL     1      58.491  24.793  55.927  1.00  0.00     0.004 C 
ENDBRANCH  30  31
ENDBRANCH  29  30
ENDBRANCH  28  29
ENDBRANCH  27  28
ENDBRANCH  26  27
ENDBRANCH  25  26
ENDBRANCH  24  25
ENDBRANCH  23  24
ENDBRANCH  22  23
ENDBRANCH  21  22
ENDBRANCH  20  21
ENDBRANCH  19  20
ENDBRANCH  18  19
ENDBRANCH   1  18
TORSDOF 28
ENDMDL
