MODEL 1
REMARK VINA RESULT:    -2.974      0.000      0.000
REMARK INTER + INTRA:          -6.637
REMARK INTER:                  -5.756
REMARK INTRA:                  -0.881
REMARK UNBOUND:                -0.881
REMARK SMILES CCCCCCCCCCCCCCCCCC(=O)[O-]
REMARK SMILES IDX 10 1 11 2 12 3 13 4 14 5 15 6 16 7 17 8 18 9 19 10 20 11
REMARK SMILES IDX 9 12 8 13 7 14 6 15 5 16 4 17 3 18 2 19 1 20
REMARK H PARENT
REMARK Flexibility Score: inf
ROOT
ATOM      1  C   UNL     1      18.305  65.672  16.482  1.00  0.00     0.000 C 
ENDROOT
BRANCH   1   2
ATOM      2  C   UNL     1      16.770  65.672  16.580  1.00  0.00     0.000 C 
BRANCH   2   3
ATOM      3  C   UNL     1      16.239  64.673  17.620  1.00  0.00     0.000 C 
BRANCH   3   4
ATOM      4  C   UNL     1      14.718  64.810  17.785  1.00  0.00     0.000 C 
BRANCH   4   5
ATOM      5  C   UNL     1      14.100  65.848  16.830  1.00  0.00     0.000 C 
BRANCH   5   6
ATOM      6  C   UNL     1      12.876  65.353  16.039  1.00  0.00     0.000 C 
BRANCH   6   7
ATOM      7  C   UNL     1      13.032  65.528  14.518  1.00  0.00     0.006 C 
BRANCH   7   8
ATOM      8  C   UNL     1      13.782  64.354  13.875  1.00  0.00     0.053 C 
BRANCH   8   9
ATOM      9  C   UNL     1      14.678  64.808  12.765  1.00  0.00     0.041 C 
ATOM     10  O   UNL     1      15.892  65.054  12.991  1.00  0.00    -0.550 OA
ATOM     11  O   UNL     1      14.180  64.925  11.473  1.00  0.00    -0.550 OA
ENDBRANCH   8   9
ENDBRANCH   7   8
ENDBRANCH   6   7
ENDBRANCH   5   6
ENDBRANCH   4   5
ENDBRANCH   3   4
ENDBRANCH   2   3
ENDBRANCH   1   2
BRANCH   1  12
ATOM     12  C   UNL     1      18.870  65.681  15.048  1.00  0.00     0.000 C 
BRANCH  12  13
ATOM     13  C   UNL     1      20.359  66.051  14.929  1.00  0.00    -0.000 C 
BRANCH  13  14
ATOM     14  C   UNL     1      21.162  65.712  16.195  1.00  0.00    -0.000 C 
BRANCH  14  15
ATOM     15  C   UNL     1      22.656  66.056  16.063  1.00  0.00    -0.000 C 
BRANCH  15  16
ATOM     16  C   UNL     1      23.590  64.845  16.277  1.00  0.00    -0.000 C 
BRANCH  16  17
ATOM     17  C   UNL     1      25.009  65.107  15.739  1.00  0.00    -0.000 C 
BRANCH  17  18
ATOM     18  C   UNL     1      25.878  65.905  16.724  1.00  0.00    -0.000 C 
BRANCH  18  19
ATOM     19  C   UNL     1      27.178  65.173  17.091  1.00  0.00    -0.003 C 
ATOM     20  C   UNL     1      28.373  65.783  16.364  1.00  0.00     0.004 C 
ENDBRANCH  18  19
ENDBRANCH  17  18
ENDBRANCH  16  17
ENDBRANCH  15  16
ENDBRANCH  14  15
ENDBRANCH  13  14
ENDBRANCH  12  13
ENDBRANCH   1  12
TORSDOF 16
ENDMDL
MODEL 2
REMARK VINA RESULT:    -2.762      1.078      2.138
REMARK INTER + INTRA:          -6.227
REMARK INTER:                  -5.578
REMARK INTRA:                  -0.649
REMARK UNBOUND:                -0.881
REMARK SMILES CCCCCCCCCCCCCCCCCC(=O)[O-]
REMARK SMILES IDX 10 1 11 2 12 3 13 4 14 5 15 6 16 7 17 8 18 9 19 10 20 11
REMARK SMILES IDX 9 12 8 13 7 14 6 15 5 16 4 17 3 18 2 19 1 20
REMARK H PARENT
REMARK Flexibility Score: inf
ROOT
ATOM      1  C   UNL     1      19.889  65.292  14.674  1.00  0.00     0.000 C 
ENDROOT
BRANCH   1   2
ATOM      2  C   UNL     1      18.502  65.958  14.651  1.00  0.00     0.000 C 
BRANCH   2   3
ATOM      3  C   UNL     1      17.864  66.053  16.045  1.00  0.00     0.000 C 
BRANCH   3   4
ATOM      4  C   UNL     1      16.333  66.123  15.944  1.00  0.00     0.000 C 
BRANCH   4   5
ATOM      5  C   UNL     1      15.620  65.209  16.959  1.00  0.00     0.000 C 
BRANCH   5   6
ATOM      6  C   UNL     1      14.095  65.112  16.784  1.00  0.00     0.000 C 
BRANCH   6   7
ATOM      7  C   UNL     1      13.679  64.141  15.665  1.00  0.00     0.006 C 
BRANCH   7   8
ATOM      8  C   UNL     1      13.358  64.872  14.354  1.00  0.00     0.053 C 
BRANCH   8   9
ATOM      9  C   UNL     1      14.041  64.237  13.183  1.00  0.00     0.041 C 
ATOM     10  O   UNL     1      13.572  63.188  12.667  1.00  0.00    -0.550 OA
ATOM     11  O   UNL     1      15.177  64.824  12.637  1.00  0.00    -0.550 OA
ENDBRANCH   8   9
ENDBRANCH   7   8
ENDBRANCH   6   7
ENDBRANCH   5   6
ENDBRANCH   4   5
ENDBRANCH   3   4
ENDBRANCH   2   3
ENDBRANCH   1   2
BRANCH   1  12
ATOM     12  C   UNL     1      20.627  65.361  16.026  1.00  0.00     0.000 C 
BRANCH  12  13
ATOM     13  C   UNL     1      21.980  66.095  16.000  1.00  0.00    -0.000 C 
BRANCH  13  14
ATOM     14  C   UNL     1      23.181  65.137  16.045  1.00  0.00    -0.000 C 
BRANCH  14  15
ATOM     15  C   UNL     1      24.532  65.873  16.018  1.00  0.00    -0.000 C 
BRANCH  15  16
ATOM     16  C   UNL     1      25.664  65.113  16.741  1.00  0.00    -0.000 C 
BRANCH  16  17
ATOM     17  C   UNL     1      26.972  65.924  16.781  1.00  0.00    -0.000 C 
BRANCH  17  18
ATOM     18  C   UNL     1      28.162  65.159  16.181  1.00  0.00    -0.000 C 
BRANCH  18  19
ATOM     19  C   UNL     1      29.506  65.586  16.790  1.00  0.00    -0.003 C 
ATOM     20  C   UNL     1      29.371  65.848  18.287  1.00  0.00     0.004 C 
ENDBRANCH  18  19
ENDBRANCH  17  18
ENDBRANCH  16  17
ENDBRANCH  15  16
ENDBRANCH  14  15
ENDBRANCH  13  14
ENDBRANCH  12  13
ENDBRANCH   1  12
TORSDOF 16
ENDMDL
MODEL 3
REMARK VINA RESULT:    -2.579      6.257     12.988
REMARK INTER + INTRA:          -5.871
REMARK INTER:                  -5.418
REMARK INTRA:                  -0.453
REMARK UNBOUND:                -0.881
REMARK SMILES CCCCCCCCCCCCCCCCCC(=O)[O-]
REMARK SMILES IDX 10 1 11 2 12 3 13 4 14 5 15 6 16 7 17 8 18 9 19 10 20 11
REMARK SMILES IDX 9 12 8 13 7 14 6 15 5 16 4 17 3 18 2 19 1 20
REMARK H PARENT
REMARK Flexibility Score: inf
ROOT
ATOM      1  C   UNL     1      24.779  65.169  16.100  1.00  0.00     0.000 C 
ENDROOT
BRANCH   1   2
ATOM      2  C   UNL     1      26.004  65.957  16.597  1.00  0.00     0.000 C 
BRANCH   2   3
ATOM      3  C   UNL     1      27.173  65.046  17.003  1.00  0.00     0.000 C 
BRANCH   3   4
ATOM      4  C   UNL     1      28.383  65.263  16.082  1.00  0.00     0.000 C 
BRANCH   4   5
ATOM      5  C   UNL     1      29.727  65.220  16.834  1.00  0.00     0.000 C 
BRANCH   5   6
ATOM      6  C   UNL     1      29.615  65.291  18.367  1.00  0.00     0.000 C 
BRANCH   6   7
ATOM      7  C   UNL     1      30.979  65.446  19.062  1.00  0.00     0.006 C 
BRANCH   7   8
ATOM      8  C   UNL     1      30.851  65.463  20.591  1.00  0.00     0.053 C 
BRANCH   8   9
ATOM      9  C   UNL     1      31.916  64.639  21.246  1.00  0.00     0.041 C 
ATOM     10  O   UNL     1      32.581  65.110  22.206  1.00  0.00    -0.550 OA
ATOM     11  O   UNL     1      32.150  63.337  20.820  1.00  0.00    -0.550 OA
ENDBRANCH   8   9
ENDBRANCH   7   8
ENDBRANCH   6   7
ENDBRANCH   5   6
ENDBRANCH   4   5
ENDBRANCH   3   4
ENDBRANCH   2   3
ENDBRANCH   1   2
BRANCH   1  12
ATOM     12  C   UNL     1      23.486  65.995  15.953  1.00  0.00     0.000 C 
BRANCH  12  13
ATOM     13  C   UNL     1      22.181  65.233  16.245  1.00  0.00    -0.000 C 
BRANCH  13  14
ATOM     14  C   UNL     1      20.930  66.118  16.118  1.00  0.00    -0.000 C 
BRANCH  14  15
ATOM     15  C   UNL     1      19.628  65.302  16.040  1.00  0.00    -0.000 C 
BRANCH  15  16
ATOM     16  C   UNL     1      18.363  66.125  16.364  1.00  0.00    -0.000 C 
BRANCH  16  17
ATOM     17  C   UNL     1      17.128  65.230  16.570  1.00  0.00    -0.000 C 
BRANCH  17  18
ATOM     18  C   UNL     1      15.859  65.814  15.930  1.00  0.00    -0.000 C 
BRANCH  18  19
ATOM     19  C   UNL     1      14.579  65.111  16.406  1.00  0.00    -0.003 C 
ATOM     20  C   UNL     1      14.715  64.647  17.854  1.00  0.00     0.004 C 
ENDBRANCH  18  19
ENDBRANCH  17  18
ENDBRANCH  16  17
ENDBRANCH  15  16
ENDBRANCH  14  15
ENDBRANCH  13  14
ENDBRANCH  12  13
ENDBRANCH   1  12
TORSDOF 16
ENDMDL
MODEL 4
REMARK VINA RESULT:    -2.507      4.849     10.965
REMARK INTER + INTRA:          -5.733
REMARK INTER:                  -4.870
REMARK INTRA:                  -0.863
REMARK UNBOUND:                -0.881
REMARK SMILES CCCCCCCCCCCCCCCCCC(=O)[O-]
REMARK SMILES IDX 10 1 11 2 12 3 13 4 14 5 15 6 16 7 17 8 18 9 19 10 20 11
REMARK SMILES IDX 9 12 8 13 7 14 6 15 5 16 4 17 3 18 2 19 1 20
REMARK H PARENT
REMARK Flexibility Score: inf
ROOT
ATOM      1  C   UNL     1      19.740  65.283  15.685  1.00  0.00     0.000 C 
ENDROOT
BRANCH   1   2
ATOM      2  C   UNL     1      21.140  65.923  15.657  1.00  0.00     0.000 C 
BRANCH   2   3
ATOM      3  C   UNL     1      22.111  65.273  16.654  1.00  0.00     0.000 C 
BRANCH   3   4
ATOM      4  C   UNL     1      23.444  64.925  15.974  1.00  0.00     0.000 C 
BRANCH   4   5
ATOM      5  C   UNL     1      24.414  66.119  15.904  1.00  0.00     0.000 C 
BRANCH   5   6
ATOM      6  C   UNL     1      25.571  66.075  16.918  1.00  0.00     0.000 C 
BRANCH   6   7
ATOM      7  C   UNL     1      26.678  65.082  16.524  1.00  0.00     0.006 C 
BRANCH   7   8
ATOM      8  C   UNL     1      28.019  65.782  16.268  1.00  0.00     0.053 C 
BRANCH   8   9
ATOM      9  C   UNL     1      29.051  65.391  17.280  1.00  0.00     0.041 C 
ATOM     10  O   UNL     1      28.743  65.302  18.498  1.00  0.00    -0.550 OA
ATOM     11  O   UNL     1      30.345  65.091  16.874  1.00  0.00    -0.550 OA
ENDBRANCH   8   9
ENDBRANCH   7   8
ENDBRANCH   6   7
ENDBRANCH   5   6
ENDBRANCH   4   5
ENDBRANCH   3   4
ENDBRANCH   2   3
ENDBRANCH   1   2
BRANCH   1  12
ATOM     12  C   UNL     1      18.650  66.125  16.378  1.00  0.00     0.000 C 
BRANCH  12  13
ATOM     13  C   UNL     1      17.216  65.888  15.872  1.00  0.00    -0.000 C 
BRANCH  13  14
ATOM     14  C   UNL     1      16.394  64.984  16.805  1.00  0.00    -0.000 C 
BRANCH  14  15
ATOM     15  C   UNL     1      15.099  65.653  17.296  1.00  0.00    -0.000 C 
BRANCH  15  16
ATOM     16  C   UNL     1      13.841  64.779  17.105  1.00  0.00    -0.000 C 
BRANCH  16  17
ATOM     17  C   UNL     1      13.174  65.016  15.738  1.00  0.00    -0.000 C 
BRANCH  17  18
ATOM     18  C   UNL     1      13.474  63.895  14.730  1.00  0.00    -0.000 C 
BRANCH  18  19
ATOM     19  C   UNL     1      13.605  64.413  13.290  1.00  0.00    -0.003 C 
ATOM     20  C   UNL     1      15.010  64.950  13.028  1.00  0.00     0.004 C 
ENDBRANCH  18  19
ENDBRANCH  17  18
ENDBRANCH  16  17
ENDBRANCH  15  16
ENDBRANCH  14  15
ENDBRANCH  13  14
ENDBRANCH  12  13
ENDBRANCH   1  12
TORSDOF 16
ENDMDL
MODEL 5
REMARK VINA RESULT:    -2.453      3.637      9.767
REMARK INTER + INTRA:          -5.629
REMARK INTER:                  -5.000
REMARK INTRA:                  -0.629
REMARK UNBOUND:                -0.881
REMARK SMILES CCCCCCCCCCCCCCCCCC(=O)[O-]
REMARK SMILES IDX 10 1 11 2 12 3 13 4 14 5 15 6 16 7 17 8 18 9 19 10 20 11
REMARK SMILES IDX 9 12 8 13 7 14 6 15 5 16 4 17 3 18 2 19 1 20
REMARK H PARENT
REMARK Flexibility Score: inf
ROOT
ATOM      1  C   UNL     1      16.562  64.817  17.447  1.00  0.00     0.000 C 
ENDROOT
BRANCH   1   2
ATOM      2  C   UNL     1      17.045  65.853  16.417  1.00  0.00     0.000 C 
BRANCH   2   3
ATOM      3  C   UNL     1      18.576  65.945  16.338  1.00  0.00     0.000 C 
BRANCH   3   4
ATOM      4  C   UNL     1      19.089  65.415  14.991  1.00  0.00     0.000 C 
BRANCH   4   5
ATOM      5  C   UNL     1      20.616  65.548  14.834  1.00  0.00     0.000 C 
BRANCH   5   6
ATOM      6  C   UNL     1      21.357  66.038  16.090  1.00  0.00     0.000 C 
BRANCH   6   7
ATOM      7  C   UNL     1      22.670  65.279  16.347  1.00  0.00     0.006 C 
BRANCH   7   8
ATOM      8  C   UNL     1      23.884  66.001  15.748  1.00  0.00     0.053 C 
BRANCH   8   9
ATOM      9  C   UNL     1      25.152  65.238  15.974  1.00  0.00     0.041 C 
ATOM     10  O   UNL     1      25.480  64.308  15.191  1.00  0.00    -0.550 OA
ATOM     11  O   UNL     1      25.990  65.578  17.029  1.00  0.00    -0.550 OA
ENDBRANCH   8   9
ENDBRANCH   7   8
ENDBRANCH   6   7
ENDBRANCH   5   6
ENDBRANCH   4   5
ENDBRANCH   3   4
ENDBRANCH   2   3
ENDBRANCH   1   2
BRANCH   1  12
ATOM     12  C   UNL     1      15.142  64.265  17.205  1.00  0.00     0.000 C 
BRANCH  12  13
ATOM     13  C   UNL     1      13.995  65.152  17.720  1.00  0.00    -0.000 C 
BRANCH  13  14
ATOM     14  C   UNL     1      13.394  66.049  16.626  1.00  0.00    -0.000 C 
BRANCH  14  15
ATOM     15  C   UNL     1      12.875  65.249  15.418  1.00  0.00    -0.000 C 
BRANCH  15  16
ATOM     16  C   UNL     1      13.939  65.024  14.323  1.00  0.00    -0.000 C 
BRANCH  16  17
ATOM     17  C   UNL     1      13.546  63.890  13.359  1.00  0.00    -0.000 C 
BRANCH  17  18
ATOM     18  C   UNL     1      13.994  64.158  11.914  1.00  0.00    -0.000 C 
BRANCH  18  19
ATOM     19  C   UNL     1      12.878  63.898  10.891  1.00  0.00    -0.003 C 
ATOM     20  C   UNL     1      13.043  64.787   9.662  1.00  0.00     0.004 C 
ENDBRANCH  18  19
ENDBRANCH  17  18
ENDBRANCH  16  17
ENDBRANCH  15  16
ENDBRANCH  14  15
ENDBRANCH  13  14
ENDBRANCH  12  13
ENDBRANCH   1  12
TORSDOF 16
ENDMDL
MODEL 6
REMARK VINA RESULT:    -2.211      5.675     12.240
REMARK INTER + INTRA:          -5.159
REMARK INTER:                  -4.750
REMARK INTRA:                  -0.409
REMARK UNBOUND:                -0.881
REMARK SMILES CCCCCCCCCCCCCCCCCC(=O)[O-]
REMARK SMILES IDX 10 1 11 2 12 3 13 4 14 5 15 6 16 7 17 8 18 9 19 10 20 11
REMARK SMILES IDX 9 12 8 13 7 14 6 15 5 16 4 17 3 18 2 19 1 20
REMARK H PARENT
REMARK Flexibility Score: inf
ROOT
ATOM      1  C   UNL     1      21.762  65.032  16.426  1.00  0.00     0.000 C 
ENDROOT
BRANCH   1   2
ATOM      2  C   UNL     1      23.038  65.881  16.293  1.00  0.00     0.000 C 
BRANCH   2   3
ATOM      3  C   UNL     1      24.287  65.037  15.998  1.00  0.00     0.000 C 
BRANCH   3   4
ATOM      4  C   UNL     1      25.556  65.901  16.041  1.00  0.00     0.000 C 
BRANCH   4   5
ATOM      5  C   UNL     1      26.601  65.386  17.049  1.00  0.00     0.000 C 
BRANCH   5   6
ATOM      6  C   UNL     1      28.065  65.535  16.600  1.00  0.00     0.000 C 
BRANCH   6   7
ATOM      7  C   UNL     1      29.071  65.051  17.659  1.00  0.00     0.006 C 
BRANCH   7   8
ATOM      8  C   UNL     1      30.522  65.337  17.253  1.00  0.00     0.053 C 
BRANCH   8   9
ATOM      9  C   UNL     1      31.489  64.922  18.318  1.00  0.00     0.041 C 
ATOM     10  O   UNL     1      31.105  64.202  19.277  1.00  0.00    -0.550 OA
ATOM     11  O   UNL     1      32.823  65.301  18.233  1.00  0.00    -0.550 OA
ENDBRANCH   8   9
ENDBRANCH   7   8
ENDBRANCH   6   7
ENDBRANCH   5   6
ENDBRANCH   4   5
ENDBRANCH   3   4
ENDBRANCH   2   3
ENDBRANCH   1   2
BRANCH   1  12
ATOM     12  C   UNL     1      20.480  65.685  15.870  1.00  0.00     0.000 C 
BRANCH  12  13
ATOM     13  C   UNL     1      19.161  65.145  16.450  1.00  0.00    -0.000 C 
BRANCH  13  14
ATOM     14  C   UNL     1      17.931  65.935  15.977  1.00  0.00    -0.000 C 
BRANCH  14  15
ATOM     15  C   UNL     1      16.617  65.412  16.582  1.00  0.00    -0.000 C 
BRANCH  15  16
ATOM     16  C   UNL     1      15.358  66.105  16.018  1.00  0.00    -0.000 C 
BRANCH  16  17
ATOM     17  C   UNL     1      15.110  65.742  14.543  1.00  0.00    -0.000 C 
BRANCH  17  18
ATOM     18  C   UNL     1      13.630  65.454  14.244  1.00  0.00    -0.000 C 
BRANCH  18  19
ATOM     19  C   UNL     1      13.188  64.066  14.732  1.00  0.00    -0.003 C 
ATOM     20  C   UNL     1      13.187  63.058  13.586  1.00  0.00     0.004 C 
ENDBRANCH  18  19
ENDBRANCH  17  18
ENDBRANCH  16  17
ENDBRANCH  15  16
ENDBRANCH  14  15
ENDBRANCH  13  14
ENDBRANCH  12  13
ENDBRANCH   1  12
TORSDOF 16
ENDMDL
MODEL 7
REMARK VINA RESULT:    -2.108      4.646      9.562
REMARK INTER + INTRA:          -4.961
REMARK INTER:                  -4.118
REMARK INTRA:                  -0.843
REMARK UNBOUND:                -0.881
REMARK SMILES CCCCCCCCCCCCCCCCCC(=O)[O-]
REMARK SMILES IDX 10 1 11 2 12 3 13 4 14 5 15 6 16 7 17 8 18 9 19 10 20 11
REMARK SMILES IDX 9 12 8 13 7 14 6 15 5 16 4 17 3 18 2 19 1 20
REMARK H PARENT
REMARK Flexibility Score: inf
ROOT
ATOM      1  C   UNL     1      28.054  65.593  19.923  1.00  0.00     0.000 C 
ENDROOT
BRANCH   1   2
ATOM      2  C   UNL     1      27.107  65.190  18.779  1.00  0.00     0.000 C 
BRANCH   2   3
ATOM      3  C   UNL     1      27.835  65.005  17.439  1.00  0.00     0.000 C 
BRANCH   3   4
ATOM      4  C   UNL     1      26.987  65.541  16.276  1.00  0.00     0.000 C 
BRANCH   4   5
ATOM      5  C   UNL     1      25.575  65.976  16.711  1.00  0.00     0.000 C 
BRANCH   5   6
ATOM      6  C   UNL     1      24.424  65.324  15.925  1.00  0.00     0.000 C 
BRANCH   6   7
ATOM      7  C   UNL     1      23.078  66.042  16.126  1.00  0.00     0.006 C 
BRANCH   7   8
ATOM      8  C   UNL     1      21.921  65.055  16.333  1.00  0.00     0.053 C 
BRANCH   8   9
ATOM      9  C   UNL     1      20.660  65.532  15.682  1.00  0.00     0.041 C 
ATOM     10  O   UNL     1      20.706  66.125  14.572  1.00  0.00    -0.550 OA
ATOM     11  O   UNL     1      19.431  65.291  16.283  1.00  0.00    -0.550 OA
ENDBRANCH   8   9
ENDBRANCH   7   8
ENDBRANCH   6   7
ENDBRANCH   5   6
ENDBRANCH   4   5
ENDBRANCH   3   4
ENDBRANCH   2   3
ENDBRANCH   1   2
BRANCH   1  12
ATOM     12  C   UNL     1      29.438  66.106  19.476  1.00  0.00     0.000 C 
BRANCH  12  13
ATOM     13  C   UNL     1      30.522  66.110  20.568  1.00  0.00    -0.000 C 
BRANCH  13  14
ATOM     14  C   UNL     1      31.257  64.765  20.685  1.00  0.00    -0.000 C 
BRANCH  14  15
ATOM     15  C   UNL     1      32.520  64.697  19.809  1.00  0.00    -0.000 C 
BRANCH  15  16
ATOM     16  C   UNL     1      32.501  65.682  18.620  1.00  0.00    -0.000 C 
BRANCH  16  17
ATOM     17  C   UNL     1      32.588  64.955  17.266  1.00  0.00    -0.000 C 
BRANCH  17  18
ATOM     18  C   UNL     1      32.685  63.429  17.417  1.00  0.00    -0.000 C 
BRANCH  18  19
ATOM     19  C   UNL     1      32.730  62.703  16.064  1.00  0.00    -0.003 C 
ATOM     20  C   UNL     1      31.704  63.284  15.095  1.00  0.00     0.004 C 
ENDBRANCH  18  19
ENDBRANCH  17  18
ENDBRANCH  16  17
ENDBRANCH  15  16
ENDBRANCH  14  15
ENDBRANCH  13  14
ENDBRANCH  12  13
ENDBRANCH   1  12
TORSDOF 16
ENDMDL
MODEL 8
REMARK VINA RESULT:    -2.081      6.588     13.316
REMARK INTER + INTRA:          -4.907
REMARK INTER:                  -4.151
REMARK INTRA:                  -0.756
REMARK UNBOUND:                -0.881
REMARK SMILES CCCCCCCCCCCCCCCCCC(=O)[O-]
REMARK SMILES IDX 10 1 11 2 12 3 13 4 14 5 15 6 16 7 17 8 18 9 19 10 20 11
REMARK SMILES IDX 9 12 8 13 7 14 6 15 5 16 4 17 3 18 2 19 1 20
REMARK H PARENT
REMARK Flexibility Score: inf
ROOT
ATOM      1  C   UNL     1      26.919  65.992  16.817  1.00  0.00     0.000 C 
ENDROOT
BRANCH   1   2
ATOM      2  C   UNL     1      28.328  65.869  16.210  1.00  0.00     0.000 C 
BRANCH   2   3
ATOM      3  C   UNL     1      29.396  65.505  17.252  1.00  0.00     0.000 C 
BRANCH   3   4
ATOM      4  C   UNL     1      28.874  65.740  18.678  1.00  0.00     0.000 C 
BRANCH   4   5
ATOM      5  C   UNL     1      29.998  65.801  19.728  1.00  0.00     0.000 C 
BRANCH   5   6
ATOM      6  C   UNL     1      31.395  66.120  19.166  1.00  0.00     0.000 C 
BRANCH   6   7
ATOM      7  C   UNL     1      32.402  64.976  19.374  1.00  0.00     0.006 C 
BRANCH   7   8
ATOM      8  C   UNL     1      31.708  63.640  19.670  1.00  0.00     0.053 C 
BRANCH   8   9
ATOM      9  C   UNL     1      32.462  62.834  20.681  1.00  0.00     0.041 C 
ATOM     10  O   UNL     1      33.010  63.402  21.663  1.00  0.00    -0.550 OA
ATOM     11  O   UNL     1      32.530  61.452  20.559  1.00  0.00    -0.550 OA
ENDBRANCH   8   9
ENDBRANCH   7   8
ENDBRANCH   6   7
ENDBRANCH   5   6
ENDBRANCH   4   5
ENDBRANCH   3   4
ENDBRANCH   2   3
ENDBRANCH   1   2
BRANCH   1  12
ATOM     12  C   UNL     1      25.789  65.351  15.987  1.00  0.00     0.000 C 
BRANCH  12  13
ATOM     13  C   UNL     1      24.361  65.660  16.469  1.00  0.00    -0.000 C 
BRANCH  13  14
ATOM     14  C   UNL     1      23.281  64.973  15.619  1.00  0.00    -0.000 C 
BRANCH  14  15
ATOM     15  C   UNL     1      21.897  64.981  16.291  1.00  0.00    -0.000 C 
BRANCH  15  16
ATOM     16  C   UNL     1      20.980  66.123  15.803  1.00  0.00    -0.000 C 
BRANCH  16  17
ATOM     17  C   UNL     1      19.495  65.718  15.818  1.00  0.00    -0.000 C 
BRANCH  17  18
ATOM     18  C   UNL     1      18.782  66.027  14.492  1.00  0.00    -0.000 C 
BRANCH  18  19
ATOM     19  C   UNL     1      17.253  66.060  14.636  1.00  0.00    -0.003 C 
ATOM     20  C   UNL     1      16.835  65.846  16.088  1.00  0.00     0.004 C 
ENDBRANCH  18  19
ENDBRANCH  17  18
ENDBRANCH  16  17
ENDBRANCH  15  16
ENDBRANCH  14  15
ENDBRANCH  13  14
ENDBRANCH  12  13
ENDBRANCH   1  12
TORSDOF 16
ENDMDL
MODEL 9
REMARK VINA RESULT:    -1.787      7.122     13.889
REMARK INTER + INTRA:          -4.339
REMARK INTER:                  -3.656
REMARK INTRA:                  -0.683
REMARK UNBOUND:                -0.881
REMARK SMILES CCCCCCCCCCCCCCCCCC(=O)[O-]
REMARK SMILES IDX 10 1 11 2 12 3 13 4 14 5 15 6 16 7 17 8 18 9 19 10 20 11
REMARK SMILES IDX 9 12 8 13 7 14 6 15 5 16 4 17 3 18 2 19 1 20
REMARK H PARENT
REMARK Flexibility Score: inf
ROOT
ATOM      1  C   UNL     1      28.335  65.348  16.174  1.00  0.00     0.000 C 
ENDROOT
BRANCH   1   2
ATOM      2  C   UNL     1      29.706  64.836  16.647  1.00  0.00     0.000 C 
BRANCH   2   3
ATOM      3  C   UNL     1      30.726  65.966  16.853  1.00  0.00     0.000 C 
BRANCH   3   4
ATOM      4  C   UNL     1      31.778  65.572  17.901  1.00  0.00     0.000 C 
BRANCH   4   5
ATOM      5  C   UNL     1      31.160  64.970  19.177  1.00  0.00     0.000 C 
BRANCH   5   6
ATOM      6  C   UNL     1      31.555  63.510  19.463  1.00  0.00     0.000 C 
BRANCH   6   7
ATOM      7  C   UNL     1      33.005  63.366  19.957  1.00  0.00     0.006 C 
BRANCH   7   8
ATOM      8  C   UNL     1      33.077  62.846  21.398  1.00  0.00     0.053 C 
BRANCH   8   9
ATOM      9  C   UNL     1      32.712  61.396  21.484  1.00  0.00     0.041 C 
ATOM     10  O   UNL     1      32.334  60.902  22.579  1.00  0.00    -0.550 OA
ATOM     11  O   UNL     1      32.755  60.599  20.347  1.00  0.00    -0.550 OA
ENDBRANCH   8   9
ENDBRANCH   7   8
ENDBRANCH   6   7
ENDBRANCH   5   6
ENDBRANCH   4   5
ENDBRANCH   3   4
ENDBRANCH   2   3
ENDBRANCH   1   2
BRANCH   1  12
ATOM     12  C   UNL     1      27.145  64.964  17.076  1.00  0.00     0.000 C 
BRANCH  12  13
ATOM     13  C   UNL     1      25.997  65.988  17.122  1.00  0.00    -0.000 C 
BRANCH  13  14
ATOM     14  C   UNL     1      25.077  65.910  15.893  1.00  0.00    -0.000 C 
BRANCH  14  15
ATOM     15  C   UNL     1      24.201  64.645  15.882  1.00  0.00    -0.000 C 
BRANCH  15  16
ATOM     16  C   UNL     1      22.762  64.885  16.386  1.00  0.00    -0.000 C 
BRANCH  16  17
ATOM     17  C   UNL     1      22.121  66.125  15.737  1.00  0.00    -0.000 C 
BRANCH  17  18
ATOM     18  C   UNL     1      20.586  66.081  15.763  1.00  0.00    -0.000 C 
BRANCH  18  19
ATOM     19  C   UNL     1      19.999  65.230  14.628  1.00  0.00    -0.003 C 
ATOM     20  C   UNL     1      18.692  65.827  14.114  1.00  0.00     0.004 C 
ENDBRANCH  18  19
ENDBRANCH  17  18
ENDBRANCH  16  17
ENDBRANCH  15  16
ENDBRANCH  14  15
ENDBRANCH  13  14
ENDBRANCH  12  13
ENDBRANCH   1  12
TORSDOF 16
ENDMDL
