MODEL 1
REMARK VINA RESULT:    -4.404      0.000      0.000
REMARK INTER + INTRA:          -5.388
REMARK INTER:                  -5.048
REMARK INTRA:                  -0.340
REMARK UNBOUND:                -0.340
REMARK SMILES COc1ccc(C(C)=O)c(O)c1
REMARK SMILES IDX 6 1 10 2 12 3 3 4 4 5 5 6 7 7 8 8 9 9 11 10 2 12 1 13
REMARK H PARENT 11 11
REMARK Flexibility Score: inf
ROOT
ATOM      1  C   UNL     1     -27.051 -53.114  54.707  1.00  0.00     0.059 A 
ATOM      2  C   UNL     1     -26.652 -52.398  53.552  1.00  0.00     0.130 A 
ATOM      3  C   UNL     1     -27.359 -52.560  52.353  1.00  0.00     0.093 A 
ATOM      4  C   UNL     1     -28.483 -53.403  52.288  1.00  0.00     0.122 A 
ATOM      5  C   UNL     1     -28.888 -54.084  53.437  1.00  0.00     0.047 A 
ATOM      6  C   UNL     1     -28.183 -53.944  54.634  1.00  0.00     0.019 A 
ENDROOT
BRANCH   1   7
ATOM      7  C   UNL     1     -26.289 -53.044  55.976  1.00  0.00     0.163 C 
ATOM      8  C   UNL     1     -25.879 -54.289  56.702  1.00  0.00     0.093 C 
ATOM      9  O   UNL     1     -25.902 -51.929  56.417  1.00  0.00    -0.294 OA
ENDBRANCH   1   7
BRANCH   2  10
ATOM     10  O   UNL     1     -25.585 -51.495  53.562  1.00  0.00    -0.507 OA
ATOM     11  H   UNL     1     -25.486 -50.744  52.894  1.00  0.00     0.293 HD
ENDBRANCH   2  10
BRANCH   4  12
ATOM     12  O   UNL     1     -29.220 -53.586  51.109  1.00  0.00    -0.497 OA
ATOM     13  C   UNL     1     -30.540 -53.096  50.900  1.00  0.00     0.278 C 
ENDBRANCH   4  12
TORSDOF 3
ENDMDL
MODEL 2
REMARK VINA RESULT:    -4.214      1.376      2.226
REMARK INTER + INTRA:          -5.170
REMARK INTER:                  -4.866
REMARK INTRA:                  -0.305
REMARK UNBOUND:                -0.340
REMARK SMILES COc1ccc(C(C)=O)c(O)c1
REMARK SMILES IDX 6 1 10 2 12 3 3 4 4 5 5 6 7 7 8 8 9 9 11 10 2 12 1 13
REMARK H PARENT 11 11
REMARK Flexibility Score: inf
ROOT
ATOM      1  C   UNL     1     -26.689 -52.537  54.587  1.00  0.00     0.059 A 
ATOM      2  C   UNL     1     -27.637 -53.589  54.568  1.00  0.00     0.130 A 
ATOM      3  C   UNL     1     -28.340 -53.872  53.390  1.00  0.00     0.093 A 
ATOM      4  C   UNL     1     -28.094 -53.143  52.212  1.00  0.00     0.122 A 
ATOM      5  C   UNL     1     -27.137 -52.126  52.230  1.00  0.00     0.047 A 
ATOM      6  C   UNL     1     -26.442 -51.823  53.401  1.00  0.00     0.019 A 
ENDROOT
BRANCH   1   7
ATOM      7  C   UNL     1     -25.980 -52.141  55.827  1.00  0.00     0.163 C 
ATOM      8  C   UNL     1     -25.526 -50.730  56.042  1.00  0.00     0.093 C 
ATOM      9  O   UNL     1     -25.825 -52.977  56.757  1.00  0.00    -0.294 OA
ENDBRANCH   1   7
BRANCH   2  10
ATOM     10  O   UNL     1     -27.884 -54.394  55.683  1.00  0.00    -0.507 OA
ATOM     11  H   UNL     1     -28.112 -54.025  56.596  1.00  0.00     0.293 HD
ENDBRANCH   2  10
BRANCH   4  12
ATOM     12  O   UNL     1     -28.772 -53.400  51.011  1.00  0.00    -0.497 OA
ATOM     13  C   UNL     1     -30.182 -53.564  50.902  1.00  0.00     0.278 C 
ENDBRANCH   4  12
TORSDOF 3
ENDMDL
MODEL 3
REMARK VINA RESULT:    -4.199      2.045      3.844
REMARK INTER + INTRA:          -5.153
REMARK INTER:                  -4.833
REMARK INTRA:                  -0.319
REMARK UNBOUND:                -0.340
REMARK SMILES COc1ccc(C(C)=O)c(O)c1
REMARK SMILES IDX 6 1 10 2 12 3 3 4 4 5 5 6 7 7 8 8 9 9 11 10 2 12 1 13
REMARK H PARENT 11 11
REMARK Flexibility Score: inf
ROOT
ATOM      1  C   UNL     1     -27.239 -53.006  54.085  1.00  0.00     0.059 A 
ATOM      2  C   UNL     1     -26.891 -53.090  55.455  1.00  0.00     0.130 A 
ATOM      3  C   UNL     1     -27.533 -54.021  56.282  1.00  0.00     0.093 A 
ATOM      4  C   UNL     1     -28.501 -54.899  55.761  1.00  0.00     0.122 A 
ATOM      5  C   UNL     1     -28.819 -54.831  54.403  1.00  0.00     0.047 A 
ATOM      6  C   UNL     1     -28.199 -53.897  53.572  1.00  0.00     0.019 A 
ENDROOT
BRANCH   1   7
ATOM      7  C   UNL     1     -26.652 -51.983  53.187  1.00  0.00     0.163 C 
ATOM      8  C   UNL     1     -27.451 -51.383  52.071  1.00  0.00     0.093 C 
ATOM      9  O   UNL     1     -25.492 -51.545  53.407  1.00  0.00    -0.294 OA
ENDBRANCH   1   7
BRANCH   2  10
ATOM     10  O   UNL     1     -25.894 -52.294  56.024  1.00  0.00    -0.507 OA
ATOM     11  H   UNL     1     -25.095 -52.669  56.515  1.00  0.00     0.293 HD
ENDBRANCH   2  10
BRANCH   4  12
ATOM     12  O   UNL     1     -29.161 -55.850  56.554  1.00  0.00    -0.497 OA
ATOM     13  C   UNL     1     -29.401 -57.197  56.163  1.00  0.00     0.278 C 
ENDBRANCH   4  12
TORSDOF 3
ENDMDL
MODEL 4
REMARK VINA RESULT:    -4.099      1.650      1.853
REMARK INTER + INTRA:          -5.038
REMARK INTER:                  -4.738
REMARK INTRA:                  -0.300
REMARK UNBOUND:                -0.340
REMARK SMILES COc1ccc(C(C)=O)c(O)c1
REMARK SMILES IDX 6 1 10 2 12 3 3 4 4 5 5 6 7 7 8 8 9 9 11 10 2 12 1 13
REMARK H PARENT 11 11
REMARK Flexibility Score: inf
ROOT
ATOM      1  C   UNL     1     -27.118 -53.812  54.325  1.00  0.00     0.059 A 
ATOM      2  C   UNL     1     -26.635 -52.488  54.179  1.00  0.00     0.130 A 
ATOM      3  C   UNL     1     -26.959 -51.751  53.033  1.00  0.00     0.093 A 
ATOM      4  C   UNL     1     -27.786 -52.297  52.035  1.00  0.00     0.122 A 
ATOM      5  C   UNL     1     -28.283 -53.592  52.198  1.00  0.00     0.047 A 
ATOM      6  C   UNL     1     -27.954 -54.344  53.328  1.00  0.00     0.019 A 
ENDROOT
BRANCH   1   7
ATOM      7  C   UNL     1     -26.736 -54.664  55.476  1.00  0.00     0.163 C 
ATOM      8  C   UNL     1     -26.712 -56.157  55.358  1.00  0.00     0.093 C 
ATOM      9  O   UNL     1     -26.345 -54.134  56.550  1.00  0.00    -0.294 OA
ENDBRANCH   1   7
BRANCH   2  10
ATOM     10  O   UNL     1     -25.863 -51.861  55.161  1.00  0.00    -0.507 OA
ATOM     11  H   UNL     1     -25.230 -51.098  54.967  1.00  0.00     0.293 HD
ENDBRANCH   2  10
BRANCH   4  12
ATOM     12  O   UNL     1     -28.139 -51.589  50.877  1.00  0.00    -0.497 OA
ATOM     13  C   UNL     1     -28.763 -50.309  50.875  1.00  0.00     0.278 C 
ENDBRANCH   4  12
TORSDOF 3
ENDMDL
MODEL 5
REMARK VINA RESULT:    -4.077      1.693      4.417
REMARK INTER + INTRA:          -5.013
REMARK INTER:                  -4.706
REMARK INTRA:                  -0.307
REMARK UNBOUND:                -0.340
REMARK SMILES COc1ccc(C(C)=O)c(O)c1
REMARK SMILES IDX 6 1 10 2 12 3 3 4 4 5 5 6 7 7 8 8 9 9 11 10 2 12 1 13
REMARK H PARENT 11 11
REMARK Flexibility Score: inf
ROOT
ATOM      1  C   UNL     1     -27.870 -54.075  54.075  1.00  0.00     0.059 A 
ATOM      2  C   UNL     1     -27.143 -53.024  53.464  1.00  0.00     0.130 A 
ATOM      3  C   UNL     1     -26.394 -52.144  54.256  1.00  0.00     0.093 A 
ATOM      4  C   UNL     1     -26.328 -52.309  55.651  1.00  0.00     0.122 A 
ATOM      5  C   UNL     1     -27.023 -53.364  56.244  1.00  0.00     0.047 A 
ATOM      6  C   UNL     1     -27.787 -54.238  55.469  1.00  0.00     0.019 A 
ENDROOT
BRANCH   1   7
ATOM      7  C   UNL     1     -28.745 -54.981  53.294  1.00  0.00     0.163 C 
ATOM      8  C   UNL     1     -29.954 -55.612  53.913  1.00  0.00     0.093 C 
ATOM      9  O   UNL     1     -28.524 -55.166  52.067  1.00  0.00    -0.294 OA
ENDBRANCH   1   7
BRANCH   2  10
ATOM     10  O   UNL     1     -27.112 -52.842  52.079  1.00  0.00    -0.507 OA
ATOM     11  H   UNL     1     -26.275 -52.945  51.523  1.00  0.00     0.293 HD
ENDBRANCH   2  10
BRANCH   4  12
ATOM     12  O   UNL     1     -25.583 -51.453  56.476  1.00  0.00    -0.497 OA
ATOM     13  C   UNL     1     -25.248 -50.109  56.148  1.00  0.00     0.278 C 
ENDBRANCH   4  12
TORSDOF 3
ENDMDL
MODEL 6
REMARK VINA RESULT:    -4.041     11.192     12.975
REMARK INTER + INTRA:          -4.972
REMARK INTER:                  -4.640
REMARK INTRA:                  -0.332
REMARK UNBOUND:                -0.340
REMARK SMILES COc1ccc(C(C)=O)c(O)c1
REMARK SMILES IDX 6 1 10 2 12 3 3 4 4 5 5 6 7 7 8 8 9 9 11 10 2 12 1 13
REMARK H PARENT 11 11
REMARK Flexibility Score: inf
ROOT
ATOM      1  C   UNL     1     -30.751 -61.128  61.710  1.00  0.00     0.059 A 
ATOM      2  C   UNL     1     -30.690 -61.585  63.049  1.00  0.00     0.130 A 
ATOM      3  C   UNL     1     -31.699 -61.230  63.953  1.00  0.00     0.093 A 
ATOM      4  C   UNL     1     -32.793 -60.449  63.540  1.00  0.00     0.122 A 
ATOM      5  C   UNL     1     -32.863 -60.026  62.211  1.00  0.00     0.047 A 
ATOM      6  C   UNL     1     -31.856 -60.359  61.304  1.00  0.00     0.019 A 
ENDROOT
BRANCH   1   7
ATOM      7  C   UNL     1     -29.668 -61.404  60.736  1.00  0.00     0.163 C 
ATOM      8  C   UNL     1     -29.957 -61.518  59.271  1.00  0.00     0.093 C 
ATOM      9  O   UNL     1     -28.472 -61.464  61.126  1.00  0.00    -0.294 OA
ENDBRANCH   1   7
BRANCH   2  10
ATOM     10  O   UNL     1     -29.666 -62.417  63.510  1.00  0.00    -0.507 OA
ATOM     11  H   UNL     1     -29.318 -63.211  62.990  1.00  0.00     0.293 HD
ENDBRANCH   2  10
BRANCH   4  12
ATOM     12  O   UNL     1     -33.827 -60.078  64.413  1.00  0.00    -0.497 OA
ATOM     13  C   UNL     1     -33.655 -59.829  65.804  1.00  0.00     0.278 C 
ENDBRANCH   4  12
TORSDOF 3
ENDMDL
MODEL 7
REMARK VINA RESULT:    -4.001      2.319      3.023
REMARK INTER + INTRA:          -4.926
REMARK INTER:                  -4.583
REMARK INTRA:                  -0.343
REMARK UNBOUND:                -0.340
REMARK SMILES COc1ccc(C(C)=O)c(O)c1
REMARK SMILES IDX 6 1 10 2 12 3 3 4 4 5 5 6 7 7 8 8 9 9 11 10 2 12 1 13
REMARK H PARENT 11 11
REMARK Flexibility Score: inf
ROOT
ATOM      1  C   UNL     1     -27.278 -53.670  52.402  1.00  0.00     0.059 A 
ATOM      2  C   UNL     1     -26.855 -52.404  52.877  1.00  0.00     0.130 A 
ATOM      3  C   UNL     1     -27.461 -51.239  52.389  1.00  0.00     0.093 A 
ATOM      4  C   UNL     1     -28.508 -51.310  51.453  1.00  0.00     0.122 A 
ATOM      5  C   UNL     1     -28.940 -52.562  51.010  1.00  0.00     0.047 A 
ATOM      6  C   UNL     1     -28.334 -53.730  51.476  1.00  0.00     0.019 A 
ENDROOT
BRANCH   1   7
ATOM      7  C   UNL     1     -26.615 -54.928  52.821  1.00  0.00     0.163 C 
ATOM      8  C   UNL     1     -26.187 -55.950  51.814  1.00  0.00     0.093 C 
ATOM      9  O   UNL     1     -26.327 -55.113  54.034  1.00  0.00    -0.294 OA
ENDBRANCH   1   7
BRANCH   2  10
ATOM     10  O   UNL     1     -25.865 -52.264  53.853  1.00  0.00    -0.507 OA
ATOM     11  H   UNL     1     -24.914 -51.994  53.646  1.00  0.00     0.293 HD
ENDBRANCH   2  10
BRANCH   4  12
ATOM     12  O   UNL     1     -29.144 -50.167  50.946  1.00  0.00    -0.497 OA
ATOM     13  C   UNL     1     -30.556 -49.996  50.875  1.00  0.00     0.278 C 
ENDBRANCH   4  12
TORSDOF 3
ENDMDL
MODEL 8
REMARK VINA RESULT:    -3.984      1.998      4.849
REMARK INTER + INTRA:          -4.907
REMARK INTER:                  -4.625
REMARK INTRA:                  -0.282
REMARK UNBOUND:                -0.340
REMARK SMILES COc1ccc(C(C)=O)c(O)c1
REMARK SMILES IDX 6 1 10 2 12 3 3 4 4 5 5 6 7 7 8 8 9 9 11 10 2 12 1 13
REMARK H PARENT 11 11
REMARK Flexibility Score: inf
ROOT
ATOM      1  C   UNL     1     -27.494 -54.050  53.664  1.00  0.00     0.059 A 
ATOM      2  C   UNL     1     -27.465 -54.412  55.033  1.00  0.00     0.130 A 
ATOM      3  C   UNL     1     -26.841 -53.570  55.963  1.00  0.00     0.093 A 
ATOM      4  C   UNL     1     -26.269 -52.350  55.559  1.00  0.00     0.122 A 
ATOM      5  C   UNL     1     -26.326 -51.986  54.212  1.00  0.00     0.047 A 
ATOM      6  C   UNL     1     -26.930 -52.823  53.273  1.00  0.00     0.019 A 
ENDROOT
BRANCH   1   7
ATOM      7  C   UNL     1     -28.066 -54.943  52.628  1.00  0.00     0.163 C 
ATOM      8  C   UNL     1     -29.241 -54.517  51.803  1.00  0.00     0.093 C 
ATOM      9  O   UNL     1     -27.512 -56.046  52.373  1.00  0.00    -0.294 OA
ENDBRANCH   1   7
BRANCH   2  10
ATOM     10  O   UNL     1     -28.070 -55.577  55.513  1.00  0.00    -0.507 OA
ATOM     11  H   UNL     1     -28.418 -56.311  54.911  1.00  0.00     0.293 HD
ENDBRANCH   2  10
BRANCH   4  12
ATOM     12  O   UNL     1     -25.642 -51.477  56.460  1.00  0.00    -0.497 OA
ATOM     13  C   UNL     1     -25.289 -50.131  56.163  1.00  0.00     0.278 C 
ENDBRANCH   4  12
TORSDOF 3
ENDMDL
MODEL 9
REMARK VINA RESULT:    -3.821      2.144      4.265
REMARK INTER + INTRA:          -4.720
REMARK INTER:                  -4.408
REMARK INTRA:                  -0.312
REMARK UNBOUND:                -0.340
REMARK SMILES COc1ccc(C(C)=O)c(O)c1
REMARK SMILES IDX 6 1 10 2 12 3 3 4 4 5 5 6 7 7 8 8 9 9 11 10 2 12 1 13
REMARK H PARENT 11 11
REMARK Flexibility Score: inf
ROOT
ATOM      1  C   UNL     1     -28.076 -52.231  51.896  1.00  0.00     0.059 A 
ATOM      2  C   UNL     1     -27.036 -52.266  52.858  1.00  0.00     0.130 A 
ATOM      3  C   UNL     1     -26.684 -53.481  53.459  1.00  0.00     0.093 A 
ATOM      4  C   UNL     1     -27.329 -54.678  53.097  1.00  0.00     0.122 A 
ATOM      5  C   UNL     1     -28.333 -54.642  52.127  1.00  0.00     0.047 A 
ATOM      6  C   UNL     1     -28.705 -53.435  51.532  1.00  0.00     0.019 A 
ENDROOT
BRANCH   1   7
ATOM      7  C   UNL     1     -28.544 -50.962  51.292  1.00  0.00     0.163 C 
ATOM      8  C   UNL     1     -29.972 -50.784  50.875  1.00  0.00     0.093 C 
ATOM      9  O   UNL     1     -27.758 -49.981  51.200  1.00  0.00    -0.294 OA
ENDBRANCH   1   7
BRANCH   2  10
ATOM     10  O   UNL     1     -26.311 -51.127  53.217  1.00  0.00    -0.507 OA
ATOM     11  H   UNL     1     -26.506 -50.583  54.046  1.00  0.00     0.293 HD
ENDBRANCH   2  10
BRANCH   4  12
ATOM     12  O   UNL     1     -27.001 -55.915  53.671  1.00  0.00    -0.497 OA
ATOM     13  C   UNL     1     -26.321 -56.071  54.913  1.00  0.00     0.278 C 
ENDBRANCH   4  12
TORSDOF 3
ENDMDL
