MODEL 1
REMARK VINA RESULT:    -3.531      0.000      0.000
REMARK INTER + INTRA:          -4.508
REMARK INTER:                  -4.460
REMARK INTRA:                  -0.048
REMARK UNBOUND:                -0.048
REMARK SMILES CCCCCCO
REMARK SMILES IDX 4 1 3 2 2 3 1 4 5 5 6 6 7 7
REMARK H PARENT 7 8
REMARK Flexibility Score: inf
ROOT
ATOM      1  C   UNL     1       8.005 -23.387  56.114  1.00  0.00     0.002 C 
ENDROOT
BRANCH   1   2
ATOM      2  C   UNL     1       8.715 -22.035  56.282  1.00  0.00    -0.000 C 
BRANCH   2   3
ATOM      3  C   UNL     1       7.729 -20.948  56.722  1.00  0.00    -0.003 C 
ATOM      4  C   UNL     1       8.378 -19.979  57.705  1.00  0.00     0.004 C 
ENDBRANCH   2   3
ENDBRANCH   1   2
BRANCH   1   5
ATOM      5  C   UNL     1       8.002 -23.887  54.660  1.00  0.00     0.028 C 
BRANCH   5   6
ATOM      6  C   UNL     1       8.902 -25.107  54.431  1.00  0.00     0.156 C 
BRANCH   6   7
ATOM      7  O   UNL     1       9.864 -25.199  55.444  1.00  0.00    -0.396 OA
ATOM      8  H   UNL     1       9.523 -24.652  56.199  1.00  0.00     0.210 HD
ENDBRANCH   6   7
ENDBRANCH   5   6
ENDBRANCH   1   5
TORSDOF 5
ENDMDL
MODEL 2
REMARK VINA RESULT:    -3.420      2.940      6.079
REMARK INTER + INTRA:          -4.367
REMARK INTER:                  -4.312
REMARK INTRA:                  -0.055
REMARK UNBOUND:                -0.048
REMARK SMILES CCCCCCO
REMARK SMILES IDX 4 1 3 2 2 3 1 4 5 5 6 6 7 7
REMARK H PARENT 7 8
REMARK Flexibility Score: inf
ROOT
ATOM      1  C   UNL     1       8.646 -26.491  53.378  1.00  0.00     0.002 C 
ENDROOT
BRANCH   1   2
ATOM      2  C   UNL     1       8.278 -26.832  51.926  1.00  0.00    -0.000 C 
BRANCH   2   3
ATOM      3  C   UNL     1       8.869 -28.185  51.513  1.00  0.00    -0.003 C 
ATOM      4  C   UNL     1      10.221 -28.012  50.830  1.00  0.00     0.004 C 
ENDBRANCH   2   3
ENDBRANCH   1   2
BRANCH   1   5
ATOM      5  C   UNL     1       8.313 -25.038  53.757  1.00  0.00     0.028 C 
BRANCH   5   6
ATOM      6  C   UNL     1       9.064 -24.543  54.998  1.00  0.00     0.156 C 
BRANCH   6   7
ATOM      7  O   UNL     1      10.045 -25.467  55.376  1.00  0.00    -0.396 OA
ATOM      8  H   UNL     1       9.989 -26.212  54.722  1.00  0.00     0.210 HD
ENDBRANCH   6   7
ENDBRANCH   5   6
ENDBRANCH   1   5
TORSDOF 5
ENDMDL
MODEL 3
REMARK VINA RESULT:    -3.288      1.673      2.742
REMARK INTER + INTRA:          -4.201
REMARK INTER:                  -4.007
REMARK INTRA:                  -0.194
REMARK UNBOUND:                -0.048
REMARK SMILES CCCCCCO
REMARK SMILES IDX 4 1 3 2 2 3 1 4 5 5 6 6 7 7
REMARK H PARENT 7 8
REMARK Flexibility Score: inf
ROOT
ATOM      1  C   UNL     1       8.624 -24.471  52.832  1.00  0.00     0.002 C 
ENDROOT
BRANCH   1   2
ATOM      2  C   UNL     1       7.877 -23.308  53.501  1.00  0.00    -0.000 C 
BRANCH   2   3
ATOM      3  C   UNL     1       7.439 -23.682  54.922  1.00  0.00    -0.003 C 
ATOM      4  C   UNL     1       8.210 -22.881  55.966  1.00  0.00     0.004 C 
ENDBRANCH   2   3
ENDBRANCH   1   2
BRANCH   1   5
ATOM      5  C   UNL     1       8.493 -25.794  53.605  1.00  0.00     0.028 C 
BRANCH   5   6
ATOM      6  C   UNL     1       9.835 -26.355  54.090  1.00  0.00     0.156 C 
BRANCH   6   7
ATOM      7  O   UNL     1      10.212 -25.745  55.292  1.00  0.00    -0.396 OA
ATOM      8  H   UNL     1      10.324 -26.479  55.951  1.00  0.00     0.210 HD
ENDBRANCH   6   7
ENDBRANCH   5   6
ENDBRANCH   1   5
TORSDOF 5
ENDMDL
MODEL 4
REMARK VINA RESULT:    -3.267      2.699      4.706
REMARK INTER + INTRA:          -4.174
REMARK INTER:                  -3.975
REMARK INTRA:                  -0.198
REMARK UNBOUND:                -0.048
REMARK SMILES CCCCCCO
REMARK SMILES IDX 4 1 3 2 2 3 1 4 5 5 6 6 7 7
REMARK H PARENT 7 8
REMARK Flexibility Score: inf
ROOT
ATOM      1  C   UNL     1       8.749 -24.432  55.122  1.00  0.00     0.002 C 
ENDROOT
BRANCH   1   2
ATOM      2  C   UNL     1       9.322 -25.290  53.984  1.00  0.00    -0.000 C 
BRANCH   2   3
ATOM      3  C   UNL     1       8.217 -26.102  53.300  1.00  0.00    -0.003 C 
ATOM      4  C   UNL     1       8.185 -25.837  51.798  1.00  0.00     0.004 C 
ENDBRANCH   2   3
ENDBRANCH   1   2
BRANCH   1   5
ATOM      5  C   UNL     1       8.849 -22.922  54.846  1.00  0.00     0.028 C 
BRANCH   5   6
ATOM      6  C   UNL     1       8.085 -22.478  53.593  1.00  0.00     0.156 C 
BRANCH   6   7
ATOM      7  O   UNL     1       6.738 -22.848  53.687  1.00  0.00    -0.396 OA
ATOM      8  H   UNL     1       6.477 -22.699  54.634  1.00  0.00     0.210 HD
ENDBRANCH   6   7
ENDBRANCH   5   6
ENDBRANCH   1   5
TORSDOF 5
ENDMDL
MODEL 5
REMARK VINA RESULT:    -3.225      1.966      4.511
REMARK INTER + INTRA:          -4.122
REMARK INTER:                  -4.036
REMARK INTRA:                  -0.086
REMARK UNBOUND:                -0.048
REMARK SMILES CCCCCCO
REMARK SMILES IDX 4 1 3 2 2 3 1 4 5 5 6 6 7 7
REMARK H PARENT 7 8
REMARK Flexibility Score: inf
ROOT
ATOM      1  C   UNL     1       8.700 -24.683  54.758  1.00  0.00     0.002 C 
ENDROOT
BRANCH   1   2
ATOM      2  C   UNL     1       8.450 -24.077  53.369  1.00  0.00    -0.000 C 
BRANCH   2   3
ATOM      3  C   UNL     1       8.266 -25.175  52.316  1.00  0.00    -0.003 C 
ATOM      4  C   UNL     1       8.176 -26.553  52.965  1.00  0.00     0.004 C 
ENDBRANCH   2   3
ENDBRANCH   1   2
BRANCH   1   5
ATOM      5  C   UNL     1       8.254 -23.760  55.905  1.00  0.00     0.028 C 
BRANCH   5   6
ATOM      6  C   UNL     1       8.963 -22.401  55.907  1.00  0.00     0.156 C 
BRANCH   6   7
ATOM      7  O   UNL     1       9.741 -22.259  57.063  1.00  0.00    -0.396 OA
ATOM      8  H   UNL     1       9.101 -22.172  57.817  1.00  0.00     0.210 HD
ENDBRANCH   6   7
ENDBRANCH   5   6
ENDBRANCH   1   5
TORSDOF 5
ENDMDL
MODEL 6
REMARK VINA RESULT:    -3.172      3.337      5.869
REMARK INTER + INTRA:          -4.054
REMARK INTER:                  -3.960
REMARK INTRA:                  -0.095
REMARK UNBOUND:                -0.048
REMARK SMILES CCCCCCO
REMARK SMILES IDX 4 1 3 2 2 3 1 4 5 5 6 6 7 7
REMARK H PARENT 7 8
REMARK Flexibility Score: inf
ROOT
ATOM      1  C   UNL     1       8.285 -25.202  52.004  1.00  0.00     0.002 C 
ENDROOT
BRANCH   1   2
ATOM      2  C   UNL     1       8.198 -26.316  53.057  1.00  0.00    -0.000 C 
BRANCH   2   3
ATOM      3  C   UNL     1       9.244 -27.405  52.793  1.00  0.00    -0.003 C 
ATOM      4  C   UNL     1       8.950 -28.150  51.496  1.00  0.00     0.004 C 
ENDBRANCH   2   3
ENDBRANCH   1   2
BRANCH   1   5
ATOM      5  C   UNL     1       8.621 -23.828  52.608  1.00  0.00     0.028 C 
BRANCH   5   6
ATOM      6  C   UNL     1       7.899 -23.549  53.932  1.00  0.00     0.156 C 
BRANCH   6   7
ATOM      7  O   UNL     1       6.702 -22.861  53.698  1.00  0.00    -0.396 OA
ATOM      8  H   UNL     1       6.109 -23.496  53.218  1.00  0.00     0.210 HD
ENDBRANCH   6   7
ENDBRANCH   5   6
ENDBRANCH   1   5
TORSDOF 5
ENDMDL
MODEL 7
REMARK VINA RESULT:    -3.154      3.826      4.276
REMARK INTER + INTRA:          -4.032
REMARK INTER:                  -3.899
REMARK INTRA:                  -0.133
REMARK UNBOUND:                -0.048
REMARK SMILES CCCCCCO
REMARK SMILES IDX 4 1 3 2 2 3 1 4 5 5 6 6 7 7
REMARK H PARENT 7 8
REMARK Flexibility Score: inf
ROOT
ATOM      1  C   UNL     1       8.346 -25.967  53.384  1.00  0.00     0.002 C 
ENDROOT
BRANCH   1   2
ATOM      2  C   UNL     1       8.385 -25.074  52.135  1.00  0.00    -0.000 C 
BRANCH   2   3
ATOM      3  C   UNL     1       9.277 -23.849  52.363  1.00  0.00    -0.003 C 
ATOM      4  C   UNL     1       8.508 -22.553  52.127  1.00  0.00     0.004 C 
ENDBRANCH   2   3
ENDBRANCH   1   2
BRANCH   1   5
ATOM      5  C   UNL     1       9.441 -27.047  53.385  1.00  0.00     0.028 C 
BRANCH   5   6
ATOM      6  C   UNL     1      10.472 -26.871  54.506  1.00  0.00     0.156 C 
BRANCH   6   7
ATOM      7  O   UNL     1      10.187 -25.723  55.255  1.00  0.00    -0.396 OA
ATOM      8  H   UNL     1      10.775 -25.762  56.054  1.00  0.00     0.210 HD
ENDBRANCH   6   7
ENDBRANCH   5   6
ENDBRANCH   1   5
TORSDOF 5
ENDMDL
MODEL 8
REMARK VINA RESULT:    -3.003      5.485      6.354
REMARK INTER + INTRA:          -3.840
REMARK INTER:                  -3.672
REMARK INTRA:                  -0.168
REMARK UNBOUND:                -0.048
REMARK SMILES CCCCCCO
REMARK SMILES IDX 4 1 3 2 2 3 1 4 5 5 6 6 7 7
REMARK H PARENT 7 8
REMARK Flexibility Score: inf
ROOT
ATOM      1  C   UNL     1      10.881 -26.747  52.371  1.00  0.00     0.002 C 
ENDROOT
BRANCH   1   2
ATOM      2  C   UNL     1      10.295 -27.780  51.398  1.00  0.00    -0.000 C 
BRANCH   2   3
ATOM      3  C   UNL     1       8.778 -27.904  51.577  1.00  0.00    -0.003 C 
ATOM      4  C   UNL     1       8.167 -26.587  52.044  1.00  0.00     0.004 C 
ENDBRANCH   2   3
ENDBRANCH   1   2
BRANCH   1   5
ATOM      5  C   UNL     1      11.665 -27.389  53.528  1.00  0.00     0.028 C 
BRANCH   5   6
ATOM      6  C   UNL     1      10.877 -27.450  54.842  1.00  0.00     0.156 C 
BRANCH   6   7
ATOM      7  O   UNL     1      10.537 -26.160  55.267  1.00  0.00    -0.396 OA
ATOM      8  H   UNL     1      10.594 -26.172  56.258  1.00  0.00     0.210 HD
ENDBRANCH   6   7
ENDBRANCH   5   6
ENDBRANCH   1   5
TORSDOF 5
ENDMDL
MODEL 9
REMARK VINA RESULT:    -2.960      2.850      3.940
REMARK INTER + INTRA:          -3.787
REMARK INTER:                  -3.712
REMARK INTRA:                  -0.075
REMARK UNBOUND:                -0.048
REMARK SMILES CCCCCCO
REMARK SMILES IDX 4 1 3 2 2 3 1 4 5 5 6 6 7 7
REMARK H PARENT 7 8
REMARK Flexibility Score: inf
ROOT
ATOM      1  C   UNL     1       8.278 -24.828  52.770  1.00  0.00     0.002 C 
ENDROOT
BRANCH   1   2
ATOM      2  C   UNL     1       8.776 -25.277  54.152  1.00  0.00    -0.000 C 
BRANCH   2   3
ATOM      3  C   UNL     1       9.066 -24.068  55.050  1.00  0.00    -0.003 C 
ATOM      4  C   UNL     1       7.811 -23.619  55.792  1.00  0.00     0.004 C 
ENDBRANCH   2   3
ENDBRANCH   1   2
BRANCH   1   5
ATOM      5  C   UNL     1       8.237 -25.974  51.745  1.00  0.00     0.028 C 
BRANCH   5   6
ATOM      6  C   UNL     1       8.864 -27.276  52.258  1.00  0.00     0.156 C 
BRANCH   6   7
ATOM      7  O   UNL     1       8.142 -28.381  51.792  1.00  0.00    -0.396 OA
ATOM      8  H   UNL     1       8.787 -29.135  51.753  1.00  0.00     0.210 HD
ENDBRANCH   6   7
ENDBRANCH   5   6
ENDBRANCH   1   5
TORSDOF 5
ENDMDL
