MODEL 1
REMARK VINA RESULT:    -4.612      0.000      0.000
REMARK INTER + INTRA:          -5.832
REMARK INTER:                  -5.691
REMARK INTRA:                  -0.142
REMARK UNBOUND:                -0.142
REMARK SMILES CCCCCC(=O)[O-]
REMARK SMILES IDX 4 1 5 2 6 3 7 4 8 5 3 6 2 7 1 8
REMARK H PARENT
REMARK Flexibility Score: inf
ROOT
ATOM      1  C   UNL     1      -6.798 -13.106  -3.966  1.00  0.00     0.006 C 
ENDROOT
BRANCH   1   2
ATOM      2  C   UNL     1      -7.115 -13.993  -5.178  1.00  0.00     0.053 C 
BRANCH   2   3
ATOM      3  C   UNL     1      -8.526 -13.810  -5.647  1.00  0.00     0.041 C 
ATOM      4  O   UNL     1      -9.324 -14.783  -5.649  1.00  0.00    -0.550 OA
ATOM      5  O   UNL     1      -8.949 -12.571  -6.114  1.00  0.00    -0.550 OA
ENDBRANCH   2   3
ENDBRANCH   1   2
BRANCH   1   6
ATOM      6  C   UNL     1      -6.508 -13.930  -2.703  1.00  0.00     0.000 C 
BRANCH   6   7
ATOM      7  C   UNL     1      -6.556 -15.433  -3.006  1.00  0.00    -0.003 C 
ATOM      8  C   UNL     1      -5.443 -16.178  -2.274  1.00  0.00     0.004 C 
ENDBRANCH   6   7
ENDBRANCH   1   6
TORSDOF 4
ENDMDL
MODEL 2
REMARK VINA RESULT:    -4.611     11.180     12.531
REMARK INTER + INTRA:          -5.831
REMARK INTER:                  -5.692
REMARK INTRA:                  -0.139
REMARK UNBOUND:                -0.142
REMARK SMILES CCCCCC(=O)[O-]
REMARK SMILES IDX 4 1 5 2 6 3 7 4 8 5 3 6 2 7 1 8
REMARK H PARENT
REMARK Flexibility Score: inf
ROOT
ATOM      1  C   UNL     1      -9.168  -2.291  -8.953  1.00  0.00     0.006 C 
ENDROOT
BRANCH   1   2
ATOM      2  C   UNL     1     -10.398  -1.915  -9.791  1.00  0.00     0.053 C 
BRANCH   2   3
ATOM      3  C   UNL     1     -11.673  -2.123  -9.032  1.00  0.00     0.041 C 
ATOM      4  O   UNL     1     -12.577  -1.248  -9.061  1.00  0.00    -0.550 OA
ATOM      5  O   UNL     1     -11.847  -3.269  -8.266  1.00  0.00    -0.550 OA
ENDBRANCH   2   3
ENDBRANCH   1   2
BRANCH   1   6
ATOM      6  C   UNL     1      -8.434  -3.517  -9.516  1.00  0.00     0.000 C 
BRANCH   6   7
ATOM      7  C   UNL     1      -8.597  -4.728  -8.588  1.00  0.00    -0.003 C 
ATOM      8  C   UNL     1      -8.108  -6.007  -9.261  1.00  0.00     0.004 C 
ENDBRANCH   6   7
ENDBRANCH   1   6
TORSDOF 4
ENDMDL
MODEL 3
REMARK VINA RESULT:    -4.570      1.333      1.917
REMARK INTER + INTRA:          -5.780
REMARK INTER:                  -5.653
REMARK INTRA:                  -0.128
REMARK UNBOUND:                -0.142
REMARK SMILES CCCCCC(=O)[O-]
REMARK SMILES IDX 4 1 5 2 6 3 7 4 8 5 3 6 2 7 1 8
REMARK H PARENT
REMARK Flexibility Score: inf
ROOT
ATOM      1  C   UNL     1      -7.536 -15.645  -4.430  1.00  0.00     0.006 C 
ENDROOT
BRANCH   1   2
ATOM      2  C   UNL     1      -7.276 -14.735  -5.639  1.00  0.00     0.053 C 
BRANCH   2   3
ATOM      3  C   UNL     1      -7.602 -13.304  -5.338  1.00  0.00     0.041 C 
ATOM      4  O   UNL     1      -6.844 -12.623  -4.600  1.00  0.00    -0.550 OA
ATOM      5  O   UNL     1      -8.763 -12.733  -5.848  1.00  0.00    -0.550 OA
ENDBRANCH   2   3
ENDBRANCH   1   2
BRANCH   1   6
ATOM      6  C   UNL     1      -6.237 -16.227  -3.852  1.00  0.00     0.000 C 
BRANCH   6   7
ATOM      7  C   UNL     1      -5.951 -15.654  -2.459  1.00  0.00    -0.003 C 
ATOM      8  C   UNL     1      -4.657 -16.223  -1.884  1.00  0.00     0.004 C 
ENDBRANCH   6   7
ENDBRANCH   1   6
TORSDOF 4
ENDMDL
MODEL 4
REMARK VINA RESULT:    -4.484     11.815     13.142
REMARK INTER + INTRA:          -5.674
REMARK INTER:                  -5.559
REMARK INTRA:                  -0.115
REMARK UNBOUND:                -0.142
REMARK SMILES CCCCCC(=O)[O-]
REMARK SMILES IDX 4 1 5 2 6 3 7 4 8 5 3 6 2 7 1 8
REMARK H PARENT
REMARK Flexibility Score: inf
ROOT
ATOM      1  C   UNL     1      -9.826  -1.906  -9.193  1.00  0.00     0.006 C 
ENDROOT
BRANCH   1   2
ATOM      2  C   UNL     1     -11.289  -1.884  -9.657  1.00  0.00     0.053 C 
BRANCH   2   3
ATOM      3  C   UNL     1     -12.239  -1.987  -8.503  1.00  0.00     0.041 C 
ATOM      4  O   UNL     1     -12.375  -3.078  -7.890  1.00  0.00    -0.550 OA
ATOM      5  O   UNL     1     -13.000  -0.886  -8.127  1.00  0.00    -0.550 OA
ENDBRANCH   2   3
ENDBRANCH   1   2
BRANCH   1   6
ATOM      6  C   UNL     1      -9.129  -3.232  -9.535  1.00  0.00     0.000 C 
BRANCH   6   7
ATOM      7  C   UNL     1      -8.114  -3.613  -8.450  1.00  0.00    -0.003 C 
ATOM      8  C   UNL     1      -7.401  -2.379  -7.905  1.00  0.00     0.004 C 
ENDBRANCH   6   7
ENDBRANCH   1   6
TORSDOF 4
ENDMDL
MODEL 5
REMARK VINA RESULT:    -4.459      2.679      3.676
REMARK INTER + INTRA:          -5.643
REMARK INTER:                  -5.545
REMARK INTRA:                  -0.099
REMARK UNBOUND:                -0.142
REMARK SMILES CCCCCC(=O)[O-]
REMARK SMILES IDX 4 1 5 2 6 3 7 4 8 5 3 6 2 7 1 8
REMARK H PARENT
REMARK Flexibility Score: inf
ROOT
ATOM      1  C   UNL     1      -6.499 -15.964  -3.737  1.00  0.00     0.006 C 
ENDROOT
BRANCH   1   2
ATOM      2  C   UNL     1      -7.553 -17.061  -3.537  1.00  0.00     0.053 C 
BRANCH   2   3
ATOM      3  C   UNL     1      -7.722 -17.900  -4.767  1.00  0.00     0.041 C 
ATOM      4  O   UNL     1      -8.842 -18.407  -5.039  1.00  0.00    -0.550 OA
ATOM      5  O   UNL     1      -6.633 -18.150  -5.594  1.00  0.00    -0.550 OA
ENDBRANCH   2   3
ENDBRANCH   1   2
BRANCH   1   6
ATOM      6  C   UNL     1      -6.359 -15.062  -2.501  1.00  0.00     0.000 C 
BRANCH   6   7
ATOM      7  C   UNL     1      -6.463 -13.581  -2.889  1.00  0.00    -0.003 C 
ATOM      8  C   UNL     1      -6.943 -13.421  -4.328  1.00  0.00     0.004 C 
ENDBRANCH   6   7
ENDBRANCH   1   6
TORSDOF 4
ENDMDL
MODEL 6
REMARK VINA RESULT:    -4.438     10.763     12.423
REMARK INTER + INTRA:          -5.617
REMARK INTER:                  -5.492
REMARK INTRA:                  -0.126
REMARK UNBOUND:                -0.142
REMARK SMILES CCCCCC(=O)[O-]
REMARK SMILES IDX 4 1 5 2 6 3 7 4 8 5 3 6 2 7 1 8
REMARK H PARENT
REMARK Flexibility Score: inf
ROOT
ATOM      1  C   UNL     1      -8.914  -2.686  -8.796  1.00  0.00     0.006 C 
ENDROOT
BRANCH   1   2
ATOM      2  C   UNL     1      -8.344  -3.797  -9.688  1.00  0.00     0.053 C 
BRANCH   2   3
ATOM      3  C   UNL     1      -8.422  -5.138  -9.024  1.00  0.00     0.041 C 
ATOM      4  O   UNL     1      -8.879  -5.240  -7.856  1.00  0.00    -0.550 OA
ATOM      5  O   UNL     1      -7.958  -6.270  -9.685  1.00  0.00    -0.550 OA
ENDBRANCH   2   3
ENDBRANCH   1   2
BRANCH   1   6
ATOM      6  C   UNL     1     -10.131  -1.997  -9.432  1.00  0.00     0.000 C 
BRANCH   6   7
ATOM      7  C   UNL     1     -11.435  -2.483  -8.786  1.00  0.00    -0.003 C 
ATOM      8  C   UNL     1     -12.639  -1.732  -9.345  1.00  0.00     0.004 C 
ENDBRANCH   6   7
ENDBRANCH   1   6
TORSDOF 4
ENDMDL
MODEL 7
REMARK VINA RESULT:    -4.262      2.252      3.133
REMARK INTER + INTRA:          -5.400
REMARK INTER:                  -5.158
REMARK INTRA:                  -0.242
REMARK UNBOUND:                -0.142
REMARK SMILES CCCCCC(=O)[O-]
REMARK SMILES IDX 4 1 5 2 6 3 7 4 8 5 3 6 2 7 1 8
REMARK H PARENT
REMARK Flexibility Score: inf
ROOT
ATOM      1  C   UNL     1      -8.227 -14.256  -5.611  1.00  0.00     0.006 C 
ENDROOT
BRANCH   1   2
ATOM      2  C   UNL     1      -8.023 -15.631  -6.261  1.00  0.00     0.053 C 
BRANCH   2   3
ATOM      3  C   UNL     1      -7.521 -16.643  -5.278  1.00  0.00     0.041 C 
ATOM      4  O   UNL     1      -8.219 -16.955  -4.277  1.00  0.00    -0.550 OA
ATOM      5  O   UNL     1      -6.267 -17.217  -5.448  1.00  0.00    -0.550 OA
ENDBRANCH   2   3
ENDBRANCH   1   2
BRANCH   1   6
ATOM      6  C   UNL     1      -6.897 -13.527  -5.367  1.00  0.00     0.000 C 
BRANCH   6   7
ATOM      7  C   UNL     1      -6.870 -12.889  -3.972  1.00  0.00    -0.003 C 
ATOM      8  C   UNL     1      -6.499 -13.915  -2.905  1.00  0.00     0.004 C 
ENDBRANCH   6   7
ENDBRANCH   1   6
TORSDOF 4
ENDMDL
MODEL 8
REMARK VINA RESULT:    -4.246     12.265     13.685
REMARK INTER + INTRA:          -5.381
REMARK INTER:                  -5.273
REMARK INTRA:                  -0.108
REMARK UNBOUND:                -0.142
REMARK SMILES CCCCCC(=O)[O-]
REMARK SMILES IDX 4 1 5 2 6 3 7 4 8 5 3 6 2 7 1 8
REMARK H PARENT
REMARK Flexibility Score: inf
ROOT
ATOM      1  C   UNL     1     -11.218  -2.633  -8.751  1.00  0.00     0.006 C 
ENDROOT
BRANCH   1   2
ATOM      2  C   UNL     1     -12.305  -1.556  -8.626  1.00  0.00     0.053 C 
BRANCH   2   3
ATOM      3  C   UNL     1     -13.317  -1.658  -9.726  1.00  0.00     0.041 C 
ATOM      4  O   UNL     1     -13.077  -1.160 -10.857  1.00  0.00    -0.550 OA
ATOM      5  O   UNL     1     -14.540  -2.275  -9.490  1.00  0.00    -0.550 OA
ENDBRANCH   2   3
ENDBRANCH   1   2
BRANCH   1   6
ATOM      6  C   UNL     1      -9.989  -2.132  -9.524  1.00  0.00     0.000 C 
BRANCH   6   7
ATOM      7  C   UNL     1      -8.765  -3.011  -9.239  1.00  0.00    -0.003 C 
ATOM      8  C   UNL     1      -9.151  -4.247  -8.433  1.00  0.00     0.004 C 
ENDBRANCH   6   7
ENDBRANCH   1   6
TORSDOF 4
ENDMDL
MODEL 9
REMARK VINA RESULT:    -4.228      2.645      3.850
REMARK INTER + INTRA:          -5.359
REMARK INTER:                  -5.094
REMARK INTRA:                  -0.264
REMARK UNBOUND:                -0.142
REMARK SMILES CCCCCC(=O)[O-]
REMARK SMILES IDX 4 1 5 2 6 3 7 4 8 5 3 6 2 7 1 8
REMARK H PARENT
REMARK Flexibility Score: inf
ROOT
ATOM      1  C   UNL     1      -7.708 -15.812  -6.065  1.00  0.00     0.006 C 
ENDROOT
BRANCH   1   2
ATOM      2  C   UNL     1      -6.738 -16.474  -5.077  1.00  0.00     0.053 C 
BRANCH   2   3
ATOM      3  C   UNL     1      -7.411 -16.819  -3.784  1.00  0.00     0.041 C 
ATOM      4  O   UNL     1      -7.034 -16.280  -2.710  1.00  0.00    -0.550 OA
ATOM      5  O   UNL     1      -8.433 -17.761  -3.760  1.00  0.00    -0.550 OA
ENDBRANCH   2   3
ENDBRANCH   1   2
BRANCH   1   6
ATOM      6  C   UNL     1      -8.141 -14.412  -5.604  1.00  0.00     0.000 C 
BRANCH   6   7
ATOM      7  C   UNL     1      -6.926 -13.490  -5.437  1.00  0.00    -0.003 C 
ATOM      8  C   UNL     1      -6.877 -12.893  -4.034  1.00  0.00     0.004 C 
ENDBRANCH   6   7
ENDBRANCH   1   6
TORSDOF 4
ENDMDL
