MODEL 1
REMARK VINA RESULT:    -4.794      0.000      0.000
REMARK INTER + INTRA:          -8.300
REMARK INTER:                  -7.316
REMARK INTRA:                  -0.984
REMARK UNBOUND:                -0.984
REMARK SMILES CCCCCCCCCCC(=O)[O-]
REMARK SMILES IDX 7 1 8 2 9 3 10 4 11 5 12 6 13 7 6 8 5 9 4 10 3 11 2 12 1 13
REMARK H PARENT
REMARK Flexibility Score: inf
ROOT
ATOM      1  C   UNL     1      12.669 -23.100  20.243  1.00  0.00     0.000 C 
ENDROOT
BRANCH   1   2
ATOM      2  C   UNL     1      12.144 -24.432  20.810  1.00  0.00     0.000 C 
BRANCH   2   3
ATOM      3  C   UNL     1      11.291 -24.249  22.073  1.00  0.00     0.006 C 
BRANCH   3   4
ATOM      4  C   UNL     1       9.912 -24.893  21.901  1.00  0.00     0.053 C 
BRANCH   4   5
ATOM      5  C   UNL     1       8.982 -24.438  22.981  1.00  0.00     0.041 C 
ATOM      6  O   UNL     1       7.814 -24.065  22.696  1.00  0.00    -0.550 OA
ATOM      7  O   UNL     1       9.422 -24.377  24.297  1.00  0.00    -0.550 OA
ENDBRANCH   4   5
ENDBRANCH   3   4
ENDBRANCH   2   3
ENDBRANCH   1   2
BRANCH   1   8
ATOM      8  C   UNL     1      14.199 -23.016  20.098  1.00  0.00     0.000 C 
BRANCH   8   9
ATOM      9  C   UNL     1      14.942 -24.050  20.963  1.00  0.00    -0.000 C 
BRANCH   9  10
ATOM     10  C   UNL     1      15.613 -23.404  22.194  1.00  0.00    -0.000 C 
BRANCH  10  11
ATOM     11  C   UNL     1      14.666 -23.241  23.395  1.00  0.00    -0.000 C 
BRANCH  11  12
ATOM     12  C   UNL     1      14.268 -21.782  23.649  1.00  0.00    -0.003 C 
ATOM     13  C   UNL     1      12.846 -21.687  24.195  1.00  0.00     0.004 C 
ENDBRANCH  11  12
ENDBRANCH  10  11
ENDBRANCH   9  10
ENDBRANCH   8   9
ENDBRANCH   1   8
TORSDOF 9
ENDMDL
MODEL 2
REMARK VINA RESULT:    -4.688      1.594      2.672
REMARK INTER + INTRA:          -8.137
REMARK INTER:                  -7.354
REMARK INTRA:                  -0.784
REMARK UNBOUND:                -0.984
REMARK SMILES CCCCCCCCCCC(=O)[O-]
REMARK SMILES IDX 7 1 8 2 9 3 10 4 11 5 12 6 13 7 6 8 5 9 4 10 3 11 2 12 1 13
REMARK H PARENT
REMARK Flexibility Score: inf
ROOT
ATOM      1  C   UNL     1      11.019 -24.869  21.405  1.00  0.00     0.000 C 
ENDROOT
BRANCH   1   2
ATOM      2  C   UNL     1      10.880 -24.026  22.686  1.00  0.00     0.000 C 
BRANCH   2   3
ATOM      3  C   UNL     1       9.650 -24.407  23.521  1.00  0.00     0.006 C 
BRANCH   3   4
ATOM      4  C   UNL     1       9.470 -23.446  24.701  1.00  0.00     0.053 C 
BRANCH   4   5
ATOM      5  C   UNL     1       9.922 -24.089  25.974  1.00  0.00     0.041 C 
ATOM      6  O   UNL     1      10.707 -23.479  26.748  1.00  0.00    -0.550 OA
ATOM      7  O   UNL     1       9.516 -25.381  26.283  1.00  0.00    -0.550 OA
ENDBRANCH   4   5
ENDBRANCH   3   4
ENDBRANCH   2   3
ENDBRANCH   1   2
BRANCH   1   8
ATOM      8  C   UNL     1      12.364 -24.717  20.672  1.00  0.00     0.000 C 
BRANCH   8   9
ATOM      9  C   UNL     1      12.687 -23.257  20.306  1.00  0.00    -0.000 C 
BRANCH   9  10
ATOM     10  C   UNL     1      14.206 -22.984  20.284  1.00  0.00    -0.000 C 
BRANCH  10  11
ATOM     11  C   UNL     1      14.858 -23.031  21.676  1.00  0.00    -0.000 C 
BRANCH  11  12
ATOM     12  C   UNL     1      14.143 -22.142  22.701  1.00  0.00    -0.003 C 
ATOM     13  C   UNL     1      14.016 -22.847  24.048  1.00  0.00     0.004 C 
ENDBRANCH  11  12
ENDBRANCH  10  11
ENDBRANCH   9  10
ENDBRANCH   8   9
ENDBRANCH   1   8
TORSDOF 9
ENDMDL
MODEL 3
REMARK VINA RESULT:    -4.663      1.521      3.340
REMARK INTER + INTRA:          -8.100
REMARK INTER:                  -7.029
REMARK INTRA:                  -1.072
REMARK UNBOUND:                -0.984
REMARK SMILES CCCCCCCCCCC(=O)[O-]
REMARK SMILES IDX 7 1 8 2 9 3 10 4 11 5 12 6 13 7 6 8 5 9 4 10 3 11 2 12 1 13
REMARK H PARENT
REMARK Flexibility Score: inf
ROOT
ATOM      1  C   UNL     1      13.995 -22.674  24.344  1.00  0.00     0.000 C 
ENDROOT
BRANCH   1   2
ATOM      2  C   UNL     1      12.634 -23.362  24.556  1.00  0.00     0.000 C 
BRANCH   2   3
ATOM      3  C   UNL     1      11.456 -22.530  24.030  1.00  0.00     0.006 C 
BRANCH   3   4
ATOM      4  C   UNL     1      10.299 -22.521  25.035  1.00  0.00     0.053 C 
BRANCH   4   5
ATOM      5  C   UNL     1       9.837 -23.916  25.315  1.00  0.00     0.041 C 
ATOM      6  O   UNL     1       9.338 -24.615  24.394  1.00  0.00    -0.550 OA
ATOM      7  O   UNL     1       9.911 -24.428  26.604  1.00  0.00    -0.550 OA
ENDBRANCH   4   5
ENDBRANCH   3   4
ENDBRANCH   2   3
ENDBRANCH   1   2
BRANCH   1   8
ATOM      8  C   UNL     1      14.198 -22.055  22.949  1.00  0.00     0.000 C 
BRANCH   8   9
ATOM      9  C   UNL     1      14.853 -23.026  21.951  1.00  0.00    -0.000 C 
BRANCH   9  10
ATOM     10  C   UNL     1      14.277 -22.874  20.527  1.00  0.00    -0.000 C 
BRANCH  10  11
ATOM     11  C   UNL     1      12.789 -23.247  20.423  1.00  0.00    -0.000 C 
BRANCH  11  12
ATOM     12  C   UNL     1      12.515 -24.717  20.764  1.00  0.00    -0.003 C 
ATOM     13  C   UNL     1      11.068 -24.921  21.202  1.00  0.00     0.004 C 
ENDBRANCH  11  12
ENDBRANCH  10  11
ENDBRANCH   9  10
ENDBRANCH   8   9
ENDBRANCH   1   8
TORSDOF 9
ENDMDL
MODEL 4
REMARK VINA RESULT:    -4.642      1.083      3.026
REMARK INTER + INTRA:          -8.067
REMARK INTER:                  -7.093
REMARK INTRA:                  -0.974
REMARK UNBOUND:                -0.984
REMARK SMILES CCCCCCCCCCC(=O)[O-]
REMARK SMILES IDX 7 1 8 2 9 3 10 4 11 5 12 6 13 7 6 8 5 9 4 10 3 11 2 12 1 13
REMARK H PARENT
REMARK Flexibility Score: inf
ROOT
ATOM      1  C   UNL     1      13.213 -21.825  23.822  1.00  0.00     0.000 C 
ENDROOT
BRANCH   1   2
ATOM      2  C   UNL     1      11.769 -22.026  24.314  1.00  0.00     0.000 C 
BRANCH   2   3
ATOM      3  C   UNL     1      11.226 -23.431  24.016  1.00  0.00     0.006 C 
BRANCH   3   4
ATOM      4  C   UNL     1       9.762 -23.556  24.450  1.00  0.00     0.053 C 
BRANCH   4   5
ATOM      5  C   UNL     1       8.961 -24.252  23.395  1.00  0.00     0.041 C 
ATOM      6  O   UNL     1       9.427 -25.266  22.812  1.00  0.00    -0.550 OA
ATOM      7  O   UNL     1       7.720 -23.753  23.020  1.00  0.00    -0.550 OA
ENDBRANCH   4   5
ENDBRANCH   3   4
ENDBRANCH   2   3
ENDBRANCH   1   2
BRANCH   1   8
ATOM      8  C   UNL     1      14.123 -23.059  23.960  1.00  0.00     0.000 C 
BRANCH   8   9
ATOM      9  C   UNL     1      15.216 -23.123  22.878  1.00  0.00    -0.000 C 
BRANCH   9  10
ATOM     10  C   UNL     1      14.732 -23.849  21.604  1.00  0.00    -0.000 C 
BRANCH  10  11
ATOM     11  C   UNL     1      14.435 -22.899  20.431  1.00  0.00    -0.000 C 
BRANCH  11  12
ATOM     12  C   UNL     1      12.945 -22.836  20.076  1.00  0.00    -0.003 C 
ATOM     13  C   UNL     1      12.196 -24.046  20.627  1.00  0.00     0.004 C 
ENDBRANCH  11  12
ENDBRANCH  10  11
ENDBRANCH   9  10
ENDBRANCH   8   9
ENDBRANCH   1   8
TORSDOF 9
ENDMDL
MODEL 5
REMARK VINA RESULT:    -4.629      1.924      3.457
REMARK INTER + INTRA:          -8.048
REMARK INTER:                  -7.082
REMARK INTRA:                  -0.966
REMARK UNBOUND:                -0.984
REMARK SMILES CCCCCCCCCCC(=O)[O-]
REMARK SMILES IDX 7 1 8 2 9 3 10 4 11 5 12 6 13 7 6 8 5 9 4 10 3 11 2 12 1 13
REMARK H PARENT
REMARK Flexibility Score: inf
ROOT
ATOM      1  C   UNL     1      11.978 -22.301  23.566  1.00  0.00     0.000 C 
ENDROOT
BRANCH   1   2
ATOM      2  C   UNL     1      11.337 -23.694  23.432  1.00  0.00     0.000 C 
BRANCH   2   3
ATOM      3  C   UNL     1       9.879 -23.730  23.915  1.00  0.00     0.006 C 
BRANCH   3   4
ATOM      4  C   UNL     1       9.747 -23.100  25.305  1.00  0.00     0.053 C 
BRANCH   4   5
ATOM      5  C   UNL     1      10.268 -24.032  26.354  1.00  0.00     0.041 C 
ATOM      6  O   UNL     1       9.652 -25.099  26.615  1.00  0.00    -0.550 OA
ATOM      7  O   UNL     1      11.404 -23.698  27.078  1.00  0.00    -0.550 OA
ENDBRANCH   4   5
ENDBRANCH   3   4
ENDBRANCH   2   3
ENDBRANCH   1   2
BRANCH   1   8
ATOM      8  C   UNL     1      13.278 -22.263  24.390  1.00  0.00     0.000 C 
BRANCH   8   9
ATOM      9  C   UNL     1      14.530 -22.028  23.526  1.00  0.00    -0.000 C 
BRANCH   9  10
ATOM     10  C   UNL     1      14.913 -23.278  22.705  1.00  0.00    -0.000 C 
BRANCH  10  11
ATOM     11  C   UNL     1      15.058 -23.003  21.199  1.00  0.00    -0.000 C 
BRANCH  11  12
ATOM     12  C   UNL     1      13.974 -23.688  20.359  1.00  0.00    -0.003 C 
ATOM     13  C   UNL     1      12.849 -22.716  20.013  1.00  0.00     0.004 C 
ENDBRANCH  11  12
ENDBRANCH  10  11
ENDBRANCH   9  10
ENDBRANCH   8   9
ENDBRANCH   1   8
TORSDOF 9
ENDMDL
MODEL 6
REMARK VINA RESULT:    -4.598      2.872      5.041
REMARK INTER + INTRA:          -8.001
REMARK INTER:                  -7.330
REMARK INTRA:                  -0.671
REMARK UNBOUND:                -0.984
REMARK SMILES CCCCCCCCCCC(=O)[O-]
REMARK SMILES IDX 7 1 8 2 9 3 10 4 11 5 12 6 13 7 6 8 5 9 4 10 3 11 2 12 1 13
REMARK H PARENT
REMARK Flexibility Score: inf
ROOT
ATOM      1  C   UNL     1      11.299 -24.130  21.920  1.00  0.00     0.000 C 
ENDROOT
BRANCH   1   2
ATOM      2  C   UNL     1      12.205 -24.320  20.690  1.00  0.00     0.000 C 
BRANCH   2   3
ATOM      3  C   UNL     1      12.852 -23.011  20.216  1.00  0.00     0.006 C 
BRANCH   3   4
ATOM      4  C   UNL     1      14.380 -23.107  20.263  1.00  0.00     0.053 C 
BRANCH   4   5
ATOM      5  C   UNL     1      14.852 -23.282  21.672  1.00  0.00     0.041 C 
ATOM      6  O   UNL     1      15.533 -24.292  21.991  1.00  0.00    -0.550 OA
ATOM      7  O   UNL     1      14.497 -22.356  22.644  1.00  0.00    -0.550 OA
ENDBRANCH   4   5
ENDBRANCH   3   4
ENDBRANCH   2   3
ENDBRANCH   1   2
BRANCH   1   8
ATOM      8  C   UNL     1      10.136 -25.133  22.030  1.00  0.00     0.000 C 
BRANCH   8   9
ATOM      9  C   UNL     1       9.182 -24.820  23.196  1.00  0.00    -0.000 C 
BRANCH   9  10
ATOM     10  C   UNL     1       9.826 -23.884  24.241  1.00  0.00    -0.000 C 
BRANCH  10  11
ATOM     11  C   UNL     1       9.803 -24.450  25.671  1.00  0.00    -0.000 C 
BRANCH  11  12
ATOM     12  C   UNL     1      11.078 -24.131  26.461  1.00  0.00    -0.003 C 
ATOM     13  C   UNL     1      12.168 -23.579  25.546  1.00  0.00     0.004 C 
ENDBRANCH  11  12
ENDBRANCH  10  11
ENDBRANCH   9  10
ENDBRANCH   8   9
ENDBRANCH   1   8
TORSDOF 9
ENDMDL
MODEL 7
REMARK VINA RESULT:    -4.593      1.751      3.669
REMARK INTER + INTRA:          -7.994
REMARK INTER:                  -6.843
REMARK INTRA:                  -1.151
REMARK UNBOUND:                -0.984
REMARK SMILES CCCCCCCCCCC(=O)[O-]
REMARK SMILES IDX 7 1 8 2 9 3 10 4 11 5 12 6 13 7 6 8 5 9 4 10 3 11 2 12 1 13
REMARK H PARENT
REMARK Flexibility Score: inf
ROOT
ATOM      1  C   UNL     1      12.104 -22.248  22.694  1.00  0.00     0.000 C 
ENDROOT
BRANCH   1   2
ATOM      2  C   UNL     1      12.897 -22.139  24.009  1.00  0.00     0.000 C 
BRANCH   2   3
ATOM      3  C   UNL     1      12.932 -23.457  24.796  1.00  0.00     0.006 C 
BRANCH   3   4
ATOM      4  C   UNL     1      12.360 -23.269  26.205  1.00  0.00     0.053 C 
BRANCH   4   5
ATOM      5  C   UNL     1      10.900 -22.950  26.140  1.00  0.00     0.041 C 
ATOM      6  O   UNL     1      10.092 -23.781  25.648  1.00  0.00    -0.550 OA
ATOM      7  O   UNL     1      10.437 -21.715  26.574  1.00  0.00    -0.550 OA
ENDBRANCH   4   5
ENDBRANCH   3   4
ENDBRANCH   2   3
ENDBRANCH   1   2
BRANCH   1   8
ATOM      8  C   UNL     1      11.722 -23.682  22.284  1.00  0.00     0.000 C 
BRANCH   8   9
ATOM      9  C   UNL     1      12.211 -24.053  20.872  1.00  0.00    -0.000 C 
BRANCH   9  10
ATOM     10  C   UNL     1      13.012 -22.910  20.214  1.00  0.00    -0.000 C 
BRANCH  10  11
ATOM     11  C   UNL     1      14.496 -23.249  19.990  1.00  0.00    -0.000 C 
BRANCH  11  12
ATOM     12  C   UNL     1      15.034 -24.271  20.998  1.00  0.00    -0.003 C 
ATOM     13  C   UNL     1      15.686 -23.577  22.191  1.00  0.00     0.004 C 
ENDBRANCH  11  12
ENDBRANCH  10  11
ENDBRANCH   9  10
ENDBRANCH   8   9
ENDBRANCH   1   8
TORSDOF 9
ENDMDL
MODEL 8
REMARK VINA RESULT:    -4.533      2.982      5.567
REMARK INTER + INTRA:          -7.902
REMARK INTER:                  -6.854
REMARK INTRA:                  -1.048
REMARK UNBOUND:                -0.984
REMARK SMILES CCCCCCCCCCC(=O)[O-]
REMARK SMILES IDX 7 1 8 2 9 3 10 4 11 5 12 6 13 7 6 8 5 9 4 10 3 11 2 12 1 13
REMARK H PARENT
REMARK Flexibility Score: inf
ROOT
ATOM      1  C   UNL     1      13.101 -22.978  25.178  1.00  0.00     0.000 C 
ENDROOT
BRANCH   1   2
ATOM      2  C   UNL     1      12.917 -21.845  24.152  1.00  0.00     0.000 C 
BRANCH   2   3
ATOM      3  C   UNL     1      12.540 -22.359  22.755  1.00  0.00     0.006 C 
BRANCH   3   4
ATOM      4  C   UNL     1      13.634 -23.274  22.194  1.00  0.00     0.053 C 
BRANCH   4   5
ATOM      5  C   UNL     1      13.881 -22.969  20.750  1.00  0.00     0.041 C 
ATOM      6  O   UNL     1      15.056 -22.958  20.298  1.00  0.00    -0.550 OA
ATOM      7  O   UNL     1      12.819 -22.647  19.915  1.00  0.00    -0.550 OA
ENDBRANCH   4   5
ENDBRANCH   3   4
ENDBRANCH   2   3
ENDBRANCH   1   2
BRANCH   1   8
ATOM      8  C   UNL     1      11.812 -23.735  25.547  1.00  0.00     0.000 C 
BRANCH   8   9
ATOM      9  C   UNL     1      10.627 -22.796  25.835  1.00  0.00    -0.000 C 
BRANCH   9  10
ATOM     10  C   UNL     1       9.433 -23.057  24.892  1.00  0.00    -0.000 C 
BRANCH  10  11
ATOM     11  C   UNL     1       9.437 -24.464  24.272  1.00  0.00    -0.000 C 
BRANCH  11  12
ATOM     12  C   UNL     1       9.087 -24.460  22.779  1.00  0.00    -0.003 C 
ATOM     13  C   UNL     1      10.202 -25.091  21.950  1.00  0.00     0.004 C 
ENDBRANCH  11  12
ENDBRANCH  10  11
ENDBRANCH   9  10
ENDBRANCH   8   9
ENDBRANCH   1   8
TORSDOF 9
ENDMDL
MODEL 9
REMARK VINA RESULT:    -4.516      2.058      3.990
REMARK INTER + INTRA:          -7.876
REMARK INTER:                  -7.335
REMARK INTRA:                  -0.541
REMARK UNBOUND:                -0.984
REMARK SMILES CCCCCCCCCCC(=O)[O-]
REMARK SMILES IDX 7 1 8 2 9 3 10 4 11 5 12 6 13 7 6 8 5 9 4 10 3 11 2 12 1 13
REMARK H PARENT
REMARK Flexibility Score: inf
ROOT
ATOM      1  C   UNL     1      12.950 -23.258  23.861  1.00  0.00     0.000 C 
ENDROOT
BRANCH   1   2
ATOM      2  C   UNL     1      12.588 -22.632  25.221  1.00  0.00     0.000 C 
BRANCH   2   3
ATOM      3  C   UNL     1      12.030 -23.655  26.220  1.00  0.00     0.006 C 
BRANCH   3   4
ATOM      4  C   UNL     1      10.528 -23.445  26.438  1.00  0.00     0.053 C 
BRANCH   4   5
ATOM      5  C   UNL     1       9.749 -24.574  25.840  1.00  0.00     0.041 C 
ATOM      6  O   UNL     1       9.380 -24.522  24.637  1.00  0.00    -0.550 OA
ATOM      7  O   UNL     1       9.386 -25.661  26.624  1.00  0.00    -0.550 OA
ENDBRANCH   4   5
ENDBRANCH   3   4
ENDBRANCH   2   3
ENDBRANCH   1   2
BRANCH   1   8
ATOM      8  C   UNL     1      12.218 -22.649  22.652  1.00  0.00     0.000 C 
BRANCH   8   9
ATOM      9  C   UNL     1      12.343 -23.508  21.381  1.00  0.00    -0.000 C 
BRANCH   9  10
ATOM     10  C   UNL     1      13.098 -22.773  20.253  1.00  0.00    -0.000 C 
BRANCH  10  11
ATOM     11  C   UNL     1      14.485 -23.368  19.954  1.00  0.00    -0.000 C 
BRANCH  11  12
ATOM     12  C   UNL     1      14.584 -24.858  20.303  1.00  0.00    -0.003 C 
ATOM     13  C   UNL     1      15.332 -25.629  19.219  1.00  0.00     0.004 C 
ENDBRANCH  11  12
ENDBRANCH  10  11
ENDBRANCH   9  10
ENDBRANCH   8   9
ENDBRANCH   1   8
TORSDOF 9
ENDMDL
