MODEL 1
REMARK VINA RESULT:    -3.244      0.000      0.000
REMARK INTER + INTRA:          -1.229
REMARK INTER:                  -4.097
REMARK INTRA:                   2.868
REMARK UNBOUND:                 2.868
REMARK SMILES C=C1CC[C@H]2[C@H]([C@H]3[C@H]1CC[C@]3(C)O)C2(C)C
REMARK SMILES IDX 2 1 1 2 8 3 7 4 11 5 9 6 10 7 12 8 6 9 15 10 14 11 5 12
REMARK SMILES IDX 16 13 13 15 3 17 4 18
REMARK H PARENT 13 16
REMARK Flexibility Score: 90.00
ROOT
ATOM      1  C   UNL     1       5.434 -14.842  10.899  1.00  0.00    -0.074 C 
ATOM      2  C   UNL     1       6.321 -15.689  10.349  1.00  0.00     0.008 C 
ENDROOT
BRANCH   1   3
ATOM      3  C   UNL     1       4.507 -15.251  12.049  1.00  0.00     0.021 C 
ATOM      4  C   UNL     1       3.201 -15.869  11.554  1.00  0.00     0.032 C 
ATOM      5  C   UNL     1       2.525 -16.400  12.833  1.00  0.00     0.066 C 
ATOM      6  C   UNL     1       5.003 -16.239  13.097  1.00  0.00     0.011 C 
ATOM      7  C   UNL     1       3.723 -16.781  13.754  1.00  0.00     0.036 C 
ATOM      8  C   UNL     1       1.617 -15.350  13.516  1.00  0.00     0.042 C 
BRANCH   4   9
ATOM      9  C   UNL     1       2.443 -14.794  10.744  1.00  0.00     0.005 C 
ATOM     10  C   UNL     1       0.700 -13.747   9.121  1.00  0.00     0.011 C 
ATOM     11  C   UNL     1       1.559 -14.955   9.513  1.00  0.00    -0.029 C 
ATOM     12  C   UNL     1       3.066 -14.822   9.320  1.00  0.00    -0.001 CG0
ATOM     13  C   UNL     1       0.951 -16.345   9.296  1.00  0.00     0.011 C 
ATOM     14  G   UNL     1       3.936 -13.565   9.158  1.00  0.00     0.000 G0
ENDBRANCH   4   9
BRANCH   5  15
ATOM     15  O   UNL     1       1.764 -17.539  12.510  1.00  0.00    -0.390 OA
ATOM     16  H   UNL     1       1.214 -17.770  13.305  1.00  0.00     0.211 HD
ENDBRANCH   5  15
ENDBRANCH   1   3
BRANCH   1  17
ATOM     17  C   UNL     1       5.135 -13.516  10.191  1.00  0.00     0.031 C 
BRANCH  17  18
ATOM     18  C   UNL     1       3.961 -13.566   9.159  1.00  0.00     0.009 CG0
ATOM     19  G   UNL     1       3.090 -14.824   9.321  1.00  0.00     0.000 G0
ENDBRANCH  17  18
ENDBRANCH   1  17
TORSDOF 1
ENDMDL
MODEL 2
REMARK VINA RESULT:    -3.182      1.899      4.042
REMARK INTER + INTRA:          -1.152
REMARK INTER:                  -4.129
REMARK INTRA:                   2.977
REMARK UNBOUND:                 2.868
REMARK SMILES C=C1CC[C@H]2[C@H]([C@H]3[C@H]1CC[C@]3(C)O)C2(C)C
REMARK SMILES IDX 2 1 1 2 8 3 7 4 11 5 9 6 10 7 12 8 6 9 15 10 14 11 5 12
REMARK SMILES IDX 16 13 13 15 3 17 4 18
REMARK H PARENT 13 16
REMARK Flexibility Score: 90.00
ROOT
ATOM      1  C   UNL     1       4.827 -13.782   9.605  1.00  0.00    -0.074 C 
ATOM      2  C   UNL     1       5.475 -12.659   9.962  1.00  0.00     0.008 C 
ENDROOT
BRANCH   1   3
ATOM      3  C   UNL     1       3.401 -13.767   9.044  1.00  0.00     0.021 C 
ATOM      4  C   UNL     1       2.342 -13.801  10.146  1.00  0.00     0.032 C 
ATOM      5  C   UNL     1       1.015 -13.562   9.399  1.00  0.00     0.066 C 
ATOM      6  C   UNL     1       2.958 -12.617   8.148  1.00  0.00     0.011 C 
ATOM      7  C   UNL     1       1.423 -12.659   8.197  1.00  0.00     0.036 C 
ATOM      8  C   UNL     1       0.356 -14.872   8.906  1.00  0.00     0.042 C 
BRANCH   4   9
ATOM      9  C   UNL     1       2.496 -15.132  10.913  1.00  0.00     0.005 C 
ATOM     10  C   UNL     1       2.238 -16.891  12.812  1.00  0.00     0.011 C 
ATOM     11  C   UNL     1       2.319 -15.418  12.400  1.00  0.00    -0.029 C 
ATOM     12  C   UNL     1       3.670 -14.911  11.908  1.00  0.00    -0.001 CG0
ATOM     13  C   UNL     1       1.447 -14.425  13.178  1.00  0.00     0.011 C 
ATOM     14  G   UNL     1       4.888 -15.691  11.384  1.00  0.00     0.000 G0
ENDBRANCH   4   9
BRANCH   5  15
ATOM     15  O   UNL     1       0.125 -12.883  10.253  1.00  0.00    -0.390 OA
ATOM     16  H   UNL     1      -0.354 -12.203   9.710  1.00  0.00     0.211 HD
ENDBRANCH   5  15
ENDBRANCH   1   3
BRANCH   1  17
ATOM     17  C   UNL     1       5.409 -15.138  10.018  1.00  0.00     0.031 C 
BRANCH  17  18
ATOM     18  C   UNL     1       4.894 -15.690  11.387  1.00  0.00     0.009 CG0
ATOM     19  G   UNL     1       3.679 -14.910  11.915  1.00  0.00     0.000 G0
ENDBRANCH  17  18
ENDBRANCH   1  17
TORSDOF 1
ENDMDL
MODEL 3
REMARK VINA RESULT:    -2.926      2.381      4.665
REMARK INTER + INTRA:          -0.828
REMARK INTER:                  -3.708
REMARK INTRA:                   2.881
REMARK UNBOUND:                 2.868
REMARK SMILES C=C1CC[C@H]2[C@H]([C@H]3[C@H]1CC[C@]3(C)O)C2(C)C
REMARK SMILES IDX 2 1 1 2 8 3 7 4 11 5 9 6 10 7 12 8 6 9 15 10 14 11 5 12
REMARK SMILES IDX 16 13 13 15 3 17 4 18
REMARK H PARENT 13 16
REMARK Flexibility Score: 90.00
ROOT
ATOM      1  C   UNL     1       1.953 -16.155  10.274  1.00  0.00    -0.074 C 
ATOM      2  C   UNL     1       2.510 -17.039   9.428  1.00  0.00     0.008 C 
ENDROOT
BRANCH   1   3
ATOM      3  C   UNL     1       1.083 -14.989   9.792  1.00  0.00     0.021 C 
ATOM      4  C   UNL     1       1.908 -13.747   9.456  1.00  0.00     0.032 C 
ATOM      5  C   UNL     1       0.895 -12.789   8.799  1.00  0.00     0.066 C 
ATOM      6  C   UNL     1       0.188 -15.173   8.573  1.00  0.00     0.011 C 
ATOM      7  C   UNL     1      -0.118 -13.743   8.100  1.00  0.00     0.036 C 
ATOM      8  C   UNL     1       0.178 -11.875   9.821  1.00  0.00     0.042 C 
BRANCH   4   9
ATOM      9  C   UNL     1       2.599 -13.269  10.752  1.00  0.00     0.005 C 
ATOM     10  C   UNL     1       4.255 -11.993  12.300  1.00  0.00     0.011 C 
ATOM     11  C   UNL     1       3.974 -12.640  10.940  1.00  0.00    -0.029 C 
ATOM     12  C   UNL     1       3.864 -14.161  10.908  1.00  0.00    -0.001 CG0
ATOM     13  C   UNL     1       4.580 -11.963   9.705  1.00  0.00     0.011 C 
ATOM     14  G   UNL     1       3.604 -15.158  12.049  1.00  0.00     0.000 G0
ENDBRANCH   4   9
BRANCH   5  15
ATOM     15  O   UNL     1       1.567 -11.994   7.850  1.00  0.00    -0.390 OA
ATOM     16  H   UNL     1       1.727 -12.555   7.046  1.00  0.00     0.211 HD
ENDBRANCH   5  15
ENDBRANCH   1   3
BRANCH   1  17
ATOM     17  C   UNL     1       2.412 -16.135  11.736  1.00  0.00     0.031 C 
BRANCH  17  18
ATOM     18  C   UNL     1       3.617 -15.187  12.040  1.00  0.00     0.009 CG0
ATOM     19  G   UNL     1       3.854 -14.162  10.918  1.00  0.00     0.000 G0
ENDBRANCH  17  18
ENDBRANCH   1  17
TORSDOF 1
ENDMDL
MODEL 4
REMARK VINA RESULT:    -2.859      2.338      4.599
REMARK INTER + INTRA:          -0.743
REMARK INTER:                  -3.668
REMARK INTRA:                   2.925
REMARK UNBOUND:                 2.868
REMARK SMILES C=C1CC[C@H]2[C@H]([C@H]3[C@H]1CC[C@]3(C)O)C2(C)C
REMARK SMILES IDX 2 1 1 2 8 3 7 4 11 5 9 6 10 7 12 8 6 9 15 10 14 11 5 12
REMARK SMILES IDX 16 13 13 15 3 17 4 18
REMARK H PARENT 13 16
REMARK Flexibility Score: 90.00
ROOT
ATOM      1  C   UNL     1       1.853 -12.978  12.422  1.00  0.00    -0.074 C 
ATOM      2  C   UNL     1       0.617 -12.654  12.842  1.00  0.00     0.008 C 
ENDROOT
BRANCH   1   3
ATOM      3  C   UNL     1       2.104 -13.780  11.141  1.00  0.00     0.021 C 
ATOM      4  C   UNL     1       2.066 -15.288  11.380  1.00  0.00     0.032 C 
ATOM      5  C   UNL     1       2.120 -15.896   9.965  1.00  0.00     0.066 C 
ATOM      6  C   UNL     1       1.192 -13.578   9.938  1.00  0.00     0.011 C 
ATOM      7  C   UNL     1       1.404 -14.835   9.078  1.00  0.00     0.036 C 
ATOM      8  C   UNL     1       3.565 -16.143   9.469  1.00  0.00     0.042 C 
BRANCH   4   9
ATOM      9  C   UNL     1       3.213 -15.646  12.351  1.00  0.00     0.005 C 
ATOM     10  C   UNL     1       4.631 -17.022  14.043  1.00  0.00     0.011 C 
ATOM     11  C   UNL     1       3.254 -16.693  13.457  1.00  0.00    -0.029 C 
ATOM     12  C   UNL     1       2.679 -15.317  13.773  1.00  0.00    -0.001 CG0
ATOM     13  C   UNL     1       2.255 -17.849  13.327  1.00  0.00     0.011 C 
ATOM     14  G   UNL     1       3.382 -14.039  14.261  1.00  0.00     0.000 G0
ENDBRANCH   4   9
BRANCH   5  15
ATOM     15  O   UNL     1       1.410 -17.111   9.960  1.00  0.00    -0.390 OA
ATOM     16  H   UNL     1       0.445 -16.897  10.069  1.00  0.00     0.211 HD
ENDBRANCH   5  15
ENDBRANCH   1   3
BRANCH   1  17
ATOM     17  C   UNL     1       3.035 -12.789  13.379  1.00  0.00     0.031 C 
BRANCH  17  18
ATOM     18  C   UNL     1       3.373 -14.029  14.269  1.00  0.00     0.009 CG0
ATOM     19  G   UNL     1       2.676 -15.310  13.780  1.00  0.00     0.000 G0
ENDBRANCH  17  18
ENDBRANCH   1  17
TORSDOF 1
ENDMDL
MODEL 5
REMARK VINA RESULT:    -2.761      3.349      5.636
REMARK INTER + INTRA:          -0.620
REMARK INTER:                  -3.529
REMARK INTRA:                   2.909
REMARK UNBOUND:                 2.868
REMARK SMILES C=C1CC[C@H]2[C@H]([C@H]3[C@H]1CC[C@]3(C)O)C2(C)C
REMARK SMILES IDX 2 1 1 2 8 3 7 4 11 5 9 6 10 7 12 8 6 9 15 10 14 11 5 12
REMARK SMILES IDX 16 13 13 15 3 17 4 18
REMARK H PARENT 13 16
REMARK Flexibility Score: 90.00
ROOT
ATOM      1  C   UNL     1       2.505 -16.087  13.034  1.00  0.00    -0.074 C 
ATOM      2  C   UNL     1       2.238 -16.161  11.718  1.00  0.00     0.008 C 
ENDROOT
BRANCH   1   3
ATOM      3  C   UNL     1       3.911 -16.308  13.603  1.00  0.00     0.021 C 
ATOM      4  C   UNL     1       4.205 -17.782  13.876  1.00  0.00     0.032 C 
ATOM      5  C   UNL     1       5.706 -17.809  14.226  1.00  0.00     0.066 C 
ATOM      6  C   UNL     1       5.124 -15.836  12.811  1.00  0.00     0.011 C 
ATOM      7  C   UNL     1       6.300 -16.634  13.395  1.00  0.00     0.036 C 
ATOM      8  C   UNL     1       5.977 -17.610  15.736  1.00  0.00     0.042 C 
BRANCH   4   9
ATOM      9  C   UNL     1       3.215 -18.272  14.957  1.00  0.00     0.005 C 
ATOM     10  C   UNL     1       1.850 -19.913  16.443  1.00  0.00     0.011 C 
ATOM     11  C   UNL     1       2.536 -19.628  15.103  1.00  0.00    -0.029 C 
ATOM     12  C   UNL     1       1.889 -18.579  14.205  1.00  0.00    -0.001 CG0
ATOM     13  C   UNL     1       3.226 -20.807  14.407  1.00  0.00     0.011 C 
ATOM     14  G   UNL     1       0.882 -17.469  14.547  1.00  0.00     0.000 G0
ENDBRANCH   4   9
BRANCH   5  15
ATOM     15  O   UNL     1       6.250 -19.039  13.810  1.00  0.00    -0.390 OA
ATOM     16  H   UNL     1       6.178 -19.081  12.820  1.00  0.00     0.211 HD
ENDBRANCH   5  15
ENDBRANCH   1   3
BRANCH   1  17
ATOM     17  C   UNL     1       1.339 -16.056  14.028  1.00  0.00     0.031 C 
BRANCH  17  18
ATOM     18  C   UNL     1       0.867 -17.455  14.540  1.00  0.00     0.009 CG0
ATOM     19  G   UNL     1       1.869 -18.572  14.204  1.00  0.00     0.000 G0
ENDBRANCH  17  18
ENDBRANCH   1  17
TORSDOF 1
ENDMDL
MODEL 6
REMARK VINA RESULT:    -2.751     13.675     15.137
REMARK INTER + INTRA:          -0.607
REMARK INTER:                  -3.498
REMARK INTRA:                   2.891
REMARK UNBOUND:                 2.868
REMARK SMILES C=C1CC[C@H]2[C@H]([C@H]3[C@H]1CC[C@]3(C)O)C2(C)C
REMARK SMILES IDX 2 1 1 2 8 3 7 4 11 5 9 6 10 7 12 8 6 9 15 10 14 11 5 12
REMARK SMILES IDX 16 13 13 15 3 17 4 18
REMARK H PARENT 13 16
REMARK Flexibility Score: 90.00
ROOT
ATOM      1  C   UNL     1       0.989 -27.996  11.705  1.00  0.00    -0.074 C 
ATOM      2  C   UNL     1       0.971 -26.696  11.359  1.00  0.00     0.008 C 
ENDROOT
BRANCH   1   3
ATOM      3  C   UNL     1       1.249 -29.114  10.691  1.00  0.00     0.021 C 
ATOM      4  C   UNL     1      -0.033 -29.592  10.009  1.00  0.00     0.032 C 
ATOM      5  C   UNL     1       0.462 -30.538   8.897  1.00  0.00     0.066 C 
ATOM      6  C   UNL     1       2.208 -28.870   9.533  1.00  0.00     0.011 C 
ATOM      7  C   UNL     1       1.848 -29.949   8.499  1.00  0.00     0.036 C 
ATOM      8  C   UNL     1       0.601 -32.005   9.371  1.00  0.00     0.042 C 
BRANCH   4   9
ATOM      9  C   UNL     1      -0.954 -30.192  11.094  1.00  0.00     0.005 C 
ATOM     10  C   UNL     1      -3.113 -31.104  12.221  1.00  0.00     0.011 C 
ATOM     11  C   UNL     1      -2.474 -30.161  11.197  1.00  0.00    -0.029 C 
ATOM     12  C   UNL     1      -1.679 -28.981  11.746  1.00  0.00    -0.001 CG0
ATOM     13  C   UNL     1      -3.235 -29.935   9.885  1.00  0.00     0.011 C 
ATOM     14  G   UNL     1      -1.073 -28.761  13.142  1.00  0.00     0.000 G0
ENDBRANCH   4   9
BRANCH   5  15
ATOM     15  O   UNL     1      -0.434 -30.479   7.813  1.00  0.00    -0.390 OA
ATOM     16  H   UNL     1      -0.702 -31.411   7.592  1.00  0.00     0.211 HD
ENDBRANCH   5  15
ENDBRANCH   1   3
BRANCH   1  17
ATOM     17  C   UNL     1       0.466 -28.403  13.087  1.00  0.00     0.031 C 
BRANCH  17  18
ATOM     18  C   UNL     1      -1.057 -28.750  13.144  1.00  0.00     0.009 CG0
ATOM     19  G   UNL     1      -1.659 -28.982  11.748  1.00  0.00     0.000 G0
ENDBRANCH  17  18
ENDBRANCH   1  17
TORSDOF 1
ENDMDL
MODEL 7
REMARK VINA RESULT:    -2.690     13.812     15.382
REMARK INTER + INTRA:          -0.530
REMARK INTER:                  -3.420
REMARK INTRA:                   2.891
REMARK UNBOUND:                 2.868
REMARK SMILES C=C1CC[C@H]2[C@H]([C@H]3[C@H]1CC[C@]3(C)O)C2(C)C
REMARK SMILES IDX 2 1 1 2 8 3 7 4 11 5 9 6 10 7 12 8 6 9 15 10 14 11 5 12
REMARK SMILES IDX 16 13 13 15 3 17 4 18
REMARK H PARENT 13 16
REMARK Flexibility Score: 90.00
ROOT
ATOM      1  C   UNL     1       0.047 -28.512  12.206  1.00  0.00    -0.074 C 
ATOM      2  C   UNL     1       0.477 -27.302  11.805  1.00  0.00     0.008 C 
ENDROOT
BRANCH   1   3
ATOM      3  C   UNL     1      -0.487 -29.562  11.227  1.00  0.00     0.021 C 
ATOM      4  C   UNL     1      -1.987 -29.413  10.973  1.00  0.00     0.032 C 
ATOM      5  C   UNL     1      -2.274 -30.398   9.822  1.00  0.00     0.066 C 
ATOM      6  C   UNL     1       0.111 -29.659   9.830  1.00  0.00     0.011 C 
ATOM      7  C   UNL     1      -0.946 -30.414   9.008  1.00  0.00     0.036 C 
ATOM      8  C   UNL     1      -2.632 -31.819  10.320  1.00  0.00     0.042 C 
BRANCH   4   9
ATOM      9  C   UNL     1      -2.722 -29.649  12.310  1.00  0.00     0.005 C 
ATOM     10  C   UNL     1      -4.643 -29.655  14.064  1.00  0.00     0.011 C 
ATOM     11  C   UNL     1      -3.989 -28.994  12.846  1.00  0.00    -0.029 C 
ATOM     12  C   UNL     1      -2.652 -28.297  13.074  1.00  0.00    -0.001 CG0
ATOM     13  C   UNL     1      -4.924 -28.377  11.800  1.00  0.00     0.011 C 
ATOM     14  G   UNL     1      -1.638 -28.451  14.220  1.00  0.00     0.000 G0
ENDBRANCH   4   9
BRANCH   5  15
ATOM     15  O   UNL     1      -3.331 -29.895   9.042  1.00  0.00    -0.390 OA
ATOM     16  H   UNL     1      -2.972 -29.701   8.136  1.00  0.00     0.211 HD
ENDBRANCH   5  15
ENDBRANCH   1   3
BRANCH   1  17
ATOM     17  C   UNL     1      -0.180 -28.761  13.701  1.00  0.00     0.031 C 
BRANCH  17  18
ATOM     18  C   UNL     1      -1.621 -28.441  14.215  1.00  0.00     0.009 CG0
ATOM     19  G   UNL     1      -2.633 -28.288  13.068  1.00  0.00     0.000 G0
ENDBRANCH  17  18
ENDBRANCH   1  17
TORSDOF 1
ENDMDL
MODEL 8
REMARK VINA RESULT:    -2.668     14.221     15.901
REMARK INTER + INTRA:          -0.502
REMARK INTER:                  -3.389
REMARK INTRA:                   2.886
REMARK UNBOUND:                 2.868
REMARK SMILES C=C1CC[C@H]2[C@H]([C@H]3[C@H]1CC[C@]3(C)O)C2(C)C
REMARK SMILES IDX 2 1 1 2 8 3 7 4 11 5 9 6 10 7 12 8 6 9 15 10 14 11 5 12
REMARK SMILES IDX 16 13 13 15 3 17 4 18
REMARK H PARENT 13 16
REMARK Flexibility Score: 90.00
ROOT
ATOM      1  C   UNL     1      -3.936 -30.025  10.223  1.00  0.00    -0.074 C 
ATOM      2  C   UNL     1      -4.628 -29.125   9.503  1.00  0.00     0.008 C 
ENDROOT
BRANCH   1   3
ATOM      3  C   UNL     1      -3.265 -29.674  11.555  1.00  0.00     0.021 C 
ATOM      4  C   UNL     1      -1.845 -29.141  11.370  1.00  0.00     0.032 C 
ATOM      5  C   UNL     1      -1.439 -28.652  12.774  1.00  0.00     0.066 C 
ATOM      6  C   UNL     1      -3.919 -28.656  12.480  1.00  0.00     0.011 C 
ATOM      7  C   UNL     1      -2.785 -28.196  13.411  1.00  0.00     0.036 C 
ATOM      8  C   UNL     1      -0.772 -29.757  13.628  1.00  0.00     0.042 C 
BRANCH   4   9
ATOM      9  C   UNL     1      -0.994 -30.262  10.735  1.00  0.00     0.005 C 
ATOM     10  C   UNL     1       0.997 -31.420   9.525  1.00  0.00     0.011 C 
ATOM     11  C   UNL     1       0.149 -30.160   9.733  1.00  0.00    -0.029 C 
ATOM     12  C   UNL     1      -1.283 -30.196   9.208  1.00  0.00    -0.001 CG0
ATOM     13  C   UNL     1       0.875 -28.811   9.674  1.00  0.00     0.011 C 
ATOM     14  G   UNL     1      -2.171 -31.396   8.840  1.00  0.00     0.000 G0
ENDBRANCH   4   9
BRANCH   5  15
ATOM     15  O   UNL     1      -0.556 -27.565  12.643  1.00  0.00    -0.390 OA
ATOM     16  H   UNL     1       0.365 -27.903  12.804  1.00  0.00     0.211 HD
ENDBRANCH   5  15
ENDBRANCH   1   3
BRANCH   1  17
ATOM     17  C   UNL     1      -3.567 -31.366   9.579  1.00  0.00     0.031 C 
BRANCH  17  18
ATOM     18  C   UNL     1      -2.192 -31.387   8.836  1.00  0.00     0.009 CG0
ATOM     19  G   UNL     1      -1.300 -30.193   9.216  1.00  0.00     0.000 G0
ENDBRANCH  17  18
ENDBRANCH   1  17
TORSDOF 1
ENDMDL
MODEL 9
REMARK VINA RESULT:    -2.554     14.512     16.331
REMARK INTER + INTRA:          -0.358
REMARK INTER:                  -3.360
REMARK INTRA:                   3.002
REMARK UNBOUND:                 2.868
REMARK SMILES C=C1CC[C@H]2[C@H]([C@H]3[C@H]1CC[C@]3(C)O)C2(C)C
REMARK SMILES IDX 2 1 1 2 8 3 7 4 11 5 9 6 10 7 12 8 6 9 15 10 14 11 5 12
REMARK SMILES IDX 16 13 13 15 3 17 4 18
REMARK H PARENT 13 16
REMARK Flexibility Score: 90.00
ROOT
ATOM      1  C   UNL     1      -4.563 -29.614  11.098  1.00  0.00    -0.074 C 
ATOM      2  C   UNL     1      -4.719 -28.763  10.068  1.00  0.00     0.008 C 
ENDROOT
BRANCH   1   3
ATOM      3  C   UNL     1      -5.595 -29.744  12.223  1.00  0.00     0.021 C 
ATOM      4  C   UNL     1      -5.369 -28.726  13.340  1.00  0.00     0.032 C 
ATOM      5  C   UNL     1      -6.611 -28.875  14.242  1.00  0.00     0.066 C 
ATOM      6  C   UNL     1      -7.078 -29.610  11.902  1.00  0.00     0.011 C 
ATOM      7  C   UNL     1      -7.738 -29.295  13.253  1.00  0.00     0.036 C 
ATOM      8  C   UNL     1      -6.426 -29.938  15.352  1.00  0.00     0.042 C 
BRANCH   4   9
ATOM      9  C   UNL     1      -3.991 -29.013  13.976  1.00  0.00     0.005 C 
ATOM     10  C   UNL     1      -1.822 -28.635  15.360  1.00  0.00     0.011 C 
ATOM     11  C   UNL     1      -2.951 -28.038  14.514  1.00  0.00    -0.029 C 
ATOM     12  C   UNL     1      -2.946 -28.366  13.024  1.00  0.00    -0.001 CG0
ATOM     13  C   UNL     1      -3.471 -26.653  14.917  1.00  0.00     0.011 C 
ATOM     14  G   UNL     1      -2.233 -29.496  12.263  1.00  0.00     0.000 G0
ENDBRANCH   4   9
BRANCH   5  15
ATOM     15  O   UNL     1      -6.901 -27.630  14.830  1.00  0.00    -0.390 OA
ATOM     16  H   UNL     1      -7.139 -27.000  14.099  1.00  0.00     0.211 HD
ENDBRANCH   5  15
ENDBRANCH   1   3
BRANCH   1  17
ATOM     17  C   UNL     1      -3.199 -30.279  11.311  1.00  0.00     0.031 C 
BRANCH  17  18
ATOM     18  C   UNL     1      -2.229 -29.508  12.265  1.00  0.00     0.009 CG0
ATOM     19  G   UNL     1      -2.932 -28.370  13.022  1.00  0.00     0.000 G0
ENDBRANCH  17  18
ENDBRANCH   1  17
TORSDOF 1
ENDMDL
