MODEL 1
REMARK VINA RESULT:    -3.141      0.000      0.000
REMARK INTER + INTRA:          -6.669
REMARK INTER:                  -5.344
REMARK INTRA:                  -1.325
REMARK UNBOUND:                -1.325
REMARK SMILES CCCCCCCCCCCCCC(=O)[O-]
REMARK SMILES IDX 8 1 9 2 10 3 11 4 12 5 13 6 14 7 15 8 16 9 7 10 6 11 5 12
REMARK SMILES IDX 4 13 3 14 2 15 1 16
REMARK H PARENT
REMARK Flexibility Score: inf
ROOT
ATOM      1  C   UNL     1       5.901   4.003   1.480  1.00  0.00     0.000 C 
ENDROOT
BRANCH   1   2
ATOM      2  C   UNL     1       7.420   4.022   1.272  1.00  0.00     0.000 C 
BRANCH   2   3
ATOM      3  C   UNL     1       7.912   5.438   0.936  1.00  0.00     0.000 C 
BRANCH   3   4
ATOM      4  C   UNL     1       7.593   6.454   2.043  1.00  0.00     0.000 C 
BRANCH   4   5
ATOM      5  C   UNL     1       7.254   7.847   1.490  1.00  0.00     0.006 C 
BRANCH   5   6
ATOM      6  C   UNL     1       8.022   8.124   0.195  1.00  0.00     0.053 C 
BRANCH   6   7
ATOM      7  C   UNL     1       7.114   8.011  -0.988  1.00  0.00     0.041 C 
ATOM      8  O   UNL     1       5.868   8.125  -0.844  1.00  0.00    -0.550 OA
ATOM      9  O   UNL     1       7.646   7.827  -2.257  1.00  0.00    -0.550 OA
ENDBRANCH   6   7
ENDBRANCH   5   6
ENDBRANCH   4   5
ENDBRANCH   3   4
ENDBRANCH   2   3
ENDBRANCH   1   2
BRANCH   1  10
ATOM     10  C   UNL     1       5.163   4.369   0.183  1.00  0.00     0.000 C 
BRANCH  10  11
ATOM     11  C   UNL     1       4.085   5.445   0.396  1.00  0.00    -0.000 C 
BRANCH  11  12
ATOM     12  C   UNL     1       4.015   5.930   1.854  1.00  0.00    -0.000 C 
BRANCH  12  13
ATOM     13  C   UNL     1       3.547   7.391   1.968  1.00  0.00    -0.000 C 
BRANCH  13  14
ATOM     14  C   UNL     1       2.517   7.595   3.094  1.00  0.00    -0.000 C 
BRANCH  14  15
ATOM     15  C   UNL     1       3.119   7.371   4.489  1.00  0.00    -0.003 C 
ATOM     16  C   UNL     1       4.471   8.062   4.671  1.00  0.00     0.004 C 
ENDBRANCH  14  15
ENDBRANCH  13  14
ENDBRANCH  12  13
ENDBRANCH  11  12
ENDBRANCH  10  11
ENDBRANCH   1  10
TORSDOF 12
ENDMDL
MODEL 2
REMARK VINA RESULT:    -2.654      2.894      5.360
REMARK INTER + INTRA:          -5.841
REMARK INTER:                  -4.171
REMARK INTRA:                  -1.670
REMARK UNBOUND:                -1.325
REMARK SMILES CCCCCCCCCCCCCC(=O)[O-]
REMARK SMILES IDX 8 1 9 2 10 3 11 4 12 5 13 6 14 7 15 8 16 9 7 10 6 11 5 12
REMARK SMILES IDX 4 13 3 14 2 15 1 16
REMARK H PARENT
REMARK Flexibility Score: inf
ROOT
ATOM      1  C   UNL     1       4.595   4.027   0.710  1.00  0.00     0.000 C 
ENDROOT
BRANCH   1   2
ATOM      2  C   UNL     1       4.184   5.103   1.722  1.00  0.00     0.000 C 
BRANCH   2   3
ATOM      3  C   UNL     1       3.644   6.352   1.010  1.00  0.00     0.000 C 
BRANCH   3   4
ATOM      4  C   UNL     1       4.376   7.636   1.428  1.00  0.00     0.000 C 
BRANCH   4   5
ATOM      5  C   UNL     1       3.966   8.125   2.826  1.00  0.00     0.006 C 
BRANCH   5   6
ATOM      6  C   UNL     1       2.445   8.088   2.995  1.00  0.00     0.053 C 
BRANCH   6   7
ATOM      7  C   UNL     1       2.081   7.580   4.353  1.00  0.00     0.041 C 
ATOM      8  O   UNL     1       2.899   6.882   5.010  1.00  0.00    -0.550 OA
ATOM      9  O   UNL     1       0.856   7.916   4.916  1.00  0.00    -0.550 OA
ENDBRANCH   6   7
ENDBRANCH   5   6
ENDBRANCH   4   5
ENDBRANCH   3   4
ENDBRANCH   2   3
ENDBRANCH   1   2
BRANCH   1  10
ATOM     10  C   UNL     1       6.123   3.946   0.580  1.00  0.00     0.000 C 
BRANCH  10  11
ATOM     11  C   UNL     1       6.851   4.303   1.887  1.00  0.00    -0.000 C 
BRANCH  11  12
ATOM     12  C   UNL     1       8.054   5.234   1.658  1.00  0.00    -0.000 C 
BRANCH  12  13
ATOM     13  C   UNL     1       7.831   6.639   2.240  1.00  0.00    -0.000 C 
BRANCH  13  14
ATOM     14  C   UNL     1       8.103   7.754   1.214  1.00  0.00    -0.000 C 
BRANCH  14  15
ATOM     15  C   UNL     1       8.004   7.256  -0.236  1.00  0.00    -0.003 C 
ATOM     16  C   UNL     1       6.794   7.822  -0.977  1.00  0.00     0.004 C 
ENDBRANCH  14  15
ENDBRANCH  13  14
ENDBRANCH  12  13
ENDBRANCH  11  12
ENDBRANCH  10  11
ENDBRANCH   1  10
TORSDOF 12
ENDMDL
MODEL 3
REMARK VINA RESULT:    -2.548      2.812      5.019
REMARK INTER + INTRA:          -5.660
REMARK INTER:                  -4.383
REMARK INTRA:                  -1.277
REMARK UNBOUND:                -1.325
REMARK SMILES CCCCCCCCCCCCCC(=O)[O-]
REMARK SMILES IDX 8 1 9 2 10 3 11 4 12 5 13 6 14 7 15 8 16 9 7 10 6 11 5 12
REMARK SMILES IDX 4 13 3 14 2 15 1 16
REMARK H PARENT
REMARK Flexibility Score: inf
ROOT
ATOM      1  C   UNL     1       4.793   4.713   1.353  1.00  0.00     0.000 C 
ENDROOT
BRANCH   1   2
ATOM      2  C   UNL     1       4.491   5.413   0.022  1.00  0.00     0.000 C 
BRANCH   2   3
ATOM      3  C   UNL     1       4.527   6.940   0.181  1.00  0.00     0.000 C 
BRANCH   3   4
ATOM      4  C   UNL     1       3.198   7.513   0.696  1.00  0.00     0.000 C 
BRANCH   4   5
ATOM      5  C   UNL     1       3.319   8.122   2.101  1.00  0.00     0.006 C 
BRANCH   5   6
ATOM      6  C   UNL     1       1.989   8.030   2.855  1.00  0.00     0.053 C 
BRANCH   6   7
ATOM      7  C   UNL     1       2.218   7.610   4.273  1.00  0.00     0.041 C 
ATOM      8  O   UNL     1       1.410   7.955   5.175  1.00  0.00    -0.550 OA
ATOM      9  O   UNL     1       3.299   6.798   4.590  1.00  0.00    -0.550 OA
ENDBRANCH   6   7
ENDBRANCH   5   6
ENDBRANCH   4   5
ENDBRANCH   3   4
ENDBRANCH   2   3
ENDBRANCH   1   2
BRANCH   1  10
ATOM     10  C   UNL     1       5.955   3.719   1.202  1.00  0.00     0.000 C 
BRANCH  10  11
ATOM     11  C   UNL     1       7.307   4.314   1.627  1.00  0.00    -0.000 C 
BRANCH  11  12
ATOM     12  C   UNL     1       8.101   4.884   0.439  1.00  0.00    -0.000 C 
BRANCH  12  13
ATOM     13  C   UNL     1       7.967   6.411   0.318  1.00  0.00    -0.000 C 
BRANCH  13  14
ATOM     14  C   UNL     1       8.125   7.128   1.671  1.00  0.00    -0.000 C 
BRANCH  14  15
ATOM     15  C   UNL     1       6.931   8.038   1.998  1.00  0.00    -0.003 C 
ATOM     16  C   UNL     1       6.390   7.824   3.411  1.00  0.00     0.004 C 
ENDBRANCH  14  15
ENDBRANCH  13  14
ENDBRANCH  12  13
ENDBRANCH  11  12
ENDBRANCH  10  11
ENDBRANCH   1  10
TORSDOF 12
ENDMDL
MODEL 4
REMARK VINA RESULT:    -2.170     21.415     23.174
REMARK INTER + INTRA:          -5.017
REMARK INTER:                  -4.300
REMARK INTRA:                  -0.717
REMARK UNBOUND:                -1.325
REMARK SMILES CCCCCCCCCCCCCC(=O)[O-]
REMARK SMILES IDX 8 1 9 2 10 3 11 4 12 5 13 6 14 7 15 8 16 9 7 10 6 11 5 12
REMARK SMILES IDX 4 13 3 14 2 15 1 16
REMARK H PARENT
REMARK Flexibility Score: inf
ROOT
ATOM      1  C   UNL     1      -8.178 -11.719   0.456  1.00  0.00     0.000 C 
ENDROOT
BRANCH   1   2
ATOM      2  C   UNL     1      -9.665 -11.630   0.089  1.00  0.00     0.000 C 
BRANCH   2   3
ATOM      3  C   UNL     1      -9.861 -11.690  -1.433  1.00  0.00     0.000 C 
BRANCH   3   4
ATOM      4  C   UNL     1     -10.177 -10.317  -2.045  1.00  0.00     0.000 C 
BRANCH   4   5
ATOM      5  C   UNL     1     -11.022 -10.417  -3.324  1.00  0.00     0.006 C 
BRANCH   5   6
ATOM      6  C   UNL     1     -10.316 -11.270  -4.382  1.00  0.00     0.053 C 
BRANCH   6   7
ATOM      7  C   UNL     1      -9.089 -10.575  -4.881  1.00  0.00     0.041 C 
ATOM      8  O   UNL     1      -9.189  -9.609  -5.684  1.00  0.00    -0.550 OA
ATOM      9  O   UNL     1      -7.836 -10.962  -4.424  1.00  0.00    -0.550 OA
ENDBRANCH   6   7
ENDBRANCH   5   6
ENDBRANCH   4   5
ENDBRANCH   3   4
ENDBRANCH   2   3
ENDBRANCH   1   2
BRANCH   1  10
ATOM     10  C   UNL     1      -7.997 -12.047   1.946  1.00  0.00     0.000 C 
BRANCH  10  11
ATOM     11  C   UNL     1      -6.520 -12.125   2.362  1.00  0.00    -0.000 C 
BRANCH  11  12
ATOM     12  C   UNL     1      -5.947 -10.755   2.766  1.00  0.00    -0.000 C 
BRANCH  12  13
ATOM     13  C   UNL     1      -5.595 -10.680   4.261  1.00  0.00    -0.000 C 
BRANCH  13  14
ATOM     14  C   UNL     1      -6.013 -11.946   5.031  1.00  0.00    -0.000 C 
BRANCH  14  15
ATOM     15  C   UNL     1      -7.143 -11.676   6.037  1.00  0.00    -0.003 C 
ATOM     16  C   UNL     1      -8.512 -12.123   5.525  1.00  0.00     0.004 C 
ENDBRANCH  14  15
ENDBRANCH  13  14
ENDBRANCH  12  13
ENDBRANCH  11  12
ENDBRANCH  10  11
ENDBRANCH   1  10
TORSDOF 12
ENDMDL
MODEL 5
REMARK VINA RESULT:    -2.136     22.703     24.151
REMARK INTER + INTRA:          -4.960
REMARK INTER:                  -4.595
REMARK INTRA:                  -0.364
REMARK UNBOUND:                -1.325
REMARK SMILES CCCCCCCCCCCCCC(=O)[O-]
REMARK SMILES IDX 8 1 9 2 10 3 11 4 12 5 13 6 14 7 15 8 16 9 7 10 6 11 5 12
REMARK SMILES IDX 4 13 3 14 2 15 1 16
REMARK H PARENT
REMARK Flexibility Score: inf
ROOT
ATOM      1  C   UNL     1      -9.789 -10.745   8.532  1.00  0.00     0.000 C 
ENDROOT
BRANCH   1   2
ATOM      2  C   UNL     1      -9.208 -12.105   8.124  1.00  0.00     0.000 C 
BRANCH   2   3
ATOM      3  C   UNL     1      -8.842 -12.122   6.632  1.00  0.00     0.000 C 
BRANCH   3   4
ATOM      4  C   UNL     1      -7.325 -12.124   6.394  1.00  0.00     0.000 C 
BRANCH   4   5
ATOM      5  C   UNL     1      -6.950 -11.764   4.949  1.00  0.00     0.006 C 
BRANCH   5   6
ATOM      6  C   UNL     1      -5.651 -10.954   4.905  1.00  0.00     0.053 C 
BRANCH   6   7
ATOM      7  C   UNL     1      -5.211 -10.744   3.491  1.00  0.00     0.041 C 
ATOM      8  O   UNL     1      -6.049 -10.800   2.552  1.00  0.00    -0.550 OA
ATOM      9  O   UNL     1      -3.885 -10.439   3.213  1.00  0.00    -0.550 OA
ENDBRANCH   6   7
ENDBRANCH   5   6
ENDBRANCH   4   5
ENDBRANCH   3   4
ENDBRANCH   2   3
ENDBRANCH   1   2
BRANCH   1  10
ATOM     10  C   UNL     1     -11.313 -10.827   8.708  1.00  0.00     0.000 C 
BRANCH  10  11
ATOM     11  C   UNL     1     -11.726 -11.640   9.945  1.00  0.00    -0.000 C 
BRANCH  11  12
ATOM     12  C   UNL     1     -10.655 -11.620  11.049  1.00  0.00    -0.000 C 
BRANCH  12  13
ATOM     13  C   UNL     1     -11.221 -12.005  12.427  1.00  0.00    -0.000 C 
BRANCH  13  14
ATOM     14  C   UNL     1     -11.773 -10.793  13.199  1.00  0.00    -0.000 C 
BRANCH  14  15
ATOM     15  C   UNL     1     -11.180  -9.463  12.707  1.00  0.00    -0.003 C 
ATOM     16  C   UNL     1     -11.632  -8.267  13.544  1.00  0.00     0.004 C 
ENDBRANCH  14  15
ENDBRANCH  13  14
ENDBRANCH  12  13
ENDBRANCH  11  12
ENDBRANCH  10  11
ENDBRANCH   1  10
TORSDOF 12
ENDMDL
MODEL 6
REMARK VINA RESULT:    -2.128      1.431      3.517
REMARK INTER + INTRA:          -4.945
REMARK INTER:                  -4.051
REMARK INTRA:                  -0.894
REMARK UNBOUND:                -1.325
REMARK SMILES CCCCCCCCCCCCCC(=O)[O-]
REMARK SMILES IDX 8 1 9 2 10 3 11 4 12 5 13 6 14 7 15 8 16 9 7 10 6 11 5 12
REMARK SMILES IDX 4 13 3 14 2 15 1 16
REMARK H PARENT
REMARK Flexibility Score: inf
ROOT
ATOM      1  C   UNL     1       3.936   4.669   0.931  1.00  0.00     0.000 C 
ENDROOT
BRANCH   1   2
ATOM      2  C   UNL     1       4.041   5.080   2.405  1.00  0.00     0.000 C 
BRANCH   2   3
ATOM      3  C   UNL     1       3.851   6.596   2.568  1.00  0.00     0.000 C 
BRANCH   3   4
ATOM      4  C   UNL     1       3.294   7.263   1.301  1.00  0.00     0.000 C 
BRANCH   4   5
ATOM      5  C   UNL     1       4.339   8.125   0.576  1.00  0.00     0.006 C 
BRANCH   5   6
ATOM      6  C   UNL     1       4.119   8.094  -0.939  1.00  0.00     0.053 C 
BRANCH   6   7
ATOM      7  C   UNL     1       5.405   7.812  -1.650  1.00  0.00     0.041 C 
ATOM      8  O   UNL     1       6.403   7.387  -1.010  1.00  0.00    -0.550 OA
ATOM      9  O   UNL     1       5.487   7.972  -3.027  1.00  0.00    -0.550 OA
ENDBRANCH   6   7
ENDBRANCH   5   6
ENDBRANCH   4   5
ENDBRANCH   3   4
ENDBRANCH   2   3
ENDBRANCH   1   2
BRANCH   1  10
ATOM     10  C   UNL     1       5.321   4.355   0.346  1.00  0.00     0.000 C 
BRANCH  10  11
ATOM     11  C   UNL     1       6.306   3.824   1.401  1.00  0.00    -0.000 C 
BRANCH  11  12
ATOM     12  C   UNL     1       7.740   4.333   1.178  1.00  0.00    -0.000 C 
BRANCH  12  13
ATOM     13  C   UNL     1       8.125   5.460   2.152  1.00  0.00    -0.000 C 
BRANCH  13  14
ATOM     14  C   UNL     1       7.501   6.813   1.766  1.00  0.00    -0.000 C 
BRANCH  14  15
ATOM     15  C   UNL     1       7.545   7.831   2.916  1.00  0.00    -0.003 C 
ATOM     16  C   UNL     1       6.178   8.059   3.559  1.00  0.00     0.004 C 
ENDBRANCH  14  15
ENDBRANCH  13  14
ENDBRANCH  12  13
ENDBRANCH  11  12
ENDBRANCH  10  11
ENDBRANCH   1  10
TORSDOF 12
ENDMDL
MODEL 7
REMARK VINA RESULT:    -2.049      1.746      3.236
REMARK INTER + INTRA:          -4.811
REMARK INTER:                  -4.934
REMARK INTRA:                   0.123
REMARK UNBOUND:                -1.325
REMARK SMILES CCCCCCCCCCCCCC(=O)[O-]
REMARK SMILES IDX 8 1 9 2 10 3 11 4 12 5 13 6 14 7 15 8 16 9 7 10 6 11 5 12
REMARK SMILES IDX 4 13 3 14 2 15 1 16
REMARK H PARENT
REMARK Flexibility Score: inf
ROOT
ATOM      1  C   UNL     1       6.782   8.007   1.793  1.00  0.00     0.000 C 
ENDROOT
BRANCH   1   2
ATOM      2  C   UNL     1       8.025   7.132   2.000  1.00  0.00     0.000 C 
BRANCH   2   3
ATOM      3  C   UNL     1       7.637   5.743   2.529  1.00  0.00     0.000 C 
BRANCH   3   4
ATOM      4  C   UNL     1       8.124   4.606   1.618  1.00  0.00     0.000 C 
BRANCH   4   5
ATOM      5  C   UNL     1       6.980   3.698   1.140  1.00  0.00     0.006 C 
BRANCH   5   6
ATOM      6  C   UNL     1       5.619   4.271   1.547  1.00  0.00     0.053 C 
BRANCH   6   7
ATOM      7  C   UNL     1       4.809   4.608   0.335  1.00  0.00     0.041 C 
ATOM      8  O   UNL     1       3.552   4.634   0.400  1.00  0.00    -0.550 OA
ATOM      9  O   UNL     1       5.444   4.940  -0.855  1.00  0.00    -0.550 OA
ENDBRANCH   6   7
ENDBRANCH   5   6
ENDBRANCH   4   5
ENDBRANCH   3   4
ENDBRANCH   2   3
ENDBRANCH   1   2
BRANCH   1  10
ATOM     10  C   UNL     1       5.836   7.384   0.756  1.00  0.00     0.000 C 
BRANCH  10  11
ATOM     11  C   UNL     1       4.440   8.028   0.763  1.00  0.00    -0.000 C 
BRANCH  11  12
ATOM     12  C   UNL     1       3.841   8.125   2.176  1.00  0.00    -0.000 C 
BRANCH  12  13
ATOM     13  C   UNL     1       3.701   6.751   2.853  1.00  0.00    -0.000 C 
BRANCH  13  14
ATOM     14  C   UNL     1       2.700   6.768   4.023  1.00  0.00    -0.000 C 
BRANCH  14  15
ATOM     15  C   UNL     1       1.842   8.042   4.045  1.00  0.00    -0.003 C 
ATOM     16  C   UNL     1       0.763   8.013   5.126  1.00  0.00     0.004 C 
ENDBRANCH  14  15
ENDBRANCH  13  14
ENDBRANCH  12  13
ENDBRANCH  11  12
ENDBRANCH  10  11
ENDBRANCH   1  10
TORSDOF 12
ENDMDL
MODEL 8
REMARK VINA RESULT:    -1.965      2.348      4.391
REMARK INTER + INTRA:          -4.668
REMARK INTER:                  -3.553
REMARK INTRA:                  -1.116
REMARK UNBOUND:                -1.325
REMARK SMILES CCCCCCCCCCCCCC(=O)[O-]
REMARK SMILES IDX 8 1 9 2 10 3 11 4 12 5 13 6 14 7 15 8 16 9 7 10 6 11 5 12
REMARK SMILES IDX 4 13 3 14 2 15 1 16
REMARK H PARENT
REMARK Flexibility Score: inf
ROOT
ATOM      1  C   UNL     1       7.294   4.456   0.999  1.00  0.00     0.000 C 
ENDROOT
BRANCH   1   2
ATOM      2  C   UNL     1       7.913   4.981   2.301  1.00  0.00     0.000 C 
BRANCH   2   3
ATOM      3  C   UNL     1       8.125   6.500   2.236  1.00  0.00     0.000 C 
BRANCH   3   4
ATOM      4  C   UNL     1       7.419   7.246   3.379  1.00  0.00     0.000 C 
BRANCH   4   5
ATOM      5  C   UNL     1       6.055   7.818   2.961  1.00  0.00     0.006 C 
BRANCH   5   6
ATOM      6  C   UNL     1       5.185   8.110   4.187  1.00  0.00     0.053 C 
BRANCH   6   7
ATOM      7  C   UNL     1       3.810   7.553   3.998  1.00  0.00     0.041 C 
ATOM      8  O   UNL     1       2.881   7.877   4.785  1.00  0.00    -0.550 OA
ATOM      9  O   UNL     1       3.541   6.714   2.924  1.00  0.00    -0.550 OA
ENDBRANCH   6   7
ENDBRANCH   5   6
ENDBRANCH   4   5
ENDBRANCH   3   4
ENDBRANCH   2   3
ENDBRANCH   1   2
BRANCH   1  10
ATOM     10  C   UNL     1       5.760   4.482   1.068  1.00  0.00     0.000 C 
BRANCH  10  11
ATOM     11  C   UNL     1       5.117   5.060  -0.203  1.00  0.00    -0.000 C 
BRANCH  11  12
ATOM     12  C   UNL     1       4.471   6.436   0.035  1.00  0.00    -0.000 C 
BRANCH  12  13
ATOM     13  C   UNL     1       5.474   7.592  -0.118  1.00  0.00    -0.000 C 
BRANCH  13  14
ATOM     14  C   UNL     1       5.604   8.073  -1.574  1.00  0.00    -0.000 C 
BRANCH  14  15
ATOM     15  C   UNL     1       7.064   8.121  -2.049  1.00  0.00    -0.003 C 
ATOM     16  C   UNL     1       8.061   7.808  -0.933  1.00  0.00     0.004 C 
ENDBRANCH  14  15
ENDBRANCH  13  14
ENDBRANCH  12  13
ENDBRANCH  11  12
ENDBRANCH  10  11
ENDBRANCH   1  10
TORSDOF 12
ENDMDL
MODEL 9
REMARK VINA RESULT:    -0.573     23.127     25.145
REMARK INTER + INTRA:          -2.300
REMARK INTER:                  -1.987
REMARK INTRA:                  -0.313
REMARK UNBOUND:                -1.325
REMARK SMILES CCCCCCCCCCCCCC(=O)[O-]
REMARK SMILES IDX 8 1 9 2 10 3 11 4 12 5 13 6 14 7 15 8 16 9 7 10 6 11 5 12
REMARK SMILES IDX 4 13 3 14 2 15 1 16
REMARK H PARENT
REMARK Flexibility Score: inf
ROOT
ATOM      1  C   UNL     1      -8.830 -11.331   8.683  1.00  0.00     0.000 C 
ENDROOT
BRANCH   1   2
ATOM      2  C   UNL     1     -10.301 -11.208   9.099  1.00  0.00     0.000 C 
BRANCH   2   3
ATOM      3  C   UNL     1     -10.565 -11.954  10.416  1.00  0.00     0.000 C 
BRANCH   3   4
ATOM      4  C   UNL     1     -12.012 -11.796  10.907  1.00  0.00     0.000 C 
BRANCH   4   5
ATOM      5  C   UNL     1     -12.125 -10.882  12.137  1.00  0.00     0.006 C 
BRANCH   5   6
ATOM      6  C   UNL     1     -11.309  -9.601  11.944  1.00  0.00     0.053 C 
BRANCH   6   7
ATOM      7  C   UNL     1     -11.124  -8.896  13.251  1.00  0.00     0.041 C 
ATOM      8  O   UNL     1     -11.968  -8.044  13.637  1.00  0.00    -0.550 OA
ATOM      9  O   UNL     1     -10.045  -9.214  14.065  1.00  0.00    -0.550 OA
ENDBRANCH   6   7
ENDBRANCH   5   6
ENDBRANCH   4   5
ENDBRANCH   3   4
ENDBRANCH   2   3
ENDBRANCH   1   2
BRANCH   1  10
ATOM     10  C   UNL     1      -8.701 -11.997   7.305  1.00  0.00     0.000 C 
BRANCH  10  11
ATOM     11  C   UNL     1      -7.250 -12.044   6.801  1.00  0.00    -0.000 C 
BRANCH  11  12
ATOM     12  C   UNL     1      -7.157 -12.003   5.266  1.00  0.00    -0.000 C 
BRANCH  12  13
ATOM     13  C   UNL     1      -5.864 -11.334   4.770  1.00  0.00    -0.000 C 
BRANCH  13  14
ATOM     14  C   UNL     1      -5.926 -10.960   3.278  1.00  0.00    -0.000 C 
BRANCH  14  15
ATOM     15  C   UNL     1      -6.410 -12.124   2.400  1.00  0.00    -0.003 C 
ATOM     16  C   UNL     1      -7.572 -11.735   1.487  1.00  0.00     0.004 C 
ENDBRANCH  14  15
ENDBRANCH  13  14
ENDBRANCH  12  13
ENDBRANCH  11  12
ENDBRANCH  10  11
ENDBRANCH   1  10
TORSDOF 12
ENDMDL
