MODEL 1
REMARK VINA RESULT:    -5.715      0.000      0.000
REMARK INTER + INTRA:         -12.037
REMARK INTER:                 -10.392
REMARK INTRA:                  -1.645
REMARK UNBOUND:                -1.645
REMARK SMILES CCCCCCCCCCCCCC[C@H](C)C(=O)[O-]
REMARK SMILES IDX 9 1 10 2 11 3 12 4 13 5 14 6 15 7 16 8 17 9 18 10 19 11 8 12
REMARK SMILES IDX 7 13 6 14 5 15 4 16 3 17 2 18 1 19
REMARK H PARENT
REMARK Flexibility Score: inf
ROOT
ATOM      1  C   UNL     1      -8.012  14.783   9.371  1.00  0.00     0.000 C 
ENDROOT
BRANCH   1   2
ATOM      2  C   UNL     1      -8.436  15.785  10.458  1.00  0.00     0.000 C 
BRANCH   2   3
ATOM      3  C   UNL     1      -7.421  15.884  11.607  1.00  0.00     0.000 C 
BRANCH   3   4
ATOM      4  C   UNL     1      -8.057  15.657  12.990  1.00  0.00     0.000 C 
BRANCH   4   5
ATOM      5  C   UNL     1      -7.985  14.189  13.472  1.00  0.00     0.001 C 
BRANCH   5   6
ATOM      6  C   UNL     1      -6.837  13.416  12.790  1.00  0.00     0.009 C 
BRANCH   6   7
ATOM      7  C   UNL     1      -7.291  12.144  12.036  1.00  0.00     0.032 C 
ATOM      8  C   UNL     1      -8.815  11.930  12.112  1.00  0.00     0.014 C 
BRANCH   7   9
ATOM      9  C   UNL     1      -6.518  10.927  12.483  1.00  0.00     0.044 C 
ATOM     10  O   UNL     1      -6.622  10.483  13.660  1.00  0.00    -0.550 OA
ATOM     11  O   UNL     1      -5.637  10.313  11.598  1.00  0.00    -0.550 OA
ENDBRANCH   7   9
ENDBRANCH   6   7
ENDBRANCH   5   6
ENDBRANCH   4   5
ENDBRANCH   3   4
ENDBRANCH   2   3
ENDBRANCH   1   2
BRANCH   1  12
ATOM     12  C   UNL     1      -9.196  14.219   8.557  1.00  0.00     0.000 C 
BRANCH  12  13
ATOM     13  C   UNL     1     -10.403  13.876   9.449  1.00  0.00    -0.000 C 
BRANCH  13  14
ATOM     14  C   UNL     1     -10.948  12.462   9.194  1.00  0.00    -0.000 C 
BRANCH  14  15
ATOM     15  C   UNL     1     -10.912  12.073   7.709  1.00  0.00    -0.000 C 
BRANCH  15  16
ATOM     16  C   UNL     1     -11.918  10.955   7.405  1.00  0.00    -0.000 C 
BRANCH  16  17
ATOM     17  C   UNL     1     -11.913  10.606   5.912  1.00  0.00    -0.000 C 
BRANCH  17  18
ATOM     18  C   UNL     1     -11.002  11.558   5.126  1.00  0.00    -0.003 C 
ATOM     19  C   UNL     1     -10.872  11.118   3.670  1.00  0.00     0.004 C 
ENDBRANCH  17  18
ENDBRANCH  16  17
ENDBRANCH  15  16
ENDBRANCH  14  15
ENDBRANCH  13  14
ENDBRANCH  12  13
ENDBRANCH   1  12
TORSDOF 14
ENDMDL
MODEL 2
REMARK VINA RESULT:    -5.516      4.448      8.252
REMARK INTER + INTRA:         -11.676
REMARK INTER:                 -10.575
REMARK INTRA:                  -1.101
REMARK UNBOUND:                -1.645
REMARK SMILES CCCCCCCCCCCCCC[C@H](C)C(=O)[O-]
REMARK SMILES IDX 9 1 10 2 11 3 12 4 13 5 14 6 15 7 16 8 17 9 18 10 19 11 8 12
REMARK SMILES IDX 7 13 6 14 5 15 4 16 3 17 2 18 1 19
REMARK H PARENT
REMARK Flexibility Score: inf
ROOT
ATOM      1  C   UNL     1     -11.994  10.346   6.635  1.00  0.00     0.000 C 
ENDROOT
BRANCH   1   2
ATOM      2  C   UNL     1     -11.320  11.472   5.831  1.00  0.00     0.000 C 
BRANCH   2   3
ATOM      3  C   UNL     1     -11.124  11.111   4.350  1.00  0.00     0.000 C 
BRANCH   3   4
ATOM      4  C   UNL     1     -10.015  11.937   3.675  1.00  0.00     0.000 C 
BRANCH   4   5
ATOM      5  C   UNL     1      -9.250  12.863   4.649  1.00  0.00     0.001 C 
BRANCH   5   6
ATOM      6  C   UNL     1      -7.955  13.417   4.020  1.00  0.00     0.009 C 
BRANCH   6   7
ATOM      7  C   UNL     1      -7.494  12.661   2.752  1.00  0.00     0.032 C 
ATOM      8  C   UNL     1      -6.250  11.789   3.008  1.00  0.00     0.014 C 
BRANCH   7   9
ATOM      9  C   UNL     1      -7.307  13.599   1.584  1.00  0.00     0.044 C 
ATOM     10  O   UNL     1      -8.294  14.024   0.921  1.00  0.00    -0.550 OA
ATOM     11  O   UNL     1      -6.020  13.964   1.199  1.00  0.00    -0.550 OA
ENDBRANCH   7   9
ENDBRANCH   6   7
ENDBRANCH   5   6
ENDBRANCH   4   5
ENDBRANCH   3   4
ENDBRANCH   2   3
ENDBRANCH   1   2
BRANCH   1  12
ATOM     12  C   UNL     1     -12.142  10.667   8.138  1.00  0.00     0.000 C 
BRANCH  12  13
ATOM     13  C   UNL     1     -11.961  12.167   8.433  1.00  0.00    -0.000 C 
BRANCH  13  14
ATOM     14  C   UNL     1     -10.757  12.452   9.344  1.00  0.00    -0.000 C 
BRANCH  14  15
ATOM     15  C   UNL     1     -10.398  13.944   9.400  1.00  0.00    -0.000 C 
BRANCH  15  16
ATOM     16  C   UNL     1      -9.150  14.246   8.561  1.00  0.00    -0.000 C 
BRANCH  16  17
ATOM     17  C   UNL     1      -8.005  14.754   9.446  1.00  0.00    -0.000 C 
BRANCH  17  18
ATOM     18  C   UNL     1      -8.535  15.664  10.563  1.00  0.00    -0.003 C 
ATOM     19  C   UNL     1      -7.497  16.712  10.956  1.00  0.00     0.004 C 
ENDBRANCH  17  18
ENDBRANCH  16  17
ENDBRANCH  15  16
ENDBRANCH  14  15
ENDBRANCH  13  14
ENDBRANCH  12  13
ENDBRANCH   1  12
TORSDOF 14
ENDMDL
MODEL 3
REMARK VINA RESULT:    -5.508      1.303      2.515
REMARK INTER + INTRA:         -11.660
REMARK INTER:                 -10.206
REMARK INTRA:                  -1.454
REMARK UNBOUND:                -1.645
REMARK SMILES CCCCCCCCCCCCCC[C@H](C)C(=O)[O-]
REMARK SMILES IDX 9 1 10 2 11 3 12 4 13 5 14 6 15 7 16 8 17 9 18 10 19 11 8 12
REMARK SMILES IDX 7 13 6 14 5 15 4 16 3 17 2 18 1 19
REMARK H PARENT
REMARK Flexibility Score: inf
ROOT
ATOM      1  C   UNL     1     -10.809  13.246   9.438  1.00  0.00     0.000 C 
ENDROOT
BRANCH   1   2
ATOM      2  C   UNL     1     -10.102  14.609   9.341  1.00  0.00     0.000 C 
BRANCH   2   3
ATOM      3  C   UNL     1      -8.689  14.507   8.744  1.00  0.00     0.000 C 
BRANCH   3   4
ATOM      4  C   UNL     1      -7.598  14.332   9.815  1.00  0.00     0.000 C 
BRANCH   4   5
ATOM      5  C   UNL     1      -7.957  14.971  11.177  1.00  0.00     0.001 C 
BRANCH   5   6
ATOM      6  C   UNL     1      -7.719  13.998  12.350  1.00  0.00     0.009 C 
BRANCH   6   7
ATOM      7  C   UNL     1      -7.669  12.508  11.936  1.00  0.00     0.032 C 
ATOM      8  C   UNL     1      -8.988  11.771  12.235  1.00  0.00     0.014 C 
BRANCH   7   9
ATOM      9  C   UNL     1      -6.472  11.807  12.532  1.00  0.00     0.044 C 
ATOM     10  O   UNL     1      -5.872  12.279  13.537  1.00  0.00    -0.550 OA
ATOM     11  O   UNL     1      -5.992  10.646  11.934  1.00  0.00    -0.550 OA
ENDBRANCH   7   9
ENDBRANCH   6   7
ENDBRANCH   5   6
ENDBRANCH   4   5
ENDBRANCH   3   4
ENDBRANCH   2   3
ENDBRANCH   1   2
BRANCH   1  12
ATOM     12  C   UNL     1     -10.846  12.474   8.101  1.00  0.00     0.000 C 
BRANCH  12  13
ATOM     13  C   UNL     1     -11.676  11.181   8.200  1.00  0.00    -0.000 C 
BRANCH  13  14
ATOM     14  C   UNL     1     -11.943  10.541   6.829  1.00  0.00    -0.000 C 
BRANCH  14  15
ATOM     15  C   UNL     1     -11.878  11.557   5.679  1.00  0.00    -0.000 C 
BRANCH  15  16
ATOM     16  C   UNL     1     -10.968  11.057   4.549  1.00  0.00    -0.000 C 
BRANCH  16  17
ATOM     17  C   UNL     1     -10.437  12.229   3.716  1.00  0.00    -0.000 C 
BRANCH  17  18
ATOM     18  C   UNL     1      -9.328  12.981   4.465  1.00  0.00    -0.003 C 
ATOM     19  C   UNL     1      -8.242  13.458   3.504  1.00  0.00     0.004 C 
ENDBRANCH  17  18
ENDBRANCH  16  17
ENDBRANCH  15  16
ENDBRANCH  14  15
ENDBRANCH  13  14
ENDBRANCH  12  13
ENDBRANCH   1  12
TORSDOF 14
ENDMDL
MODEL 4
REMARK VINA RESULT:    -5.301      5.926      8.076
REMARK INTER + INTRA:         -11.284
REMARK INTER:                 -10.090
REMARK INTRA:                  -1.194
REMARK UNBOUND:                -1.645
REMARK SMILES CCCCCCCCCCCCCC[C@H](C)C(=O)[O-]
REMARK SMILES IDX 9 1 10 2 11 3 12 4 13 5 14 6 15 7 16 8 17 9 18 10 19 11 8 12
REMARK SMILES IDX 7 13 6 14 5 15 4 16 3 17 2 18 1 19
REMARK H PARENT
REMARK Flexibility Score: inf
ROOT
ATOM      1  C   UNL     1     -11.635  11.336   5.097  1.00  0.00     0.000 C 
ENDROOT
BRANCH   1   2
ATOM      2  C   UNL     1     -11.191  11.549   6.555  1.00  0.00     0.000 C 
BRANCH   2   3
ATOM      3  C   UNL     1     -11.916  10.619   7.541  1.00  0.00     0.000 C 
BRANCH   3   4
ATOM      4  C   UNL     1     -12.716   9.508   6.838  1.00  0.00     0.000 C 
BRANCH   4   5
ATOM      5  C   UNL     1     -13.330   8.476   7.812  1.00  0.00     0.001 C 
BRANCH   5   6
ATOM      6  C   UNL     1     -13.880   7.241   7.069  1.00  0.00     0.009 C 
BRANCH   6   7
ATOM      7  C   UNL     1     -14.242   6.055   7.994  1.00  0.00     0.032 C 
ATOM      8  C   UNL     1     -14.992   4.936   7.247  1.00  0.00     0.014 C 
BRANCH   7   9
ATOM      9  C   UNL     1     -14.983   6.519   9.225  1.00  0.00     0.044 C 
ATOM     10  O   UNL     1     -16.171   6.940   9.154  1.00  0.00    -0.550 OA
ATOM     11  O   UNL     1     -14.329   6.529  10.454  1.00  0.00    -0.550 OA
ENDBRANCH   7   9
ENDBRANCH   6   7
ENDBRANCH   5   6
ENDBRANCH   4   5
ENDBRANCH   3   4
ENDBRANCH   2   3
ENDBRANCH   1   2
BRANCH   1  12
ATOM     12  C   UNL     1     -10.457  11.190   4.110  1.00  0.00     0.000 C 
BRANCH  12  13
ATOM     13  C   UNL     1     -10.314  12.417   3.191  1.00  0.00    -0.000 C 
BRANCH  13  14
ATOM     14  C   UNL     1      -9.556  13.575   3.859  1.00  0.00    -0.000 C 
BRANCH  14  15
ATOM     15  C   UNL     1      -8.079  13.244   4.117  1.00  0.00    -0.000 C 
BRANCH  15  16
ATOM     16  C   UNL     1      -7.345  12.929   2.807  1.00  0.00    -0.000 C 
BRANCH  16  17
ATOM     17  C   UNL     1      -6.437  11.705   2.969  1.00  0.00    -0.000 C 
BRANCH  17  18
ATOM     18  C   UNL     1      -7.189  10.411   2.625  1.00  0.00    -0.003 C 
ATOM     19  C   UNL     1      -7.728  10.453   1.197  1.00  0.00     0.004 C 
ENDBRANCH  17  18
ENDBRANCH  16  17
ENDBRANCH  15  16
ENDBRANCH  14  15
ENDBRANCH  13  14
ENDBRANCH  12  13
ENDBRANCH   1  12
TORSDOF 14
ENDMDL
MODEL 5
REMARK VINA RESULT:    -5.286      5.274      7.217
REMARK INTER + INTRA:         -11.258
REMARK INTER:                 -10.070
REMARK INTRA:                  -1.188
REMARK UNBOUND:                -1.645
REMARK SMILES CCCCCCCCCCCCCC[C@H](C)C(=O)[O-]
REMARK SMILES IDX 9 1 10 2 11 3 12 4 13 5 14 6 15 7 16 8 17 9 18 10 19 11 8 12
REMARK SMILES IDX 7 13 6 14 5 15 4 16 3 17 2 18 1 19
REMARK H PARENT
REMARK Flexibility Score: inf
ROOT
ATOM      1  C   UNL     1      -5.875  11.687   3.159  1.00  0.00     0.000 C 
ENDROOT
BRANCH   1   2
ATOM      2  C   UNL     1      -5.919  10.204   2.752  1.00  0.00     0.000 C 
BRANCH   2   3
ATOM      3  C   UNL     1      -4.750   9.391   3.331  1.00  0.00     0.000 C 
BRANCH   3   4
ATOM      4  C   UNL     1      -5.214   8.235   4.234  1.00  0.00     0.000 C 
BRANCH   4   5
ATOM      5  C   UNL     1      -4.054   7.495   4.939  1.00  0.00     0.001 C 
BRANCH   5   6
ATOM      6  C   UNL     1      -3.332   8.398   5.961  1.00  0.00     0.009 C 
BRANCH   6   7
ATOM      7  C   UNL     1      -4.270   9.356   6.732  1.00  0.00     0.032 C 
ATOM      8  C   UNL     1      -3.661  10.760   6.904  1.00  0.00     0.014 C 
BRANCH   7   9
ATOM      9  C   UNL     1      -4.717   8.759   8.044  1.00  0.00     0.044 C 
ATOM     10  O   UNL     1      -5.351   7.668   8.084  1.00  0.00    -0.550 OA
ATOM     11  O   UNL     1      -4.469   9.447   9.228  1.00  0.00    -0.550 OA
ENDBRANCH   7   9
ENDBRANCH   6   7
ENDBRANCH   5   6
ENDBRANCH   4   5
ENDBRANCH   3   4
ENDBRANCH   2   3
ENDBRANCH   1   2
BRANCH   1  12
ATOM     12  C   UNL     1      -6.464  12.636   2.094  1.00  0.00     0.000 C 
BRANCH  12  13
ATOM     13  C   UNL     1      -7.721  13.368   2.599  1.00  0.00    -0.000 C 
BRANCH  13  14
ATOM     14  C   UNL     1      -7.880  13.291   4.125  1.00  0.00    -0.000 C 
BRANCH  14  15
ATOM     15  C   UNL     1      -9.343  13.113   4.558  1.00  0.00    -0.000 C 
BRANCH  15  16
ATOM     16  C   UNL     1     -10.150  12.365   3.489  1.00  0.00    -0.000 C 
BRANCH  16  17
ATOM     17  C   UNL     1     -10.861  11.148   4.091  1.00  0.00    -0.000 C 
BRANCH  17  18
ATOM     18  C   UNL     1     -11.169  11.370   5.578  1.00  0.00    -0.003 C 
ATOM     19  C   UNL     1     -12.188  10.351   6.086  1.00  0.00     0.004 C 
ENDBRANCH  17  18
ENDBRANCH  16  17
ENDBRANCH  15  16
ENDBRANCH  14  15
ENDBRANCH  13  14
ENDBRANCH  12  13
ENDBRANCH   1  12
TORSDOF 14
ENDMDL
MODEL 6
REMARK VINA RESULT:    -5.285      3.330      5.966
REMARK INTER + INTRA:         -11.256
REMARK INTER:                 -10.278
REMARK INTRA:                  -0.978
REMARK UNBOUND:                -1.645
REMARK SMILES CCCCCCCCCCCCCC[C@H](C)C(=O)[O-]
REMARK SMILES IDX 9 1 10 2 11 3 12 4 13 5 14 6 15 7 16 8 17 9 18 10 19 11 8 12
REMARK SMILES IDX 7 13 6 14 5 15 4 16 3 17 2 18 1 19
REMARK H PARENT
REMARK Flexibility Score: inf
ROOT
ATOM      1  C   UNL     1     -11.788  10.805   6.049  1.00  0.00     0.000 C 
ENDROOT
BRANCH   1   2
ATOM      2  C   UNL     1     -12.988  11.324   6.862  1.00  0.00     0.000 C 
BRANCH   2   3
ATOM      3  C   UNL     1     -12.567  12.044   8.153  1.00  0.00     0.000 C 
BRANCH   3   4
ATOM      4  C   UNL     1     -11.063  11.911   8.450  1.00  0.00     0.000 C 
BRANCH   4   5
ATOM      5  C   UNL     1     -10.585  12.784   9.632  1.00  0.00     0.001 C 
BRANCH   5   6
ATOM      6  C   UNL     1     -10.412  14.262   9.223  1.00  0.00     0.009 C 
BRANCH   6   7
ATOM      7  C   UNL     1      -9.116  14.918   9.756  1.00  0.00     0.032 C 
ATOM      8  C   UNL     1      -8.387  14.030  10.781  1.00  0.00     0.014 C 
BRANCH   7   9
ATOM      9  C   UNL     1      -9.376  16.309  10.284  1.00  0.00     0.044 C 
ATOM     10  O   UNL     1     -10.405  16.956   9.942  1.00  0.00    -0.550 OA
ATOM     11  O   UNL     1      -8.441  16.908  11.122  1.00  0.00    -0.550 OA
ENDBRANCH   7   9
ENDBRANCH   6   7
ENDBRANCH   5   6
ENDBRANCH   4   5
ENDBRANCH   3   4
ENDBRANCH   2   3
ENDBRANCH   1   2
BRANCH   1  12
ATOM     12  C   UNL     1     -11.213  11.846   5.065  1.00  0.00     0.000 C 
BRANCH  12  13
ATOM     13  C   UNL     1     -10.487  11.186   3.879  1.00  0.00    -0.000 C 
BRANCH  13  14
ATOM     14  C   UNL     1     -10.355  12.121   2.668  1.00  0.00    -0.000 C 
BRANCH  14  15
ATOM     15  C   UNL     1      -9.809  13.506   3.047  1.00  0.00    -0.000 C 
BRANCH  15  16
ATOM     16  C   UNL     1      -8.362  13.681   2.567  1.00  0.00    -0.000 C 
BRANCH  16  17
ATOM     17  C   UNL     1      -7.378  13.030   3.545  1.00  0.00    -0.000 C 
BRANCH  17  18
ATOM     18  C   UNL     1      -6.345  12.173   2.801  1.00  0.00    -0.003 C 
ATOM     19  C   UNL     1      -6.805  10.720   2.703  1.00  0.00     0.004 C 
ENDBRANCH  17  18
ENDBRANCH  16  17
ENDBRANCH  15  16
ENDBRANCH  14  15
ENDBRANCH  13  14
ENDBRANCH  12  13
ENDBRANCH   1  12
TORSDOF 14
ENDMDL
MODEL 7
REMARK VINA RESULT:    -5.283      4.459      6.823
REMARK INTER + INTRA:         -11.251
REMARK INTER:                 -10.145
REMARK INTRA:                  -1.107
REMARK UNBOUND:                -1.645
REMARK SMILES CCCCCCCCCCCCCC[C@H](C)C(=O)[O-]
REMARK SMILES IDX 9 1 10 2 11 3 12 4 13 5 14 6 15 7 16 8 17 9 18 10 19 11 8 12
REMARK SMILES IDX 7 13 6 14 5 15 4 16 3 17 2 18 1 19
REMARK H PARENT
REMARK Flexibility Score: inf
ROOT
ATOM      1  C   UNL     1      -7.359  13.199   2.463  1.00  0.00     0.000 C 
ENDROOT
BRANCH   1   2
ATOM      2  C   UNL     1      -6.358  12.095   2.080  1.00  0.00     0.000 C 
BRANCH   2   3
ATOM      3  C   UNL     1      -6.364  10.916   3.066  1.00  0.00     0.000 C 
BRANCH   3   4
ATOM      4  C   UNL     1      -4.969  10.604   3.635  1.00  0.00     0.000 C 
BRANCH   4   5
ATOM      5  C   UNL     1      -4.827   9.162   4.174  1.00  0.00     0.001 C 
BRANCH   5   6
ATOM      6  C   UNL     1      -3.862   9.090   5.376  1.00  0.00     0.009 C 
BRANCH   6   7
ATOM      7  C   UNL     1      -4.384   9.794   6.650  1.00  0.00     0.032 C 
ATOM      8  C   UNL     1      -3.553  11.038   7.016  1.00  0.00     0.014 C 
BRANCH   7   9
ATOM      9  C   UNL     1      -4.511   8.829   7.805  1.00  0.00     0.044 C 
ATOM     10  O   UNL     1      -4.413   9.223   9.000  1.00  0.00    -0.550 OA
ATOM     11  O   UNL     1      -4.691   7.474   7.547  1.00  0.00    -0.550 OA
ENDBRANCH   7   9
ENDBRANCH   6   7
ENDBRANCH   5   6
ENDBRANCH   4   5
ENDBRANCH   3   4
ENDBRANCH   2   3
ENDBRANCH   1   2
BRANCH   1  12
ATOM     12  C   UNL     1      -7.612  13.302   3.982  1.00  0.00     0.000 C 
BRANCH  12  13
ATOM     13  C   UNL     1      -9.105  13.170   4.333  1.00  0.00    -0.000 C 
BRANCH  13  14
ATOM     14  C   UNL     1      -9.876  12.297   3.331  1.00  0.00    -0.000 C 
BRANCH  14  15
ATOM     15  C   UNL     1     -10.826  11.305   4.019  1.00  0.00    -0.000 C 
BRANCH  15  16
ATOM     16  C   UNL     1     -10.948  11.607   5.519  1.00  0.00    -0.000 C 
BRANCH  16  17
ATOM     17  C   UNL     1     -12.202  10.949   6.108  1.00  0.00    -0.000 C 
BRANCH  17  18
ATOM     18  C   UNL     1     -11.968  10.522   7.563  1.00  0.00    -0.003 C 
ATOM     19  C   UNL     1     -11.552  11.712   8.425  1.00  0.00     0.004 C 
ENDBRANCH  17  18
ENDBRANCH  16  17
ENDBRANCH  15  16
ENDBRANCH  14  15
ENDBRANCH  13  14
ENDBRANCH  12  13
ENDBRANCH   1  12
TORSDOF 14
ENDMDL
MODEL 8
REMARK VINA RESULT:    -5.256      2.048      4.636
REMARK INTER + INTRA:         -11.204
REMARK INTER:                  -9.838
REMARK INTRA:                  -1.366
REMARK UNBOUND:                -1.645
REMARK SMILES CCCCCCCCCCCCCC[C@H](C)C(=O)[O-]
REMARK SMILES IDX 9 1 10 2 11 3 12 4 13 5 14 6 15 7 16 8 17 9 18 10 19 11 8 12
REMARK SMILES IDX 7 13 6 14 5 15 4 16 3 17 2 18 1 19
REMARK H PARENT
REMARK Flexibility Score: inf
ROOT
ATOM      1  C   UNL     1     -11.676  11.247   8.150  1.00  0.00     0.000 C 
ENDROOT
BRANCH   1   2
ATOM      2  C   UNL     1     -12.539  12.458   8.543  1.00  0.00     0.000 C 
BRANCH   2   3
ATOM      3  C   UNL     1     -11.719  13.595   9.173  1.00  0.00     0.000 C 
BRANCH   3   4
ATOM      4  C   UNL     1     -10.222  13.260   9.290  1.00  0.00     0.000 C 
BRANCH   4   5
ATOM      5  C   UNL     1      -9.306  14.229   8.507  1.00  0.00     0.001 C 
BRANCH   5   6
ATOM      6  C   UNL     1      -8.043  14.602   9.309  1.00  0.00     0.009 C 
BRANCH   6   7
ATOM      7  C   UNL     1      -8.334  15.235  10.691  1.00  0.00     0.032 C 
ATOM      8  C   UNL     1      -7.884  16.706  10.768  1.00  0.00     0.014 C 
BRANCH   7   9
ATOM      9  C   UNL     1      -7.765  14.401  11.813  1.00  0.00     0.044 C 
ATOM     10  O   UNL     1      -7.672  14.861  12.986  1.00  0.00    -0.550 OA
ATOM     11  O   UNL     1      -7.289  13.122  11.543  1.00  0.00    -0.550 OA
ENDBRANCH   7   9
ENDBRANCH   6   7
ENDBRANCH   5   6
ENDBRANCH   4   5
ENDBRANCH   3   4
ENDBRANCH   2   3
ENDBRANCH   1   2
BRANCH   1  12
ATOM     12  C   UNL     1     -11.968  10.717   6.730  1.00  0.00     0.000 C 
BRANCH  12  13
ATOM     13  C   UNL     1     -11.165  11.468   5.652  1.00  0.00    -0.000 C 
BRANCH  13  14
ATOM     14  C   UNL     1     -11.204  10.766   4.286  1.00  0.00    -0.000 C 
BRANCH  14  15
ATOM     15  C   UNL     1     -10.132  11.293   3.320  1.00  0.00    -0.000 C 
BRANCH  15  16
ATOM     16  C   UNL     1     -10.518  12.670   2.763  1.00  0.00    -0.000 C 
BRANCH  16  17
ATOM     17  C   UNL     1      -9.367  13.670   2.930  1.00  0.00    -0.000 C 
BRANCH  17  18
ATOM     18  C   UNL     1      -8.207  13.049   3.720  1.00  0.00    -0.003 C 
ATOM     19  C   UNL     1      -8.113  13.650   5.120  1.00  0.00     0.004 C 
ENDBRANCH  17  18
ENDBRANCH  16  17
ENDBRANCH  15  16
ENDBRANCH  14  15
ENDBRANCH  13  14
ENDBRANCH  12  13
ENDBRANCH   1  12
TORSDOF 14
ENDMDL
MODEL 9
REMARK VINA RESULT:    -5.237      5.077      8.177
REMARK INTER + INTRA:         -11.168
REMARK INTER:                 -10.332
REMARK INTRA:                  -0.835
REMARK UNBOUND:                -1.645
REMARK SMILES CCCCCCCCCCCCCC[C@H](C)C(=O)[O-]
REMARK SMILES IDX 9 1 10 2 11 3 12 4 13 5 14 6 15 7 16 8 17 9 18 10 19 11 8 12
REMARK SMILES IDX 7 13 6 14 5 15 4 16 3 17 2 18 1 19
REMARK H PARENT
REMARK Flexibility Score: inf
ROOT
ATOM      1  C   UNL     1      -6.861  11.472   2.956  1.00  0.00     0.000 C 
ENDROOT
BRANCH   1   2
ATOM      2  C   UNL     1      -8.365  11.159   2.860  1.00  0.00     0.000 C 
BRANCH   2   3
ATOM      3  C   UNL     1      -9.236  12.185   3.601  1.00  0.00     0.000 C 
BRANCH   3   4
ATOM      4  C   UNL     1     -10.737  11.852   3.539  1.00  0.00     0.000 C 
BRANCH   4   5
ATOM      5  C   UNL     1     -11.236  11.008   4.735  1.00  0.00     0.001 C 
BRANCH   5   6
ATOM      6  C   UNL     1     -11.109  11.771   6.069  1.00  0.00     0.009 C 
BRANCH   6   7
ATOM      7  C   UNL     1     -11.598  10.976   7.302  1.00  0.00     0.032 C 
ATOM      8  C   UNL     1     -12.618   9.884   6.929  1.00  0.00     0.014 C 
BRANCH   7   9
ATOM      9  C   UNL     1     -12.110  11.892   8.387  1.00  0.00     0.044 C 
ATOM     10  O   UNL     1     -13.343  12.137   8.508  1.00  0.00    -0.550 OA
ATOM     11  O   UNL     1     -11.204  12.519   9.238  1.00  0.00    -0.550 OA
ENDBRANCH   7   9
ENDBRANCH   6   7
ENDBRANCH   5   6
ENDBRANCH   4   5
ENDBRANCH   3   4
ENDBRANCH   2   3
ENDBRANCH   1   2
BRANCH   1  12
ATOM     12  C   UNL     1      -5.964  10.219   2.864  1.00  0.00     0.000 C 
BRANCH  12  13
ATOM     13  C   UNL     1      -4.865  10.211   3.942  1.00  0.00    -0.000 C 
BRANCH  13  14
ATOM     14  C   UNL     1      -4.032   8.920   3.931  1.00  0.00    -0.000 C 
BRANCH  14  15
ATOM     15  C   UNL     1      -3.519   8.535   5.326  1.00  0.00    -0.000 C 
BRANCH  15  16
ATOM     16  C   UNL     1      -4.182   9.390   6.414  1.00  0.00    -0.000 C 
BRANCH  16  17
ATOM     17  C   UNL     1      -4.806   8.505   7.500  1.00  0.00    -0.000 C 
BRANCH  17  18
ATOM     18  C   UNL     1      -5.524   7.297   6.882  1.00  0.00    -0.003 C 
ATOM     19  C   UNL     1      -6.103   6.389   7.964  1.00  0.00     0.004 C 
ENDBRANCH  17  18
ENDBRANCH  16  17
ENDBRANCH  15  16
ENDBRANCH  14  15
ENDBRANCH  13  14
ENDBRANCH  12  13
ENDBRANCH   1  12
TORSDOF 14
ENDMDL
