MODEL 1
REMARK VINA RESULT:    -3.670      0.000      0.000
REMARK INTER + INTRA:          -3.670
REMARK INTER:                  -3.670
REMARK INTRA:                   0.000
REMARK UNBOUND:                 0.000
REMARK SMILES CC1=CC[C@H]2[C@H](C1)C2(C)C
REMARK SMILES IDX 1 1 2 2 3 3 4 4 5 5 6 6 7 7 8 8 9 9 10 10
REMARK H PARENT
REMARK Flexibility Score: inf
ROOT
ATOM      1  C   UNL     1       3.531  27.475  -4.262  1.00  0.00     0.039 C 
ATOM      2  C   UNL     1       4.372  26.603  -5.151  1.00  0.00    -0.077 C 
ATOM      3  C   UNL     1       3.776  25.882  -6.145  1.00  0.00    -0.028 C 
ATOM      4  C   UNL     1       4.580  24.998  -7.095  1.00  0.00     0.031 C 
ATOM      5  C   UNL     1       6.022  25.517  -7.115  1.00  0.00     0.003 C 
ATOM      6  C   UNL     1       6.440  25.308  -5.611  1.00  0.00     0.003 C 
ATOM      7  C   UNL     1       5.895  26.589  -4.968  1.00  0.00     0.034 C 
ATOM      8  C   UNL     1       7.383  24.972  -6.745  1.00  0.00    -0.029 C 
ATOM      9  C   UNL     1       7.607  23.488  -7.046  1.00  0.00     0.012 C 
ATOM     10  C   UNL     1       8.578  25.916  -6.914  1.00  0.00     0.012 C 
ENDROOT
TORSDOF 0
ENDMDL
MODEL 2
REMARK VINA RESULT:    -3.560      1.032      4.290
REMARK INTER + INTRA:          -3.560
REMARK INTER:                  -3.560
REMARK INTRA:                   0.000
REMARK UNBOUND:                 0.000
REMARK SMILES CC1=CC[C@H]2[C@H](C1)C2(C)C
REMARK SMILES IDX 1 1 2 2 3 3 4 4 5 5 6 6 7 7 8 8 9 9 10 10
REMARK H PARENT
REMARK Flexibility Score: inf
ROOT
ATOM      1  C   UNL     1       7.391  23.694  -6.945  1.00  0.00     0.039 C 
ATOM      2  C   UNL     1       6.549  24.827  -6.432  1.00  0.00    -0.077 C 
ATOM      3  C   UNL     1       7.105  25.756  -5.600  1.00  0.00    -0.028 C 
ATOM      4  C   UNL     1       6.308  26.943  -5.066  1.00  0.00     0.031 C 
ATOM      5  C   UNL     1       5.137  27.193  -6.023  1.00  0.00     0.003 C 
ATOM      6  C   UNL     1       4.345  25.837  -5.895  1.00  0.00     0.003 C 
ATOM      7  C   UNL     1       5.094  24.956  -6.902  1.00  0.00     0.034 C 
ATOM      8  C   UNL     1       3.627  27.169  -5.931  1.00  0.00    -0.029 C 
ATOM      9  C   UNL     1       3.036  27.675  -4.613  1.00  0.00     0.012 C 
ATOM     10  C   UNL     1       2.849  27.466  -7.216  1.00  0.00     0.012 C 
ENDROOT
TORSDOF 0
ENDMDL
MODEL 3
REMARK VINA RESULT:    -3.520      0.657      2.124
REMARK INTER + INTRA:          -3.520
REMARK INTER:                  -3.520
REMARK INTRA:                   0.000
REMARK UNBOUND:                 0.000
REMARK SMILES CC1=CC[C@H]2[C@H](C1)C2(C)C
REMARK SMILES IDX 1 1 2 2 3 3 4 4 5 5 6 6 7 7 8 8 9 9 10 10
REMARK H PARENT
REMARK Flexibility Score: inf
ROOT
ATOM      1  C   UNL     1       2.603  26.428  -5.760  1.00  0.00     0.039 C 
ATOM      2  C   UNL     1       4.092  26.251  -5.849  1.00  0.00    -0.077 C 
ATOM      3  C   UNL     1       4.906  26.973  -5.024  1.00  0.00    -0.028 C 
ATOM      4  C   UNL     1       6.425  26.819  -5.049  1.00  0.00     0.031 C 
ATOM      5  C   UNL     1       6.748  25.439  -5.633  1.00  0.00     0.003 C 
ATOM      6  C   UNL     1       6.139  25.571  -7.079  1.00  0.00     0.003 C 
ATOM      7  C   UNL     1       4.671  25.213  -6.819  1.00  0.00     0.034 C 
ATOM      8  C   UNL     1       7.480  24.912  -6.847  1.00  0.00    -0.029 C 
ATOM      9  C   UNL     1       8.724  25.701  -7.265  1.00  0.00     0.012 C 
ATOM     10  C   UNL     1       7.512  23.391  -7.032  1.00  0.00     0.012 C 
ENDROOT
TORSDOF 0
ENDMDL
MODEL 4
REMARK VINA RESULT:    -3.371      1.053      4.414
REMARK INTER + INTRA:          -3.371
REMARK INTER:                  -3.371
REMARK INTRA:                   0.000
REMARK UNBOUND:                 0.000
REMARK SMILES CC1=CC[C@H]2[C@H](C1)C2(C)C
REMARK SMILES IDX 1 1 2 2 3 3 4 4 5 5 6 6 7 7 8 8 9 9 10 10
REMARK H PARENT
REMARK Flexibility Score: inf
ROOT
ATOM      1  C   UNL     1       9.403  23.206  -7.715  1.00  0.00     0.039 C 
ATOM      2  C   UNL     1       8.445  24.263  -7.244  1.00  0.00    -0.077 C 
ATOM      3  C   UNL     1       8.836  25.572  -7.240  1.00  0.00    -0.028 C 
ATOM      4  C   UNL     1       7.900  26.693  -6.796  1.00  0.00     0.031 C 
ATOM      5  C   UNL     1       6.460  26.195  -6.956  1.00  0.00     0.003 C 
ATOM      6  C   UNL     1       6.447  24.979  -5.956  1.00  0.00     0.003 C 
ATOM      7  C   UNL     1       7.022  23.862  -6.835  1.00  0.00     0.034 C 
ATOM      8  C   UNL     1       5.284  25.943  -6.038  1.00  0.00    -0.029 C 
ATOM      9  C   UNL     1       5.121  26.934  -4.883  1.00  0.00     0.012 C 
ATOM     10  C   UNL     1       4.008  25.389  -6.681  1.00  0.00     0.012 C 
ENDROOT
TORSDOF 0
ENDMDL
MODEL 5
REMARK VINA RESULT:    -3.360     12.804     13.917
REMARK INTER + INTRA:          -3.360
REMARK INTER:                  -3.360
REMARK INTRA:                   0.000
REMARK UNBOUND:                 0.000
REMARK SMILES CC1=CC[C@H]2[C@H](C1)C2(C)C
REMARK SMILES IDX 1 1 2 2 3 3 4 4 5 5 6 6 7 7 8 8 9 9 10 10
REMARK H PARENT
REMARK Flexibility Score: inf
ROOT
ATOM      1  C   UNL     1       9.864  24.363   9.744  1.00  0.00     0.039 C 
ATOM      2  C   UNL     1       9.916  25.204   8.500  1.00  0.00    -0.077 C 
ATOM      3  C   UNL     1       8.984  26.184   8.311  1.00  0.00    -0.028 C 
ATOM      4  C   UNL     1       9.000  27.087   7.080  1.00  0.00     0.031 C 
ATOM      5  C   UNL     1      10.427  27.096   6.521  1.00  0.00     0.003 C 
ATOM      6  C   UNL     1      10.616  25.578   6.147  1.00  0.00     0.003 C 
ATOM      7  C   UNL     1      11.054  24.991   7.494  1.00  0.00     0.034 C 
ATOM      8  C   UNL     1      11.096  26.681   5.230  1.00  0.00    -0.029 C 
ATOM      9  C   UNL     1      10.284  26.926   3.955  1.00  0.00     0.012 C 
ATOM     10  C   UNL     1      12.615  26.859   5.146  1.00  0.00     0.012 C 
ENDROOT
TORSDOF 0
ENDMDL
MODEL 6
REMARK VINA RESULT:    -3.340      2.040      4.441
REMARK INTER + INTRA:          -3.340
REMARK INTER:                  -3.340
REMARK INTRA:                   0.000
REMARK UNBOUND:                 0.000
REMARK SMILES CC1=CC[C@H]2[C@H](C1)C2(C)C
REMARK SMILES IDX 1 1 2 2 3 3 4 4 5 5 6 6 7 7 8 8 9 9 10 10
REMARK H PARENT
REMARK Flexibility Score: inf
ROOT
ATOM      1  C   UNL     1       7.600  26.935  -5.152  1.00  0.00     0.039 C 
ATOM      2  C   UNL     1       6.155  27.068  -5.540  1.00  0.00    -0.077 C 
ATOM      3  C   UNL     1       5.833  27.501  -6.794  1.00  0.00    -0.028 C 
ATOM      4  C   UNL     1       4.384  27.633  -7.257  1.00  0.00     0.031 C 
ATOM      5  C   UNL     1       3.527  26.705  -6.388  1.00  0.00     0.003 C 
ATOM      6  C   UNL     1       3.755  27.330  -4.960  1.00  0.00     0.003 C 
ATOM      7  C   UNL     1       5.066  26.652  -4.543  1.00  0.00     0.034 C 
ATOM      8  C   UNL     1       2.385  26.872  -5.410  1.00  0.00    -0.029 C 
ATOM      9  C   UNL     1       1.369  27.963  -5.759  1.00  0.00     0.012 C 
ATOM     10  C   UNL     1       1.857  25.602  -4.737  1.00  0.00     0.012 C 
ENDROOT
TORSDOF 0
ENDMDL
MODEL 7
REMARK VINA RESULT:    -3.339     12.823     13.929
REMARK INTER + INTRA:          -3.339
REMARK INTER:                  -3.339
REMARK INTRA:                   0.000
REMARK UNBOUND:                 0.000
REMARK SMILES CC1=CC[C@H]2[C@H](C1)C2(C)C
REMARK SMILES IDX 1 1 2 2 3 3 4 4 5 5 6 6 7 7 8 8 9 9 10 10
REMARK H PARENT
REMARK Flexibility Score: inf
ROOT
ATOM      1  C   UNL     1       9.125  25.102   9.693  1.00  0.00     0.039 C 
ATOM      2  C   UNL     1       9.952  25.241   8.446  1.00  0.00    -0.077 C 
ATOM      3  C   UNL     1      11.020  24.414   8.252  1.00  0.00    -0.028 C 
ATOM      4  C   UNL     1      11.883  24.490   6.994  1.00  0.00     0.031 C 
ATOM      5  C   UNL     1      11.044  25.135   5.886  1.00  0.00     0.003 C 
ATOM      6  C   UNL     1      10.766  26.557   6.504  1.00  0.00     0.003 C 
ATOM      7  C   UNL     1       9.543  26.268   7.382  1.00  0.00     0.034 C 
ATOM      8  C   UNL     1      11.126  26.389   5.044  1.00  0.00    -0.029 C 
ATOM      9  C   UNL     1      12.536  26.813   4.624  1.00  0.00     0.012 C 
ATOM     10  C   UNL     1       9.987  26.634   4.050  1.00  0.00     0.012 C 
ENDROOT
TORSDOF 0
ENDMDL
MODEL 8
REMARK VINA RESULT:    -3.326     11.250     12.473
REMARK INTER + INTRA:          -3.326
REMARK INTER:                  -3.326
REMARK INTRA:                   0.000
REMARK UNBOUND:                 0.000
REMARK SMILES CC1=CC[C@H]2[C@H](C1)C2(C)C
REMARK SMILES IDX 1 1 2 2 3 3 4 4 5 5 6 6 7 7 8 8 9 9 10 10
REMARK H PARENT
REMARK Flexibility Score: inf
ROOT
ATOM      1  C   UNL     1       9.907  25.557   8.053  1.00  0.00     0.039 C 
ATOM      2  C   UNL     1      10.048  26.427   6.837  1.00  0.00    -0.077 C 
ATOM      3  C   UNL     1       9.732  27.752   6.917  1.00  0.00    -0.028 C 
ATOM      4  C   UNL     1       9.878  28.692   5.722  1.00  0.00     0.031 C 
ATOM      5  C   UNL     1      10.905  28.078   4.764  1.00  0.00     0.003 C 
ATOM      6  C   UNL     1      10.190  26.729   4.376  1.00  0.00     0.003 C 
ATOM      7  C   UNL     1      10.607  25.824   5.541  1.00  0.00     0.034 C 
ATOM      8  C   UNL     1      10.901  27.570   3.339  1.00  0.00    -0.029 C 
ATOM      9  C   UNL     1      10.022  28.353   2.359  1.00  0.00     0.012 C 
ATOM     10  C   UNL     1      12.214  26.992   2.804  1.00  0.00     0.012 C 
ENDROOT
TORSDOF 0
ENDMDL
MODEL 9
REMARK VINA RESULT:    -3.283      1.185      4.374
REMARK INTER + INTRA:          -3.283
REMARK INTER:                  -3.283
REMARK INTRA:                   0.000
REMARK UNBOUND:                 0.000
REMARK SMILES CC1=CC[C@H]2[C@H](C1)C2(C)C
REMARK SMILES IDX 1 1 2 2 3 3 4 4 5 5 6 6 7 7 8 8 9 9 10 10
REMARK H PARENT
REMARK Flexibility Score: inf
ROOT
ATOM      1  C   UNL     1      10.715  24.894  -8.016  1.00  0.00     0.039 C 
ATOM      2  C   UNL     1       9.290  24.779  -7.555  1.00  0.00    -0.077 C 
ATOM      3  C   UNL     1       8.674  23.561  -7.572  1.00  0.00    -0.028 C 
ATOM      4  C   UNL     1       7.236  23.376  -7.094  1.00  0.00     0.031 C 
ATOM      5  C   UNL     1       6.907  24.527  -6.136  1.00  0.00     0.003 C 
ATOM      6  C   UNL     1       7.061  25.770  -7.090  1.00  0.00     0.003 C 
ATOM      7  C   UNL     1       8.571  26.022  -7.013  1.00  0.00     0.034 C 
ATOM      8  C   UNL     1       5.919  25.671  -6.103  1.00  0.00    -0.029 C 
ATOM      9  C   UNL     1       4.532  25.365  -6.675  1.00  0.00     0.012 C 
ATOM     10  C   UNL     1       5.996  26.621  -4.904  1.00  0.00     0.012 C 
ENDROOT
TORSDOF 0
ENDMDL
