MODEL 1
REMARK VINA RESULT:    -3.636      0.000      0.000
REMARK INTER + INTRA:          -8.761
REMARK INTER:                  -6.612
REMARK INTRA:                  -2.149
REMARK UNBOUND:                -2.149
REMARK SMILES CCCCCCCCCCCCCC[C@@H](C)C(=O)[O-]
REMARK SMILES IDX 9 1 10 2 11 3 12 4 13 5 14 6 15 7 16 8 17 9 18 10 19 11 8 12
REMARK SMILES IDX 7 13 6 14 5 15 4 16 3 17 2 18 1 19
REMARK H PARENT
REMARK Flexibility Score: inf
ROOT
ATOM      1  C   UNL     1      -2.111  -7.036  36.675  1.00  0.00     0.000 C 
ENDROOT
BRANCH   1   2
ATOM      2  C   UNL     1      -2.388  -8.508  36.305  1.00  0.00     0.000 C 
BRANCH   2   3
ATOM      3  C   UNL     1      -1.495  -9.540  37.018  1.00  0.00     0.000 C 
BRANCH   3   4
ATOM      4  C   UNL     1      -0.294  -8.899  37.732  1.00  0.00     0.000 C 
BRANCH   4   5
ATOM      5  C   UNL     1      -0.273  -9.201  39.239  1.00  0.00     0.001 C 
BRANCH   5   6
ATOM      6  C   UNL     1      -1.290  -8.358  40.031  1.00  0.00     0.009 C 
BRANCH   6   7
ATOM      7  C   UNL     1      -2.347  -9.223  40.750  1.00  0.00     0.032 C 
ATOM      8  C   UNL     1      -3.741  -9.076  40.124  1.00  0.00     0.014 C 
BRANCH   7   9
ATOM      9  C   UNL     1      -1.929 -10.668  40.715  1.00  0.00     0.044 C 
ATOM     10  O   UNL     1      -2.434 -11.452  39.869  1.00  0.00    -0.550 OA
ATOM     11  O   UNL     1      -0.983 -11.148  41.614  1.00  0.00    -0.550 OA
ENDBRANCH   7   9
ENDBRANCH   6   7
ENDBRANCH   5   6
ENDBRANCH   4   5
ENDBRANCH   3   4
ENDBRANCH   2   3
ENDBRANCH   1   2
BRANCH   1  12
ATOM     12  C   UNL     1      -3.275  -6.310  37.378  1.00  0.00     0.000 C 
BRANCH  12  13
ATOM     13  C   UNL     1      -4.648  -6.998  37.245  1.00  0.00    -0.000 C 
BRANCH  13  14
ATOM     14  C   UNL     1      -5.728  -6.163  36.533  1.00  0.00    -0.000 C 
BRANCH  14  15
ATOM     15  C   UNL     1      -5.292  -4.712  36.283  1.00  0.00    -0.000 C 
BRANCH  15  16
ATOM     16  C   UNL     1      -5.148  -4.432  34.782  1.00  0.00    -0.000 C 
BRANCH  16  17
ATOM     17  C   UNL     1      -3.690  -4.129  34.415  1.00  0.00    -0.000 C 
BRANCH  17  18
ATOM     18  C   UNL     1      -3.207  -5.041  33.283  1.00  0.00    -0.003 C 
ATOM     19  C   UNL     1      -3.774  -6.450  33.429  1.00  0.00     0.004 C 
ENDBRANCH  17  18
ENDBRANCH  16  17
ENDBRANCH  15  16
ENDBRANCH  14  15
ENDBRANCH  13  14
ENDBRANCH  12  13
ENDBRANCH   1  12
TORSDOF 14
ENDMDL
MODEL 2
REMARK VINA RESULT:    -3.597      3.354      6.538
REMARK INTER + INTRA:          -8.690
REMARK INTER:                  -6.274
REMARK INTRA:                  -2.416
REMARK UNBOUND:                -2.149
REMARK SMILES CCCCCCCCCCCCCC[C@@H](C)C(=O)[O-]
REMARK SMILES IDX 9 1 10 2 11 3 12 4 13 5 14 6 15 7 16 8 17 9 18 10 19 11 8 12
REMARK SMILES IDX 7 13 6 14 5 15 4 16 3 17 2 18 1 19
REMARK H PARENT
REMARK Flexibility Score: inf
ROOT
ATOM      1  C   UNL     1      -3.263 -12.872  41.667  1.00  0.00     0.000 C 
ENDROOT
BRANCH   1   2
ATOM      2  C   UNL     1      -4.433 -13.245  42.600  1.00  0.00     0.000 C 
BRANCH   2   3
ATOM      3  C   UNL     1      -5.420 -12.102  42.900  1.00  0.00     0.000 C 
BRANCH   3   4
ATOM      4  C   UNL     1      -4.721 -10.751  43.121  1.00  0.00     0.000 C 
BRANCH   4   5
ATOM      5  C   UNL     1      -5.406  -9.602  42.365  1.00  0.00     0.001 C 
BRANCH   5   6
ATOM      6  C   UNL     1      -5.818  -9.992  40.933  1.00  0.00     0.009 C 
BRANCH   6   7
ATOM      7  C   UNL     1      -4.794  -9.532  39.874  1.00  0.00     0.032 C 
ATOM      8  C   UNL     1      -4.603 -10.572  38.760  1.00  0.00     0.014 C 
BRANCH   7   9
ATOM      9  C   UNL     1      -5.236  -8.226  39.273  1.00  0.00     0.044 C 
ATOM     10  O   UNL     1      -4.499  -7.629  38.444  1.00  0.00    -0.550 OA
ATOM     11  O   UNL     1      -6.459  -7.668  39.628  1.00  0.00    -0.550 OA
ENDBRANCH   7   9
ENDBRANCH   6   7
ENDBRANCH   5   6
ENDBRANCH   4   5
ENDBRANCH   3   4
ENDBRANCH   2   3
ENDBRANCH   1   2
BRANCH   1  12
ATOM     12  C   UNL     1      -1.873 -12.860  42.335  1.00  0.00     0.000 C 
BRANCH  12  13
ATOM     13  C   UNL     1      -1.103 -11.530  42.215  1.00  0.00    -0.000 C 
BRANCH  13  14
ATOM     14  C   UNL     1      -1.411 -10.712  40.947  1.00  0.00    -0.000 C 
BRANCH  14  15
ATOM     15  C   UNL     1      -1.815  -9.263  41.255  1.00  0.00    -0.000 C 
BRANCH  15  16
ATOM     16  C   UNL     1      -1.276  -8.304  40.187  1.00  0.00    -0.000 C 
BRANCH  16  17
ATOM     17  C   UNL     1      -0.559  -9.071  39.069  1.00  0.00    -0.000 C 
BRANCH  17  18
ATOM     18  C   UNL     1      -1.316  -8.945  37.743  1.00  0.00    -0.003 C 
ATOM     19  C   UNL     1      -1.172  -7.543  37.156  1.00  0.00     0.004 C 
ENDBRANCH  17  18
ENDBRANCH  16  17
ENDBRANCH  15  16
ENDBRANCH  14  15
ENDBRANCH  13  14
ENDBRANCH  12  13
ENDBRANCH   1  12
TORSDOF 14
ENDMDL
MODEL 3
REMARK VINA RESULT:    -3.568      1.874      2.951
REMARK INTER + INTRA:          -8.637
REMARK INTER:                  -7.112
REMARK INTRA:                  -1.526
REMARK UNBOUND:                -2.149
REMARK SMILES CCCCCCCCCCCCCC[C@@H](C)C(=O)[O-]
REMARK SMILES IDX 9 1 10 2 11 3 12 4 13 5 14 6 15 7 16 8 17 9 18 10 19 11 8 12
REMARK SMILES IDX 7 13 6 14 5 15 4 16 3 17 2 18 1 19
REMARK H PARENT
REMARK Flexibility Score: inf
ROOT
ATOM      1  C   UNL     1      -1.562  -8.155  38.698  1.00  0.00     0.000 C 
ENDROOT
BRANCH   1   2
ATOM      2  C   UNL     1      -0.471  -8.934  39.462  1.00  0.00     0.000 C 
BRANCH   2   3
ATOM      3  C   UNL     1      -0.765 -10.430  39.677  1.00  0.00     0.000 C 
BRANCH   3   4
ATOM      4  C   UNL     1      -1.299 -10.737  41.085  1.00  0.00     0.000 C 
BRANCH   4   5
ATOM      5  C   UNL     1      -2.463 -11.741  41.068  1.00  0.00     0.001 C 
BRANCH   5   6
ATOM      6  C   UNL     1      -3.776 -11.123  40.551  1.00  0.00     0.009 C 
BRANCH   6   7
ATOM      7  C   UNL     1      -4.075  -9.749  41.186  1.00  0.00     0.032 C 
ATOM      8  C   UNL     1      -4.650  -8.752  40.169  1.00  0.00     0.014 C 
BRANCH   7   9
ATOM      9  C   UNL     1      -5.040  -9.916  42.328  1.00  0.00     0.044 C 
ATOM     10  O   UNL     1      -6.073  -9.197  42.394  1.00  0.00    -0.550 OA
ATOM     11  O   UNL     1      -4.800 -10.863  43.317  1.00  0.00    -0.550 OA
ENDBRANCH   7   9
ENDBRANCH   6   7
ENDBRANCH   5   6
ENDBRANCH   4   5
ENDBRANCH   3   4
ENDBRANCH   2   3
ENDBRANCH   1   2
BRANCH   1  12
ATOM     12  C   UNL     1      -1.191  -7.758  37.255  1.00  0.00     0.000 C 
BRANCH  12  13
ATOM     13  C   UNL     1      -2.295  -7.012  36.480  1.00  0.00    -0.000 C 
BRANCH  13  14
ATOM     14  C   UNL     1      -3.306  -6.251  37.358  1.00  0.00    -0.000 C 
BRANCH  14  15
ATOM     15  C   UNL     1      -4.752  -6.392  36.862  1.00  0.00    -0.000 C 
BRANCH  15  16
ATOM     16  C   UNL     1      -4.876  -5.948  35.399  1.00  0.00    -0.000 C 
BRANCH  16  17
ATOM     17  C   UNL     1      -5.018  -4.425  35.295  1.00  0.00    -0.000 C 
BRANCH  17  18
ATOM     18  C   UNL     1      -3.941  -3.834  34.379  1.00  0.00    -0.003 C 
ATOM     19  C   UNL     1      -3.265  -4.922  33.548  1.00  0.00     0.004 C 
ENDBRANCH  17  18
ENDBRANCH  16  17
ENDBRANCH  15  16
ENDBRANCH  14  15
ENDBRANCH  13  14
ENDBRANCH  12  13
ENDBRANCH   1  12
TORSDOF 14
ENDMDL
MODEL 4
REMARK VINA RESULT:    -3.548      3.366      6.218
REMARK INTER + INTRA:          -8.601
REMARK INTER:                  -6.108
REMARK INTRA:                  -2.493
REMARK UNBOUND:                -2.149
REMARK SMILES CCCCCCCCCCCCCC[C@@H](C)C(=O)[O-]
REMARK SMILES IDX 9 1 10 2 11 3 12 4 13 5 14 6 15 7 16 8 17 9 18 10 19 11 8 12
REMARK SMILES IDX 7 13 6 14 5 15 4 16 3 17 2 18 1 19
REMARK H PARENT
REMARK Flexibility Score: inf
ROOT
ATOM      1  C   UNL     1      -1.345 -10.381  40.345  1.00  0.00     0.000 C 
ENDROOT
BRANCH   1   2
ATOM      2  C   UNL     1      -0.610  -9.396  39.414  1.00  0.00     0.000 C 
BRANCH   2   3
ATOM      3  C   UNL     1      -1.376  -8.099  39.099  1.00  0.00     0.000 C 
BRANCH   3   4
ATOM      4  C   UNL     1      -1.360  -7.742  37.603  1.00  0.00     0.000 C 
BRANCH   4   5
ATOM      5  C   UNL     1      -2.483  -6.766  37.217  1.00  0.00     0.001 C 
BRANCH   5   6
ATOM      6  C   UNL     1      -2.893  -6.884  35.737  1.00  0.00     0.009 C 
BRANCH   6   7
ATOM      7  C   UNL     1      -4.099  -5.988  35.382  1.00  0.00     0.032 C 
ATOM      8  C   UNL     1      -4.719  -5.332  36.624  1.00  0.00     0.014 C 
BRANCH   7   9
ATOM      9  C   UNL     1      -3.671  -4.923  34.410  1.00  0.00     0.044 C 
ATOM     10  O   UNL     1      -2.897  -5.209  33.458  1.00  0.00    -0.550 OA
ATOM     11  O   UNL     1      -4.126  -3.617  34.555  1.00  0.00    -0.550 OA
ENDBRANCH   7   9
ENDBRANCH   6   7
ENDBRANCH   5   6
ENDBRANCH   4   5
ENDBRANCH   3   4
ENDBRANCH   2   3
ENDBRANCH   1   2
BRANCH   1  12
ATOM     12  C   UNL     1      -2.173  -9.724  41.468  1.00  0.00     0.000 C 
BRANCH  12  13
ATOM     13  C   UNL     1      -3.518 -10.412  41.775  1.00  0.00    -0.000 C 
BRANCH  13  14
ATOM     14  C   UNL     1      -4.723  -9.462  41.892  1.00  0.00    -0.000 C 
BRANCH  14  15
ATOM     15  C   UNL     1      -5.590  -9.439  40.624  1.00  0.00    -0.000 C 
BRANCH  15  16
ATOM     16  C   UNL     1      -5.030  -8.452  39.594  1.00  0.00    -0.000 C 
BRANCH  16  17
ATOM     17  C   UNL     1      -5.080  -9.044  38.179  1.00  0.00    -0.000 C 
BRANCH  17  18
ATOM     18  C   UNL     1      -4.379 -10.404  38.127  1.00  0.00    -0.003 C 
ATOM     19  C   UNL     1      -3.555 -10.551  36.850  1.00  0.00     0.004 C 
ENDBRANCH  17  18
ENDBRANCH  16  17
ENDBRANCH  15  16
ENDBRANCH  14  15
ENDBRANCH  13  14
ENDBRANCH  12  13
ENDBRANCH   1  12
TORSDOF 14
ENDMDL
MODEL 5
REMARK VINA RESULT:    -3.515      3.072      5.726
REMARK INTER + INTRA:          -8.540
REMARK INTER:                  -5.636
REMARK INTRA:                  -2.904
REMARK UNBOUND:                -2.149
REMARK SMILES CCCCCCCCCCCCCC[C@@H](C)C(=O)[O-]
REMARK SMILES IDX 9 1 10 2 11 3 12 4 13 5 14 6 15 7 16 8 17 9 18 10 19 11 8 12
REMARK SMILES IDX 7 13 6 14 5 15 4 16 3 17 2 18 1 19
REMARK H PARENT
REMARK Flexibility Score: inf
ROOT
ATOM      1  C   UNL     1      -3.267 -11.498  38.772  1.00  0.00     0.000 C 
ENDROOT
BRANCH   1   2
ATOM      2  C   UNL     1      -4.371 -10.439  38.578  1.00  0.00     0.000 C 
BRANCH   2   3
ATOM      3  C   UNL     1      -5.385 -10.335  39.732  1.00  0.00     0.000 C 
BRANCH   3   4
ATOM      4  C   UNL     1      -5.379  -8.955  40.411  1.00  0.00     0.000 C 
BRANCH   4   5
ATOM      5  C   UNL     1      -5.768  -9.026  41.896  1.00  0.00     0.001 C 
BRANCH   5   6
ATOM      6  C   UNL     1      -5.029 -10.146  42.653  1.00  0.00     0.009 C 
BRANCH   6   7
ATOM      7  C   UNL     1      -5.994 -11.116  43.368  1.00  0.00     0.032 C 
ATOM      8  C   UNL     1      -7.462 -10.695  43.209  1.00  0.00     0.014 C 
BRANCH   7   9
ATOM      9  C   UNL     1      -5.808 -12.507  42.827  1.00  0.00     0.044 C 
ATOM     10  O   UNL     1      -6.544 -12.928  41.896  1.00  0.00    -0.550 OA
ATOM     11  O   UNL     1      -4.824 -13.338  43.351  1.00  0.00    -0.550 OA
ENDBRANCH   7   9
ENDBRANCH   6   7
ENDBRANCH   5   6
ENDBRANCH   4   5
ENDBRANCH   3   4
ENDBRANCH   2   3
ENDBRANCH   1   2
BRANCH   1  12
ATOM     12  C   UNL     1      -3.263 -12.194  40.148  1.00  0.00     0.000 C 
BRANCH  12  13
ATOM     13  C   UNL     1      -2.139 -11.745  41.102  1.00  0.00    -0.000 C 
BRANCH  13  14
ATOM     14  C   UNL     1      -1.289 -10.565  40.597  1.00  0.00    -0.000 C 
BRANCH  14  15
ATOM     15  C   UNL     1      -1.744  -9.214  41.170  1.00  0.00    -0.000 C 
BRANCH  15  16
ATOM     16  C   UNL     1      -1.761  -8.135  40.081  1.00  0.00    -0.000 C 
BRANCH  16  17
ATOM     17  C   UNL     1      -0.965  -8.581  38.849  1.00  0.00    -0.000 C 
BRANCH  17  18
ATOM     18  C   UNL     1      -1.354  -7.759  37.615  1.00  0.00    -0.003 C 
ATOM     19  C   UNL     1      -2.729  -7.121  37.788  1.00  0.00     0.004 C 
ENDBRANCH  17  18
ENDBRANCH  16  17
ENDBRANCH  15  16
ENDBRANCH  14  15
ENDBRANCH  13  14
ENDBRANCH  12  13
ENDBRANCH   1  12
TORSDOF 14
ENDMDL
MODEL 6
REMARK VINA RESULT:    -3.512      1.229      2.465
REMARK INTER + INTRA:          -8.535
REMARK INTER:                  -6.682
REMARK INTRA:                  -1.853
REMARK UNBOUND:                -2.149
REMARK SMILES CCCCCCCCCCCCCC[C@@H](C)C(=O)[O-]
REMARK SMILES IDX 9 1 10 2 11 3 12 4 13 5 14 6 15 7 16 8 17 9 18 10 19 11 8 12
REMARK SMILES IDX 7 13 6 14 5 15 4 16 3 17 2 18 1 19
REMARK H PARENT
REMARK Flexibility Score: inf
ROOT
ATOM      1  C   UNL     1      -3.105  -8.133  35.274  1.00  0.00     0.000 C 
ENDROOT
BRANCH   1   2
ATOM      2  C   UNL     1      -3.340  -8.102  36.799  1.00  0.00     0.000 C 
BRANCH   2   3
ATOM      3  C   UNL     1      -2.342  -7.243  37.596  1.00  0.00     0.000 C 
BRANCH   3   4
ATOM      4  C   UNL     1      -1.101  -8.032  38.046  1.00  0.00     0.000 C 
BRANCH   4   5
ATOM      5  C   UNL     1      -1.028  -8.198  39.572  1.00  0.00     0.001 C 
BRANCH   5   6
ATOM      6  C   UNL     1      -1.380  -9.624  40.035  1.00  0.00     0.009 C 
BRANCH   6   7
ATOM      7  C   UNL     1      -2.330  -9.637  41.251  1.00  0.00     0.032 C 
ATOM      8  C   UNL     1      -3.798  -9.452  40.844  1.00  0.00     0.014 C 
BRANCH   7   9
ATOM      9  C   UNL     1      -2.175 -10.930  42.003  1.00  0.00     0.044 C 
ATOM     10  O   UNL     1      -3.185 -11.504  42.489  1.00  0.00    -0.550 OA
ATOM     11  O   UNL     1      -0.918 -11.501  42.167  1.00  0.00    -0.550 OA
ENDBRANCH   7   9
ENDBRANCH   6   7
ENDBRANCH   5   6
ENDBRANCH   4   5
ENDBRANCH   3   4
ENDBRANCH   2   3
ENDBRANCH   1   2
BRANCH   1  12
ATOM     12  C   UNL     1      -2.296  -6.946  34.714  1.00  0.00     0.000 C 
BRANCH  12  13
ATOM     13  C   UNL     1      -2.549  -6.628  33.227  1.00  0.00    -0.000 C 
BRANCH  13  14
ATOM     14  C   UNL     1      -3.447  -5.405  32.967  1.00  0.00    -0.000 C 
BRANCH  14  15
ATOM     15  C   UNL     1      -3.325  -4.332  34.059  1.00  0.00    -0.000 C 
BRANCH  15  16
ATOM     16  C   UNL     1      -4.702  -3.962  34.622  1.00  0.00    -0.000 C 
BRANCH  16  17
ATOM     17  C   UNL     1      -4.962  -4.674  35.955  1.00  0.00    -0.000 C 
BRANCH  17  18
ATOM     18  C   UNL     1      -6.353  -5.316  35.975  1.00  0.00    -0.003 C 
ATOM     19  C   UNL     1      -6.437  -6.481  34.993  1.00  0.00     0.004 C 
ENDBRANCH  17  18
ENDBRANCH  16  17
ENDBRANCH  15  16
ENDBRANCH  14  15
ENDBRANCH  13  14
ENDBRANCH  12  13
ENDBRANCH   1  12
TORSDOF 14
ENDMDL
MODEL 7
REMARK VINA RESULT:    -3.505      3.215      6.575
REMARK INTER + INTRA:          -8.523
REMARK INTER:                  -6.262
REMARK INTRA:                  -2.261
REMARK UNBOUND:                -2.149
REMARK SMILES CCCCCCCCCCCCCC[C@@H](C)C(=O)[O-]
REMARK SMILES IDX 9 1 10 2 11 3 12 4 13 5 14 6 15 7 16 8 17 9 18 10 19 11 8 12
REMARK SMILES IDX 7 13 6 14 5 15 4 16 3 17 2 18 1 19
REMARK H PARENT
REMARK Flexibility Score: inf
ROOT
ATOM      1  C   UNL     1      -0.622  -8.889  39.114  1.00  0.00     0.000 C 
ENDROOT
BRANCH   1   2
ATOM      2  C   UNL     1      -0.537  -8.674  37.589  1.00  0.00     0.000 C 
BRANCH   2   3
ATOM      3  C   UNL     1      -1.489  -7.602  37.027  1.00  0.00     0.000 C 
BRANCH   3   4
ATOM      4  C   UNL     1      -2.536  -7.135  38.051  1.00  0.00     0.000 C 
BRANCH   4   5
ATOM      5  C   UNL     1      -3.804  -6.578  37.386  1.00  0.00     0.001 C 
BRANCH   5   6
ATOM      6  C   UNL     1      -3.588  -6.207  35.906  1.00  0.00     0.009 C 
BRANCH   6   7
ATOM      7  C   UNL     1      -4.198  -4.837  35.543  1.00  0.00     0.032 C 
ATOM      8  C   UNL     1      -3.767  -4.361  34.148  1.00  0.00     0.014 C 
BRANCH   7   9
ATOM      9  C   UNL     1      -5.698  -4.916  35.607  1.00  0.00     0.044 C 
ATOM     10  O   UNL     1      -6.342  -5.489  34.687  1.00  0.00    -0.550 OA
ATOM     11  O   UNL     1      -6.386  -4.358  36.678  1.00  0.00    -0.550 OA
ENDBRANCH   7   9
ENDBRANCH   6   7
ENDBRANCH   5   6
ENDBRANCH   4   5
ENDBRANCH   3   4
ENDBRANCH   2   3
ENDBRANCH   1   2
BRANCH   1  12
ATOM     12  C   UNL     1      -0.455 -10.350  39.578  1.00  0.00     0.000 C 
BRANCH  12  13
ATOM     13  C   UNL     1      -1.285 -10.739  40.818  1.00  0.00    -0.000 C 
BRANCH  13  14
ATOM     14  C   UNL     1      -2.074  -9.585  41.461  1.00  0.00    -0.000 C 
BRANCH  14  15
ATOM     15  C   UNL     1      -3.582  -9.864  41.539  1.00  0.00    -0.000 C 
BRANCH  15  16
ATOM     16  C   UNL     1      -4.287  -9.443  40.244  1.00  0.00    -0.000 C 
BRANCH  16  17
ATOM     17  C   UNL     1      -4.481 -10.640  39.306  1.00  0.00    -0.000 C 
BRANCH  17  18
ATOM     18  C   UNL     1      -4.095 -10.281  37.868  1.00  0.00    -0.003 C 
ATOM     19  C   UNL     1      -3.238 -11.376  37.237  1.00  0.00     0.004 C 
ENDBRANCH  17  18
ENDBRANCH  16  17
ENDBRANCH  15  16
ENDBRANCH  14  15
ENDBRANCH  13  14
ENDBRANCH  12  13
ENDBRANCH   1  12
TORSDOF 14
ENDMDL
MODEL 8
REMARK VINA RESULT:    -3.490      3.243      6.314
REMARK INTER + INTRA:          -8.494
REMARK INTER:                  -5.531
REMARK INTRA:                  -2.963
REMARK UNBOUND:                -2.149
REMARK SMILES CCCCCCCCCCCCCC[C@@H](C)C(=O)[O-]
REMARK SMILES IDX 9 1 10 2 11 3 12 4 13 5 14 6 15 7 16 8 17 9 18 10 19 11 8 12
REMARK SMILES IDX 7 13 6 14 5 15 4 16 3 17 2 18 1 19
REMARK H PARENT
REMARK Flexibility Score: inf
ROOT
ATOM      1  C   UNL     1      -3.639 -12.343  40.404  1.00  0.00     0.000 C 
ENDROOT
BRANCH   1   2
ATOM      2  C   UNL     1      -2.255 -11.867  40.891  1.00  0.00     0.000 C 
BRANCH   2   3
ATOM      3  C   UNL     1      -2.283 -10.790  41.990  1.00  0.00     0.000 C 
BRANCH   3   4
ATOM      4  C   UNL     1      -1.918  -9.391  41.467  1.00  0.00     0.000 C 
BRANCH   4   5
ATOM      5  C   UNL     1      -1.197  -9.438  40.111  1.00  0.00     0.001 C 
BRANCH   5   6
ATOM      6  C   UNL     1      -1.268  -8.101  39.350  1.00  0.00     0.009 C 
BRANCH   6   7
ATOM      7  C   UNL     1      -1.160  -8.281  37.821  1.00  0.00     0.032 C 
ATOM      8  C   UNL     1      -1.483  -9.716  37.382  1.00  0.00     0.014 C 
BRANCH   7   9
ATOM      9  C   UNL     1      -2.089  -7.322  37.130  1.00  0.00     0.044 C 
ATOM     10  O   UNL     1      -2.909  -6.640  37.801  1.00  0.00    -0.550 OA
ATOM     11  O   UNL     1      -2.052  -7.180  35.748  1.00  0.00    -0.550 OA
ENDBRANCH   7   9
ENDBRANCH   6   7
ENDBRANCH   5   6
ENDBRANCH   4   5
ENDBRANCH   3   4
ENDBRANCH   2   3
ENDBRANCH   1   2
BRANCH   1  12
ATOM     12  C   UNL     1      -4.046 -11.843  39.003  1.00  0.00     0.000 C 
BRANCH  12  13
ATOM     13  C   UNL     1      -5.296 -10.943  38.970  1.00  0.00    -0.000 C 
BRANCH  13  14
ATOM     14  C   UNL     1      -5.020  -9.457  38.678  1.00  0.00    -0.000 C 
BRANCH  14  15
ATOM     15  C   UNL     1      -4.907  -8.609  39.953  1.00  0.00    -0.000 C 
BRANCH  15  16
ATOM     16  C   UNL     1      -6.080  -8.883  40.901  1.00  0.00    -0.000 C 
BRANCH  16  17
ATOM     17  C   UNL     1      -5.582  -9.232  42.309  1.00  0.00    -0.000 C 
BRANCH  17  18
ATOM     18  C   UNL     1      -6.440 -10.333  42.940  1.00  0.00    -0.003 C 
ATOM     19  C   UNL     1      -5.578 -11.496  43.424  1.00  0.00     0.004 C 
ENDBRANCH  17  18
ENDBRANCH  16  17
ENDBRANCH  15  16
ENDBRANCH  14  15
ENDBRANCH  13  14
ENDBRANCH  12  13
ENDBRANCH   1  12
TORSDOF 14
ENDMDL
MODEL 9
REMARK VINA RESULT:    -3.482      3.078      6.972
REMARK INTER + INTRA:          -8.480
REMARK INTER:                  -6.391
REMARK INTRA:                  -2.088
REMARK UNBOUND:                -2.149
REMARK SMILES CCCCCCCCCCCCCC[C@@H](C)C(=O)[O-]
REMARK SMILES IDX 9 1 10 2 11 3 12 4 13 5 14 6 15 7 16 8 17 9 18 10 19 11 8 12
REMARK SMILES IDX 7 13 6 14 5 15 4 16 3 17 2 18 1 19
REMARK H PARENT
REMARK Flexibility Score: inf
ROOT
ATOM      1  C   UNL     1      -0.641 -10.205  38.530  1.00  0.00     0.000 C 
ENDROOT
BRANCH   1   2
ATOM      2  C   UNL     1      -0.922 -10.037  37.023  1.00  0.00     0.000 C 
BRANCH   2   3
ATOM      3  C   UNL     1      -0.359  -8.750  36.393  1.00  0.00     0.000 C 
BRANCH   3   4
ATOM      4  C   UNL     1      -1.448  -7.709  36.083  1.00  0.00     0.000 C 
BRANCH   4   5
ATOM      5  C   UNL     1      -2.827  -8.349  35.854  1.00  0.00     0.001 C 
BRANCH   5   6
ATOM      6  C   UNL     1      -3.869  -7.346  35.322  1.00  0.00     0.009 C 
BRANCH   6   7
ATOM      7  C   UNL     1      -3.222  -6.070  34.744  1.00  0.00     0.032 C 
ATOM      8  C   UNL     1      -3.185  -6.082  33.209  1.00  0.00     0.014 C 
BRANCH   7   9
ATOM      9  C   UNL     1      -3.976  -4.859  35.219  1.00  0.00     0.044 C 
ATOM     10  O   UNL     1      -4.692  -4.925  36.255  1.00  0.00    -0.550 OA
ATOM     11  O   UNL     1      -3.891  -3.659  34.521  1.00  0.00    -0.550 OA
ENDBRANCH   7   9
ENDBRANCH   6   7
ENDBRANCH   5   6
ENDBRANCH   4   5
ENDBRANCH   3   4
ENDBRANCH   2   3
ENDBRANCH   1   2
BRANCH   1  12
ATOM     12  C   UNL     1      -0.258  -8.908  39.271  1.00  0.00     0.000 C 
BRANCH  12  13
ATOM     13  C   UNL     1      -1.337  -8.360  40.226  1.00  0.00    -0.000 C 
BRANCH  13  14
ATOM     14  C   UNL     1      -2.712  -8.112  39.580  1.00  0.00    -0.000 C 
BRANCH  14  15
ATOM     15  C   UNL     1      -3.810  -9.028  40.142  1.00  0.00    -0.000 C 
BRANCH  15  16
ATOM     16  C   UNL     1      -3.307  -9.798  41.369  1.00  0.00    -0.000 C 
BRANCH  16  17
ATOM     17  C   UNL     1      -3.614 -11.295  41.244  1.00  0.00    -0.000 C 
BRANCH  17  18
ATOM     18  C   UNL     1      -2.351 -12.136  41.457  1.00  0.00    -0.003 C 
ATOM     19  C   UNL     1      -1.311 -11.373  42.273  1.00  0.00     0.004 C 
ENDBRANCH  17  18
ENDBRANCH  16  17
ENDBRANCH  15  16
ENDBRANCH  14  15
ENDBRANCH  13  14
ENDBRANCH  12  13
ENDBRANCH   1  12
TORSDOF 14
ENDMDL
