MODEL 1
REMARK VINA RESULT:    -5.517      0.000      0.000
REMARK INTER + INTRA:          -7.431
REMARK INTER:                  -6.807
REMARK INTRA:                  -0.624
REMARK UNBOUND:                -0.624
REMARK SMILES CC(C)=CCC[C@@H](C)c1ccc(C)cc1
REMARK SMILES IDX 6 1 7 2 8 3 9 4 13 5 12 6 11 7 14 8 10 9 15 10 5 11 4 12
REMARK SMILES IDX 2 13 1 14 3 15
REMARK H PARENT
REMARK Flexibility Score: inf
ROOT
ATOM      1  C   UNL     1      26.261 -52.982 -10.880  1.00  0.00     0.012 C 
ENDROOT
BRANCH   1   2
ATOM      2  C   UNL     1      26.642 -51.568 -10.391  1.00  0.00     0.016 C 
ATOM      3  C   UNL     1      25.906 -51.224  -9.089  1.00  0.00     0.013 C 
BRANCH   2   4
ATOM      4  C   UNL     1      28.143 -51.411 -10.214  1.00  0.00    -0.045 A 
ATOM      5  C   UNL     1      32.397 -50.890  -9.673  1.00  0.00     0.044 C 
ATOM      6  C   UNL     1      30.923 -51.102  -9.859  1.00  0.00    -0.051 A 
ATOM      7  C   UNL     1      30.387 -51.243 -11.146  1.00  0.00     0.004 A 
ATOM      8  C   UNL     1      30.062 -51.091  -8.752  1.00  0.00     0.004 A 
ATOM      9  C   UNL     1      29.009 -51.401 -11.323  1.00  0.00     0.004 A 
ATOM     10  C   UNL     1      28.684 -51.249  -8.927  1.00  0.00     0.004 A 
ENDBRANCH   2   4
ENDBRANCH   1   2
BRANCH   1  11
ATOM     11  C   UNL     1      27.127 -54.071 -10.229  1.00  0.00     0.028 C 
BRANCH  11  12
ATOM     12  C   UNL     1      27.853 -54.873 -11.279  1.00  0.00    -0.028 C 
ATOM     13  C   UNL     1      28.185 -56.178 -11.151  1.00  0.00    -0.080 C 
ATOM     14  C   UNL     1      27.799 -56.985  -9.934  1.00  0.00     0.039 C 
ATOM     15  C   UNL     1      28.949 -56.838 -12.268  1.00  0.00     0.039 C 
ENDBRANCH  11  12
ENDBRANCH   1  11
TORSDOF 4
ENDMDL
MODEL 2
REMARK VINA RESULT:    -4.809      1.350      2.106
REMARK INTER + INTRA:          -6.557
REMARK INTER:                  -5.452
REMARK INTRA:                  -1.105
REMARK UNBOUND:                -0.624
REMARK SMILES CC(C)=CCC[C@@H](C)c1ccc(C)cc1
REMARK SMILES IDX 6 1 7 2 8 3 9 4 13 5 12 6 11 7 14 8 10 9 15 10 5 11 4 12
REMARK SMILES IDX 2 13 1 14 3 15
REMARK H PARENT
REMARK Flexibility Score: inf
ROOT
ATOM      1  C   UNL     1      27.936 -52.216 -10.991  1.00  0.00     0.012 C 
ENDROOT
BRANCH   1   2
ATOM      2  C   UNL     1      28.853 -51.148 -10.357  1.00  0.00     0.016 C 
ATOM      3  C   UNL     1      28.445 -50.875  -8.903  1.00  0.00     0.013 C 
BRANCH   2   4
ATOM      4  C   UNL     1      30.319 -51.536 -10.437  1.00  0.00    -0.045 A 
ATOM      5  C   UNL     1      34.511 -52.559 -10.640  1.00  0.00     0.044 C 
ATOM      6  C   UNL     1      33.049 -52.233 -10.563  1.00  0.00    -0.051 A 
ATOM      7  C   UNL     1      32.246 -52.311 -11.709  1.00  0.00     0.004 A 
ATOM      8  C   UNL     1      32.488 -51.781  -9.359  1.00  0.00     0.004 A 
ATOM      9  C   UNL     1      30.892 -51.970 -11.647  1.00  0.00     0.004 A 
ATOM     10  C   UNL     1      31.134 -51.440  -9.295  1.00  0.00     0.004 A 
ENDBRANCH   2   4
ENDBRANCH   1   2
BRANCH   1  11
ATOM     11  C   UNL     1      27.755 -53.438 -10.079  1.00  0.00     0.028 C 
BRANCH  11  12
ATOM     12  C   UNL     1      27.491 -54.679 -10.895  1.00  0.00    -0.028 C 
ATOM     13  C   UNL     1      28.447 -55.548 -11.296  1.00  0.00    -0.080 C 
ATOM     14  C   UNL     1      29.896 -55.378 -10.905  1.00  0.00     0.039 C 
ATOM     15  C   UNL     1      28.038 -56.723 -12.144  1.00  0.00     0.039 C 
ENDBRANCH  11  12
ENDBRANCH   1  11
TORSDOF 4
ENDMDL
MODEL 3
REMARK VINA RESULT:    -4.750     14.015     16.910
REMARK INTER + INTRA:          -6.485
REMARK INTER:                  -4.923
REMARK INTRA:                  -1.561
REMARK UNBOUND:                -0.624
REMARK SMILES CC(C)=CCC[C@@H](C)c1ccc(C)cc1
REMARK SMILES IDX 6 1 7 2 8 3 9 4 13 5 12 6 11 7 14 8 10 9 15 10 5 11 4 12
REMARK SMILES IDX 2 13 1 14 3 15
REMARK H PARENT
REMARK Flexibility Score: inf
ROOT
ATOM      1  C   UNL     1      32.628 -70.360  -8.206  1.00  0.00     0.012 C 
ENDROOT
BRANCH   1   2
ATOM      2  C   UNL     1      31.588 -69.219  -8.188  1.00  0.00     0.016 C 
ATOM      3  C   UNL     1      30.236 -69.723  -7.664  1.00  0.00     0.013 C 
BRANCH   2   4
ATOM      4  C   UNL     1      32.064 -68.026  -7.378  1.00  0.00    -0.045 A 
ATOM      5  C   UNL     1      33.359 -64.584  -5.112  1.00  0.00     0.044 C 
ATOM      6  C   UNL     1      32.918 -65.798  -5.875  1.00  0.00    -0.051 A 
ATOM      7  C   UNL     1      33.812 -66.460  -6.728  1.00  0.00     0.004 A 
ATOM      8  C   UNL     1      31.589 -66.238  -5.796  1.00  0.00     0.004 A 
ATOM      9  C   UNL     1      33.391 -67.567  -7.469  1.00  0.00     0.004 A 
ATOM     10  C   UNL     1      31.166 -67.346  -6.536  1.00  0.00     0.004 A 
ENDBRANCH   2   4
ENDBRANCH   1   2
BRANCH   1  11
ATOM     11  C   UNL     1      32.685 -71.112  -6.868  1.00  0.00     0.028 C 
BRANCH  11  12
ATOM     12  C   UNL     1      34.007 -70.882  -6.181  1.00  0.00    -0.028 C 
ATOM     13  C   UNL     1      34.156 -70.213  -5.016  1.00  0.00    -0.080 C 
ATOM     14  C   UNL     1      32.974 -69.669  -4.248  1.00  0.00     0.039 C 
ATOM     15  C   UNL     1      35.547 -70.024  -4.469  1.00  0.00     0.039 C 
ENDBRANCH  11  12
ENDBRANCH   1  11
TORSDOF 4
ENDMDL
MODEL 4
REMARK VINA RESULT:    -4.722     13.386     17.203
REMARK INTER + INTRA:          -6.451
REMARK INTER:                  -5.004
REMARK INTRA:                  -1.446
REMARK UNBOUND:                -0.624
REMARK SMILES CC(C)=CCC[C@@H](C)c1ccc(C)cc1
REMARK SMILES IDX 6 1 7 2 8 3 9 4 13 5 12 6 11 7 14 8 10 9 15 10 5 11 4 12
REMARK SMILES IDX 2 13 1 14 3 15
REMARK H PARENT
REMARK Flexibility Score: inf
ROOT
ATOM      1  C   UNL     1      32.805 -71.077  -5.837  1.00  0.00     0.012 C 
ENDROOT
BRANCH   1   2
ATOM      2  C   UNL     1      31.608 -70.479  -6.608  1.00  0.00     0.016 C 
ATOM      3  C   UNL     1      30.292 -71.125  -6.156  1.00  0.00     0.013 C 
BRANCH   2   4
ATOM      4  C   UNL     1      31.538 -68.968  -6.468  1.00  0.00    -0.045 A 
ATOM      5  C   UNL     1      31.264 -64.679  -6.030  1.00  0.00     0.044 C 
ATOM      6  C   UNL     1      31.390 -66.167  -6.181  1.00  0.00    -0.051 A 
ATOM      7  C   UNL     1      31.478 -66.743  -7.456  1.00  0.00     0.004 A 
ATOM      8  C   UNL     1      31.351 -66.997  -5.052  1.00  0.00     0.004 A 
ATOM      9  C   UNL     1      31.556 -68.131  -7.599  1.00  0.00     0.004 A 
ATOM     10  C   UNL     1      31.430 -68.386  -5.193  1.00  0.00     0.004 A 
ENDBRANCH   2   4
ENDBRANCH   1   2
BRANCH   1  11
ATOM     11  C   UNL     1      34.152 -70.631  -6.425  1.00  0.00     0.028 C 
BRANCH  11  12
ATOM     12  C   UNL     1      34.968 -69.896  -5.392  1.00  0.00    -0.028 C 
ATOM     13  C   UNL     1      35.371 -68.611  -5.509  1.00  0.00    -0.080 C 
ATOM     14  C   UNL     1      34.983 -67.755  -6.693  1.00  0.00     0.039 C 
ATOM     15  C   UNL     1      36.219 -68.021  -4.413  1.00  0.00     0.039 C 
ENDBRANCH  11  12
ENDBRANCH   1  11
TORSDOF 4
ENDMDL
MODEL 5
REMARK VINA RESULT:    -4.719     16.025     17.629
REMARK INTER + INTRA:          -6.446
REMARK INTER:                  -4.851
REMARK INTRA:                  -1.596
REMARK UNBOUND:                -0.624
REMARK SMILES CC(C)=CCC[C@@H](C)c1ccc(C)cc1
REMARK SMILES IDX 6 1 7 2 8 3 9 4 13 5 12 6 11 7 14 8 10 9 15 10 5 11 4 12
REMARK SMILES IDX 2 13 1 14 3 15
REMARK H PARENT
REMARK Flexibility Score: inf
ROOT
ATOM      1  C   UNL     1      31.905 -71.123  -6.660  1.00  0.00     0.012 C 
ENDROOT
BRANCH   1   2
ATOM      2  C   UNL     1      32.596 -70.159  -7.648  1.00  0.00     0.016 C 
ATOM      3  C   UNL     1      31.567 -69.248  -8.330  1.00  0.00     0.013 C 
BRANCH   2   4
ATOM      4  C   UNL     1      33.679 -69.333  -6.975  1.00  0.00    -0.045 A 
ATOM      5  C   UNL     1      36.725 -67.003  -4.987  1.00  0.00     0.044 C 
ATOM      6  C   UNL     1      35.687 -67.819  -5.700  1.00  0.00    -0.051 A 
ATOM      7  C   UNL     1      34.820 -67.211  -6.619  1.00  0.00     0.004 A 
ATOM      8  C   UNL     1      35.530 -69.180  -5.402  1.00  0.00     0.004 A 
ATOM      9  C   UNL     1      33.828 -67.962  -7.255  1.00  0.00     0.004 A 
ATOM     10  C   UNL     1      34.538 -69.933  -6.038  1.00  0.00     0.004 A 
ENDBRANCH   2   4
ENDBRANCH   1   2
BRANCH   1  11
ATOM     11  C   UNL     1      30.755 -70.445  -5.899  1.00  0.00     0.028 C 
BRANCH  11  12
ATOM     12  C   UNL     1      31.200 -70.028  -4.520  1.00  0.00    -0.028 C 
ATOM     13  C   UNL     1      31.338 -68.745  -4.117  1.00  0.00    -0.080 C 
ATOM     14  C   UNL     1      30.998 -67.582  -5.019  1.00  0.00     0.039 C 
ATOM     15  C   UNL     1      31.833 -68.481  -2.719  1.00  0.00     0.039 C 
ENDBRANCH  11  12
ENDBRANCH   1  11
TORSDOF 4
ENDMDL
MODEL 6
REMARK VINA RESULT:    -4.717      1.927      5.493
REMARK INTER + INTRA:          -6.445
REMARK INTER:                  -5.716
REMARK INTRA:                  -0.729
REMARK UNBOUND:                -0.624
REMARK SMILES CC(C)=CCC[C@@H](C)c1ccc(C)cc1
REMARK SMILES IDX 6 1 7 2 8 3 9 4 13 5 12 6 11 7 14 8 10 9 15 10 5 11 4 12
REMARK SMILES IDX 2 13 1 14 3 15
REMARK H PARENT
REMARK Flexibility Score: inf
ROOT
ATOM      1  C   UNL     1      27.371 -54.547 -10.988  1.00  0.00     0.012 C 
ENDROOT
BRANCH   1   2
ATOM      2  C   UNL     1      28.476 -55.494 -10.472  1.00  0.00     0.016 C 
ATOM      3  C   UNL     1      27.866 -56.781  -9.899  1.00  0.00     0.013 C 
BRANCH   2   4
ATOM      4  C   UNL     1      29.496 -55.820 -11.550  1.00  0.00    -0.045 A 
ATOM      5  C   UNL     1      32.393 -56.829 -14.590  1.00  0.00     0.044 C 
ATOM      6  C   UNL     1      31.377 -56.455 -13.552  1.00  0.00    -0.051 A 
ATOM      7  C   UNL     1      31.699 -55.534 -12.546  1.00  0.00     0.004 A 
ATOM      8  C   UNL     1      30.119 -57.077 -13.539  1.00  0.00     0.004 A 
ATOM      9  C   UNL     1      30.766 -55.215 -11.556  1.00  0.00     0.004 A 
ATOM     10  C   UNL     1      29.184 -56.758 -12.549  1.00  0.00     0.004 A 
ENDBRANCH   2   4
ENDBRANCH   1   2
BRANCH   1  11
ATOM     11  C   UNL     1      27.757 -53.069 -10.828  1.00  0.00     0.028 C 
BRANCH  11  12
ATOM     12  C   UNL     1      27.492 -52.597  -9.420  1.00  0.00    -0.028 C 
ATOM     13  C   UNL     1      28.316 -51.787  -8.717  1.00  0.00    -0.080 C 
ATOM     14  C   UNL     1      29.583 -51.222  -9.316  1.00  0.00     0.039 C 
ATOM     15  C   UNL     1      27.940 -51.434  -7.303  1.00  0.00     0.039 C 
ENDBRANCH  11  12
ENDBRANCH   1  11
TORSDOF 4
ENDMDL
MODEL 7
REMARK VINA RESULT:    -4.685     14.497     17.533
REMARK INTER + INTRA:          -6.404
REMARK INTER:                  -4.809
REMARK INTRA:                  -1.596
REMARK UNBOUND:                -0.624
REMARK SMILES CC(C)=CCC[C@@H](C)c1ccc(C)cc1
REMARK SMILES IDX 6 1 7 2 8 3 9 4 13 5 12 6 11 7 14 8 10 9 15 10 5 11 4 12
REMARK SMILES IDX 2 13 1 14 3 15
REMARK H PARENT
REMARK Flexibility Score: inf
ROOT
ATOM      1  C   UNL     1      30.902 -68.584  -6.758  1.00  0.00     0.012 C 
ENDROOT
BRANCH   1   2
ATOM      2  C   UNL     1      31.814 -69.813  -6.965  1.00  0.00     0.016 C 
ATOM      3  C   UNL     1      32.318 -69.879  -8.413  1.00  0.00     0.013 C 
BRANCH   2   4
ATOM      4  C   UNL     1      32.980 -69.828  -5.992  1.00  0.00    -0.045 A 
ATOM      5  C   UNL     1      36.282 -69.788  -3.207  1.00  0.00     0.044 C 
ATOM      6  C   UNL     1      35.130 -69.832  -4.167  1.00  0.00    -0.051 A 
ATOM      7  C   UNL     1      35.340 -70.183  -5.508  1.00  0.00     0.004 A 
ATOM      8  C   UNL     1      33.846 -69.454  -3.748  1.00  0.00     0.004 A 
ATOM      9  C   UNL     1      34.274 -70.187  -6.412  1.00  0.00     0.004 A 
ATOM     10  C   UNL     1      32.778 -69.457  -4.650  1.00  0.00     0.004 A 
ENDBRANCH   2   4
ENDBRANCH   1   2
BRANCH   1  11
ATOM     11  C   UNL     1      31.484 -67.317  -7.402  1.00  0.00     0.028 C 
BRANCH  11  12
ATOM     12  C   UNL     1      31.964 -66.354  -6.346  1.00  0.00    -0.028 C 
ATOM     13  C   UNL     1      33.261 -66.037  -6.132  1.00  0.00    -0.080 C 
ATOM     14  C   UNL     1      34.372 -66.593  -6.991  1.00  0.00     0.039 C 
ATOM     15  C   UNL     1      33.593 -65.089  -5.010  1.00  0.00     0.039 C 
ENDBRANCH  11  12
ENDBRANCH   1  11
TORSDOF 4
ENDMDL
MODEL 8
REMARK VINA RESULT:    -4.575     14.938     18.584
REMARK INTER + INTRA:          -6.269
REMARK INTER:                  -4.680
REMARK INTRA:                  -1.589
REMARK UNBOUND:                -0.624
REMARK SMILES CC(C)=CCC[C@@H](C)c1ccc(C)cc1
REMARK SMILES IDX 6 1 7 2 8 3 9 4 13 5 12 6 11 7 14 8 10 9 15 10 5 11 4 12
REMARK SMILES IDX 2 13 1 14 3 15
REMARK H PARENT
REMARK Flexibility Score: inf
ROOT
ATOM      1  C   UNL     1      32.626 -70.084  -7.832  1.00  0.00     0.012 C 
ENDROOT
BRANCH   1   2
ATOM      2  C   UNL     1      33.115 -70.955  -6.655  1.00  0.00     0.016 C 
ATOM      3  C   UNL     1      34.496 -70.493  -6.172  1.00  0.00     0.013 C 
BRANCH   2   4
ATOM      4  C   UNL     1      32.123 -70.968  -5.505  1.00  0.00    -0.045 A 
ATOM      5  C   UNL     1      29.260 -70.939  -2.270  1.00  0.00     0.044 C 
ATOM      6  C   UNL     1      30.257 -70.980  -3.390  1.00  0.00    -0.051 A 
ATOM      7  C   UNL     1      31.623 -70.803  -3.127  1.00  0.00     0.004 A 
ATOM      8  C   UNL     1      29.825 -71.125  -4.716  1.00  0.00     0.004 A 
ATOM      9  C   UNL     1      32.549 -70.803  -4.174  1.00  0.00     0.004 A 
ATOM     10  C   UNL     1      30.750 -71.125  -5.765  1.00  0.00     0.004 A 
ENDBRANCH   2   4
ENDBRANCH   1   2
BRANCH   1  11
ATOM     11  C   UNL     1      32.955 -68.598  -7.627  1.00  0.00     0.028 C 
BRANCH  11  12
ATOM     12  C   UNL     1      31.745 -67.848  -7.127  1.00  0.00    -0.028 C 
ATOM     13  C   UNL     1      31.659 -67.259  -5.913  1.00  0.00    -0.080 C 
ATOM     14  C   UNL     1      32.817 -67.252  -4.943  1.00  0.00     0.039 C 
ATOM     15  C   UNL     1      30.369 -66.581  -5.534  1.00  0.00     0.039 C 
ENDBRANCH  11  12
ENDBRANCH   1  11
TORSDOF 4
ENDMDL
