MODEL 1
REMARK VINA RESULT:    -6.613      0.000      0.000
REMARK INTER + INTRA:          -8.540
REMARK INTER:                  -8.159
REMARK INTRA:                  -0.381
REMARK UNBOUND:                -0.381
REMARK SMILES Oc1cc(O)c2cc(O)c(-c3cc(O)c(O)c(O)c3)[o+]c2c1
REMARK SMILES IDX 10 1 20 2 21 3 22 4 2 5 3 6 4 7 6 8 7 9 8 10 11 11 12 12
REMARK SMILES IDX 13 13 19 14 15 15 17 16 14 17 16 19 18 21 9 23 1 25 5 27
REMARK H PARENT 14 18 16 20 18 22 9 24 1 26 5 28
REMARK Flexibility Score: inf
ROOT
ATOM      1  C   UNL     1     -60.460  22.241 -30.767  1.00  0.00     0.402 A 
ATOM      2  O   UNL     1     -61.314  21.367 -30.240  1.00  0.00    -0.202 OA
ATOM      3  C   UNL     1     -61.215  20.054 -30.417  1.00  0.00     0.368 A 
ATOM      4  C   UNL     1     -62.163  19.215 -29.824  1.00  0.00     0.162 A 
ATOM      5  C   UNL     1     -62.084  17.829 -29.996  1.00  0.00     0.128 A 
ATOM      6  C   UNL     1     -61.055  17.281 -30.765  1.00  0.00     0.093 A 
ATOM      7  C   UNL     1     -60.093  18.100 -31.370  1.00  0.00     0.136 A 
ATOM      8  C   UNL     1     -60.167  19.507 -31.196  1.00  0.00     0.125 A 
ATOM      9  C   UNL     1     -59.240  20.403 -31.753  1.00  0.00     0.078 A 
ATOM     10  C   UNL     1     -59.375  21.778 -31.533  1.00  0.00     0.223 A 
ENDROOT
BRANCH   1  11
ATOM     11  C   UNL     1     -60.683  23.682 -30.506  1.00  0.00     0.091 A 
ATOM     12  C   UNL     1     -60.100  24.276 -29.377  1.00  0.00     0.068 A 
ATOM     13  C   UNL     1     -60.306  25.631 -29.088  1.00  0.00     0.162 A 
ATOM     14  C   UNL     1     -61.512  24.455 -31.333  1.00  0.00     0.068 A 
ATOM     15  C   UNL     1     -61.125  26.409 -29.940  1.00  0.00     0.200 A 
ATOM     16  C   UNL     1     -61.727  25.811 -31.055  1.00  0.00     0.162 A 
BRANCH  13  17
ATOM     17  O   UNL     1     -59.683  26.155 -27.953  1.00  0.00    -0.504 OA
ATOM     18  H   UNL     1     -59.533  25.636 -27.101  1.00  0.00     0.293 HD
ENDBRANCH  13  17
BRANCH  15  19
ATOM     19  O   UNL     1     -61.366  27.767 -29.713  1.00  0.00    -0.502 OA
ATOM     20  H   UNL     1     -61.197  28.232 -28.833  1.00  0.00     0.293 HD
ENDBRANCH  15  19
BRANCH  16  21
ATOM     21  O   UNL     1     -62.546  26.574 -31.886  1.00  0.00    -0.504 OA
ATOM     22  H   UNL     1     -62.163  27.148 -32.629  1.00  0.00     0.293 HD
ENDBRANCH  16  21
ENDBRANCH   1  11
BRANCH  10  23
ATOM     23  O   UNL     1     -58.427  22.665 -32.044  1.00  0.00    -0.500 OA
ATOM     24  H   UNL     1     -57.682  23.037 -31.468  1.00  0.00     0.294 HD
ENDBRANCH  10  23
BRANCH   5  25
ATOM     25  O   UNL     1     -63.025  16.986 -29.408  1.00  0.00    -0.507 OA
ATOM     26  H   UNL     1     -62.897  15.981 -29.387  1.00  0.00     0.293 HD
ENDBRANCH   5  25
BRANCH   7  27
ATOM     27  O   UNL     1     -59.098  17.474 -32.125  1.00  0.00    -0.507 OA
ATOM     28  H   UNL     1     -59.245  17.061 -33.034  1.00  0.00     0.293 HD
ENDBRANCH   7  27
TORSDOF 7
ENDMDL
MODEL 2
REMARK VINA RESULT:    -6.544      0.117      1.802
REMARK INTER + INTRA:          -8.455
REMARK INTER:                  -8.089
REMARK INTRA:                  -0.367
REMARK UNBOUND:                -0.381
REMARK SMILES Oc1cc(O)c2cc(O)c(-c3cc(O)c(O)c(O)c3)[o+]c2c1
REMARK SMILES IDX 10 1 20 2 21 3 22 4 2 5 3 6 4 7 6 8 7 9 8 10 11 11 12 12
REMARK SMILES IDX 13 13 19 14 15 15 17 16 14 17 16 19 18 21 9 23 1 25 5 27
REMARK H PARENT 14 18 16 20 18 22 9 24 1 26 5 28
REMARK Flexibility Score: inf
ROOT
ATOM      1  C   UNL     1     -60.414  22.250 -30.678  1.00  0.00     0.402 A 
ATOM      2  O   UNL     1     -61.290  21.375 -30.191  1.00  0.00    -0.202 OA
ATOM      3  C   UNL     1     -61.204  20.065 -30.399  1.00  0.00     0.368 A 
ATOM      4  C   UNL     1     -62.175  19.225 -29.847  1.00  0.00     0.162 A 
ATOM      5  C   UNL     1     -62.110  17.843 -30.052  1.00  0.00     0.128 A 
ATOM      6  C   UNL     1     -61.072  17.301 -30.812  1.00  0.00     0.093 A 
ATOM      7  C   UNL     1     -60.087  18.122 -31.376  1.00  0.00     0.136 A 
ATOM      8  C   UNL     1     -60.147  19.525 -31.169  1.00  0.00     0.125 A 
ATOM      9  C   UNL     1     -59.196  20.422 -31.683  1.00  0.00     0.078 A 
ATOM     10  C   UNL     1     -59.318  21.792 -31.432  1.00  0.00     0.223 A 
ENDROOT
BRANCH   1  11
ATOM     11  C   UNL     1     -60.623  23.688 -30.385  1.00  0.00     0.091 A 
ATOM     12  C   UNL     1     -61.447  24.450 -31.227  1.00  0.00     0.068 A 
ATOM     13  C   UNL     1     -61.651  25.815 -30.992  1.00  0.00     0.162 A 
ATOM     14  C   UNL     1     -59.969  24.319 -29.316  1.00  0.00     0.068 A 
ATOM     15  C   UNL     1     -61.007  26.439 -29.897  1.00  0.00     0.200 A 
ATOM     16  C   UNL     1     -60.164  25.683 -29.070  1.00  0.00     0.162 A 
BRANCH  13  17
ATOM     17  O   UNL     1     -62.494  26.505 -31.865  1.00  0.00    -0.504 OA
ATOM     18  H   UNL     1     -63.489  26.609 -31.727  1.00  0.00     0.293 HD
ENDBRANCH  13  17
BRANCH  15  19
ATOM     19  O   UNL     1     -61.172  27.795 -29.603  1.00  0.00    -0.502 OA
ATOM     20  H   UNL     1     -60.770  28.252 -28.797  1.00  0.00     0.293 HD
ENDBRANCH  15  19
BRANCH  16  21
ATOM     21  O   UNL     1     -59.517  26.301 -28.001  1.00  0.00    -0.504 OA
ATOM     22  H   UNL     1     -58.506  26.318 -27.929  1.00  0.00     0.293 HD
ENDBRANCH  16  21
ENDBRANCH   1  11
BRANCH  10  23
ATOM     23  O   UNL     1     -58.348  22.678 -31.901  1.00  0.00    -0.500 OA
ATOM     24  H   UNL     1     -58.028  23.461 -31.343  1.00  0.00     0.294 HD
ENDBRANCH  10  23
BRANCH   5  25
ATOM     25  O   UNL     1     -63.075  16.999 -29.506  1.00  0.00    -0.507 OA
ATOM     26  H   UNL     1     -63.956  16.827 -29.976  1.00  0.00     0.293 HD
ENDBRANCH   5  25
BRANCH   7  27
ATOM     27  O   UNL     1     -59.083  17.501 -32.125  1.00  0.00    -0.507 OA
ATOM     28  H   UNL     1     -58.220  17.147 -31.740  1.00  0.00     0.293 HD
ENDBRANCH   7  27
TORSDOF 7
ENDMDL
MODEL 3
REMARK VINA RESULT:    -6.231      1.759      7.354
REMARK INTER + INTRA:          -8.068
REMARK INTER:                  -7.692
REMARK INTRA:                  -0.377
REMARK UNBOUND:                -0.381
REMARK SMILES Oc1cc(O)c2cc(O)c(-c3cc(O)c(O)c(O)c3)[o+]c2c1
REMARK SMILES IDX 10 1 20 2 21 3 22 4 2 5 3 6 4 7 6 8 7 9 8 10 11 11 12 12
REMARK SMILES IDX 13 13 19 14 15 15 17 16 14 17 16 19 18 21 9 23 1 25 5 27
REMARK H PARENT 14 18 16 20 18 22 9 24 1 26 5 28
REMARK Flexibility Score: inf
ROOT
ATOM      1  C   UNL     1     -60.414  20.187 -29.793  1.00  0.00     0.402 A 
ATOM      2  O   UNL     1     -61.296  20.894 -30.496  1.00  0.00    -0.202 OA
ATOM      3  C   UNL     1     -61.303  22.222 -30.532  1.00  0.00     0.368 A 
ATOM      4  C   UNL     1     -62.272  22.876 -31.299  1.00  0.00     0.162 A 
ATOM      5  C   UNL     1     -62.304  24.273 -31.353  1.00  0.00     0.128 A 
ATOM      6  C   UNL     1     -61.364  25.018 -30.637  1.00  0.00     0.093 A 
ATOM      7  C   UNL     1     -60.384  24.387 -29.862  1.00  0.00     0.136 A 
ATOM      8  C   UNL     1     -60.345  22.969 -29.806  1.00  0.00     0.125 A 
ATOM      9  C   UNL     1     -59.390  22.252 -29.066  1.00  0.00     0.078 A 
ATOM     10  C   UNL     1     -59.413  20.854 -29.063  1.00  0.00     0.223 A 
ENDROOT
BRANCH   1  11
ATOM     11  C   UNL     1     -60.516  18.710 -29.824  1.00  0.00     0.091 A 
ATOM     12  C   UNL     1     -60.013  18.007 -30.928  1.00  0.00     0.068 A 
ATOM     13  C   UNL     1     -60.110  16.612 -31.001  1.00  0.00     0.162 A 
ATOM     14  C   UNL     1     -61.158  18.000 -28.798  1.00  0.00     0.068 A 
ATOM     15  C   UNL     1     -60.738  15.901 -29.951  1.00  0.00     0.200 A 
ATOM     16  C   UNL     1     -61.263  16.604 -28.858  1.00  0.00     0.162 A 
BRANCH  13  17
ATOM     17  O   UNL     1     -59.575  15.981 -32.125  1.00  0.00    -0.504 OA
ATOM     18  H   UNL     1     -60.045  15.254 -32.643  1.00  0.00     0.293 HD
ENDBRANCH  13  17
BRANCH  15  19
ATOM     19  O   UNL     1     -60.863  14.509 -29.957  1.00  0.00    -0.502 OA
ATOM     20  H   UNL     1     -61.738  14.021 -30.081  1.00  0.00     0.293 HD
ENDBRANCH  15  19
BRANCH  16  21
ATOM     21  O   UNL     1     -61.896  15.905 -27.830  1.00  0.00    -0.504 OA
ATOM     22  H   UNL     1     -62.141  14.926 -27.926  1.00  0.00     0.293 HD
ENDBRANCH  16  21
ENDBRANCH   1  11
BRANCH  10  23
ATOM     23  O   UNL     1     -58.435  20.140 -28.370  1.00  0.00    -0.500 OA
ATOM     24  H   UNL     1     -57.621  19.759 -28.837  1.00  0.00     0.294 HD
ENDBRANCH  10  23
BRANCH   5  25
ATOM     25  O   UNL     1     -63.267  24.932 -32.114  1.00  0.00    -0.507 OA
ATOM     26  H   UNL     1     -63.210  25.927 -32.294  1.00  0.00     0.293 HD
ENDBRANCH   5  25
BRANCH   7  27
ATOM     27  O   UNL     1     -59.482  25.204 -29.174  1.00  0.00    -0.507 OA
ATOM     28  H   UNL     1     -59.647  25.590 -28.256  1.00  0.00     0.293 HD
ENDBRANCH   7  27
TORSDOF 7
ENDMDL
MODEL 4
REMARK VINA RESULT:    -6.002      1.718      7.550
REMARK INTER + INTRA:          -7.787
REMARK INTER:                  -7.416
REMARK INTRA:                  -0.370
REMARK UNBOUND:                -0.381
REMARK SMILES Oc1cc(O)c2cc(O)c(-c3cc(O)c(O)c(O)c3)[o+]c2c1
REMARK SMILES IDX 10 1 20 2 21 3 22 4 2 5 3 6 4 7 6 8 7 9 8 10 11 11 12 12
REMARK SMILES IDX 13 13 19 14 15 15 17 16 14 17 16 19 18 21 9 23 1 25 5 27
REMARK H PARENT 14 18 16 20 18 22 9 24 1 26 5 28
REMARK Flexibility Score: inf
ROOT
ATOM      1  C   UNL     1     -61.365  20.065 -30.440  1.00  0.00     0.402 A 
ATOM      2  O   UNL     1     -60.446  20.915 -29.988  1.00  0.00    -0.202 OA
ATOM      3  C   UNL     1     -60.556  22.235 -30.099  1.00  0.00     0.368 A 
ATOM      4  C   UNL     1     -59.537  23.047 -29.595  1.00  0.00     0.162 A 
ATOM      5  C   UNL     1     -59.626  24.439 -29.701  1.00  0.00     0.128 A 
ATOM      6  C   UNL     1     -60.738  25.019 -30.314  1.00  0.00     0.093 A 
ATOM      7  C   UNL     1     -61.772  24.228 -30.828  1.00  0.00     0.136 A 
ATOM      8  C   UNL     1     -61.688  22.815 -30.720  1.00  0.00     0.125 A 
ATOM      9  C   UNL     1     -62.684  21.944 -31.193  1.00  0.00     0.078 A 
ATOM     10  C   UNL     1     -62.533  20.562 -31.047  1.00  0.00     0.223 A 
ENDROOT
BRANCH   1  11
ATOM     11  C   UNL     1     -61.122  18.614 -30.265  1.00  0.00     0.091 A 
ATOM     12  C   UNL     1     -60.401  17.913 -31.242  1.00  0.00     0.068 A 
ATOM     13  C   UNL     1     -60.170  16.537 -31.119  1.00  0.00     0.162 A 
ATOM     14  C   UNL     1     -61.649  17.912 -29.170  1.00  0.00     0.068 A 
ATOM     15  C   UNL     1     -60.684  15.841 -30.000  1.00  0.00     0.200 A 
ATOM     16  C   UNL     1     -61.427  16.536 -29.035  1.00  0.00     0.162 A 
BRANCH  13  17
ATOM     17  O   UNL     1     -59.432  15.910 -32.125  1.00  0.00    -0.504 OA
ATOM     18  H   UNL     1     -59.623  14.982 -32.471  1.00  0.00     0.293 HD
ENDBRANCH  13  17
BRANCH  15  19
ATOM     19  O   UNL     1     -60.486  14.470 -29.813  1.00  0.00    -0.502 OA
ATOM     20  H   UNL     1     -59.972  13.881 -30.452  1.00  0.00     0.293 HD
ENDBRANCH  15  19
BRANCH  16  21
ATOM     21  O   UNL     1     -61.947  15.847 -27.940  1.00  0.00    -0.504 OA
ATOM     22  H   UNL     1     -61.349  15.331 -27.304  1.00  0.00     0.293 HD
ENDBRANCH  16  21
ENDBRANCH   1  11
BRANCH  10  23
ATOM     23  O   UNL     1     -63.543  19.698 -31.472  1.00  0.00    -0.500 OA
ATOM     24  H   UNL     1     -63.816  19.637 -32.446  1.00  0.00     0.294 HD
ENDBRANCH  10  23
BRANCH   5  25
ATOM     25  O   UNL     1     -58.613  25.255 -29.201  1.00  0.00    -0.507 OA
ATOM     26  H   UNL     1     -58.049  24.973 -28.408  1.00  0.00     0.293 HD
ENDBRANCH   5  25
BRANCH   7  27
ATOM     27  O   UNL     1     -62.849  24.886 -31.429  1.00  0.00    -0.507 OA
ATOM     28  H   UNL     1     -63.263  25.739 -31.081  1.00  0.00     0.293 HD
ENDBRANCH   7  27
TORSDOF 7
ENDMDL
MODEL 5
REMARK VINA RESULT:    -5.981      1.596      7.019
REMARK INTER + INTRA:          -7.761
REMARK INTER:                  -8.120
REMARK INTRA:                   0.359
REMARK UNBOUND:                -0.381
REMARK SMILES Oc1cc(O)c2cc(O)c(-c3cc(O)c(O)c(O)c3)[o+]c2c1
REMARK SMILES IDX 10 1 20 2 21 3 22 4 2 5 3 6 4 7 6 8 7 9 8 10 11 11 12 12
REMARK SMILES IDX 13 13 19 14 15 15 17 16 14 17 16 19 18 21 9 23 1 25 5 27
REMARK H PARENT 14 18 16 20 18 22 9 24 1 26 5 28
REMARK Flexibility Score: inf
ROOT
ATOM      1  C   UNL     1     -60.210  22.480 -30.357  1.00  0.00     0.402 A 
ATOM      2  O   UNL     1     -61.105  23.454 -30.209  1.00  0.00    -0.202 OA
ATOM      3  C   UNL     1     -60.789  24.678 -29.800  1.00  0.00     0.368 A 
ATOM      4  C   UNL     1     -61.801  25.634 -29.673  1.00  0.00     0.162 A 
ATOM      5  C   UNL     1     -61.497  26.929 -29.242  1.00  0.00     0.128 A 
ATOM      6  C   UNL     1     -60.177  27.269 -28.937  1.00  0.00     0.093 A 
ATOM      7  C   UNL     1     -59.146  26.329 -29.056  1.00  0.00     0.136 A 
ATOM      8  C   UNL     1     -59.449  25.014 -29.496  1.00  0.00     0.125 A 
ATOM      9  C   UNL     1     -58.478  24.012 -29.658  1.00  0.00     0.078 A 
ATOM     10  C   UNL     1     -58.851  22.739 -30.100  1.00  0.00     0.223 A 
ENDROOT
BRANCH   1  11
ATOM     11  C   UNL     1     -60.688  21.153 -30.810  1.00  0.00     0.091 A 
ATOM     12  C   UNL     1     -62.054  20.848 -30.731  1.00  0.00     0.068 A 
ATOM     13  C   UNL     1     -62.538  19.596 -31.132  1.00  0.00     0.162 A 
ATOM     14  C   UNL     1     -59.794  20.170 -31.265  1.00  0.00     0.068 A 
ATOM     15  C   UNL     1     -61.634  18.619 -31.611  1.00  0.00     0.200 A 
ATOM     16  C   UNL     1     -60.264  18.914 -31.668  1.00  0.00     0.162 A 
BRANCH  13  17
ATOM     17  O   UNL     1     -63.912  19.370 -31.036  1.00  0.00    -0.504 OA
ATOM     18  H   UNL     1     -64.522  19.249 -31.831  1.00  0.00     0.293 HD
ENDBRANCH  13  17
BRANCH  15  19
ATOM     19  O   UNL     1     -62.050  17.353 -32.032  1.00  0.00    -0.502 OA
ATOM     20  H   UNL     1     -62.268  17.119 -32.989  1.00  0.00     0.293 HD
ENDBRANCH  15  19
BRANCH  16  21
ATOM     21  O   UNL     1     -59.371  17.947 -32.125  1.00  0.00    -0.504 OA
ATOM     22  H   UNL     1     -59.086  17.168 -31.542  1.00  0.00     0.293 HD
ENDBRANCH  16  21
ENDBRANCH   1  11
BRANCH  10  23
ATOM     23  O   UNL     1     -57.882  21.758 -30.309  1.00  0.00    -0.500 OA
ATOM     24  H   UNL     1     -57.862  21.201 -31.155  1.00  0.00     0.294 HD
ENDBRANCH  10  23
BRANCH   5  25
ATOM     25  O   UNL     1     -62.500  27.887 -29.112  1.00  0.00    -0.507 OA
ATOM     26  H   UNL     1     -62.375  28.710 -28.534  1.00  0.00     0.293 HD
ENDBRANCH   5  25
BRANCH   7  27
ATOM     27  O   UNL     1     -57.853  26.748 -28.729  1.00  0.00    -0.507 OA
ATOM     28  H   UNL     1     -57.619  27.295 -27.914  1.00  0.00     0.293 HD
ENDBRANCH   7  27
TORSDOF 7
ENDMDL
MODEL 6
REMARK VINA RESULT:    -5.952      2.069      3.016
REMARK INTER + INTRA:          -7.725
REMARK INTER:                  -7.844
REMARK INTRA:                   0.119
REMARK UNBOUND:                -0.381
REMARK SMILES Oc1cc(O)c2cc(O)c(-c3cc(O)c(O)c(O)c3)[o+]c2c1
REMARK SMILES IDX 10 1 20 2 21 3 22 4 2 5 3 6 4 7 6 8 7 9 8 10 11 11 12 12
REMARK SMILES IDX 13 13 19 14 15 15 17 16 14 17 16 19 18 21 9 23 1 25 5 27
REMARK H PARENT 14 18 16 20 18 22 9 24 1 26 5 28
REMARK Flexibility Score: inf
ROOT
ATOM      1  C   UNL     1     -60.546  24.492 -29.971  1.00  0.00     0.402 A 
ATOM      2  O   UNL     1     -59.979  23.625 -29.136  1.00  0.00    -0.202 OA
ATOM      3  C   UNL     1     -59.923  22.318 -29.369  1.00  0.00     0.368 A 
ATOM      4  C   UNL     1     -59.307  21.486 -28.430  1.00  0.00     0.162 A 
ATOM      5  C   UNL     1     -59.236  20.107 -28.649  1.00  0.00     0.128 A 
ATOM      6  C   UNL     1     -59.783  19.558 -29.810  1.00  0.00     0.093 A 
ATOM      7  C   UNL     1     -60.406  20.370 -30.766  1.00  0.00     0.136 A 
ATOM      8  C   UNL     1     -60.478  21.772 -30.550  1.00  0.00     0.125 A 
ATOM      9  C   UNL     1     -61.070  22.663 -31.460  1.00  0.00     0.078 A 
ATOM     10  C   UNL     1     -61.099  24.033 -31.180  1.00  0.00     0.223 A 
ENDROOT
BRANCH   1  11
ATOM     11  C   UNL     1     -60.555  25.925 -29.594  1.00  0.00     0.091 A 
ATOM     12  C   UNL     1     -59.505  26.441 -28.820  1.00  0.00     0.068 A 
ATOM     13  C   UNL     1     -59.491  27.785 -28.429  1.00  0.00     0.162 A 
ATOM     14  C   UNL     1     -61.621  26.767 -29.946  1.00  0.00     0.068 A 
ATOM     15  C   UNL     1     -60.558  28.633 -28.807  1.00  0.00     0.200 A 
ATOM     16  C   UNL     1     -61.620  28.113 -29.560  1.00  0.00     0.162 A 
BRANCH  13  17
ATOM     17  O   UNL     1     -58.406  28.229 -27.670  1.00  0.00    -0.504 OA
ATOM     18  H   UNL     1     -58.302  29.174 -27.332  1.00  0.00     0.293 HD
ENDBRANCH  13  17
BRANCH  15  19
ATOM     19  O   UNL     1     -60.604  29.985 -28.455  1.00  0.00    -0.502 OA
ATOM     20  H   UNL     1     -61.425  30.565 -28.542  1.00  0.00     0.293 HD
ENDBRANCH  15  19
BRANCH  16  21
ATOM     21  O   UNL     1     -62.680  28.945 -29.920  1.00  0.00    -0.504 OA
ATOM     22  H   UNL     1     -63.637  28.609 -29.938  1.00  0.00     0.293 HD
ENDBRANCH  16  21
ENDBRANCH   1  11
BRANCH  10  23
ATOM     23  O   UNL     1     -61.642  24.925 -32.105  1.00  0.00    -0.500 OA
ATOM     24  H   UNL     1     -62.643  25.060 -32.190  1.00  0.00     0.294 HD
ENDBRANCH  10  23
BRANCH   5  25
ATOM     25  O   UNL     1     -58.624  19.271 -27.717  1.00  0.00    -0.507 OA
ATOM     26  H   UNL     1     -57.685  19.450 -27.380  1.00  0.00     0.293 HD
ENDBRANCH   5  25
BRANCH   7  27
ATOM     27  O   UNL     1     -60.931  19.743 -31.900  1.00  0.00    -0.507 OA
ATOM     28  H   UNL     1     -60.490  19.745 -32.808  1.00  0.00     0.293 HD
ENDBRANCH   7  27
TORSDOF 7
ENDMDL
MODEL 7
REMARK VINA RESULT:    -5.817      1.782      2.404
REMARK INTER + INTRA:          -7.559
REMARK INTER:                  -7.943
REMARK INTRA:                   0.384
REMARK UNBOUND:                -0.381
REMARK SMILES Oc1cc(O)c2cc(O)c(-c3cc(O)c(O)c(O)c3)[o+]c2c1
REMARK SMILES IDX 10 1 20 2 21 3 22 4 2 5 3 6 4 7 6 8 7 9 8 10 11 11 12 12
REMARK SMILES IDX 13 13 19 14 15 15 17 16 14 17 16 19 18 21 9 23 1 25 5 27
REMARK H PARENT 14 18 16 20 18 22 9 24 1 26 5 28
REMARK Flexibility Score: inf
ROOT
ATOM      1  C   UNL     1     -60.032  23.246 -30.032  1.00  0.00     0.402 A 
ATOM      2  O   UNL     1     -61.183  22.617 -30.251  1.00  0.00    -0.202 OA
ATOM      3  C   UNL     1     -61.259  21.390 -30.755  1.00  0.00     0.368 A 
ATOM      4  C   UNL     1     -62.517  20.812 -30.952  1.00  0.00     0.162 A 
ATOM      5  C   UNL     1     -62.625  19.523 -31.483  1.00  0.00     0.128 A 
ATOM      6  C   UNL     1     -61.473  18.810 -31.820  1.00  0.00     0.093 A 
ATOM      7  C   UNL     1     -60.201  19.367 -31.633  1.00  0.00     0.136 A 
ATOM      8  C   UNL     1     -60.085  20.674 -31.091  1.00  0.00     0.125 A 
ATOM      9  C   UNL     1     -58.853  21.305 -30.856  1.00  0.00     0.078 A 
ATOM     10  C   UNL     1     -58.818  22.594 -30.314  1.00  0.00     0.223 A 
ENDROOT
BRANCH   1  11
ATOM     11  C   UNL     1     -60.079  24.618 -29.475  1.00  0.00     0.091 A 
ATOM     12  C   UNL     1     -61.321  25.219 -29.224  1.00  0.00     0.068 A 
ATOM     13  C   UNL     1     -61.403  26.521 -28.717  1.00  0.00     0.162 A 
ATOM     14  C   UNL     1     -58.906  25.354 -29.246  1.00  0.00     0.068 A 
ATOM     15  C   UNL     1     -60.215  27.249 -28.467  1.00  0.00     0.200 A 
ATOM     16  C   UNL     1     -58.973  26.658 -28.740  1.00  0.00     0.162 A 
BRANCH  13  17
ATOM     17  O   UNL     1     -62.674  27.048 -28.481  1.00  0.00    -0.504 OA
ATOM     18  H   UNL     1     -63.008  27.335 -27.573  1.00  0.00     0.293 HD
ENDBRANCH  13  17
BRANCH  15  19
ATOM     19  O   UNL     1     -60.225  28.550 -27.956  1.00  0.00    -0.502 OA
ATOM     20  H   UNL     1     -59.400  29.042 -27.647  1.00  0.00     0.293 HD
ENDBRANCH  15  19
BRANCH  16  21
ATOM     21  O   UNL     1     -57.803  27.380 -28.507  1.00  0.00    -0.504 OA
ATOM     22  H   UNL     1     -57.820  28.379 -28.334  1.00  0.00     0.293 HD
ENDBRANCH  16  21
ENDBRANCH   1  11
BRANCH  10  23
ATOM     23  O   UNL     1     -57.594  23.202 -30.035  1.00  0.00    -0.500 OA
ATOM     24  H   UNL     1     -57.478  23.828 -29.246  1.00  0.00     0.294 HD
ENDBRANCH  10  23
BRANCH   5  25
ATOM     25  O   UNL     1     -63.875  18.941 -31.683  1.00  0.00    -0.507 OA
ATOM     26  H   UNL     1     -64.087  18.010 -31.342  1.00  0.00     0.293 HD
ENDBRANCH   5  25
BRANCH   7  27
ATOM     27  O   UNL     1     -59.098  18.589 -31.997  1.00  0.00    -0.507 OA
ATOM     28  H   UNL     1     -58.136  18.859 -31.850  1.00  0.00     0.293 HD
ENDBRANCH   7  27
TORSDOF 7
ENDMDL
MODEL 8
REMARK VINA RESULT:    -5.767      2.267      3.060
REMARK INTER + INTRA:          -7.497
REMARK INTER:                  -7.136
REMARK INTRA:                  -0.361
REMARK UNBOUND:                -0.381
REMARK SMILES Oc1cc(O)c2cc(O)c(-c3cc(O)c(O)c(O)c3)[o+]c2c1
REMARK SMILES IDX 10 1 20 2 21 3 22 4 2 5 3 6 4 7 6 8 7 9 8 10 11 11 12 12
REMARK SMILES IDX 13 13 19 14 15 15 17 16 14 17 16 19 18 21 9 23 1 25 5 27
REMARK H PARENT 14 18 16 20 18 22 9 24 1 26 5 28
REMARK Flexibility Score: inf
ROOT
ATOM      1  C   UNL     1     -60.227  21.410 -29.537  1.00  0.00     0.402 A 
ATOM      2  O   UNL     1     -61.319  21.266 -30.284  1.00  0.00    -0.202 OA
ATOM      3  C   UNL     1     -61.990  20.123 -30.382  1.00  0.00     0.368 A 
ATOM      4  C   UNL     1     -63.127  20.070 -31.194  1.00  0.00     0.162 A 
ATOM      5  C   UNL     1     -63.850  18.879 -31.317  1.00  0.00     0.128 A 
ATOM      6  C   UNL     1     -63.435  17.739 -30.626  1.00  0.00     0.093 A 
ATOM      7  C   UNL     1     -62.300  17.767 -29.807  1.00  0.00     0.136 A 
ATOM      8  C   UNL     1     -61.563  18.973 -29.676  1.00  0.00     0.125 A 
ATOM      9  C   UNL     1     -60.422  19.097 -28.867  1.00  0.00     0.078 A 
ATOM     10  C   UNL     1     -59.752  20.321 -28.784  1.00  0.00     0.223 A 
ENDROOT
BRANCH   1  11
ATOM     11  C   UNL     1     -59.561  22.733 -29.518  1.00  0.00     0.091 A 
ATOM     12  C   UNL     1     -60.127  23.779 -28.776  1.00  0.00     0.068 A 
ATOM     13  C   UNL     1     -59.535  25.048 -28.751  1.00  0.00     0.162 A 
ATOM     14  C   UNL     1     -58.404  22.980 -30.275  1.00  0.00     0.068 A 
ATOM     15  C   UNL     1     -58.356  25.283 -29.497  1.00  0.00     0.200 A 
ATOM     16  C   UNL     1     -57.803  24.244 -30.259  1.00  0.00     0.162 A 
BRANCH  13  17
ATOM     17  O   UNL     1     -60.149  26.036 -27.979  1.00  0.00    -0.504 OA
ATOM     18  H   UNL     1     -59.917  26.227 -27.015  1.00  0.00     0.293 HD
ENDBRANCH  13  17
BRANCH  15  19
ATOM     19  O   UNL     1     -57.712  26.523 -29.512  1.00  0.00    -0.502 OA
ATOM     20  H   UNL     1     -56.899  26.731 -30.074  1.00  0.00     0.293 HD
ENDBRANCH  15  19
BRANCH  16  21
ATOM     21  O   UNL     1     -56.650  24.479 -31.007  1.00  0.00    -0.504 OA
ATOM     22  H   UNL     1     -55.914  25.091 -30.672  1.00  0.00     0.293 HD
ENDBRANCH  16  21
ENDBRANCH   1  11
BRANCH  10  23
ATOM     23  O   UNL     1     -58.648  20.458 -27.942  1.00  0.00    -0.500 OA
ATOM     24  H   UNL     1     -58.071  21.292 -27.952  1.00  0.00     0.294 HD
ENDBRANCH  10  23
BRANCH   5  25
ATOM     25  O   UNL     1     -64.984  18.819 -32.125  1.00  0.00    -0.507 OA
ATOM     26  H   UNL     1     -65.715  18.137 -31.961  1.00  0.00     0.293 HD
ENDBRANCH   5  25
BRANCH   7  27
ATOM     27  O   UNL     1     -61.950  16.582 -29.152  1.00  0.00    -0.507 OA
ATOM     28  H   UNL     1     -62.539  16.101 -28.489  1.00  0.00     0.293 HD
ENDBRANCH   7  27
TORSDOF 7
ENDMDL
MODEL 9
REMARK VINA RESULT:    -5.704      1.463      7.313
REMARK INTER + INTRA:          -7.419
REMARK INTER:                  -7.188
REMARK INTRA:                  -0.231
REMARK UNBOUND:                -0.381
REMARK SMILES Oc1cc(O)c2cc(O)c(-c3cc(O)c(O)c(O)c3)[o+]c2c1
REMARK SMILES IDX 10 1 20 2 21 3 22 4 2 5 3 6 4 7 6 8 7 9 8 10 11 11 12 12
REMARK SMILES IDX 13 13 19 14 15 15 17 16 14 17 16 19 18 21 9 23 1 25 5 27
REMARK H PARENT 14 18 16 20 18 22 9 24 1 26 5 28
REMARK Flexibility Score: inf
ROOT
ATOM      1  C   UNL     1     -60.894  23.210 -30.585  1.00  0.00     0.402 A 
ATOM      2  O   UNL     1     -60.123  23.916 -29.762  1.00  0.00    -0.202 OA
ATOM      3  C   UNL     1     -60.263  25.224 -29.574  1.00  0.00     0.368 A 
ATOM      4  C   UNL     1     -59.402  25.880 -28.689  1.00  0.00     0.162 A 
ATOM      5  C   UNL     1     -59.526  27.257 -28.475  1.00  0.00     0.128 A 
ATOM      6  C   UNL     1     -60.513  27.979 -29.148  1.00  0.00     0.093 A 
ATOM      7  C   UNL     1     -61.387  27.346 -30.040  1.00  0.00     0.136 A 
ATOM      8  C   UNL     1     -61.268  25.948 -30.259  1.00  0.00     0.125 A 
ATOM      9  C   UNL     1     -62.109  25.228 -31.123  1.00  0.00     0.078 A 
ATOM     10  C   UNL     1     -61.934  23.850 -31.284  1.00  0.00     0.223 A 
ENDROOT
BRANCH   1  11
ATOM     11  C   UNL     1     -60.632  21.758 -30.717  1.00  0.00     0.091 A 
ATOM     12  C   UNL     1     -59.453  21.324 -31.340  1.00  0.00     0.068 A 
ATOM     13  C   UNL     1     -59.182  19.959 -31.500  1.00  0.00     0.162 A 
ATOM     14  C   UNL     1     -61.566  20.805 -30.282  1.00  0.00     0.068 A 
ATOM     15  C   UNL     1     -60.118  19.004 -31.038  1.00  0.00     0.200 A 
ATOM     16  C   UNL     1     -61.308  19.437 -30.436  1.00  0.00     0.162 A 
BRANCH  13  17
ATOM     17  O   UNL     1     -57.983  19.603 -32.119  1.00  0.00    -0.504 OA
ATOM     18  H   UNL     1     -57.922  19.027 -32.946  1.00  0.00     0.293 HD
ENDBRANCH  13  17
BRANCH  15  19
ATOM     19  O   UNL     1     -59.908  17.627 -31.161  1.00  0.00    -0.502 OA
ATOM     20  H   UNL     1     -59.191  17.119 -30.665  1.00  0.00     0.293 HD
ENDBRANCH  15  19
BRANCH  16  21
ATOM     21  O   UNL     1     -62.237  18.496 -29.995  1.00  0.00    -0.504 OA
ATOM     22  H   UNL     1     -63.202  18.747 -29.810  1.00  0.00     0.293 HD
ENDBRANCH  16  21
ENDBRANCH   1  11
BRANCH  10  23
ATOM     23  O   UNL     1     -62.799  23.126 -32.104  1.00  0.00    -0.500 OA
ATOM     24  H   UNL     1     -63.166  22.223 -31.825  1.00  0.00     0.294 HD
ENDBRANCH  10  23
BRANCH   5  25
ATOM     25  O   UNL     1     -58.671  27.917 -27.595  1.00  0.00    -0.507 OA
ATOM     26  H   UNL     1     -57.968  27.416 -27.063  1.00  0.00     0.293 HD
ENDBRANCH   5  25
BRANCH   7  27
ATOM     27  O   UNL     1     -62.345  28.140 -30.675  1.00  0.00    -0.507 OA
ATOM     28  H   UNL     1     -62.863  27.863 -31.496  1.00  0.00     0.293 HD
ENDBRANCH   7  27
TORSDOF 7
ENDMDL
