MODEL 1
REMARK VINA RESULT:    -3.670      0.000      0.000
REMARK INTER + INTRA:          -5.184
REMARK INTER:                  -4.958
REMARK INTRA:                  -0.226
REMARK UNBOUND:                -0.226
REMARK SMILES CCCCCCCC(=O)[O-]
REMARK SMILES IDX 5 1 6 2 7 3 8 4 9 5 10 6 4 7 3 8 2 9 1 10
REMARK H PARENT
REMARK Flexibility Score: inf
ROOT
ATOM      1  C   UNL     1      11.017  18.263  13.955  1.00  0.00     0.000 C 
ENDROOT
BRANCH   1   2
ATOM      2  C   UNL     1      10.997  16.994  14.827  1.00  0.00     0.006 C 
BRANCH   2   3
ATOM      3  C   UNL     1      12.340  16.661  15.496  1.00  0.00     0.053 C 
BRANCH   3   4
ATOM      4  C   UNL     1      12.163  15.829  16.729  1.00  0.00     0.041 C 
ATOM      5  O   UNL     1      11.146  15.098  16.859  1.00  0.00    -0.550 OA
ATOM      6  O   UNL     1      13.137  15.836  17.720  1.00  0.00    -0.550 OA
ENDBRANCH   3   4
ENDBRANCH   2   3
ENDBRANCH   1   2
BRANCH   1   7
ATOM      7  C   UNL     1      10.177  18.118  12.675  1.00  0.00     0.000 C 
BRANCH   7   8
ATOM      8  C   UNL     1      10.201  16.687  12.113  1.00  0.00    -0.000 C 
BRANCH   8   9
ATOM      9  C   UNL     1       8.796  16.147  11.808  1.00  0.00    -0.003 C 
ATOM     10  C   UNL     1       8.505  16.189  10.310  1.00  0.00     0.004 C 
ENDBRANCH   8   9
ENDBRANCH   7   8
ENDBRANCH   1   7
TORSDOF 6
ENDMDL
MODEL 2
REMARK VINA RESULT:    -3.559      0.879      1.330
REMARK INTER + INTRA:          -5.033
REMARK INTER:                  -4.815
REMARK INTRA:                  -0.218
REMARK UNBOUND:                -0.226
REMARK SMILES CCCCCCCC(=O)[O-]
REMARK SMILES IDX 5 1 6 2 7 3 8 4 9 5 10 6 4 7 3 8 2 9 1 10
REMARK H PARENT
REMARK Flexibility Score: inf
ROOT
ATOM      1  C   UNL     1      10.645  18.206  13.315  1.00  0.00     0.000 C 
ENDROOT
BRANCH   1   2
ATOM      2  C   UNL     1      10.973  17.037  14.262  1.00  0.00     0.006 C 
BRANCH   2   3
ATOM      3  C   UNL     1      11.656  17.454  15.574  1.00  0.00     0.053 C 
BRANCH   3   4
ATOM      4  C   UNL     1      11.443  16.449  16.663  1.00  0.00     0.041 C 
ATOM      5  O   UNL     1      12.411  16.069  17.373  1.00  0.00    -0.550 OA
ATOM      6  O   UNL     1      10.169  15.957  16.918  1.00  0.00    -0.550 OA
ENDBRANCH   3   4
ENDBRANCH   2   3
ENDBRANCH   1   2
BRANCH   1   7
ATOM      7  C   UNL     1       9.949  17.747  12.022  1.00  0.00     0.000 C 
BRANCH   7   8
ATOM      8  C   UNL     1       9.494  16.280  12.087  1.00  0.00    -0.000 C 
BRANCH   8   9
ATOM      9  C   UNL     1       8.350  15.970  11.111  1.00  0.00    -0.003 C 
ATOM     10  C   UNL     1       8.562  16.678   9.775  1.00  0.00     0.004 C 
ENDBRANCH   8   9
ENDBRANCH   7   8
ENDBRANCH   1   7
TORSDOF 6
ENDMDL
MODEL 3
REMARK VINA RESULT:    -3.550      3.486      4.711
REMARK INTER + INTRA:          -5.021
REMARK INTER:                  -4.624
REMARK INTRA:                  -0.397
REMARK UNBOUND:                -0.226
REMARK SMILES CCCCCCCC(=O)[O-]
REMARK SMILES IDX 5 1 6 2 7 3 8 4 9 5 10 6 4 7 3 8 2 9 1 10
REMARK H PARENT
REMARK Flexibility Score: inf
ROOT
ATOM      1  C   UNL     1      13.220  15.864  17.662  1.00  0.00     0.000 C 
ENDROOT
BRANCH   1   2
ATOM      2  C   UNL     1      14.156  16.883  16.985  1.00  0.00     0.006 C 
BRANCH   2   3
ATOM      3  C   UNL     1      15.095  16.280  15.928  1.00  0.00     0.053 C 
BRANCH   3   4
ATOM      4  C   UNL     1      16.283  17.154  15.667  1.00  0.00     0.041 C 
ATOM      5  O   UNL     1      16.641  17.399  14.485  1.00  0.00    -0.550 OA
ATOM      6  O   UNL     1      16.975  17.725  16.728  1.00  0.00    -0.550 OA
ENDBRANCH   3   4
ENDBRANCH   2   3
ENDBRANCH   1   2
BRANCH   1   7
ATOM      7  C   UNL     1      12.016  15.488  16.783  1.00  0.00     0.000 C 
BRANCH   7   8
ATOM      8  C   UNL     1      11.127  16.698  16.451  1.00  0.00    -0.000 C 
BRANCH   8   9
ATOM      9  C   UNL     1      11.043  16.975  14.942  1.00  0.00    -0.003 C 
ATOM     10  C   UNL     1      11.480  18.402  14.622  1.00  0.00     0.004 C 
ENDBRANCH   8   9
ENDBRANCH   7   8
ENDBRANCH   1   7
TORSDOF 6
ENDMDL
MODEL 4
REMARK VINA RESULT:    -3.521      4.132      5.169
REMARK INTER + INTRA:          -4.981
REMARK INTER:                  -4.619
REMARK INTRA:                  -0.362
REMARK UNBOUND:                -0.226
REMARK SMILES CCCCCCCC(=O)[O-]
REMARK SMILES IDX 5 1 6 2 7 3 8 4 9 5 10 6 4 7 3 8 2 9 1 10
REMARK H PARENT
REMARK Flexibility Score: inf
ROOT
ATOM      1  C   UNL     1      13.752  18.502  16.783  1.00  0.00     0.000 C 
ENDROOT
BRANCH   1   2
ATOM      2  C   UNL     1      14.940  17.935  17.582  1.00  0.00     0.006 C 
BRANCH   2   3
ATOM      3  C   UNL     1      16.284  17.974  16.837  1.00  0.00     0.053 C 
BRANCH   3   4
ATOM      4  C   UNL     1      16.294  17.064  15.647  1.00  0.00     0.041 C 
ATOM      5  O   UNL     1      15.841  15.894  15.742  1.00  0.00    -0.550 OA
ATOM      6  O   UNL     1      16.772  17.520  14.425  1.00  0.00    -0.550 OA
ENDBRANCH   3   4
ENDBRANCH   2   3
ENDBRANCH   1   2
BRANCH   1   7
ATOM      7  C   UNL     1      12.487  17.637  16.905  1.00  0.00     0.000 C 
BRANCH   7   8
ATOM      8  C   UNL     1      12.800  16.189  17.317  1.00  0.00    -0.000 C 
BRANCH   8   9
ATOM      9  C   UNL     1      11.685  15.207  16.927  1.00  0.00    -0.003 C 
ATOM     10  C   UNL     1      10.353  15.932  16.752  1.00  0.00     0.004 C 
ENDBRANCH   8   9
ENDBRANCH   7   8
ENDBRANCH   1   7
TORSDOF 6
ENDMDL
MODEL 5
REMARK VINA RESULT:    -3.518      3.361      5.463
REMARK INTER + INTRA:          -4.978
REMARK INTER:                  -4.754
REMARK INTRA:                  -0.224
REMARK UNBOUND:                -0.226
REMARK SMILES CCCCCCCC(=O)[O-]
REMARK SMILES IDX 5 1 6 2 7 3 8 4 9 5 10 6 4 7 3 8 2 9 1 10
REMARK H PARENT
REMARK Flexibility Score: inf
ROOT
ATOM      1  C   UNL     1      10.979  18.202  13.410  1.00  0.00     0.000 C 
ENDROOT
BRANCH   1   2
ATOM      2  C   UNL     1      10.124  17.970  12.150  1.00  0.00     0.006 C 
BRANCH   2   3
ATOM      3  C   UNL     1       9.870  16.491  11.818  1.00  0.00     0.053 C 
BRANCH   3   4
ATOM      4  C   UNL     1       8.621  16.302  11.013  1.00  0.00     0.041 C 
ATOM      5  O   UNL     1       7.554  15.941  11.576  1.00  0.00    -0.550 OA
ATOM      6  O   UNL     1       8.627  16.555   9.647  1.00  0.00    -0.550 OA
ENDBRANCH   3   4
ENDBRANCH   2   3
ENDBRANCH   1   2
BRANCH   1   7
ATOM      7  C   UNL     1      10.959  17.003  14.372  1.00  0.00     0.000 C 
BRANCH   7   8
ATOM      8  C   UNL     1      12.195  16.959  15.286  1.00  0.00    -0.000 C 
BRANCH   8   9
ATOM      9  C   UNL     1      12.031  15.981  16.459  1.00  0.00    -0.003 C 
ATOM     10  C   UNL     1      10.557  15.691  16.728  1.00  0.00     0.004 C 
ENDBRANCH   8   9
ENDBRANCH   7   8
ENDBRANCH   1   7
TORSDOF 6
ENDMDL
MODEL 6
REMARK VINA RESULT:    -3.437      3.181      5.576
REMARK INTER + INTRA:          -4.868
REMARK INTER:                  -4.318
REMARK INTRA:                  -0.551
REMARK UNBOUND:                -0.226
REMARK SMILES CCCCCCCC(=O)[O-]
REMARK SMILES IDX 5 1 6 2 7 3 8 4 9 5 10 6 4 7 3 8 2 9 1 10
REMARK H PARENT
REMARK Flexibility Score: inf
ROOT
ATOM      1  C   UNL     1      12.011  15.391  17.002  1.00  0.00     0.000 C 
ENDROOT
BRANCH   1   2
ATOM      2  C   UNL     1      10.942  16.437  16.635  1.00  0.00     0.006 C 
BRANCH   2   3
ATOM      3  C   UNL     1      11.029  16.955  15.191  1.00  0.00     0.053 C 
BRANCH   3   4
ATOM      4  C   UNL     1      11.483  18.381  15.133  1.00  0.00     0.041 C 
ATOM      5  O   UNL     1      11.649  18.947  14.020  1.00  0.00    -0.550 OA
ATOM      6  O   UNL     1      11.691  19.096  16.306  1.00  0.00    -0.550 OA
ENDBRANCH   3   4
ENDBRANCH   2   3
ENDBRANCH   1   2
BRANCH   1   7
ATOM      7  C   UNL     1      13.303  16.025  17.542  1.00  0.00     0.000 C 
BRANCH   7   8
ATOM      8  C   UNL     1      14.338  16.289  16.435  1.00  0.00    -0.000 C 
BRANCH   8   9
ATOM      9  C   UNL     1      15.006  17.666  16.564  1.00  0.00    -0.003 C 
ATOM     10  C   UNL     1      14.788  18.253  17.956  1.00  0.00     0.004 C 
ENDBRANCH   8   9
ENDBRANCH   7   8
ENDBRANCH   1   7
TORSDOF 6
ENDMDL
MODEL 7
REMARK VINA RESULT:    -3.419      3.165      4.480
REMARK INTER + INTRA:          -4.843
REMARK INTER:                  -4.305
REMARK INTRA:                  -0.538
REMARK UNBOUND:                -0.226
REMARK SMILES CCCCCCCC(=O)[O-]
REMARK SMILES IDX 5 1 6 2 7 3 8 4 9 5 10 6 4 7 3 8 2 9 1 10
REMARK H PARENT
REMARK Flexibility Score: inf
ROOT
ATOM      1  C   UNL     1      13.221  15.923  17.573  1.00  0.00     0.000 C 
ENDROOT
BRANCH   1   2
ATOM      2  C   UNL     1      14.319  16.267  16.548  1.00  0.00     0.006 C 
BRANCH   2   3
ATOM      3  C   UNL     1      14.601  17.770  16.400  1.00  0.00     0.053 C 
BRANCH   3   4
ATOM      4  C   UNL     1      14.483  18.496  17.705  1.00  0.00     0.041 C 
ATOM      5  O   UNL     1      15.396  18.403  18.566  1.00  0.00    -0.550 OA
ATOM      6  O   UNL     1      13.379  19.302  17.957  1.00  0.00    -0.550 OA
ENDBRANCH   3   4
ENDBRANCH   2   3
ENDBRANCH   1   2
BRANCH   1   7
ATOM      7  C   UNL     1      11.922  15.435  16.910  1.00  0.00     0.000 C 
BRANCH   7   8
ATOM      8  C   UNL     1      10.976  16.592  16.546  1.00  0.00    -0.000 C 
BRANCH   8   9
ATOM      9  C   UNL     1      11.017  16.942  15.051  1.00  0.00    -0.003 C 
ATOM     10  C   UNL     1      11.342  18.419  14.843  1.00  0.00     0.004 C 
ENDBRANCH   8   9
ENDBRANCH   7   8
ENDBRANCH   1   7
TORSDOF 6
ENDMDL
MODEL 8
REMARK VINA RESULT:    -3.407      2.859      4.052
REMARK INTER + INTRA:          -4.828
REMARK INTER:                  -4.188
REMARK INTRA:                  -0.640
REMARK UNBOUND:                -0.226
REMARK SMILES CCCCCCCC(=O)[O-]
REMARK SMILES IDX 5 1 6 2 7 3 8 4 9 5 10 6 4 7 3 8 2 9 1 10
REMARK H PARENT
REMARK Flexibility Score: inf
ROOT
ATOM      1  C   UNL     1      11.212  16.868  16.506  1.00  0.00     0.000 C 
ENDROOT
BRANCH   1   2
ATOM      2  C   UNL     1      11.754  15.479  16.889  1.00  0.00     0.006 C 
BRANCH   2   3
ATOM      3  C   UNL     1      13.034  15.508  17.739  1.00  0.00     0.053 C 
BRANCH   3   4
ATOM      4  C   UNL     1      14.043  16.476  17.203  1.00  0.00     0.041 C 
ATOM      5  O   UNL     1      14.374  17.486  17.879  1.00  0.00    -0.550 OA
ATOM      6  O   UNL     1      14.644  16.247  15.971  1.00  0.00    -0.550 OA
ENDBRANCH   3   4
ENDBRANCH   2   3
ENDBRANCH   1   2
BRANCH   1   7
ATOM      7  C   UNL     1      11.004  17.029  14.991  1.00  0.00     0.000 C 
BRANCH   7   8
ATOM      8  C   UNL     1      11.910  18.113  14.384  1.00  0.00    -0.000 C 
BRANCH   8   9
ATOM      9  C   UNL     1      12.300  19.197  15.399  1.00  0.00    -0.003 C 
ATOM     10  C   UNL     1      13.733  19.671  15.173  1.00  0.00     0.004 C 
ENDBRANCH   8   9
ENDBRANCH   7   8
ENDBRANCH   1   7
TORSDOF 6
ENDMDL
MODEL 9
REMARK VINA RESULT:    -3.330      3.461      5.487
REMARK INTER + INTRA:          -4.724
REMARK INTER:                  -4.272
REMARK INTRA:                  -0.452
REMARK UNBOUND:                -0.226
REMARK SMILES CCCCCCCC(=O)[O-]
REMARK SMILES IDX 5 1 6 2 7 3 8 4 9 5 10 6 4 7 3 8 2 9 1 10
REMARK H PARENT
REMARK Flexibility Score: inf
ROOT
ATOM      1  C   UNL     1      11.002  16.787  16.244  1.00  0.00     0.000 C 
ENDROOT
BRANCH   1   2
ATOM      2  C   UNL     1      11.092  17.013  14.723  1.00  0.00     0.006 C 
BRANCH   2   3
ATOM      3  C   UNL     1      11.741  18.345  14.315  1.00  0.00     0.053 C 
BRANCH   3   4
ATOM      4  C   UNL     1      10.774  19.487  14.388  1.00  0.00     0.041 C 
ATOM      5  O   UNL     1       9.836  19.577  13.553  1.00  0.00    -0.550 OA
ATOM      6  O   UNL     1      10.890  20.435  15.398  1.00  0.00    -0.550 OA
ENDBRANCH   3   4
ENDBRANCH   2   3
ENDBRANCH   1   2
BRANCH   1   7
ATOM      7  C   UNL     1      11.705  15.496  16.695  1.00  0.00     0.000 C 
BRANCH   7   8
ATOM      8  C   UNL     1      12.921  15.771  17.596  1.00  0.00    -0.000 C 
BRANCH   8   9
ATOM      9  C   UNL     1      14.112  16.356  16.822  1.00  0.00    -0.003 C 
ATOM     10  C   UNL     1      14.449  17.761  17.314  1.00  0.00     0.004 C 
ENDBRANCH   8   9
ENDBRANCH   7   8
ENDBRANCH   1   7
TORSDOF 6
ENDMDL
