MODEL 1
REMARK VINA RESULT:    -3.840      0.000      0.000
REMARK INTER + INTRA:          -5.788
REMARK INTER:                  -5.187
REMARK INTRA:                  -0.602
REMARK UNBOUND:                -0.602
REMARK SMILES CCCCCCCC(=O)[O-]
REMARK SMILES IDX 5 1 6 2 7 3 8 4 9 5 10 6 4 7 3 8 2 9 1 10
REMARK H PARENT
REMARK Flexibility Score: inf
ROOT
ATOM      1  C   UNL     1      20.294  19.290  34.439  1.00  0.00     0.000 C 
ENDROOT
BRANCH   1   2
ATOM      2  C   UNL     1      21.124  19.838  35.613  1.00  0.00     0.006 C 
BRANCH   2   3
ATOM      3  C   UNL     1      20.728  19.197  36.950  1.00  0.00     0.053 C 
BRANCH   3   4
ATOM      4  C   UNL     1      20.206  20.213  37.921  1.00  0.00     0.041 C 
ATOM      5  O   UNL     1      20.996  21.007  38.495  1.00  0.00    -0.550 OA
ATOM      6  O   UNL     1      18.842  20.298  38.169  1.00  0.00    -0.550 OA
ENDBRANCH   3   4
ENDBRANCH   2   3
ENDBRANCH   1   2
BRANCH   1   7
ATOM      7  C   UNL     1      19.120  20.209  34.068  1.00  0.00     0.000 C 
BRANCH   7   8
ATOM      8  C   UNL     1      17.793  19.766  34.708  1.00  0.00    -0.000 C 
BRANCH   8   9
ATOM      9  C   UNL     1      17.667  18.238  34.803  1.00  0.00    -0.003 C 
ATOM     10  C   UNL     1      17.373  17.757  36.224  1.00  0.00     0.004 C 
ENDBRANCH   8   9
ENDBRANCH   7   8
ENDBRANCH   1   7
TORSDOF 6
ENDMDL
MODEL 2
REMARK VINA RESULT:    -3.784      3.064      4.773
REMARK INTER + INTRA:          -5.713
REMARK INTER:                  -5.347
REMARK INTRA:                  -0.366
REMARK UNBOUND:                -0.602
REMARK SMILES CCCCCCCC(=O)[O-]
REMARK SMILES IDX 5 1 6 2 7 3 8 4 9 5 10 6 4 7 3 8 2 9 1 10
REMARK H PARENT
REMARK Flexibility Score: inf
ROOT
ATOM      1  C   UNL     1      17.019  17.351  34.838  1.00  0.00     0.000 C 
ENDROOT
BRANCH   1   2
ATOM      2  C   UNL     1      17.677  16.855  36.138  1.00  0.00     0.006 C 
BRANCH   2   3
ATOM      3  C   UNL     1      16.992  15.596  36.689  1.00  0.00     0.053 C 
BRANCH   3   4
ATOM      4  C   UNL     1      15.595  15.880  37.150  1.00  0.00     0.041 C 
ATOM      5  O   UNL     1      15.384  16.749  38.036  1.00  0.00    -0.550 OA
ATOM      6  O   UNL     1      14.525  15.202  36.580  1.00  0.00    -0.550 OA
ENDBRANCH   3   4
ENDBRANCH   2   3
ENDBRANCH   1   2
BRANCH   1   7
ATOM      7  C   UNL     1      17.708  18.602  34.270  1.00  0.00     0.000 C 
BRANCH   7   8
ATOM      8  C   UNL     1      18.001  19.659  35.349  1.00  0.00    -0.000 C 
BRANCH   8   9
ATOM      9  C   UNL     1      19.422  20.233  35.240  1.00  0.00    -0.003 C 
ATOM     10  C   UNL     1      20.306  19.441  34.277  1.00  0.00     0.004 C 
ENDBRANCH   8   9
ENDBRANCH   7   8
ENDBRANCH   1   7
TORSDOF 6
ENDMDL
MODEL 3
REMARK VINA RESULT:    -3.747      2.638      4.317
REMARK INTER + INTRA:          -5.663
REMARK INTER:                  -5.305
REMARK INTRA:                  -0.358
REMARK UNBOUND:                -0.602
REMARK SMILES CCCCCCCC(=O)[O-]
REMARK SMILES IDX 5 1 6 2 7 3 8 4 9 5 10 6 4 7 3 8 2 9 1 10
REMARK H PARENT
REMARK Flexibility Score: inf
ROOT
ATOM      1  C   UNL     1      18.270  19.459  34.887  1.00  0.00     0.000 C 
ENDROOT
BRANCH   1   2
ATOM      2  C   UNL     1      17.700  18.034  34.992  1.00  0.00     0.006 C 
BRANCH   2   3
ATOM      3  C   UNL     1      17.549  17.577  36.450  1.00  0.00     0.053 C 
BRANCH   3   4
ATOM      4  C   UNL     1      16.196  16.987  36.711  1.00  0.00     0.041 C 
ATOM      5  O   UNL     1      15.590  16.363  35.801  1.00  0.00    -0.550 OA
ATOM      6  O   UNL     1      15.619  17.104  37.969  1.00  0.00    -0.550 OA
ENDBRANCH   3   4
ENDBRANCH   2   3
ENDBRANCH   1   2
BRANCH   1   7
ATOM      7  C   UNL     1      19.716  19.479  34.368  1.00  0.00     0.000 C 
BRANCH   7   8
ATOM      8  C   UNL     1      20.736  19.832  35.465  1.00  0.00    -0.000 C 
BRANCH   8   9
ATOM      9  C   UNL     1      20.066  20.353  36.745  1.00  0.00    -0.003 C 
ATOM     10  C   UNL     1      21.004  20.335  37.952  1.00  0.00     0.004 C 
ENDBRANCH   8   9
ENDBRANCH   7   8
ENDBRANCH   1   7
TORSDOF 6
ENDMDL
MODEL 4
REMARK VINA RESULT:    -3.717      2.897      4.170
REMARK INTER + INTRA:          -5.622
REMARK INTER:                  -5.218
REMARK INTRA:                  -0.404
REMARK UNBOUND:                -0.602
REMARK SMILES CCCCCCCC(=O)[O-]
REMARK SMILES IDX 5 1 6 2 7 3 8 4 9 5 10 6 4 7 3 8 2 9 1 10
REMARK H PARENT
REMARK Flexibility Score: inf
ROOT
ATOM      1  C   UNL     1      18.074  19.801  35.594  1.00  0.00     0.000 C 
ENDROOT
BRANCH   1   2
ATOM      2  C   UNL     1      17.644  18.912  36.775  1.00  0.00     0.006 C 
BRANCH   2   3
ATOM      3  C   UNL     1      17.537  17.434  36.376  1.00  0.00     0.053 C 
BRANCH   3   4
ATOM      4  C   UNL     1      16.189  16.866  36.701  1.00  0.00     0.041 C 
ATOM      5  O   UNL     1      15.557  16.199  35.841  1.00  0.00    -0.550 OA
ATOM      6  O   UNL     1      15.645  17.050  37.966  1.00  0.00    -0.550 OA
ENDBRANCH   3   4
ENDBRANCH   2   3
ENDBRANCH   1   2
BRANCH   1   7
ATOM      7  C   UNL     1      19.602  19.916  35.470  1.00  0.00     0.000 C 
BRANCH   7   8
ATOM      8  C   UNL     1      20.108  19.596  34.053  1.00  0.00    -0.000 C 
BRANCH   8   9
ATOM      9  C   UNL     1      18.964  19.295  33.074  1.00  0.00    -0.003 C 
ATOM     10  C   UNL     1      18.999  17.860  32.548  1.00  0.00     0.004 C 
ENDBRANCH   8   9
ENDBRANCH   7   8
ENDBRANCH   1   7
TORSDOF 6
ENDMDL
MODEL 5
REMARK VINA RESULT:    -3.689     15.234     16.343
REMARK INTER + INTRA:          -5.584
REMARK INTER:                  -5.382
REMARK INTRA:                  -0.202
REMARK UNBOUND:                -0.602
REMARK SMILES CCCCCCCC(=O)[O-]
REMARK SMILES IDX 5 1 6 2 7 3 8 4 9 5 10 6 4 7 3 8 2 9 1 10
REMARK H PARENT
REMARK Flexibility Score: inf
ROOT
ATOM      1  C   UNL     1       7.976  30.732  28.718  1.00  0.00     0.000 C 
ENDROOT
BRANCH   1   2
ATOM      2  C   UNL     1       8.502  31.545  29.915  1.00  0.00     0.006 C 
BRANCH   2   3
ATOM      3  C   UNL     1       9.884  31.064  30.378  1.00  0.00     0.053 C 
BRANCH   3   4
ATOM      4  C   UNL     1       9.910  30.780  31.848  1.00  0.00     0.041 C 
ATOM      5  O   UNL     1      10.488  29.750  32.285  1.00  0.00    -0.550 OA
ATOM      6  O   UNL     1       9.321  31.669  32.738  1.00  0.00    -0.550 OA
ENDBRANCH   3   4
ENDBRANCH   2   3
ENDBRANCH   1   2
BRANCH   1   7
ATOM      7  C   UNL     1       8.040  29.216  28.963  1.00  0.00     0.000 C 
BRANCH   7   8
ATOM      8  C   UNL     1       8.281  28.416  27.671  1.00  0.00    -0.000 C 
BRANCH   8   9
ATOM      9  C   UNL     1       6.971  28.004  26.981  1.00  0.00    -0.003 C 
ATOM     10  C   UNL     1       6.992  26.557  26.490  1.00  0.00     0.004 C 
ENDBRANCH   8   9
ENDBRANCH   7   8
ENDBRANCH   1   7
TORSDOF 6
ENDMDL
MODEL 6
REMARK VINA RESULT:    -3.675     15.687     17.079
REMARK INTER + INTRA:          -5.566
REMARK INTER:                  -5.105
REMARK INTRA:                  -0.461
REMARK UNBOUND:                -0.602
REMARK SMILES CCCCCCCC(=O)[O-]
REMARK SMILES IDX 5 1 6 2 7 3 8 4 9 5 10 6 4 7 3 8 2 9 1 10
REMARK H PARENT
REMARK Flexibility Score: inf
ROOT
ATOM      1  C   UNL     1       9.784  30.558  28.518  1.00  0.00     0.000 C 
ENDROOT
BRANCH   1   2
ATOM      2  C   UNL     1       8.995  30.002  29.717  1.00  0.00     0.006 C 
BRANCH   2   3
ATOM      3  C   UNL     1       9.640  30.378  31.058  1.00  0.00     0.053 C 
BRANCH   3   4
ATOM      4  C   UNL     1       8.855  31.434  31.776  1.00  0.00     0.041 C 
ATOM      5  O   UNL     1       7.799  31.894  31.270  1.00  0.00    -0.550 OA
ATOM      6  O   UNL     1       9.278  31.887  33.020  1.00  0.00    -0.550 OA
ENDBRANCH   3   4
ENDBRANCH   2   3
ENDBRANCH   1   2
BRANCH   1   7
ATOM      7  C   UNL     1       9.202  31.878  27.991  1.00  0.00     0.000 C 
BRANCH   7   8
ATOM      8  C   UNL     1      10.079  33.094  28.339  1.00  0.00    -0.000 C 
BRANCH   8   9
ATOM      9  C   UNL     1      11.565  32.729  28.473  1.00  0.00    -0.003 C 
ATOM     10  C   UNL     1      12.490  33.796  27.888  1.00  0.00     0.004 C 
ENDBRANCH   8   9
ENDBRANCH   7   8
ENDBRANCH   1   7
TORSDOF 6
ENDMDL
MODEL 7
REMARK VINA RESULT:    -3.658     16.615     18.050
REMARK INTER + INTRA:          -5.543
REMARK INTER:                  -4.949
REMARK INTRA:                  -0.594
REMARK UNBOUND:                -0.602
REMARK SMILES CCCCCCCC(=O)[O-]
REMARK SMILES IDX 5 1 6 2 7 3 8 4 9 5 10 6 4 7 3 8 2 9 1 10
REMARK H PARENT
REMARK Flexibility Score: inf
ROOT
ATOM      1  C   UNL     1      10.271  30.972  29.573  1.00  0.00     0.000 C 
ENDROOT
BRANCH   1   2
ATOM      2  C   UNL     1       8.886  30.379  29.260  1.00  0.00     0.006 C 
BRANCH   2   3
ATOM      3  C   UNL     1       7.900  31.444  28.762  1.00  0.00     0.053 C 
BRANCH   3   4
ATOM      4  C   UNL     1       7.683  32.521  29.780  1.00  0.00     0.041 C 
ATOM      5  O   UNL     1       7.908  33.725  29.489  1.00  0.00    -0.550 OA
ATOM      6  O   UNL     1       7.204  32.195  31.043  1.00  0.00    -0.550 OA
ENDBRANCH   3   4
ENDBRANCH   2   3
ENDBRANCH   1   2
BRANCH   1   7
ATOM      7  C   UNL     1      10.984  31.499  28.317  1.00  0.00     0.000 C 
BRANCH   7   8
ATOM      8  C   UNL     1      11.826  32.756  28.596  1.00  0.00    -0.000 C 
BRANCH   8   9
ATOM      9  C   UNL     1      11.279  34.001  27.882  1.00  0.00    -0.003 C 
ATOM     10  C   UNL     1      10.217  33.663  26.836  1.00  0.00     0.004 C 
ENDBRANCH   8   9
ENDBRANCH   7   8
ENDBRANCH   1   7
TORSDOF 6
ENDMDL
MODEL 8
REMARK VINA RESULT:    -3.594     15.164     16.156
REMARK INTER + INTRA:          -5.456
REMARK INTER:                  -5.008
REMARK INTRA:                  -0.448
REMARK UNBOUND:                -0.602
REMARK SMILES CCCCCCCC(=O)[O-]
REMARK SMILES IDX 5 1 6 2 7 3 8 4 9 5 10 6 4 7 3 8 2 9 1 10
REMARK H PARENT
REMARK Flexibility Score: inf
ROOT
ATOM      1  C   UNL     1       8.374  29.171  29.468  1.00  0.00     0.000 C 
ENDROOT
BRANCH   1   2
ATOM      2  C   UNL     1       8.517  30.676  29.758  1.00  0.00     0.006 C 
BRANCH   2   3
ATOM      3  C   UNL     1       9.901  31.028  30.320  1.00  0.00     0.053 C 
BRANCH   3   4
ATOM      4  C   UNL     1       9.988  30.760  31.792  1.00  0.00     0.041 C 
ATOM      5  O   UNL     1       9.448  31.546  32.613  1.00  0.00    -0.550 OA
ATOM      6  O   UNL     1      10.642  29.624  32.253  1.00  0.00    -0.550 OA
ENDBRANCH   3   4
ENDBRANCH   2   3
ENDBRANCH   1   2
BRANCH   1   7
ATOM      7  C   UNL     1       7.630  28.892  28.153  1.00  0.00     0.000 C 
BRANCH   7   8
ATOM      8  C   UNL     1       8.568  28.426  27.026  1.00  0.00    -0.000 C 
BRANCH   8   9
ATOM      9  C   UNL     1       9.251  29.598  26.306  1.00  0.00    -0.003 C 
ATOM     10  C   UNL     1      10.744  29.695  26.620  1.00  0.00     0.004 C 
ENDBRANCH   8   9
ENDBRANCH   7   8
ENDBRANCH   1   7
TORSDOF 6
ENDMDL
MODEL 9
REMARK VINA RESULT:    -3.590     15.664     17.253
REMARK INTER + INTRA:          -5.451
REMARK INTER:                  -5.095
REMARK INTRA:                  -0.356
REMARK UNBOUND:                -0.602
REMARK SMILES CCCCCCCC(=O)[O-]
REMARK SMILES IDX 5 1 6 2 7 3 8 4 9 5 10 6 4 7 3 8 2 9 1 10
REMARK H PARENT
REMARK Flexibility Score: inf
ROOT
ATOM      1  C   UNL     1       8.945  30.037  27.923  1.00  0.00     0.000 C 
ENDROOT
BRANCH   1   2
ATOM      2  C   UNL     1       8.555  28.610  27.497  1.00  0.00     0.006 C 
BRANCH   2   3
ATOM      3  C   UNL     1       7.114  28.262  27.891  1.00  0.00     0.053 C 
BRANCH   3   4
ATOM      4  C   UNL     1       6.501  27.275  26.945  1.00  0.00     0.041 C 
ATOM      5  O   UNL     1       7.110  26.214  26.652  1.00  0.00    -0.550 OA
ATOM      6  O   UNL     1       5.242  27.518  26.409  1.00  0.00    -0.550 OA
ENDBRANCH   3   4
ENDBRANCH   2   3
ENDBRANCH   1   2
BRANCH   1   7
ATOM      7  C   UNL     1       8.028  30.593  29.024  1.00  0.00     0.000 C 
BRANCH   7   8
ATOM      8  C   UNL     1       8.793  31.417  30.074  1.00  0.00    -0.000 C 
BRANCH   8   9
ATOM      9  C   UNL     1      10.073  30.716  30.554  1.00  0.00    -0.003 C 
ATOM     10  C   UNL     1       9.795  29.614  31.576  1.00  0.00     0.004 C 
ENDBRANCH   8   9
ENDBRANCH   7   8
ENDBRANCH   1   7
TORSDOF 6
ENDMDL
