MODEL 1
REMARK VINA RESULT:    -3.469      0.000      0.000
REMARK INTER + INTRA:          -3.978
REMARK INTER:                  -3.773
REMARK INTRA:                  -0.205
REMARK UNBOUND:                -0.205
REMARK SMILES O=C([O-])c1ccccc1O
REMARK SMILES IDX 4 1 9 2 5 3 8 4 6 5 7 6 2 7 1 8 3 9 10 10
REMARK H PARENT 10 11
REMARK Flexibility Score: inf
ROOT
ATOM      1  C   UNL     1       8.217  17.328  39.741  1.00  0.00     0.039 A 
ATOM      2  C   UNL     1       8.618  15.977  39.606  1.00  0.00     0.124 A 
ATOM      3  C   UNL     1       8.221  18.154  38.600  1.00  0.00     0.014 A 
ATOM      4  C   UNL     1       9.008  15.484  38.350  1.00  0.00     0.047 A 
ATOM      5  C   UNL     1       8.612  17.651  37.357  1.00  0.00     0.001 A 
ATOM      6  C   UNL     1       9.004  16.319  37.231  1.00  0.00     0.004 A 
ENDROOT
BRANCH   1   7
ATOM      7  C   UNL     1       7.797  17.896  41.046  1.00  0.00     0.075 C 
ATOM      8  O   UNL     1       7.859  19.134  41.267  1.00  0.00    -0.545 OA
ATOM      9  O   UNL     1       7.325  17.062  42.054  1.00  0.00    -0.545 OA
ENDBRANCH   1   7
BRANCH   2  10
ATOM     10  O   UNL     1       8.630  15.122  40.708  1.00  0.00    -0.507 OA
ATOM     11  H   UNL     1       8.998  14.179  40.648  1.00  0.00     0.293 HD
ENDBRANCH   2  10
TORSDOF 2
ENDMDL
MODEL 2
REMARK VINA RESULT:    -3.264      2.687      4.079
REMARK INTER + INTRA:          -3.755
REMARK INTER:                  -3.518
REMARK INTRA:                  -0.237
REMARK UNBOUND:                -0.205
REMARK SMILES O=C([O-])c1ccccc1O
REMARK SMILES IDX 4 1 9 2 5 3 8 4 6 5 7 6 2 7 1 8 3 9 10 10
REMARK H PARENT 10 11
REMARK Flexibility Score: inf
ROOT
ATOM      1  C   UNL     1       7.253  17.345  42.151  1.00  0.00     0.039 A 
ATOM      2  C   UNL     1       7.793  17.893  40.963  1.00  0.00     0.124 A 
ATOM      3  C   UNL     1       6.729  18.218  43.124  1.00  0.00     0.014 A 
ATOM      4  C   UNL     1       7.798  19.284  40.772  1.00  0.00     0.047 A 
ATOM      5  C   UNL     1       6.740  19.600  42.922  1.00  0.00     0.001 A 
ATOM      6  C   UNL     1       7.273  20.132  41.748  1.00  0.00     0.004 A 
ENDROOT
BRANCH   1   7
ATOM      7  C   UNL     1       7.226  15.881  42.400  1.00  0.00     0.075 C 
ATOM      8  O   UNL     1       8.161  15.137  42.004  1.00  0.00    -0.545 OA
ATOM      9  O   UNL     1       6.158  15.306  43.080  1.00  0.00    -0.545 OA
ENDBRANCH   1   7
BRANCH   2  10
ATOM     10  O   UNL     1       8.324  17.066  39.972  1.00  0.00    -0.507 OA
ATOM     11  H   UNL     1       7.731  16.592  39.300  1.00  0.00     0.293 HD
ENDBRANCH   2  10
TORSDOF 2
ENDMDL
MODEL 3
REMARK VINA RESULT:    -2.916      2.120      3.582
REMARK INTER + INTRA:          -3.377
REMARK INTER:                  -3.156
REMARK INTRA:                  -0.221
REMARK UNBOUND:                -0.205
REMARK SMILES O=C([O-])c1ccccc1O
REMARK SMILES IDX 4 1 9 2 5 3 8 4 6 5 7 6 2 7 1 8 3 9 10 10
REMARK H PARENT 10 11
REMARK Flexibility Score: inf
ROOT
ATOM      1  C   UNL     1       8.406  17.198  38.730  1.00  0.00     0.039 A 
ATOM      2  C   UNL     1       8.461  16.334  39.850  1.00  0.00     0.124 A 
ATOM      3  C   UNL     1       7.936  18.514  38.910  1.00  0.00     0.014 A 
ATOM      4  C   UNL     1       8.054  16.796  41.111  1.00  0.00     0.047 A 
ATOM      5  C   UNL     1       7.534  18.960  40.171  1.00  0.00     0.001 A 
ATOM      6  C   UNL     1       7.593  18.104  41.270  1.00  0.00     0.004 A 
ENDROOT
BRANCH   1   7
ATOM      7  C   UNL     1       8.824  16.756  37.375  1.00  0.00     0.075 C 
ATOM      8  O   UNL     1       8.740  15.548  37.030  1.00  0.00    -0.545 OA
ATOM      9  O   UNL     1       9.321  17.678  36.460  1.00  0.00    -0.545 OA
ENDBRANCH   1   7
BRANCH   2  10
ATOM     10  O   UNL     1       8.919  15.023  39.718  1.00  0.00    -0.507 OA
ATOM     11  H   UNL     1       8.669  14.448  38.921  1.00  0.00     0.293 HD
ENDBRANCH   2  10
TORSDOF 2
ENDMDL
MODEL 4
REMARK VINA RESULT:    -2.346      1.003      2.479
REMARK INTER + INTRA:          -2.756
REMARK INTER:                  -2.529
REMARK INTRA:                  -0.227
REMARK UNBOUND:                -0.205
REMARK SMILES O=C([O-])c1ccccc1O
REMARK SMILES IDX 4 1 9 2 5 3 8 4 6 5 7 6 2 7 1 8 3 9 10 10
REMARK H PARENT 10 11
REMARK Flexibility Score: inf
ROOT
ATOM      1  C   UNL     1       8.135  16.832  40.426  1.00  0.00     0.039 A 
ATOM      2  C   UNL     1       7.896  18.056  39.756  1.00  0.00     0.124 A 
ATOM      3  C   UNL     1       8.713  15.767  39.709  1.00  0.00     0.014 A 
ATOM      4  C   UNL     1       8.237  18.189  38.400  1.00  0.00     0.047 A 
ATOM      5  C   UNL     1       9.047  15.913  38.360  1.00  0.00     0.001 A 
ATOM      6  C   UNL     1       8.810  17.122  37.707  1.00  0.00     0.004 A 
ENDROOT
BRANCH   1   7
ATOM      7  C   UNL     1       7.792  16.641  41.858  1.00  0.00     0.075 C 
ATOM      8  O   UNL     1       7.479  15.506  42.306  1.00  0.00    -0.545 OA
ATOM      9  O   UNL     1       7.809  17.721  42.733  1.00  0.00    -0.545 OA
ENDBRANCH   1   7
BRANCH   2  10
ATOM     10  O   UNL     1       7.325  19.138  40.426  1.00  0.00    -0.507 OA
ATOM     11  H   UNL     1       6.325  19.203  40.579  1.00  0.00     0.293 HD
ENDBRANCH   2  10
TORSDOF 2
ENDMDL
MODEL 5
REMARK VINA RESULT:    -2.259      1.930      3.845
REMARK INTER + INTRA:          -2.662
REMARK INTER:                  -2.486
REMARK INTRA:                  -0.176
REMARK UNBOUND:                -0.205
REMARK SMILES O=C([O-])c1ccccc1O
REMARK SMILES IDX 4 1 9 2 5 3 8 4 6 5 7 6 2 7 1 8 3 9 10 10
REMARK H PARENT 10 11
REMARK Flexibility Score: inf
ROOT
ATOM      1  C   UNL     1       7.748  18.192  40.555  1.00  0.00     0.039 A 
ATOM      2  C   UNL     1       7.734  17.293  41.648  1.00  0.00     0.124 A 
ATOM      3  C   UNL     1       7.389  19.536  40.778  1.00  0.00     0.014 A 
ATOM      4  C   UNL     1       7.368  17.748  42.925  1.00  0.00     0.047 A 
ATOM      5  C   UNL     1       7.027  19.975  42.053  1.00  0.00     0.001 A 
ATOM      6  C   UNL     1       7.017  19.084  43.125  1.00  0.00     0.004 A 
ENDROOT
BRANCH   1   7
ATOM      7  C   UNL     1       8.126  17.760  39.186  1.00  0.00     0.075 C 
ATOM      8  O   UNL     1       7.795  18.435  38.176  1.00  0.00    -0.545 OA
ATOM      9  O   UNL     1       8.856  16.591  38.997  1.00  0.00    -0.545 OA
ENDBRANCH   1   7
BRANCH   2  10
ATOM     10  O   UNL     1       8.081  15.953  41.474  1.00  0.00    -0.507 OA
ATOM     11  H   UNL     1       8.504  15.618  40.616  1.00  0.00     0.293 HD
ENDBRANCH   2  10
TORSDOF 2
ENDMDL
MODEL 6
REMARK VINA RESULT:    -2.126     22.769     23.790
REMARK INTER + INTRA:          -2.517
REMARK INTER:                  -2.267
REMARK INTRA:                  -0.250
REMARK UNBOUND:                -0.205
REMARK SMILES O=C([O-])c1ccccc1O
REMARK SMILES IDX 4 1 9 2 5 3 8 4 6 5 7 6 2 7 1 8 3 9 10 10
REMARK H PARENT 10 11
REMARK Flexibility Score: inf
ROOT
ATOM      1  C   UNL     1      25.554   4.991  28.486  1.00  0.00     0.039 A 
ATOM      2  C   UNL     1      24.813   5.989  27.810  1.00  0.00     0.124 A 
ATOM      3  C   UNL     1      26.113   3.936  27.738  1.00  0.00     0.014 A 
ATOM      4  C   UNL     1      24.648   5.915  26.417  1.00  0.00     0.047 A 
ATOM      5  C   UNL     1      25.940   3.875  26.353  1.00  0.00     0.001 A 
ATOM      6  C   UNL     1      25.210   4.863  25.694  1.00  0.00     0.004 A 
ENDROOT
BRANCH   1   7
ATOM      7  C   UNL     1      25.756   5.023  29.957  1.00  0.00     0.075 C 
ATOM      8  O   UNL     1      26.108   6.082  30.541  1.00  0.00    -0.545 OA
ATOM      9  O   UNL     1      25.560   3.875  30.717  1.00  0.00    -0.545 OA
ENDBRANCH   1   7
BRANCH   2  10
ATOM     10  O   UNL     1      24.241   7.051  28.510  1.00  0.00    -0.507 OA
ATOM     11  H   UNL     1      24.246   7.086  29.523  1.00  0.00     0.293 HD
ENDBRANCH   2  10
TORSDOF 2
ENDMDL
MODEL 7
REMARK VINA RESULT:    -1.888     23.917     24.927
REMARK INTER + INTRA:          -2.259
REMARK INTER:                  -2.072
REMARK INTRA:                  -0.187
REMARK UNBOUND:                -0.205
REMARK SMILES O=C([O-])c1ccccc1O
REMARK SMILES IDX 4 1 9 2 5 3 8 4 6 5 7 6 2 7 1 8 3 9 10 10
REMARK H PARENT 10 11
REMARK Flexibility Score: inf
ROOT
ATOM      1  C   UNL     1      25.173   5.293  25.670  1.00  0.00     0.039 A 
ATOM      2  C   UNL     1      24.152   4.703  24.886  1.00  0.00     0.124 A 
ATOM      3  C   UNL     1      26.120   6.123  25.038  1.00  0.00     0.014 A 
ATOM      4  C   UNL     1      24.098   4.952  23.506  1.00  0.00     0.047 A 
ATOM      5  C   UNL     1      26.055   6.361  23.664  1.00  0.00     0.001 A 
ATOM      6  C   UNL     1      25.046   5.778  22.898  1.00  0.00     0.004 A 
ENDROOT
BRANCH   1   7
ATOM      7  C   UNL     1      25.274   5.060  27.133  1.00  0.00     0.075 C 
ATOM      8  O   UNL     1      25.624   3.941  27.591  1.00  0.00    -0.545 OA
ATOM      9  O   UNL     1      24.978   6.083  28.027  1.00  0.00    -0.545 OA
ENDBRANCH   1   7
BRANCH   2  10
ATOM     10  O   UNL     1      23.193   3.875  25.469  1.00  0.00    -0.507 OA
ATOM     11  H   UNL     1      22.209   4.119  25.472  1.00  0.00     0.293 HD
ENDBRANCH   2  10
TORSDOF 2
ENDMDL
MODEL 8
REMARK VINA RESULT:    -1.514      1.881      4.129
REMARK INTER + INTRA:          -1.851
REMARK INTER:                  -1.649
REMARK INTRA:                  -0.203
REMARK UNBOUND:                -0.205
REMARK SMILES O=C([O-])c1ccccc1O
REMARK SMILES IDX 4 1 9 2 5 3 8 4 6 5 7 6 2 7 1 8 3 9 10 10
REMARK H PARENT 10 11
REMARK Flexibility Score: inf
ROOT
ATOM      1  C   UNL     1       8.019  17.168  40.449  1.00  0.00     0.039 A 
ATOM      2  C   UNL     1       7.614  18.335  41.140  1.00  0.00     0.124 A 
ATOM      3  C   UNL     1       7.981  15.932  41.124  1.00  0.00     0.014 A 
ATOM      4  C   UNL     1       7.184  18.245  42.473  1.00  0.00     0.047 A 
ATOM      5  C   UNL     1       7.551  15.857  42.450  1.00  0.00     0.001 A 
ATOM      6  C   UNL     1       7.152  17.011  43.124  1.00  0.00     0.004 A 
ENDROOT
BRANCH   1   7
ATOM      7  C   UNL     1       8.483  17.211  39.039  1.00  0.00     0.075 C 
ATOM      8  O   UNL     1       8.172  18.167  38.281  1.00  0.00    -0.545 OA
ATOM      9  O   UNL     1       9.273  16.186  38.529  1.00  0.00    -0.545 OA
ENDBRANCH   1   7
BRANCH   2  10
ATOM     10  O   UNL     1       7.635  19.580  40.512  1.00  0.00    -0.507 OA
ATOM     11  H   UNL     1       7.586  20.444  41.040  1.00  0.00     0.293 HD
ENDBRANCH   2  10
TORSDOF 2
ENDMDL
MODEL 9
REMARK VINA RESULT:    -1.101     22.474     23.987
REMARK INTER + INTRA:          -1.403
REMARK INTER:                  -1.264
REMARK INTRA:                  -0.139
REMARK UNBOUND:                -0.205
REMARK SMILES O=C([O-])c1ccccc1O
REMARK SMILES IDX 4 1 9 2 5 3 8 4 6 5 7 6 2 7 1 8 3 9 10 10
REMARK H PARENT 10 11
REMARK Flexibility Score: inf
ROOT
ATOM      1  C   UNL     1      24.923   5.708  27.101  1.00  0.00     0.039 A 
ATOM      2  C   UNL     1      25.635   4.486  27.027  1.00  0.00     0.124 A 
ATOM      3  C   UNL     1      24.447   6.288  25.909  1.00  0.00     0.014 A 
ATOM      4  C   UNL     1      25.852   3.876  25.782  1.00  0.00     0.047 A 
ATOM      5  C   UNL     1      24.671   5.671  24.676  1.00  0.00     0.001 A 
ATOM      6  C   UNL     1      25.371   4.467  24.612  1.00  0.00     0.004 A 
ENDROOT
BRANCH   1   7
ATOM      7  C   UNL     1      24.668   6.392  28.394  1.00  0.00     0.075 C 
ATOM      8  O   UNL     1      23.827   7.325  28.480  1.00  0.00    -0.545 OA
ATOM      9  O   UNL     1      25.362   6.011  29.537  1.00  0.00    -0.545 OA
ENDBRANCH   1   7
BRANCH   2  10
ATOM     10  O   UNL     1      26.125   3.875  28.181  1.00  0.00    -0.507 OA
ATOM     11  H   UNL     1      25.693   3.044  28.569  1.00  0.00     0.293 HD
ENDBRANCH   2  10
TORSDOF 2
ENDMDL
