MODEL 1
REMARK VINA RESULT:    -4.878      0.000      0.000
REMARK INTER + INTRA:          -7.747
REMARK INTER:                  -7.160
REMARK INTRA:                  -0.587
REMARK UNBOUND:                -0.587
REMARK SMILES O=C([O-])CCCCCCCC(=O)[O-]
REMARK SMILES IDX 7 1 6 2 5 3 4 4 2 5 1 6 3 7 8 8 9 9 10 10 11 11 12 12 13 13
REMARK H PARENT
REMARK Flexibility Score: inf
ROOT
ATOM      1  C   UNL     1      13.725  76.828  70.539  1.00  0.00     0.000 C 
ENDROOT
BRANCH   1   2
ATOM      2  C   UNL     1      15.215  76.761  70.900  1.00  0.00     0.000 C 
BRANCH   2   3
ATOM      3  C   UNL     1      15.488  75.964  72.189  1.00  0.00     0.006 C 
BRANCH   3   4
ATOM      4  C   UNL     1      16.696  75.015  72.093  1.00  0.00     0.053 C 
BRANCH   4   5
ATOM      5  C   UNL     1      17.890  75.519  72.844  1.00  0.00     0.041 C 
ATOM      6  O   UNL     1      18.129  76.754  72.904  1.00  0.00    -0.550 OA
ATOM      7  O   UNL     1      18.724  74.625  73.504  1.00  0.00    -0.550 OA
ENDBRANCH   4   5
ENDBRANCH   3   4
ENDBRANCH   2   3
ENDBRANCH   1   2
BRANCH   1   8
ATOM      8  C   UNL     1      13.105  75.426  70.498  1.00  0.00     0.000 C 
BRANCH   8   9
ATOM      9  C   UNL     1      13.538  74.668  69.234  1.00  0.00     0.006 C 
BRANCH   9  10
ATOM     10  C   UNL     1      14.275  73.364  69.562  1.00  0.00     0.053 C 
BRANCH  10  11
ATOM     11  C   UNL     1      15.167  72.933  68.440  1.00  0.00     0.041 C 
ATOM     12  O   UNL     1      15.454  73.735  67.512  1.00  0.00    -0.550 OA
ATOM     13  O   UNL     1      15.710  71.654  68.434  1.00  0.00    -0.550 OA
ENDBRANCH  10  11
ENDBRANCH   9  10
ENDBRANCH   8   9
ENDBRANCH   1   8
TORSDOF 8
ENDMDL
MODEL 2
REMARK VINA RESULT:    -4.877      0.325      5.014
REMARK INTER + INTRA:          -7.744
REMARK INTER:                  -7.203
REMARK INTRA:                  -0.542
REMARK UNBOUND:                -0.587
REMARK SMILES O=C([O-])CCCCCCCC(=O)[O-]
REMARK SMILES IDX 7 1 6 2 5 3 4 4 2 5 1 6 3 7 8 8 9 9 10 10 11 11 12 12 13 13
REMARK H PARENT
REMARK Flexibility Score: inf
ROOT
ATOM      1  C   UNL     1      13.743  76.887  70.231  1.00  0.00     0.000 C 
ENDROOT
BRANCH   1   2
ATOM      2  C   UNL     1      13.121  75.486  70.320  1.00  0.00     0.000 C 
BRANCH   2   3
ATOM      3  C   UNL     1      13.483  74.588  69.123  1.00  0.00     0.006 C 
BRANCH   3   4
ATOM      4  C   UNL     1      14.302  73.341  69.504  1.00  0.00     0.053 C 
BRANCH   4   5
ATOM      5  C   UNL     1      15.235  72.907  68.416  1.00  0.00     0.041 C 
ATOM      6  O   UNL     1      15.514  73.687  67.468  1.00  0.00    -0.550 OA
ATOM      7  O   UNL     1      15.822  71.648  68.464  1.00  0.00    -0.550 OA
ENDBRANCH   4   5
ENDBRANCH   3   4
ENDBRANCH   2   3
ENDBRANCH   1   2
BRANCH   1   8
ATOM      8  C   UNL     1      15.182  76.885  70.762  1.00  0.00     0.000 C 
BRANCH   8   9
ATOM      9  C   UNL     1      15.275  76.135  72.099  1.00  0.00     0.006 C 
BRANCH   9  10
ATOM     10  C   UNL     1      16.479  75.188  72.152  1.00  0.00     0.053 C 
BRANCH  10  11
ATOM     11  C   UNL     1      17.666  75.833  72.797  1.00  0.00     0.041 C 
ATOM     12  O   UNL     1      18.668  75.141  73.119  1.00  0.00    -0.550 OA
ATOM     13  O   UNL     1      17.681  77.205  73.012  1.00  0.00    -0.550 OA
ENDBRANCH  10  11
ENDBRANCH   9  10
ENDBRANCH   8   9
ENDBRANCH   1   8
TORSDOF 8
ENDMDL
MODEL 3
REMARK VINA RESULT:    -4.865      2.566      3.361
REMARK INTER + INTRA:          -7.727
REMARK INTER:                  -7.018
REMARK INTRA:                  -0.710
REMARK UNBOUND:                -0.587
REMARK SMILES O=C([O-])CCCCCCCC(=O)[O-]
REMARK SMILES IDX 7 1 6 2 5 3 4 4 2 5 1 6 3 7 8 8 9 9 10 10 11 11 12 12 13 13
REMARK H PARENT
REMARK Flexibility Score: inf
ROOT
ATOM      1  C   UNL     1      16.050  74.371  70.928  1.00  0.00     0.000 C 
ENDROOT
BRANCH   1   2
ATOM      2  C   UNL     1      15.029  74.648  72.040  1.00  0.00     0.000 C 
BRANCH   2   3
ATOM      3  C   UNL     1      15.449  75.799  72.972  1.00  0.00     0.006 C 
BRANCH   3   4
ATOM      4  C   UNL     1      16.413  76.808  72.322  1.00  0.00     0.053 C 
BRANCH   4   5
ATOM      5  C   UNL     1      17.763  76.820  72.973  1.00  0.00     0.041 C 
ATOM      6  O   UNL     1      18.376  75.741  73.185  1.00  0.00    -0.550 OA
ATOM      7  O   UNL     1      18.358  78.028  73.318  1.00  0.00    -0.550 OA
ENDBRANCH   4   5
ENDBRANCH   3   4
ENDBRANCH   2   3
ENDBRANCH   1   2
BRANCH   1   8
ATOM      8  C   UNL     1      15.354  74.200  69.572  1.00  0.00     0.000 C 
BRANCH   8   9
ATOM      9  C   UNL     1      13.877  74.613  69.655  1.00  0.00     0.006 C 
BRANCH   9  10
ATOM     10  C   UNL     1      13.561  75.825  68.770  1.00  0.00     0.053 C 
BRANCH  10  11
ATOM     11  C   UNL     1      13.504  77.093  69.565  1.00  0.00     0.041 C 
ATOM     12  O   UNL     1      13.055  77.084  70.741  1.00  0.00    -0.550 OA
ATOM     13  O   UNL     1      13.976  78.279  69.018  1.00  0.00    -0.550 OA
ENDBRANCH  10  11
ENDBRANCH   9  10
ENDBRANCH   8   9
ENDBRANCH   1   8
TORSDOF 8
ENDMDL
MODEL 4
REMARK VINA RESULT:    -4.756      1.313      5.235
REMARK INTER + INTRA:          -7.567
REMARK INTER:                  -7.164
REMARK INTRA:                  -0.402
REMARK UNBOUND:                -0.587
REMARK SMILES O=C([O-])CCCCCCCC(=O)[O-]
REMARK SMILES IDX 7 1 6 2 5 3 4 4 2 5 1 6 3 7 8 8 9 9 10 10 11 11 12 12 13 13
REMARK H PARENT
REMARK Flexibility Score: inf
ROOT
ATOM      1  C   UNL     1      14.872  76.608  70.551  1.00  0.00     0.000 C 
ENDROOT
BRANCH   1   2
ATOM      2  C   UNL     1      13.591  76.433  69.723  1.00  0.00     0.000 C 
BRANCH   2   3
ATOM      3  C   UNL     1      13.718  75.350  68.636  1.00  0.00     0.006 C 
BRANCH   3   4
ATOM      4  C   UNL     1      13.839  73.919  69.192  1.00  0.00     0.053 C 
BRANCH   4   5
ATOM      5  C   UNL     1      15.221  73.359  69.053  1.00  0.00     0.041 C 
ATOM      6  O   UNL     1      15.588  72.831  67.971  1.00  0.00    -0.550 OA
ATOM      7  O   UNL     1      16.117  73.448  70.112  1.00  0.00    -0.550 OA
ENDBRANCH   4   5
ENDBRANCH   3   4
ENDBRANCH   2   3
ENDBRANCH   1   2
BRANCH   1   8
ATOM      8  C   UNL     1      14.669  76.117  71.989  1.00  0.00     0.000 C 
BRANCH   8   9
ATOM      9  C   UNL     1      16.011  75.996  72.726  1.00  0.00     0.006 C 
BRANCH   9  10
ATOM     10  C   UNL     1      16.890  77.239  72.540  1.00  0.00     0.053 C 
BRANCH  10  11
ATOM     11  C   UNL     1      18.223  77.080  73.202  1.00  0.00     0.041 C 
ATOM     12  O   UNL     1      18.658  77.973  73.977  1.00  0.00    -0.550 OA
ATOM     13  O   UNL     1      18.973  75.931  72.991  1.00  0.00    -0.550 OA
ENDBRANCH  10  11
ENDBRANCH   9  10
ENDBRANCH   8   9
ENDBRANCH   1   8
TORSDOF 8
ENDMDL
MODEL 5
REMARK VINA RESULT:    -4.669      2.573      5.398
REMARK INTER + INTRA:          -7.439
REMARK INTER:                  -6.722
REMARK INTRA:                  -0.717
REMARK UNBOUND:                -0.587
REMARK SMILES O=C([O-])CCCCCCCC(=O)[O-]
REMARK SMILES IDX 7 1 6 2 5 3 4 4 2 5 1 6 3 7 8 8 9 9 10 10 11 11 12 12 13 13
REMARK H PARENT
REMARK Flexibility Score: inf
ROOT
ATOM      1  C   UNL     1      15.820  74.501  71.055  1.00  0.00     0.000 C 
ENDROOT
BRANCH   1   2
ATOM      2  C   UNL     1      14.774  74.002  70.049  1.00  0.00     0.000 C 
BRANCH   2   3
ATOM      3  C   UNL     1      14.649  74.907  68.809  1.00  0.00     0.006 C 
BRANCH   3   4
ATOM      4  C   UNL     1      13.401  75.807  68.816  1.00  0.00     0.053 C 
BRANCH   4   5
ATOM      5  C   UNL     1      13.552  76.999  69.711  1.00  0.00     0.041 C 
ATOM      6  O   UNL     1      12.994  77.021  70.840  1.00  0.00    -0.550 OA
ATOM      7  O   UNL     1      14.334  78.075  69.311  1.00  0.00    -0.550 OA
ENDBRANCH   4   5
ENDBRANCH   3   4
ENDBRANCH   2   3
ENDBRANCH   1   2
BRANCH   1   8
ATOM      8  C   UNL     1      15.202  74.682  72.447  1.00  0.00     0.000 C 
BRANCH   8   9
ATOM      9  C   UNL     1      15.470  76.092  72.991  1.00  0.00     0.006 C 
BRANCH   9  10
ATOM     10  C   UNL     1      16.575  76.815  72.212  1.00  0.00     0.053 C 
BRANCH  10  11
ATOM     11  C   UNL     1      17.866  76.840  72.971  1.00  0.00     0.041 C 
ATOM     12  O   UNL     1      18.477  75.767  73.218  1.00  0.00    -0.550 OA
ATOM     13  O   UNL     1      18.411  78.051  73.377  1.00  0.00    -0.550 OA
ENDBRANCH  10  11
ENDBRANCH   9  10
ENDBRANCH   8   9
ENDBRANCH   1   8
TORSDOF 8
ENDMDL
MODEL 6
REMARK VINA RESULT:    -4.339      2.713      4.675
REMARK INTER + INTRA:          -6.954
REMARK INTER:                  -6.414
REMARK INTRA:                  -0.540
REMARK UNBOUND:                -0.587
REMARK SMILES O=C([O-])CCCCCCCC(=O)[O-]
REMARK SMILES IDX 7 1 6 2 5 3 4 4 2 5 1 6 3 7 8 8 9 9 10 10 11 11 12 12 13 13
REMARK H PARENT
REMARK Flexibility Score: inf
ROOT
ATOM      1  C   UNL     1      15.330  74.753  72.729  1.00  0.00     0.000 C 
ENDROOT
BRANCH   1   2
ATOM      2  C   UNL     1      16.348  74.723  71.580  1.00  0.00     0.000 C 
BRANCH   2   3
ATOM      3  C   UNL     1      16.155  73.524  70.634  1.00  0.00     0.006 C 
BRANCH   3   4
ATOM      4  C   UNL     1      14.842  73.566  69.832  1.00  0.00     0.053 C 
BRANCH   4   5
ATOM      5  C   UNL     1      15.033  73.208  68.390  1.00  0.00     0.041 C 
ATOM      6  O   UNL     1      15.217  74.108  67.529  1.00  0.00    -0.550 OA
ATOM      7  O   UNL     1      15.037  71.874  67.999  1.00  0.00    -0.550 OA
ENDBRANCH   4   5
ENDBRANCH   3   4
ENDBRANCH   2   3
ENDBRANCH   1   2
BRANCH   1   8
ATOM      8  C   UNL     1      14.678  76.136  72.850  1.00  0.00     0.000 C 
BRANCH   8   9
ATOM      9  C   UNL     1      14.695  76.874  71.503  1.00  0.00     0.006 C 
BRANCH   9  10
ATOM     10  C   UNL     1      13.424  76.618  70.684  1.00  0.00     0.053 C 
BRANCH  10  11
ATOM     11  C   UNL     1      13.524  77.198  69.308  1.00  0.00     0.041 C 
ATOM     12  O   UNL     1      13.131  76.537  68.310  1.00  0.00    -0.550 OA
ATOM     13  O   UNL     1      14.019  78.483  69.128  1.00  0.00    -0.550 OA
ENDBRANCH  10  11
ENDBRANCH   9  10
ENDBRANCH   8   9
ENDBRANCH   1   8
TORSDOF 8
ENDMDL
MODEL 7
REMARK VINA RESULT:    -4.044      2.602      3.580
REMARK INTER + INTRA:          -6.522
REMARK INTER:                  -5.897
REMARK INTRA:                  -0.625
REMARK UNBOUND:                -0.587
REMARK SMILES O=C([O-])CCCCCCCC(=O)[O-]
REMARK SMILES IDX 7 1 6 2 5 3 4 4 2 5 1 6 3 7 8 8 9 9 10 10 11 11 12 12 13 13
REMARK H PARENT
REMARK Flexibility Score: inf
ROOT
ATOM      1  C   UNL     1      14.618  72.695  69.153  1.00  0.00     0.000 C 
ENDROOT
BRANCH   1   2
ATOM      2  C   UNL     1      15.780  73.504  69.746  1.00  0.00     0.000 C 
BRANCH   2   3
ATOM      3  C   UNL     1      15.502  74.002  71.175  1.00  0.00     0.006 C 
BRANCH   3   4
ATOM      4  C   UNL     1      16.399  75.173  71.615  1.00  0.00     0.053 C 
BRANCH   4   5
ATOM      5  C   UNL     1      15.814  75.957  72.749  1.00  0.00     0.041 C 
ATOM      6  O   UNL     1      16.305  77.070  73.073  1.00  0.00    -0.550 OA
ATOM      7  O   UNL     1      14.704  75.472  73.431  1.00  0.00    -0.550 OA
ENDBRANCH   4   5
ENDBRANCH   3   4
ENDBRANCH   2   3
ENDBRANCH   1   2
BRANCH   1   8
ATOM      8  C   UNL     1      13.677  73.595  68.344  1.00  0.00     0.000 C 
BRANCH   8   9
ATOM      9  C   UNL     1      14.231  75.024  68.244  1.00  0.00     0.006 C 
BRANCH   9  10
ATOM     10  C   UNL     1      13.199  76.078  68.663  1.00  0.00     0.053 C 
BRANCH  10  11
ATOM     11  C   UNL     1      13.698  76.927  69.791  1.00  0.00     0.041 C 
ATOM     12  O   UNL     1      13.043  77.007  70.863  1.00  0.00    -0.550 OA
ATOM     13  O   UNL     1      14.905  77.604  69.671  1.00  0.00    -0.550 OA
ENDBRANCH  10  11
ENDBRANCH   9  10
ENDBRANCH   8   9
ENDBRANCH   1   8
TORSDOF 8
ENDMDL
MODEL 8
REMARK VINA RESULT:    -4.000      2.786      3.810
REMARK INTER + INTRA:          -6.457
REMARK INTER:                  -6.140
REMARK INTRA:                  -0.316
REMARK UNBOUND:                -0.587
REMARK SMILES O=C([O-])CCCCCCCC(=O)[O-]
REMARK SMILES IDX 7 1 6 2 5 3 4 4 2 5 1 6 3 7 8 8 9 9 10 10 11 11 12 12 13 13
REMARK H PARENT
REMARK Flexibility Score: inf
ROOT
ATOM      1  C   UNL     1      15.010  74.638  72.464  1.00  0.00     0.000 C 
ENDROOT
BRANCH   1   2
ATOM      2  C   UNL     1      14.911  76.126  72.829  1.00  0.00     0.000 C 
BRANCH   2   3
ATOM      3  C   UNL     1      14.756  77.040  71.600  1.00  0.00     0.006 C 
BRANCH   3   4
ATOM      4  C   UNL     1      13.441  76.830  70.828  1.00  0.00     0.053 C 
BRANCH   4   5
ATOM      5  C   UNL     1      13.553  77.201  69.381  1.00  0.00     0.041 C 
ATOM      6  O   UNL     1      13.883  78.370  69.048  1.00  0.00    -0.550 OA
ATOM      7  O   UNL     1      13.321  76.247  68.398  1.00  0.00    -0.550 OA
ENDBRANCH   4   5
ENDBRANCH   3   4
ENDBRANCH   2   3
ENDBRANCH   1   2
BRANCH   1   8
ATOM      8  C   UNL     1      16.247  74.365  71.599  1.00  0.00     0.000 C 
BRANCH   8   9
ATOM      9  C   UNL     1      15.897  74.417  70.105  1.00  0.00     0.006 C 
BRANCH   9  10
ATOM     10  C   UNL     1      14.929  73.300  69.695  1.00  0.00     0.053 C 
BRANCH  10  11
ATOM     11  C   UNL     1      15.237  72.771  68.329  1.00  0.00     0.041 C 
ATOM     12  O   UNL     1      15.304  71.529  68.129  1.00  0.00    -0.550 OA
ATOM     13  O   UNL     1      15.417  73.648  67.267  1.00  0.00    -0.550 OA
ENDBRANCH  10  11
ENDBRANCH   9  10
ENDBRANCH   8   9
ENDBRANCH   1   8
TORSDOF 8
ENDMDL
MODEL 9
REMARK VINA RESULT:    -3.842     11.234     12.424
REMARK INTER + INTRA:          -6.225
REMARK INTER:                  -5.625
REMARK INTRA:                  -0.600
REMARK UNBOUND:                -0.587
REMARK SMILES O=C([O-])CCCCCCCC(=O)[O-]
REMARK SMILES IDX 7 1 6 2 5 3 4 4 2 5 1 6 3 7 8 8 9 9 10 10 11 11 12 12 13 13
REMARK H PARENT
REMARK Flexibility Score: inf
ROOT
ATOM      1  C   UNL     1       7.121  77.217  67.107  1.00  0.00     0.000 C 
ENDROOT
BRANCH   1   2
ATOM      2  C   UNL     1       5.765  76.497  67.068  1.00  0.00     0.000 C 
BRANCH   2   3
ATOM      3  C   UNL     1       4.759  77.050  68.094  1.00  0.00     0.006 C 
BRANCH   3   4
ATOM      4  C   UNL     1       5.163  78.407  68.696  1.00  0.00     0.053 C 
BRANCH   4   5
ATOM      5  C   UNL     1       4.339  79.543  68.171  1.00  0.00     0.041 C 
ATOM      6  O   UNL     1       3.731  80.308  68.964  1.00  0.00    -0.550 OA
ATOM      7  O   UNL     1       4.266  79.774  66.802  1.00  0.00    -0.550 OA
ENDBRANCH   4   5
ENDBRANCH   3   4
ENDBRANCH   2   3
ENDBRANCH   1   2
BRANCH   1   8
ATOM      8  C   UNL     1       7.358  78.013  65.818  1.00  0.00     0.000 C 
BRANCH   8   9
ATOM      9  C   UNL     1       6.365  77.598  64.723  1.00  0.00     0.006 C 
BRANCH   9  10
ATOM     10  C   UNL     1       6.375  78.564  63.532  1.00  0.00     0.053 C 
BRANCH  10  11
ATOM     11  C   UNL     1       5.016  78.704  62.919  1.00  0.00     0.041 C 
ATOM     12  O   UNL     1       4.046  79.110  63.612  1.00  0.00    -0.550 OA
ATOM     13  O   UNL     1       4.827  78.418  61.573  1.00  0.00    -0.550 OA
ENDBRANCH  10  11
ENDBRANCH   9  10
ENDBRANCH   8   9
ENDBRANCH   1   8
TORSDOF 8
ENDMDL
