MODEL 1
REMARK VINA RESULT:    -6.428      0.000      0.000
REMARK INTER + INTRA:         -10.350
REMARK INTER:                  -9.058
REMARK INTRA:                  -1.291
REMARK UNBOUND:                -1.291
REMARK SMILES OC[C@H]1O[C@H](O[C@@H]2OC=C[C@@H]3[C@H](O)[C@@H]4O[C@]4(CO)[C@@H]23)[C@@H](O)[C@H](O)[C@H]1O
REMARK SMILES IDX 6 1 7 2 10 3 9 4 11 5 8 6 19 7 12 8 16 9 14 10 15 11 13 12
REMARK SMILES IDX 17 14 18 15 5 17 20 18 4 19 22 20 3 21 24 22 21 23 23 25
REMARK SMILES IDX 2 27 1 28 25 30
REMARK H PARENT 13 13 18 16 21 24 23 26 1 29 25 31
REMARK Flexibility Score: inf
ROOT
ATOM      1  O   UNL     1      25.106 -23.676  26.748  1.00  0.00    -0.310 OA
ENDROOT
BRANCH   1   2
ATOM      2  C   UNL     1      25.195 -23.727  28.155  1.00  0.00     0.315 C 
ATOM      3  C   UNL     1      26.848 -24.282  30.475  1.00  0.00     0.018 C 
ATOM      4  C   UNL     1      26.984 -23.117  29.816  1.00  0.00     0.186 C 
ATOM      5  C   UNL     1      25.746 -25.209  30.051  1.00  0.00     0.059 C 
ATOM      6  O   UNL     1      26.228 -22.845  28.654  1.00  0.00    -0.472 OA
ATOM      7  C   UNL     1      25.590 -25.153  28.549  1.00  0.00     0.105 C 
ATOM      8  C   UNL     1      25.871 -26.703  30.342  1.00  0.00     0.154 C 
ATOM      9  C   UNL     1      24.688 -26.341  28.245  1.00  0.00     0.130 C 
ATOM     10  C   UNL     1      24.889 -27.337  29.336  1.00  0.00     0.183 C 
ATOM     11  O   UNL     1      25.390 -27.544  28.028  1.00  0.00    -0.360 OA
BRANCH   8  12
ATOM     12  O   UNL     1      27.183 -27.154  30.111  1.00  0.00    -0.390 OA
ATOM     13  H   UNL     1      27.793 -26.481  30.516  1.00  0.00     0.211 HD
ENDBRANCH   8  12
BRANCH   9  14
ATOM     14  C   UNL     1      23.275 -26.257  27.653  1.00  0.00     0.195 C 
BRANCH  14  15
ATOM     15  O   UNL     1      23.330 -26.171  26.252  1.00  0.00    -0.393 OA
ATOM     16  H   UNL     1      22.725 -25.429  25.990  1.00  0.00     0.210 HD
ENDBRANCH  14  15
ENDBRANCH   9  14
ENDBRANCH   1   2
BRANCH   1  17
ATOM     17  C   UNL     1      26.325 -24.003  26.090  1.00  0.00     0.286 C 
ATOM     18  C   UNL     1      26.956 -22.744  25.455  1.00  0.00     0.202 C 
ATOM     19  O   UNL     1      26.092 -24.987  25.095  1.00  0.00    -0.341 OA
ATOM     20  C   UNL     1      26.104 -22.196  24.276  1.00  0.00     0.179 C 
ATOM     21  C   UNL     1      25.164 -24.601  24.076  1.00  0.00     0.178 C 
ATOM     22  C   UNL     1      24.858 -23.066  23.986  1.00  0.00     0.177 C 
BRANCH  18  23
ATOM     23  O   UNL     1      28.246 -23.058  24.972  1.00  0.00    -0.385 OA
ATOM     24  H   UNL     1      28.821 -22.262  25.125  1.00  0.00     0.211 HD
ENDBRANCH  18  23
BRANCH  20  25
ATOM     25  O   UNL     1      25.682 -20.881  24.563  1.00  0.00    -0.387 OA
ATOM     26  H   UNL     1      26.047 -20.300  23.844  1.00  0.00     0.211 HD
ENDBRANCH  20  25
BRANCH  21  27
ATOM     27  C   UNL     1      25.688 -25.183  22.747  1.00  0.00     0.191 C 
BRANCH  27  28
ATOM     28  O   UNL     1      24.643 -25.693  21.959  1.00  0.00    -0.394 OA
ATOM     29  H   UNL     1      24.785 -26.676  21.904  1.00  0.00     0.210 HD
ENDBRANCH  27  28
ENDBRANCH  21  27
BRANCH  22  30
ATOM     30  O   UNL     1      24.238 -22.707  22.770  1.00  0.00    -0.387 OA
ATOM     31  H   UNL     1      24.712 -23.161  22.026  1.00  0.00     0.211 HD
ENDBRANCH  22  30
ENDBRANCH   1  17
TORSDOF 10
ENDMDL
MODEL 2
REMARK VINA RESULT:    -6.421      1.668      2.707
REMARK INTER + INTRA:         -10.340
REMARK INTER:                  -8.872
REMARK INTRA:                  -1.468
REMARK UNBOUND:                -1.291
REMARK SMILES OC[C@H]1O[C@H](O[C@@H]2OC=C[C@@H]3[C@H](O)[C@@H]4O[C@]4(CO)[C@@H]23)[C@@H](O)[C@H](O)[C@H]1O
REMARK SMILES IDX 6 1 7 2 10 3 9 4 11 5 8 6 19 7 12 8 16 9 14 10 15 11 13 12
REMARK SMILES IDX 17 14 18 15 5 17 20 18 4 19 22 20 3 21 24 22 21 23 23 25
REMARK SMILES IDX 2 27 1 28 25 30
REMARK H PARENT 13 13 18 16 21 24 23 26 1 29 25 31
REMARK Flexibility Score: inf
ROOT
ATOM      1  O   UNL     1      24.592 -24.312  27.225  1.00  0.00    -0.310 OA
ENDROOT
BRANCH   1   2
ATOM      2  C   UNL     1      25.029 -23.845  28.482  1.00  0.00     0.315 C 
ATOM      3  C   UNL     1      27.109 -23.871  30.506  1.00  0.00     0.018 C 
ATOM      4  C   UNL     1      27.257 -23.121  29.400  1.00  0.00     0.186 C 
ATOM      5  C   UNL     1      25.801 -24.581  30.709  1.00  0.00     0.059 C 
ATOM      6  O   UNL     1      26.283 -23.130  28.377  1.00  0.00    -0.472 OA
ATOM      7  C   UNL     1      25.277 -25.063  29.376  1.00  0.00     0.105 C 
ATOM      8  C   UNL     1      25.754 -25.830  31.585  1.00  0.00     0.154 C 
ATOM      9  C   UNL     1      24.148 -26.008  29.764  1.00  0.00     0.130 C 
ATOM     10  C   UNL     1      24.458 -26.530  31.125  1.00  0.00     0.183 C 
ATOM     11  O   UNL     1      24.569 -27.338  29.968  1.00  0.00    -0.360 OA
BRANCH   8  12
ATOM     12  O   UNL     1      26.873 -26.650  31.354  1.00  0.00    -0.390 OA
ATOM     13  H   UNL     1      27.360 -26.258  30.580  1.00  0.00     0.211 HD
ENDBRANCH   8  12
BRANCH   9  14
ATOM     14  C   UNL     1      22.664 -25.803  29.437  1.00  0.00     0.195 C 
BRANCH  14  15
ATOM     15  O   UNL     1      22.370 -26.279  28.148  1.00  0.00    -0.393 OA
ATOM     16  H   UNL     1      21.752 -25.620  27.736  1.00  0.00     0.210 HD
ENDBRANCH  14  15
ENDBRANCH   9  14
ENDBRANCH   1   2
BRANCH   1  17
ATOM     17  C   UNL     1      24.161 -23.274  26.352  1.00  0.00     0.286 C 
ATOM     18  C   UNL     1      22.714 -23.530  25.874  1.00  0.00     0.202 C 
ATOM     19  O   UNL     1      25.033 -23.181  25.237  1.00  0.00    -0.341 OA
ATOM     20  C   UNL     1      22.617 -24.774  24.948  1.00  0.00     0.179 C 
ATOM     21  C   UNL     1      25.126 -24.371  24.448  1.00  0.00     0.178 C 
ATOM     22  C   UNL     1      23.994 -25.430  24.684  1.00  0.00     0.177 C 
BRANCH  18  23
ATOM     23  O   UNL     1      22.247 -22.401  25.164  1.00  0.00    -0.385 OA
ATOM     24  H   UNL     1      22.229 -22.645  24.200  1.00  0.00     0.211 HD
ENDBRANCH  18  23
BRANCH  20  25
ATOM     25  O   UNL     1      21.762 -25.736  25.528  1.00  0.00    -0.387 OA
ATOM     26  H   UNL     1      21.003 -25.235  25.931  1.00  0.00     0.211 HD
ENDBRANCH  20  25
BRANCH  21  27
ATOM     27  C   UNL     1      25.229 -23.926  22.974  1.00  0.00     0.191 C 
BRANCH  27  28
ATOM     28  O   UNL     1      24.390 -22.833  22.704  1.00  0.00    -0.394 OA
ATOM     29  H   UNL     1      23.484 -23.208  22.536  1.00  0.00     0.210 HD
ENDBRANCH  27  28
ENDBRANCH  21  27
BRANCH  22  30
ATOM     30  O   UNL     1      23.929 -26.392  23.654  1.00  0.00    -0.387 OA
ATOM     31  H   UNL     1      24.019 -25.929  22.781  1.00  0.00     0.211 HD
ENDBRANCH  22  30
ENDBRANCH   1  17
TORSDOF 10
ENDMDL
MODEL 3
REMARK VINA RESULT:    -6.355      1.804      2.350
REMARK INTER + INTRA:         -10.246
REMARK INTER:                  -9.289
REMARK INTRA:                  -0.958
REMARK UNBOUND:                -1.291
REMARK SMILES OC[C@H]1O[C@H](O[C@@H]2OC=C[C@@H]3[C@H](O)[C@@H]4O[C@]4(CO)[C@@H]23)[C@@H](O)[C@H](O)[C@H]1O
REMARK SMILES IDX 6 1 7 2 10 3 9 4 11 5 8 6 19 7 12 8 16 9 14 10 15 11 13 12
REMARK SMILES IDX 17 14 18 15 5 17 20 18 4 19 22 20 3 21 24 22 21 23 23 25
REMARK SMILES IDX 2 27 1 28 25 30
REMARK H PARENT 13 13 18 16 21 24 23 26 1 29 25 31
REMARK Flexibility Score: inf
ROOT
ATOM      1  O   UNL     1      25.470 -24.096  26.915  1.00  0.00    -0.310 OA
ENDROOT
BRANCH   1   2
ATOM      2  C   UNL     1      26.531 -24.625  27.680  1.00  0.00     0.315 C 
ATOM      3  C   UNL     1      28.298 -26.874  28.173  1.00  0.00     0.018 C 
ATOM      4  C   UNL     1      28.536 -26.045  27.141  1.00  0.00     0.186 C 
ATOM      5  C   UNL     1      27.181 -26.526  29.115  1.00  0.00     0.059 C 
ATOM      6  O   UNL     1      27.663 -24.974  26.849  1.00  0.00    -0.472 OA
ATOM      7  C   UNL     1      26.037 -25.917  28.338  1.00  0.00     0.105 C 
ATOM      8  C   UNL     1      26.513 -27.633  29.926  1.00  0.00     0.154 C 
ATOM      9  C   UNL     1      24.893 -25.912  29.343  1.00  0.00     0.130 C 
ATOM     10  C   UNL     1      25.156 -27.011  30.315  1.00  0.00     0.183 C 
ATOM     11  O   UNL     1      24.133 -27.099  29.340  1.00  0.00    -0.360 OA
BRANCH   8  12
ATOM     12  O   UNL     1      26.326 -28.788  29.145  1.00  0.00    -0.390 OA
ATOM     13  H   UNL     1      26.713 -29.547  29.658  1.00  0.00     0.211 HD
ENDBRANCH   8  12
BRANCH   9  14
ATOM     14  C   UNL     1      24.206 -24.660  29.902  1.00  0.00     0.195 C 
BRANCH  14  15
ATOM     15  O   UNL     1      23.289 -24.141  28.972  1.00  0.00    -0.393 OA
ATOM     16  H   UNL     1      23.772 -23.446  28.455  1.00  0.00     0.210 HD
ENDBRANCH  14  15
ENDBRANCH   9  14
ENDBRANCH   1   2
BRANCH   1  17
ATOM     17  C   UNL     1      25.902 -23.416  25.741  1.00  0.00     0.286 C 
ATOM     18  C   UNL     1      24.869 -22.346  25.321  1.00  0.00     0.202 C 
ATOM     19  O   UNL     1      26.099 -24.345  24.687  1.00  0.00    -0.341 OA
ATOM     20  C   UNL     1      23.534 -22.981  24.840  1.00  0.00     0.179 C 
ATOM     21  C   UNL     1      24.936 -25.096  24.325  1.00  0.00     0.178 C 
ATOM     22  C   UNL     1      23.572 -24.528  24.848  1.00  0.00     0.177 C 
BRANCH  18  23
ATOM     23  O   UNL     1      25.402 -21.567  24.270  1.00  0.00    -0.385 OA
ATOM     24  H   UNL     1      26.281 -21.218  24.578  1.00  0.00     0.211 HD
ENDBRANCH  18  23
BRANCH  20  25
ATOM     25  O   UNL     1      22.476 -22.550  25.668  1.00  0.00    -0.387 OA
ATOM     26  H   UNL     1      22.321 -21.590  25.456  1.00  0.00     0.211 HD
ENDBRANCH  20  25
BRANCH  21  27
ATOM     27  C   UNL     1      24.965 -25.258  22.790  1.00  0.00     0.191 C 
BRANCH  27  28
ATOM     28  O   UNL     1      24.352 -26.455  22.386  1.00  0.00    -0.394 OA
ATOM     29  H   UNL     1      24.260 -27.015  23.202  1.00  0.00     0.210 HD
ENDBRANCH  27  28
ENDBRANCH  21  27
BRANCH  22  30
ATOM     30  O   UNL     1      22.461 -25.084  24.180  1.00  0.00    -0.387 OA
ATOM     31  H   UNL     1      21.917 -24.346  23.801  1.00  0.00     0.211 HD
ENDBRANCH  22  30
ENDBRANCH   1  17
TORSDOF 10
ENDMDL
MODEL 4
REMARK VINA RESULT:    -6.325      2.239      5.381
REMARK INTER + INTRA:         -10.204
REMARK INTER:                  -8.926
REMARK INTRA:                  -1.279
REMARK UNBOUND:                -1.291
REMARK SMILES OC[C@H]1O[C@H](O[C@@H]2OC=C[C@@H]3[C@H](O)[C@@H]4O[C@]4(CO)[C@@H]23)[C@@H](O)[C@H](O)[C@H]1O
REMARK SMILES IDX 6 1 7 2 10 3 9 4 11 5 8 6 19 7 12 8 16 9 14 10 15 11 13 12
REMARK SMILES IDX 17 14 18 15 5 17 20 18 4 19 22 20 3 21 24 22 21 23 23 25
REMARK SMILES IDX 2 27 1 28 25 30
REMARK H PARENT 13 13 18 16 21 24 23 26 1 29 25 31
REMARK Flexibility Score: inf
ROOT
ATOM      1  O   UNL     1      26.377 -24.665  26.373  1.00  0.00    -0.310 OA
ENDROOT
BRANCH   1   2
ATOM      2  C   UNL     1      25.813 -23.738  25.472  1.00  0.00     0.315 C 
ATOM      3  C   UNL     1      24.652 -21.105  25.091  1.00  0.00     0.018 C 
ATOM      4  C   UNL     1      25.986 -21.243  25.195  1.00  0.00     0.186 C 
ATOM      5  C   UNL     1      23.814 -22.350  25.053  1.00  0.00     0.059 C 
ATOM      6  O   UNL     1      26.572 -22.507  25.433  1.00  0.00    -0.472 OA
ATOM      7  C   UNL     1      24.410 -23.387  25.977  1.00  0.00     0.105 C 
ATOM      8  C   UNL     1      22.352 -22.282  25.487  1.00  0.00     0.154 C 
ATOM      9  C   UNL     1      23.314 -24.440  26.076  1.00  0.00     0.130 C 
ATOM     10  C   UNL     1      22.017 -23.751  25.817  1.00  0.00     0.183 C 
ATOM     11  O   UNL     1      22.386 -24.195  27.110  1.00  0.00    -0.360 OA
BRANCH   8  12
ATOM     12  O   UNL     1      22.201 -21.469  26.625  1.00  0.00    -0.390 OA
ATOM     13  H   UNL     1      21.641 -21.979  27.270  1.00  0.00     0.211 HD
ENDBRANCH   8  12
BRANCH   9  14
ATOM     14  C   UNL     1      23.424 -25.888  25.585  1.00  0.00     0.195 C 
BRANCH  14  15
ATOM     15  O   UNL     1      24.183 -26.659  26.482  1.00  0.00    -0.393 OA
ATOM     16  H   UNL     1      24.218 -26.151  27.333  1.00  0.00     0.210 HD
ENDBRANCH  14  15
ENDBRANCH   9  14
ENDBRANCH   1   2
BRANCH   1  17
ATOM     17  C   UNL     1      26.536 -24.151  27.691  1.00  0.00     0.286 C 
ATOM     18  C   UNL     1      28.034 -24.004  28.040  1.00  0.00     0.202 C 
ATOM     19  O   UNL     1      25.899 -25.005  28.627  1.00  0.00    -0.341 OA
ATOM     20  C   UNL     1      28.744 -25.381  28.157  1.00  0.00     0.179 C 
ATOM     21  C   UNL     1      26.393 -26.348  28.646  1.00  0.00     0.178 C 
ATOM     22  C   UNL     1      27.778 -26.571  27.945  1.00  0.00     0.177 C 
BRANCH  18  23
ATOM     23  O   UNL     1      28.164 -23.324  29.272  1.00  0.00    -0.385 OA
ATOM     24  H   UNL     1      28.674 -22.489  29.096  1.00  0.00     0.211 HD
ENDBRANCH  18  23
BRANCH  20  25
ATOM     25  O   UNL     1      29.781 -25.465  27.202  1.00  0.00    -0.387 OA
ATOM     26  H   UNL     1      29.414 -25.967  26.427  1.00  0.00     0.211 HD
ENDBRANCH  20  25
BRANCH  21  27
ATOM     27  C   UNL     1      26.389 -26.809  30.119  1.00  0.00     0.191 C 
BRANCH  27  28
ATOM     28  O   UNL     1      26.175 -28.191  30.227  1.00  0.00    -0.394 OA
ATOM     29  H   UNL     1      26.989 -28.571  30.654  1.00  0.00     0.210 HD
ENDBRANCH  27  28
ENDBRANCH  21  27
BRANCH  22  30
ATOM     30  O   UNL     1      28.372 -27.800  28.298  1.00  0.00    -0.387 OA
ATOM     31  H   UNL     1      27.775 -28.270  28.936  1.00  0.00     0.211 HD
ENDBRANCH  22  30
ENDBRANCH   1  17
TORSDOF 10
ENDMDL
MODEL 5
REMARK VINA RESULT:    -6.132      6.957     11.477
REMARK INTER + INTRA:          -9.933
REMARK INTER:                  -8.682
REMARK INTRA:                  -1.250
REMARK UNBOUND:                -1.291
REMARK SMILES OC[C@H]1O[C@H](O[C@@H]2OC=C[C@@H]3[C@H](O)[C@@H]4O[C@]4(CO)[C@@H]23)[C@@H](O)[C@H](O)[C@H]1O
REMARK SMILES IDX 6 1 7 2 10 3 9 4 11 5 8 6 19 7 12 8 16 9 14 10 15 11 13 12
REMARK SMILES IDX 17 14 18 15 5 17 20 18 4 19 22 20 3 21 24 22 21 23 23 25
REMARK SMILES IDX 2 27 1 28 25 30
REMARK H PARENT 13 13 18 16 21 24 23 26 1 29 25 31
REMARK Flexibility Score: inf
ROOT
ATOM      1  O   UNL     1      25.760 -28.169  36.018  1.00  0.00    -0.310 OA
ENDROOT
BRANCH   1   2
ATOM      2  C   UNL     1      25.712 -27.411  34.829  1.00  0.00     0.315 C 
ATOM      3  C   UNL     1      24.658 -27.163  32.136  1.00  0.00     0.018 C 
ATOM      4  C   UNL     1      23.888 -26.842  33.192  1.00  0.00     0.186 C 
ATOM      5  C   UNL     1      26.092 -27.525  32.392  1.00  0.00     0.059 C 
ATOM      6  O   UNL     1      24.360 -27.003  34.513  1.00  0.00    -0.472 OA
ATOM      7  C   UNL     1      26.193 -28.305  33.683  1.00  0.00     0.105 C 
ATOM      8  C   UNL     1      26.835 -28.401  31.386  1.00  0.00     0.154 C 
ATOM      9  C   UNL     1      27.611 -28.860  33.647  1.00  0.00     0.130 C 
ATOM     10  C   UNL     1      28.006 -28.968  32.214  1.00  0.00     0.183 C 
ATOM     11  O   UNL     1      27.713 -30.109  33.000  1.00  0.00    -0.360 OA
BRANCH   8  12
ATOM     12  O   UNL     1      26.010 -29.438  30.914  1.00  0.00    -0.390 OA
ATOM     13  H   UNL     1      25.424 -29.042  30.214  1.00  0.00     0.211 HD
ENDBRANCH   8  12
BRANCH   9  14
ATOM     14  C   UNL     1      28.729 -28.508  34.636  1.00  0.00     0.195 C 
BRANCH  14  15
ATOM     15  O   UNL     1      28.577 -29.229  35.833  1.00  0.00    -0.393 OA
ATOM     16  H   UNL     1      27.817 -29.853  35.693  1.00  0.00     0.210 HD
ENDBRANCH  14  15
ENDBRANCH   9  14
ENDBRANCH   1   2
BRANCH   1  17
ATOM     17  C   UNL     1      24.552 -28.123  36.769  1.00  0.00     0.286 C 
ATOM     18  C   UNL     1      24.817 -27.591  38.195  1.00  0.00     0.202 C 
ATOM     19  O   UNL     1      23.968 -29.415  36.831  1.00  0.00    -0.341 OA
ATOM     20  C   UNL     1      25.669 -28.580  39.038  1.00  0.00     0.179 C 
ATOM     21  C   UNL     1      24.792 -30.416  37.436  1.00  0.00     0.178 C 
ATOM     22  C   UNL     1      26.007 -29.880  38.270  1.00  0.00     0.177 C 
BRANCH  18  23
ATOM     23  O   UNL     1      23.585 -27.381  38.854  1.00  0.00    -0.385 OA
ATOM     24  H   UNL     1      23.610 -27.905  39.699  1.00  0.00     0.211 HD
ENDBRANCH  18  23
BRANCH  20  25
ATOM     25  O   UNL     1      26.875 -27.958  39.428  1.00  0.00    -0.387 OA
ATOM     26  H   UNL     1      27.030 -28.209  40.377  1.00  0.00     0.211 HD
ENDBRANCH  20  25
BRANCH  21  27
ATOM     27  C   UNL     1      23.860 -31.329  38.260  1.00  0.00     0.191 C 
BRANCH  27  28
ATOM     28  O   UNL     1      24.268 -32.671  38.202  1.00  0.00    -0.394 OA
ATOM     29  H   UNL     1      24.187 -32.949  37.251  1.00  0.00     0.210 HD
ENDBRANCH  27  28
ENDBRANCH  21  27
BRANCH  22  30
ATOM     30  O   UNL     1      26.558 -30.863  39.119  1.00  0.00    -0.387 OA
ATOM     31  H   UNL     1      26.059 -31.711  38.988  1.00  0.00     0.211 HD
ENDBRANCH  22  30
ENDBRANCH   1  17
TORSDOF 10
ENDMDL
MODEL 6
REMARK VINA RESULT:    -6.130      3.691      5.938
REMARK INTER + INTRA:          -9.930
REMARK INTER:                  -8.593
REMARK INTRA:                  -1.336
REMARK UNBOUND:                -1.291
REMARK SMILES OC[C@H]1O[C@H](O[C@@H]2OC=C[C@@H]3[C@H](O)[C@@H]4O[C@]4(CO)[C@@H]23)[C@@H](O)[C@H](O)[C@H]1O
REMARK SMILES IDX 6 1 7 2 10 3 9 4 11 5 8 6 19 7 12 8 16 9 14 10 15 11 13 12
REMARK SMILES IDX 17 14 18 15 5 17 20 18 4 19 22 20 3 21 24 22 21 23 23 25
REMARK SMILES IDX 2 27 1 28 25 30
REMARK H PARENT 13 13 18 16 21 24 23 26 1 29 25 31
REMARK Flexibility Score: inf
ROOT
ATOM      1  O   UNL     1      24.495 -21.082  27.056  1.00  0.00    -0.310 OA
ENDROOT
BRANCH   1   2
ATOM      2  C   UNL     1      25.004 -22.397  27.094  1.00  0.00     0.315 C 
ATOM      3  C   UNL     1      26.892 -24.314  26.005  1.00  0.00     0.018 C 
ATOM      4  C   UNL     1      27.307 -23.387  26.886  1.00  0.00     0.186 C 
ATOM      5  C   UNL     1      25.422 -24.398  25.709  1.00  0.00     0.059 C 
ATOM      6  O   UNL     1      26.420 -22.411  27.391  1.00  0.00    -0.472 OA
ATOM      7  C   UNL     1      24.828 -23.008  25.700  1.00  0.00     0.105 C 
ATOM      8  C   UNL     1      24.958 -24.993  24.382  1.00  0.00     0.154 C 
ATOM      9  C   UNL     1      23.449 -23.219  25.092  1.00  0.00     0.130 C 
ATOM     10  C   UNL     1      23.529 -24.432  24.229  1.00  0.00     0.183 C 
ATOM     11  O   UNL     1      23.432 -23.129  23.685  1.00  0.00    -0.360 OA
BRANCH   8  12
ATOM     12  O   UNL     1      25.778 -24.565  23.323  1.00  0.00    -0.390 OA
ATOM     13  H   UNL     1      25.889 -25.344  22.714  1.00  0.00     0.211 HD
ENDBRANCH   8  12
BRANCH   9  14
ATOM     14  C   UNL     1      22.114 -22.982  25.809  1.00  0.00     0.195 C 
BRANCH  14  15
ATOM     15  O   UNL     1      21.748 -21.628  25.740  1.00  0.00    -0.393 OA
ATOM     16  H   UNL     1      21.730 -21.387  24.777  1.00  0.00     0.210 HD
ENDBRANCH  14  15
ENDBRANCH   9  14
ENDBRANCH   1   2
BRANCH   1  17
ATOM     17  C   UNL     1      24.695 -20.361  28.268  1.00  0.00     0.286 C 
ATOM     18  C   UNL     1      23.345 -20.086  28.967  1.00  0.00     0.202 C 
ATOM     19  O   UNL     1      25.365 -19.139  28.002  1.00  0.00    -0.341 OA
ATOM     20  C   UNL     1      22.461 -19.095  28.159  1.00  0.00     0.179 C 
ATOM     21  C   UNL     1      24.675 -18.260  27.108  1.00  0.00     0.178 C 
ATOM     22  C   UNL     1      23.158 -18.583  26.877  1.00  0.00     0.177 C 
BRANCH  18  23
ATOM     23  O   UNL     1      23.583 -19.538  30.247  1.00  0.00    -0.385 OA
ATOM     24  H   UNL     1      24.376 -18.943  30.170  1.00  0.00     0.211 HD
ENDBRANCH  18  23
BRANCH  20  25
ATOM     25  O   UNL     1      21.250 -19.724  27.796  1.00  0.00    -0.387 OA
ATOM     26  H   UNL     1      20.953 -20.249  28.586  1.00  0.00     0.211 HD
ENDBRANCH  20  25
BRANCH  21  27
ATOM     27  C   UNL     1      24.907 -16.824  27.622  1.00  0.00     0.191 C 
BRANCH  27  28
ATOM     28  O   UNL     1      23.999 -16.485  28.638  1.00  0.00    -0.394 OA
ATOM     29  H   UNL     1      24.435 -16.729  29.498  1.00  0.00     0.210 HD
ENDBRANCH  27  28
ENDBRANCH  21  27
BRANCH  22  30
ATOM     30  O   UNL     1      22.458 -17.507  26.292  1.00  0.00    -0.387 OA
ATOM     31  H   UNL     1      22.804 -16.658  26.674  1.00  0.00     0.211 HD
ENDBRANCH  22  30
ENDBRANCH   1  17
TORSDOF 10
ENDMDL
MODEL 7
REMARK VINA RESULT:    -6.116      3.163      5.459
REMARK INTER + INTRA:          -9.910
REMARK INTER:                  -8.419
REMARK INTRA:                  -1.491
REMARK UNBOUND:                -1.291
REMARK SMILES OC[C@H]1O[C@H](O[C@@H]2OC=C[C@@H]3[C@H](O)[C@@H]4O[C@]4(CO)[C@@H]23)[C@@H](O)[C@H](O)[C@H]1O
REMARK SMILES IDX 6 1 7 2 10 3 9 4 11 5 8 6 19 7 12 8 16 9 14 10 15 11 13 12
REMARK SMILES IDX 17 14 18 15 5 17 20 18 4 19 22 20 3 21 24 22 21 23 23 25
REMARK SMILES IDX 2 27 1 28 25 30
REMARK H PARENT 13 13 18 16 21 24 23 26 1 29 25 31
REMARK Flexibility Score: inf
ROOT
ATOM      1  O   UNL     1      25.004 -21.762  27.327  1.00  0.00    -0.310 OA
ENDROOT
BRANCH   1   2
ATOM      2  C   UNL     1      25.764 -22.931  27.545  1.00  0.00     0.315 C 
ATOM      3  C   UNL     1      28.397 -24.150  27.621  1.00  0.00     0.018 C 
ATOM      4  C   UNL     1      27.973 -23.399  28.654  1.00  0.00     0.186 C 
ATOM      5  C   UNL     1      27.428 -24.431  26.508  1.00  0.00     0.059 C 
ATOM      6  O   UNL     1      26.717 -22.753  28.618  1.00  0.00    -0.472 OA
ATOM      7  C   UNL     1      26.565 -23.213  26.271  1.00  0.00     0.105 C 
ATOM      8  C   UNL     1      27.962 -24.768  25.118  1.00  0.00     0.154 C 
ATOM      9  C   UNL     1      25.876 -23.525  24.949  1.00  0.00     0.130 C 
ATOM     10  C   UNL     1      26.761 -24.460  24.200  1.00  0.00     0.183 C 
ATOM     11  O   UNL     1      26.606 -23.106  23.818  1.00  0.00    -0.360 OA
BRANCH   8  12
ATOM     12  O   UNL     1      29.062 -23.956  24.790  1.00  0.00    -0.390 OA
ATOM     13  H   UNL     1      28.791 -23.412  24.002  1.00  0.00     0.211 HD
ENDBRANCH   8  12
BRANCH   9  14
ATOM     14  C   UNL     1      24.366 -23.717  24.757  1.00  0.00     0.195 C 
BRANCH  14  15
ATOM     15  O   UNL     1      23.712 -22.474  24.700  1.00  0.00    -0.393 OA
ATOM     16  H   UNL     1      24.398 -21.783  24.890  1.00  0.00     0.210 HD
ENDBRANCH  14  15
ENDBRANCH   9  14
ENDBRANCH   1   2
BRANCH   1  17
ATOM     17  C   UNL     1      24.292 -21.326  28.480  1.00  0.00     0.286 C 
ATOM     18  C   UNL     1      22.767 -21.430  28.249  1.00  0.00     0.202 C 
ATOM     19  O   UNL     1      24.647 -19.989  28.795  1.00  0.00    -0.341 OA
ATOM     20  C   UNL     1      22.269 -20.422  27.177  1.00  0.00     0.179 C 
ATOM     21  C   UNL     1      24.378 -19.038  27.760  1.00  0.00     0.178 C 
ATOM     22  C   UNL     1      23.403 -19.522  26.632  1.00  0.00     0.177 C 
BRANCH  18  23
ATOM     23  O   UNL     1      22.091 -21.170  29.462  1.00  0.00    -0.385 OA
ATOM     24  H   UNL     1      21.125 -21.348  29.306  1.00  0.00     0.211 HD
ENDBRANCH  18  23
BRANCH  20  25
ATOM     25  O   UNL     1      21.688 -21.122  26.098  1.00  0.00    -0.387 OA
ATOM     26  H   UNL     1      22.131 -22.012  26.065  1.00  0.00     0.211 HD
ENDBRANCH  20  25
BRANCH  21  27
ATOM     27  C   UNL     1      23.896 -17.746  28.451  1.00  0.00     0.191 C 
BRANCH  27  28
ATOM     28  O   UNL     1      24.165 -16.611  27.670  1.00  0.00    -0.394 OA
ATOM     29  H   UNL     1      24.089 -16.897  26.721  1.00  0.00     0.210 HD
ENDBRANCH  27  28
ENDBRANCH  21  27
BRANCH  22  30
ATOM     30  O   UNL     1      22.902 -18.456  25.855  1.00  0.00    -0.387 OA
ATOM     31  H   UNL     1      21.933 -18.354  26.046  1.00  0.00     0.211 HD
ENDBRANCH  22  30
ENDBRANCH   1  17
TORSDOF 10
ENDMDL
MODEL 8
REMARK VINA RESULT:    -6.106      2.501      4.395
REMARK INTER + INTRA:          -9.896
REMARK INTER:                  -8.775
REMARK INTRA:                  -1.121
REMARK UNBOUND:                -1.291
REMARK SMILES OC[C@H]1O[C@H](O[C@@H]2OC=C[C@@H]3[C@H](O)[C@@H]4O[C@]4(CO)[C@@H]23)[C@@H](O)[C@H](O)[C@H]1O
REMARK SMILES IDX 6 1 7 2 10 3 9 4 11 5 8 6 19 7 12 8 16 9 14 10 15 11 13 12
REMARK SMILES IDX 17 14 18 15 5 17 20 18 4 19 22 20 3 21 24 22 21 23 23 25
REMARK SMILES IDX 2 27 1 28 25 30
REMARK H PARENT 13 13 18 16 21 24 23 26 1 29 25 31
REMARK Flexibility Score: inf
ROOT
ATOM      1  O   UNL     1      24.522 -23.417  26.886  1.00  0.00    -0.310 OA
ENDROOT
BRANCH   1   2
ATOM      2  C   UNL     1      25.113 -24.647  27.244  1.00  0.00     0.315 C 
ATOM      3  C   UNL     1      27.086 -26.024  28.867  1.00  0.00     0.018 C 
ATOM      4  C   UNL     1      25.921 -25.632  29.413  1.00  0.00     0.186 C 
ATOM      5  C   UNL     1      27.271 -25.839  27.388  1.00  0.00     0.059 C 
ATOM      6  O   UNL     1      24.967 -24.915  28.658  1.00  0.00    -0.472 OA
ATOM      7  C   UNL     1      26.614 -24.548  26.956  1.00  0.00     0.105 C 
ATOM      8  C   UNL     1      28.682 -25.731  26.817  1.00  0.00     0.154 C 
ATOM      9  C   UNL     1      27.142 -24.342  25.543  1.00  0.00     0.130 C 
ATOM     10  C   UNL     1      28.456 -25.039  25.457  1.00  0.00     0.183 C 
ATOM     11  O   UNL     1      28.356 -23.627  25.490  1.00  0.00    -0.360 OA
BRANCH   8  12
ATOM     12  O   UNL     1      29.503 -24.945  27.646  1.00  0.00    -0.390 OA
ATOM     13  H   UNL     1      29.902 -25.559  28.319  1.00  0.00     0.211 HD
ENDBRANCH   8  12
BRANCH   9  14
ATOM     14  C   UNL     1      26.290 -24.339  24.267  1.00  0.00     0.195 C 
BRANCH  14  15
ATOM     15  O   UNL     1      25.771 -23.057  24.021  1.00  0.00    -0.393 OA
ATOM     16  H   UNL     1      25.827 -22.559  24.878  1.00  0.00     0.210 HD
ENDBRANCH  14  15
ENDBRANCH   9  14
ENDBRANCH   1   2
BRANCH   1  17
ATOM     17  C   UNL     1      25.228 -22.284  27.382  1.00  0.00     0.286 C 
ATOM     18  C   UNL     1      24.515 -21.699  28.622  1.00  0.00     0.202 C 
ATOM     19  O   UNL     1      25.334 -21.296  26.369  1.00  0.00    -0.341 OA
ATOM     20  C   UNL     1      23.138 -21.074  28.262  1.00  0.00     0.179 C 
ATOM     21  C   UNL     1      24.084 -20.816  25.866  1.00  0.00     0.178 C 
ATOM     22  C   UNL     1      22.829 -21.142  26.748  1.00  0.00     0.177 C 
BRANCH  18  23
ATOM     23  O   UNL     1      25.327 -20.697  29.200  1.00  0.00    -0.385 OA
ATOM     24  H   UNL     1      24.746 -20.155  29.797  1.00  0.00     0.211 HD
ENDBRANCH  18  23
BRANCH  20  25
ATOM     25  O   UNL     1      22.113 -21.745  28.964  1.00  0.00    -0.387 OA
ATOM     26  H   UNL     1      22.445 -22.665  29.143  1.00  0.00     0.211 HD
ENDBRANCH  20  25
BRANCH  21  27
ATOM     27  C   UNL     1      24.253 -19.305  25.606  1.00  0.00     0.191 C 
BRANCH  27  28
ATOM     28  O   UNL     1      25.118 -19.059  24.528  1.00  0.00    -0.394 OA
ATOM     29  H   UNL     1      24.546 -18.771  23.767  1.00  0.00     0.210 HD
ENDBRANCH  27  28
ENDBRANCH  21  27
BRANCH  22  30
ATOM     30  O   UNL     1      21.707 -20.358  26.405  1.00  0.00    -0.387 OA
ATOM     31  H   UNL     1      22.025 -19.501  26.019  1.00  0.00     0.211 HD
ENDBRANCH  22  30
ENDBRANCH   1  17
TORSDOF 10
ENDMDL
MODEL 9
REMARK VINA RESULT:    -6.091      5.699      8.011
REMARK INTER + INTRA:          -9.874
REMARK INTER:                  -8.883
REMARK INTRA:                  -0.991
REMARK UNBOUND:                -1.291
REMARK SMILES OC[C@H]1O[C@H](O[C@@H]2OC=C[C@@H]3[C@H](O)[C@@H]4O[C@]4(CO)[C@@H]23)[C@@H](O)[C@H](O)[C@H]1O
REMARK SMILES IDX 6 1 7 2 10 3 9 4 11 5 8 6 19 7 12 8 16 9 14 10 15 11 13 12
REMARK SMILES IDX 17 14 18 15 5 17 20 18 4 19 22 20 3 21 24 22 21 23 23 25
REMARK SMILES IDX 2 27 1 28 25 30
REMARK H PARENT 13 13 18 16 21 24 23 26 1 29 25 31
REMARK Flexibility Score: inf
ROOT
ATOM      1  O   UNL     1      24.554 -18.127  28.886  1.00  0.00    -0.310 OA
ENDROOT
BRANCH   1   2
ATOM      2  C   UNL     1      25.784 -18.759  29.167  1.00  0.00     0.315 C 
ATOM      3  C   UNL     1      27.173 -20.856  30.616  1.00  0.00     0.018 C 
ATOM      4  C   UNL     1      26.482 -21.153  29.501  1.00  0.00     0.186 C 
ATOM      5  C   UNL     1      27.300 -19.411  31.004  1.00  0.00     0.059 C 
ATOM      6  O   UNL     1      25.755 -20.161  28.807  1.00  0.00    -0.472 OA
ATOM      7  C   UNL     1      26.014 -18.686  30.680  1.00  0.00     0.105 C 
ATOM      8  C   UNL     1      27.557 -19.047  32.464  1.00  0.00     0.154 C 
ATOM      9  C   UNL     1      26.172 -17.353  31.397  1.00  0.00     0.130 C 
ATOM     10  C   UNL     1      27.099 -17.576  32.543  1.00  0.00     0.183 C 
ATOM     11  O   UNL     1      25.711 -17.370  32.730  1.00  0.00    -0.360 OA
BRANCH   8  12
ATOM     12  O   UNL     1      26.794 -19.854  33.327  1.00  0.00    -0.390 OA
ATOM     13  H   UNL     1      27.368 -20.627  33.578  1.00  0.00     0.211 HD
ENDBRANCH   8  12
BRANCH   9  14
ATOM     14  C   UNL     1      26.250 -15.980  30.717  1.00  0.00     0.195 C 
BRANCH  14  15
ATOM     15  O   UNL     1      24.962 -15.474  30.475  1.00  0.00    -0.393 OA
ATOM     16  H   UNL     1      24.788 -14.794  31.177  1.00  0.00     0.210 HD
ENDBRANCH  14  15
ENDBRANCH   9  14
ENDBRANCH   1   2
BRANCH   1  17
ATOM     17  C   UNL     1      23.420 -18.927  29.202  1.00  0.00     0.286 C 
ATOM     18  C   UNL     1      22.948 -19.717  27.961  1.00  0.00     0.202 C 
ATOM     19  O   UNL     1      22.368 -18.109  29.690  1.00  0.00    -0.341 OA
ATOM     20  C   UNL     1      22.372 -18.783  26.860  1.00  0.00     0.179 C 
ATOM     21  C   UNL     1      21.921 -17.102  28.777  1.00  0.00     0.178 C 
ATOM     22  C   UNL     1      22.362 -17.295  27.285  1.00  0.00     0.177 C 
BRANCH  18  23
ATOM     23  O   UNL     1      21.944 -20.635  28.343  1.00  0.00    -0.385 OA
ATOM     24  H   UNL     1      22.054 -21.445  27.777  1.00  0.00     0.211 HD
ENDBRANCH  18  23
BRANCH  20  25
ATOM     25  O   UNL     1      23.134 -18.912  25.679  1.00  0.00    -0.387 OA
ATOM     26  H   UNL     1      23.985 -18.421  25.835  1.00  0.00     0.211 HD
ENDBRANCH  20  25
BRANCH  21  27
ATOM     27  C   UNL     1      20.390 -16.997  28.937  1.00  0.00     0.191 C 
BRANCH  27  28
ATOM     28  O   UNL     1      19.790 -18.264  29.008  1.00  0.00    -0.394 OA
ATOM     29  H   UNL     1      20.531 -18.924  29.065  1.00  0.00     0.210 HD
ENDBRANCH  27  28
ENDBRANCH  21  27
BRANCH  22  30
ATOM     30  O   UNL     1      21.616 -16.499  26.391  1.00  0.00    -0.387 OA
ATOM     31  H   UNL     1      21.126 -15.810  26.913  1.00  0.00     0.211 HD
ENDBRANCH  22  30
ENDBRANCH   1  17
TORSDOF 10
ENDMDL
