MODEL 1
REMARK VINA RESULT:    -3.847      0.000      0.000
REMARK INTER + INTRA:          -5.821
REMARK INTER:                  -5.871
REMARK INTRA:                   0.049
REMARK UNBOUND:                 0.049
REMARK SMILES CC1=CCC[C@H](C)C(=O)C[C@@H](C(C)C)C(=O)C1
REMARK SMILES IDX 8 1 9 2 6 3 7 4 5 5 4 6 3 7 2 8 1 9 10 11 11 12 15 13 16 14
REMARK SMILES IDX 17 15 12 17 13 18 14 19
REMARK H PARENT
REMARK Flexibility Score: 70.00
ROOT
ATOM      1  C   UNL     1     137.920 184.861 190.931  1.00  0.00     0.136 C 
ATOM      2  O   UNL     1     138.884 184.776 190.181  1.00  0.00    -0.299 OA
ENDROOT
BRANCH   1   3
ATOM      3  C   UNL     1     137.786 186.058 191.844  1.00  0.00     0.053 C 
ATOM      4  C   UNL     1     136.932 187.142 191.176  1.00  0.00     0.016 C 
BRANCH   3   5
ATOM      5  C   UNL     1     137.190 185.657 193.207  1.00  0.00     0.015 C 
BRANCH   5   6
ATOM      6  C   UNL     1     135.793 186.271 193.454  1.00  0.00     0.028 C 
BRANCH   6   7
ATOM      7  C   UNL     1     134.869 185.292 194.140  1.00  0.00    -0.028 C 
ATOM      8  C   UNL     1     133.901 184.536 193.564  1.00  0.00    -0.070 CG0
ATOM      9  C   UNL     1     133.137 183.592 194.459  1.00  0.00     0.039 C 
ATOM     10  G   UNL     1     133.519 184.591 192.095  1.00  0.00     0.000 G0
ENDBRANCH   6   7
ENDBRANCH   5   6
ENDBRANCH   3   5
ENDBRANCH   1   3
BRANCH   1  11
ATOM     11  C   UNL     1     136.905 183.745 190.998  1.00  0.00     0.087 C 
BRANCH  11  12
ATOM     12  C   UNL     1     135.524 184.127 190.412  1.00  0.00     0.066 C 
BRANCH  12  13
ATOM     13  C   UNL     1     134.350 183.653 191.258  1.00  0.00     0.140 C 
ATOM     14  O   UNL     1     134.123 182.452 191.307  1.00  0.00    -0.299 OA
BRANCH  13  15
ATOM     15  C   UNL     1     133.499 184.583 192.094  1.00  0.00     0.106 CG0
ATOM     16  G   UNL     1     133.901 184.527 193.558  1.00  0.00     0.000 G0
ENDBRANCH  13  15
ENDBRANCH  12  13
BRANCH  12  17
ATOM     17  C   UNL     1     135.392 183.732 188.909  1.00  0.00    -0.006 C 
ATOM     18  C   UNL     1     136.172 182.464 188.521  1.00  0.00     0.008 C 
ATOM     19  C   UNL     1     133.918 183.583 188.498  1.00  0.00     0.008 C 
ENDBRANCH  12  17
ENDBRANCH  11  12
ENDBRANCH   1  11
TORSDOF 1
ENDMDL
MODEL 2
REMARK VINA RESULT:    -3.795      1.342      1.800
REMARK INTER + INTRA:          -5.743
REMARK INTER:                  -5.916
REMARK INTRA:                   0.174
REMARK UNBOUND:                 0.049
REMARK SMILES CC1=CCC[C@H](C)C(=O)C[C@@H](C(C)C)C(=O)C1
REMARK SMILES IDX 8 1 9 2 6 3 7 4 5 5 4 6 3 7 2 8 1 9 10 11 11 12 15 13 16 14
REMARK SMILES IDX 17 15 12 17 13 18 14 19
REMARK H PARENT
REMARK Flexibility Score: 70.00
ROOT
ATOM      1  C   UNL     1     137.554 184.546 191.963  1.00  0.00     0.136 C 
ATOM      2  O   UNL     1     137.777 184.033 193.052  1.00  0.00    -0.299 OA
ENDROOT
BRANCH   1   3
ATOM      3  C   UNL     1     137.516 186.053 191.841  1.00  0.00     0.053 C 
ATOM      4  C   UNL     1     138.501 186.523 190.764  1.00  0.00     0.016 C 
BRANCH   3   5
ATOM      5  C   UNL     1     136.091 186.553 191.532  1.00  0.00     0.015 C 
BRANCH   5   6
ATOM      6  C   UNL     1     135.126 186.390 192.727  1.00  0.00     0.028 C 
BRANCH   6   7
ATOM      7  C   UNL     1     133.822 185.753 192.306  1.00  0.00    -0.028 C 
ATOM      8  C   UNL     1     133.482 184.444 192.396  1.00  0.00    -0.070 CG0
ATOM      9  C   UNL     1     132.093 184.057 191.950  1.00  0.00     0.039 C 
ATOM     10  G   UNL     1     134.404 183.342 192.889  1.00  0.00     0.000 G0
ENDBRANCH   6   7
ENDBRANCH   5   6
ENDBRANCH   3   5
ENDBRANCH   1   3
BRANCH   1  11
ATOM     11  C   UNL     1     137.247 183.686 190.760  1.00  0.00     0.087 C 
BRANCH  11  12
ATOM     12  C   UNL     1     135.740 183.379 190.586  1.00  0.00     0.066 C 
BRANCH  12  13
ATOM     13  C   UNL     1     135.127 182.644 191.771  1.00  0.00     0.140 C 
ATOM     14  O   UNL     1     135.282 181.433 191.840  1.00  0.00    -0.299 OA
BRANCH  13  15
ATOM     15  C   UNL     1     134.401 183.345 192.898  1.00  0.00     0.106 CG0
ATOM     16  G   UNL     1     133.482 184.432 192.367  1.00  0.00     0.000 G0
ENDBRANCH  13  15
ENDBRANCH  12  13
BRANCH  12  17
ATOM     17  C   UNL     1     135.433 182.695 189.219  1.00  0.00    -0.006 C 
ATOM     18  C   UNL     1     134.878 183.650 188.148  1.00  0.00     0.008 C 
ATOM     19  C   UNL     1     136.667 181.960 188.671  1.00  0.00     0.008 C 
ENDBRANCH  12  17
ENDBRANCH  11  12
ENDBRANCH   1  11
TORSDOF 1
ENDMDL
MODEL 3
REMARK VINA RESULT:    -3.630      1.716      4.071
REMARK INTER + INTRA:          -5.491
REMARK INTER:                  -5.130
REMARK INTRA:                  -0.362
REMARK UNBOUND:                 0.049
REMARK SMILES CC1=CCC[C@H](C)C(=O)C[C@@H](C(C)C)C(=O)C1
REMARK SMILES IDX 8 1 9 2 6 3 7 4 5 5 4 6 3 7 2 8 1 9 10 11 11 12 15 13 16 14
REMARK SMILES IDX 17 15 12 17 13 18 14 19
REMARK H PARENT
REMARK Flexibility Score: 70.00
ROOT
ATOM      1  C   UNL     1     136.244 186.191 192.459  1.00  0.00     0.136 C 
ATOM      2  O   UNL     1     136.894 186.567 193.425  1.00  0.00    -0.299 OA
ENDROOT
BRANCH   1   3
ATOM      3  C   UNL     1     136.953 185.852 191.167  1.00  0.00     0.053 C 
ATOM      4  C   UNL     1     137.822 187.030 190.714  1.00  0.00     0.016 C 
BRANCH   3   5
ATOM      5  C   UNL     1     137.800 184.573 191.313  1.00  0.00     0.015 C 
BRANCH   5   6
ATOM      6  C   UNL     1     137.097 183.320 190.744  1.00  0.00     0.028 C 
BRANCH   6   7
ATOM      7  C   UNL     1     136.213 183.665 189.568  1.00  0.00    -0.028 C 
ATOM      8  C   UNL     1     134.860 183.592 189.510  1.00  0.00    -0.070 CG0
ATOM      9  C   UNL     1     134.198 184.040 188.230  1.00  0.00     0.039 C 
ATOM     10  G   UNL     1     133.972 183.072 190.627  1.00  0.00     0.000 G0
ENDBRANCH   6   7
ENDBRANCH   5   6
ENDBRANCH   3   5
ENDBRANCH   1   3
BRANCH   1  11
ATOM     11  C   UNL     1     134.736 186.133 192.528  1.00  0.00     0.087 C 
BRANCH  11  12
ATOM     12  C   UNL     1     134.180 184.702 192.724  1.00  0.00     0.066 C 
BRANCH  12  13
ATOM     13  C   UNL     1     133.420 184.173 191.514  1.00  0.00     0.140 C 
ATOM     14  O   UNL     1     132.362 184.710 191.218  1.00  0.00    -0.299 OA
BRANCH  13  15
ATOM     15  C   UNL     1     133.944 183.068 190.622  1.00  0.00     0.106 CG0
ATOM     16  G   UNL     1     134.835 183.625 189.525  1.00  0.00     0.000 G0
ENDBRANCH  13  15
ENDBRANCH  12  13
BRANCH  12  17
ATOM     17  C   UNL     1     133.382 184.556 194.056  1.00  0.00    -0.006 C 
ATOM     18  C   UNL     1     133.260 183.109 194.562  1.00  0.00     0.008 C 
ATOM     19  C   UNL     1     133.975 185.446 195.161  1.00  0.00     0.008 C 
ENDBRANCH  12  17
ENDBRANCH  11  12
ENDBRANCH   1  11
TORSDOF 1
ENDMDL
MODEL 4
REMARK VINA RESULT:    -3.605      1.839      3.659
REMARK INTER + INTRA:          -5.453
REMARK INTER:                  -5.273
REMARK INTRA:                  -0.180
REMARK UNBOUND:                 0.049
REMARK SMILES CC1=CCC[C@H](C)C(=O)C[C@@H](C(C)C)C(=O)C1
REMARK SMILES IDX 8 1 9 2 6 3 7 4 5 5 4 6 3 7 2 8 1 9 10 11 11 12 15 13 16 14
REMARK SMILES IDX 17 15 12 17 13 18 14 19
REMARK H PARENT
REMARK Flexibility Score: 70.00
ROOT
ATOM      1  C   UNL     1     135.462 183.919 189.183  1.00  0.00     0.136 C 
ATOM      2  O   UNL     1     134.483 183.950 188.449  1.00  0.00    -0.299 OA
ENDROOT
BRANCH   1   3
ATOM      3  C   UNL     1     136.170 182.605 189.431  1.00  0.00     0.053 C 
ATOM      4  C   UNL     1     137.689 182.807 189.396  1.00  0.00     0.016 C 
BRANCH   3   5
ATOM      5  C   UNL     1     135.734 181.979 190.770  1.00  0.00     0.015 C 
BRANCH   5   6
ATOM      6  C   UNL     1     134.202 181.810 190.882  1.00  0.00     0.028 C 
BRANCH   6   7
ATOM      7  C   UNL     1     133.702 182.178 192.260  1.00  0.00    -0.028 C 
ATOM      8  C   UNL     1     133.247 183.386 192.672  1.00  0.00    -0.070 CG0
ATOM      9  C   UNL     1     132.754 183.491 194.095  1.00  0.00     0.039 C 
ATOM     10  G   UNL     1     133.220 184.640 191.815  1.00  0.00     0.000 G0
ENDBRANCH   6   7
ENDBRANCH   5   6
ENDBRANCH   3   5
ENDBRANCH   1   3
BRANCH   1  11
ATOM     11  C   UNL     1     135.922 185.168 189.897  1.00  0.00     0.087 C 
BRANCH  11  12
ATOM     12  C   UNL     1     135.848 185.063 191.440  1.00  0.00     0.066 C 
BRANCH  12  13
ATOM     13  C   UNL     1     134.497 185.467 192.014  1.00  0.00     0.140 C 
ATOM     14  O   UNL     1     134.420 186.531 192.612  1.00  0.00    -0.299 OA
BRANCH  13  15
ATOM     15  C   UNL     1     133.235 184.655 191.821  1.00  0.00     0.106 CG0
ATOM     16  G   UNL     1     133.267 183.385 192.653  1.00  0.00     0.000 G0
ENDBRANCH  13  15
ENDBRANCH  12  13
BRANCH  12  17
ATOM     17  C   UNL     1     137.046 185.778 192.137  1.00  0.00    -0.006 C 
ATOM     18  C   UNL     1     137.770 184.916 193.185  1.00  0.00     0.008 C 
ATOM     19  C   UNL     1     138.059 186.304 191.107  1.00  0.00     0.008 C 
ENDBRANCH  12  17
ENDBRANCH  11  12
ENDBRANCH   1  11
TORSDOF 1
ENDMDL
MODEL 5
REMARK VINA RESULT:    -3.550      1.778      3.924
REMARK INTER + INTRA:          -5.368
REMARK INTER:                  -5.549
REMARK INTRA:                   0.181
REMARK UNBOUND:                 0.049
REMARK SMILES CC1=CCC[C@H](C)C(=O)C[C@@H](C(C)C)C(=O)C1
REMARK SMILES IDX 8 1 9 2 6 3 7 4 5 5 4 6 3 7 2 8 1 9 10 11 11 12 15 13 16 14
REMARK SMILES IDX 17 15 12 17 13 18 14 19
REMARK H PARENT
REMARK Flexibility Score: 70.00
ROOT
ATOM      1  C   UNL     1     137.697 185.655 192.626  1.00  0.00     0.136 C 
ATOM      2  O   UNL     1     138.553 185.028 193.236  1.00  0.00    -0.299 OA
ENDROOT
BRANCH   1   3
ATOM      3  C   UNL     1     137.763 185.738 191.117  1.00  0.00     0.053 C 
ATOM      4  C   UNL     1     139.049 186.451 190.682  1.00  0.00     0.016 C 
BRANCH   3   5
ATOM      5  C   UNL     1     137.671 184.340 190.475  1.00  0.00     0.015 C 
BRANCH   5   6
ATOM      6  C   UNL     1     136.215 183.908 190.189  1.00  0.00     0.028 C 
BRANCH   6   7
ATOM      7  C   UNL     1     135.686 182.990 191.267  1.00  0.00    -0.028 C 
ATOM      8  C   UNL     1     134.563 183.157 192.007  1.00  0.00    -0.070 CG0
ATOM      9  C   UNL     1     134.218 182.070 192.996  1.00  0.00     0.039 C 
ATOM     10  G   UNL     1     133.645 184.364 191.928  1.00  0.00     0.000 G0
ENDBRANCH   6   7
ENDBRANCH   5   6
ENDBRANCH   3   5
ENDBRANCH   1   3
BRANCH   1  11
ATOM     11  C   UNL     1     136.618 186.402 193.374  1.00  0.00     0.087 C 
BRANCH  11  12
ATOM     12  C   UNL     1     135.346 185.558 193.633  1.00  0.00     0.066 C 
BRANCH  12  13
ATOM     13  C   UNL     1     134.338 185.610 192.492  1.00  0.00     0.140 C 
ATOM     14  O   UNL     1     134.107 186.694 191.975  1.00  0.00    -0.299 OA
BRANCH  13  15
ATOM     15  C   UNL     1     133.665 184.381 191.921  1.00  0.00     0.106 CG0
ATOM     16  G   UNL     1     134.570 183.164 192.021  1.00  0.00     0.000 G0
ENDBRANCH  13  15
ENDBRANCH  12  13
BRANCH  12  17
ATOM     17  C   UNL     1     134.710 185.863 195.023  1.00  0.00    -0.006 C 
ATOM     18  C   UNL     1     133.473 185.009 195.351  1.00  0.00     0.008 C 
ATOM     19  C   UNL     1     135.745 185.734 196.152  1.00  0.00     0.008 C 
ENDBRANCH  12  17
ENDBRANCH  11  12
ENDBRANCH   1  11
TORSDOF 1
ENDMDL
MODEL 6
REMARK VINA RESULT:    -3.480      1.758      4.115
REMARK INTER + INTRA:          -5.262
REMARK INTER:                  -5.306
REMARK INTRA:                   0.044
REMARK UNBOUND:                 0.049
REMARK SMILES CC1=CCC[C@H](C)C(=O)C[C@@H](C(C)C)C(=O)C1
REMARK SMILES IDX 8 1 9 2 6 3 7 4 5 5 4 6 3 7 2 8 1 9 10 11 11 12 15 13 16 14
REMARK SMILES IDX 17 15 12 17 13 18 14 19
REMARK H PARENT
REMARK Flexibility Score: 70.00
ROOT
ATOM      1  C   UNL     1     136.717 183.150 189.240  1.00  0.00     0.136 C 
ATOM      2  O   UNL     1     137.825 182.635 189.304  1.00  0.00    -0.299 OA
ENDROOT
BRANCH   1   3
ATOM      3  C   UNL     1     135.665 182.551 188.334  1.00  0.00     0.053 C 
ATOM      4  C   UNL     1     135.278 181.151 188.824  1.00  0.00     0.016 C 
BRANCH   3   5
ATOM      5  C   UNL     1     134.423 183.460 188.242  1.00  0.00     0.015 C 
BRANCH   5   6
ATOM      6  C   UNL     1     133.133 182.762 188.728  1.00  0.00     0.028 C 
BRANCH   6   7
ATOM      7  C   UNL     1     132.416 183.585 189.773  1.00  0.00    -0.028 C 
ATOM      8  C   UNL     1     132.791 183.784 191.061  1.00  0.00    -0.070 CG0
ATOM      9  C   UNL     1     131.928 184.693 191.901  1.00  0.00     0.039 C 
ATOM     10  G   UNL     1     134.000 183.142 191.720  1.00  0.00     0.000 G0
ENDBRANCH   6   7
ENDBRANCH   5   6
ENDBRANCH   3   5
ENDBRANCH   1   3
BRANCH   1  11
ATOM     11  C   UNL     1     136.418 184.418 190.005  1.00  0.00     0.087 C 
BRANCH  11  12
ATOM     12  C   UNL     1     136.437 184.235 191.542  1.00  0.00     0.066 C 
BRANCH  12  13
ATOM     13  C   UNL     1     135.049 184.146 192.162  1.00  0.00     0.140 C 
ATOM     14  O   UNL     1     134.740 184.977 193.005  1.00  0.00    -0.299 OA
BRANCH  13  15
ATOM     15  C   UNL     1     134.011 183.131 191.736  1.00  0.00     0.106 CG0
ATOM     16  G   UNL     1     132.818 183.807 191.082  1.00  0.00     0.000 G0
ENDBRANCH  13  15
ENDBRANCH  12  13
BRANCH  12  17
ATOM     17  C   UNL     1     137.356 185.277 192.248  1.00  0.00    -0.006 C 
ATOM     18  C   UNL     1     138.166 184.707 193.425  1.00  0.00     0.008 C 
ATOM     19  C   UNL     1     138.302 185.958 191.246  1.00  0.00     0.008 C 
ENDBRANCH  12  17
ENDBRANCH  11  12
ENDBRANCH   1  11
TORSDOF 1
ENDMDL
MODEL 7
REMARK VINA RESULT:    -3.133      1.664      3.854
REMARK INTER + INTRA:          -4.733
REMARK INTER:                  -4.512
REMARK INTRA:                  -0.221
REMARK UNBOUND:                 0.049
REMARK SMILES CC1=CCC[C@H](C)C(=O)C[C@@H](C(C)C)C(=O)C1
REMARK SMILES IDX 8 1 9 2 6 3 7 4 5 5 4 6 3 7 2 8 1 9 10 11 11 12 15 13 16 14
REMARK SMILES IDX 17 15 12 17 13 18 14 19
REMARK H PARENT
REMARK Flexibility Score: 70.00
ROOT
ATOM      1  C   UNL     1     133.814 183.638 193.104  1.00  0.00     0.136 C 
ATOM      2  O   UNL     1     134.193 182.479 193.203  1.00  0.00    -0.299 OA
ENDROOT
BRANCH   1   3
ATOM      3  C   UNL     1     133.136 184.306 194.280  1.00  0.00     0.053 C 
ATOM      4  C   UNL     1     131.790 183.631 194.569  1.00  0.00     0.016 C 
BRANCH   3   5
ATOM      5  C   UNL     1     134.036 184.286 195.530  1.00  0.00     0.015 C 
BRANCH   5   6
ATOM      6  C   UNL     1     134.847 185.590 195.705  1.00  0.00     0.028 C 
BRANCH   6   7
ATOM      7  C   UNL     1     136.265 185.433 195.209  1.00  0.00    -0.028 C 
ATOM      8  C   UNL     1     136.768 185.845 194.019  1.00  0.00    -0.070 CG0
ATOM      9  C   UNL     1     138.239 185.614 193.772  1.00  0.00     0.039 C 
ATOM     10  G   UNL     1     135.955 186.498 192.915  1.00  0.00     0.000 G0
ENDBRANCH   6   7
ENDBRANCH   5   6
ENDBRANCH   3   5
ENDBRANCH   1   3
BRANCH   1  11
ATOM     11  C   UNL     1     133.955 184.380 191.796  1.00  0.00     0.087 C 
BRANCH  11  12
ATOM     12  C   UNL     1     135.413 184.458 191.282  1.00  0.00     0.066 C 
BRANCH  12  13
ATOM     13  C   UNL     1     136.101 185.779 191.600  1.00  0.00     0.140 C 
ATOM     14  O   UNL     1     136.768 186.308 190.722  1.00  0.00    -0.299 OA
BRANCH  13  15
ATOM     15  C   UNL     1     135.942 186.503 192.920  1.00  0.00     0.106 CG0
ATOM     16  G   UNL     1     136.773 185.847 194.009  1.00  0.00     0.000 G0
ENDBRANCH  13  15
ENDBRANCH  12  13
BRANCH  12  17
ATOM     17  C   UNL     1     135.531 184.055 189.781  1.00  0.00    -0.006 C 
ATOM     18  C   UNL     1     136.636 183.024 189.490  1.00  0.00     0.008 C 
ATOM     19  C   UNL     1     134.188 183.546 189.231  1.00  0.00     0.008 C 
ENDBRANCH  12  17
ENDBRANCH  11  12
ENDBRANCH   1  11
TORSDOF 1
ENDMDL
MODEL 8
REMARK VINA RESULT:    -3.131      1.783      2.743
REMARK INTER + INTRA:          -4.730
REMARK INTER:                  -4.458
REMARK INTRA:                  -0.272
REMARK UNBOUND:                 0.049
REMARK SMILES CC1=CCC[C@H](C)C(=O)C[C@@H](C(C)C)C(=O)C1
REMARK SMILES IDX 8 1 9 2 6 3 7 4 5 5 4 6 3 7 2 8 1 9 10 11 11 12 15 13 16 14
REMARK SMILES IDX 17 15 12 17 13 18 14 19
REMARK H PARENT
REMARK Flexibility Score: 70.00
ROOT
ATOM      1  C   UNL     1     135.358 183.473 189.704  1.00  0.00     0.136 C 
ATOM      2  O   UNL     1     135.662 183.553 188.521  1.00  0.00    -0.299 OA
ENDROOT
BRANCH   1   3
ATOM      3  C   UNL     1     136.200 184.182 190.742  1.00  0.00     0.053 C 
ATOM      4  C   UNL     1     137.688 183.908 190.494  1.00  0.00     0.016 C 
BRANCH   3   5
ATOM      5  C   UNL     1     135.918 185.697 190.750  1.00  0.00     0.015 C 
BRANCH   5   6
ATOM      6  C   UNL     1     135.154 186.157 192.012  1.00  0.00     0.028 C 
BRANCH   6   7
ATOM      7  C   UNL     1     135.333 185.185 193.156  1.00  0.00    -0.028 C 
ATOM      8  C   UNL     1     134.402 184.349 193.675  1.00  0.00    -0.070 CG0
ATOM      9  C   UNL     1     134.840 183.433 194.792  1.00  0.00     0.039 C 
ATOM     10  G   UNL     1     132.951 184.285 193.230  1.00  0.00     0.000 G0
ENDBRANCH   6   7
ENDBRANCH   5   6
ENDBRANCH   3   5
ENDBRANCH   1   3
BRANCH   1  11
ATOM     11  C   UNL     1     134.193 182.616 190.138  1.00  0.00     0.087 C 
BRANCH  11  12
ATOM     12  C   UNL     1     132.998 183.429 190.692  1.00  0.00     0.066 C 
BRANCH  12  13
ATOM     13  C   UNL     1     132.750 183.212 192.179  1.00  0.00     0.140 C 
ATOM     14  O   UNL     1     132.437 182.090 192.554  1.00  0.00    -0.299 OA
BRANCH  13  15
ATOM     15  C   UNL     1     132.943 184.293 193.221  1.00  0.00     0.106 CG0
ATOM     16  G   UNL     1     134.388 184.358 193.683  1.00  0.00     0.000 G0
ENDBRANCH  13  15
ENDBRANCH  12  13
BRANCH  12  17
ATOM     17  C   UNL     1     131.712 183.250 189.828  1.00  0.00    -0.006 C 
ATOM     18  C   UNL     1     130.467 183.949 190.399  1.00  0.00     0.008 C 
ATOM     19  C   UNL     1     131.946 183.707 188.379  1.00  0.00     0.008 C 
ENDBRANCH  12  17
ENDBRANCH  11  12
ENDBRANCH   1  11
TORSDOF 1
ENDMDL
MODEL 9
REMARK VINA RESULT:    -3.126      2.560      4.921
REMARK INTER + INTRA:          -4.722
REMARK INTER:                  -4.852
REMARK INTRA:                   0.131
REMARK UNBOUND:                 0.049
REMARK SMILES CC1=CCC[C@H](C)C(=O)C[C@@H](C(C)C)C(=O)C1
REMARK SMILES IDX 8 1 9 2 6 3 7 4 5 5 4 6 3 7 2 8 1 9 10 11 11 12 15 13 16 14
REMARK SMILES IDX 17 15 12 17 13 18 14 19
REMARK H PARENT
REMARK Flexibility Score: 70.00
ROOT
ATOM      1  C   UNL     1     133.963 182.815 187.566  1.00  0.00     0.136 C 
ATOM      2  O   UNL     1     134.295 181.646 187.423  1.00  0.00    -0.299 OA
ENDROOT
BRANCH   1   3
ATOM      3  C   UNL     1     132.853 183.387 186.712  1.00  0.00     0.053 C 
ATOM      4  C   UNL     1     133.119 183.094 185.231  1.00  0.00     0.016 C 
BRANCH   3   5
ATOM      5  C   UNL     1     131.479 182.836 187.139  1.00  0.00     0.015 C 
BRANCH   5   6
ATOM      6  C   UNL     1     130.845 183.639 188.297  1.00  0.00     0.028 C 
BRANCH   6   7
ATOM      7  C   UNL     1     130.735 182.808 189.555  1.00  0.00    -0.028 C 
ATOM      8  C   UNL     1     131.524 182.877 190.655  1.00  0.00    -0.070 CG0
ATOM      9  C   UNL     1     131.182 181.968 191.810  1.00  0.00     0.039 C 
ATOM     10  G   UNL     1     132.735 183.783 190.797  1.00  0.00     0.000 G0
ENDBRANCH   6   7
ENDBRANCH   5   6
ENDBRANCH   3   5
ENDBRANCH   1   3
BRANCH   1  11
ATOM     11  C   UNL     1     134.701 183.706 188.537  1.00  0.00     0.087 C 
BRANCH  11  12
ATOM     12  C   UNL     1     135.117 182.987 189.843  1.00  0.00     0.066 C 
BRANCH  12  13
ATOM     13  C   UNL     1     134.019 182.957 190.898  1.00  0.00     0.140 C 
ATOM     14  O   UNL     1     134.203 182.284 191.902  1.00  0.00    -0.299 OA
BRANCH  13  15
ATOM     15  C   UNL     1     132.748 183.773 190.799  1.00  0.00     0.106 CG0
ATOM     16  G   UNL     1     131.531 182.876 190.654  1.00  0.00     0.000 G0
ENDBRANCH  13  15
ENDBRANCH  12  13
BRANCH  12  17
ATOM     17  C   UNL     1     136.479 183.510 190.395  1.00  0.00    -0.006 C 
ATOM     18  C   UNL     1     137.708 182.999 189.625  1.00  0.00     0.008 C 
ATOM     19  C   UNL     1     136.504 185.046 190.457  1.00  0.00     0.008 C 
ENDBRANCH  12  17
ENDBRANCH  11  12
ENDBRANCH   1  11
TORSDOF 1
ENDMDL
