MODEL 1
REMARK VINA RESULT:    -6.251      0.000      0.000
REMARK INTER + INTRA:          -7.473
REMARK INTER:                  -7.348
REMARK INTRA:                  -0.125
REMARK UNBOUND:                -0.125
REMARK SMILES O=C([O-])C=Cc1ccc(O)c(O)c1
REMARK SMILES IDX 6 1 13 2 7 3 11 4 8 5 9 6 5 7 4 8 2 9 1 10 3 11 12 12 10 14
REMARK H PARENT 12 13 10 15
REMARK Flexibility Score: inf
ROOT
ATOM      1  C   UNL     1     -14.165 -27.763 -11.921  1.00  0.00    -0.022 A 
ATOM      2  C   UNL     1     -13.872 -27.876 -13.290  1.00  0.00     0.058 A 
ATOM      3  C   UNL     1     -14.579 -26.516 -11.414  1.00  0.00     0.012 A 
ATOM      4  C   UNL     1     -13.963 -26.765 -14.137  1.00  0.00     0.157 A 
ATOM      5  C   UNL     1     -14.671 -25.406 -12.258  1.00  0.00     0.051 A 
ATOM      6  C   UNL     1     -14.363 -25.522 -13.619  1.00  0.00     0.157 A 
ENDROOT
BRANCH   1   7
ATOM      7  C   UNL     1     -14.061 -28.975 -11.071  1.00  0.00     0.010 C 
ATOM      8  C   UNL     1     -12.909 -29.606 -10.809  1.00  0.00     0.025 C 
BRANCH   8   9
ATOM      9  C   UNL     1     -12.855 -30.812  -9.969  1.00  0.00     0.064 C 
ATOM     10  O   UNL     1     -12.231 -30.780  -8.875  1.00  0.00    -0.545 OA
ATOM     11  O   UNL     1     -13.483 -31.989 -10.360  1.00  0.00    -0.545 OA
ENDBRANCH   8   9
ENDBRANCH   1   7
BRANCH   4  12
ATOM     12  O   UNL     1     -13.654 -26.916 -15.489  1.00  0.00    -0.504 OA
ATOM     13  H   UNL     1     -13.101 -27.693 -15.830  1.00  0.00     0.293 HD
ENDBRANCH   4  12
BRANCH   6  14
ATOM     14  O   UNL     1     -14.454 -24.411 -14.456  1.00  0.00    -0.504 OA
ATOM     15  H   UNL     1     -13.750 -24.216 -15.157  1.00  0.00     0.293 HD
ENDBRANCH   6  14
TORSDOF 4
ENDMDL
MODEL 2
REMARK VINA RESULT:    -5.907      1.998      2.274
REMARK INTER + INTRA:          -7.069
REMARK INTER:                  -6.930
REMARK INTRA:                  -0.139
REMARK UNBOUND:                -0.125
REMARK SMILES O=C([O-])C=Cc1ccc(O)c(O)c1
REMARK SMILES IDX 6 1 13 2 7 3 11 4 8 5 9 6 5 7 4 8 2 9 1 10 3 11 12 12 10 14
REMARK H PARENT 12 13 10 15
REMARK Flexibility Score: inf
ROOT
ATOM      1  C   UNL     1     -13.780 -28.050 -13.348  1.00  0.00    -0.022 A 
ATOM      2  C   UNL     1     -13.219 -27.156 -14.275  1.00  0.00     0.058 A 
ATOM      3  C   UNL     1     -14.757 -27.575 -12.452  1.00  0.00     0.012 A 
ATOM      4  C   UNL     1     -13.601 -25.809 -14.296  1.00  0.00     0.157 A 
ATOM      5  C   UNL     1     -15.140 -26.231 -12.470  1.00  0.00     0.051 A 
ATOM      6  C   UNL     1     -14.565 -25.343 -13.387  1.00  0.00     0.157 A 
ENDROOT
BRANCH   1   7
ATOM      7  C   UNL     1     -13.345 -29.469 -13.378  1.00  0.00     0.010 C 
ATOM      8  C   UNL     1     -14.133 -30.496 -13.035  1.00  0.00     0.025 C 
BRANCH   8   9
ATOM      9  C   UNL     1     -13.655 -31.888 -13.069  1.00  0.00     0.064 C 
ATOM     10  O   UNL     1     -12.630 -32.209 -12.412  1.00  0.00    -0.545 OA
ATOM     11  O   UNL     1     -14.318 -32.857 -13.814  1.00  0.00    -0.545 OA
ENDBRANCH   8   9
ENDBRANCH   1   7
BRANCH   4  12
ATOM     12  O   UNL     1     -13.012 -24.952 -15.225  1.00  0.00    -0.504 OA
ATOM     13  H   UNL     1     -13.284 -23.979 -15.307  1.00  0.00     0.293 HD
ENDBRANCH   4  12
BRANCH   6  14
ATOM     14  O   UNL     1     -14.949 -24.003 -13.400  1.00  0.00    -0.504 OA
ATOM     15  H   UNL     1     -14.275 -23.257 -13.280  1.00  0.00     0.293 HD
ENDBRANCH   6  14
TORSDOF 4
ENDMDL
MODEL 3
REMARK VINA RESULT:    -5.843      1.952      2.267
REMARK INTER + INTRA:          -6.993
REMARK INTER:                  -6.867
REMARK INTRA:                  -0.125
REMARK UNBOUND:                -0.125
REMARK SMILES O=C([O-])C=Cc1ccc(O)c(O)c1
REMARK SMILES IDX 6 1 13 2 7 3 11 4 8 5 9 6 5 7 4 8 2 9 1 10 3 11 12 12 10 14
REMARK H PARENT 12 13 10 15
REMARK Flexibility Score: inf
ROOT
ATOM      1  C   UNL     1     -12.885 -27.140 -12.336  1.00  0.00    -0.022 A 
ATOM      2  C   UNL     1     -12.468 -26.495 -13.512  1.00  0.00     0.058 A 
ATOM      3  C   UNL     1     -14.068 -26.705 -11.705  1.00  0.00     0.012 A 
ATOM      4  C   UNL     1     -13.196 -25.422 -14.039  1.00  0.00     0.157 A 
ATOM      5  C   UNL     1     -14.796 -25.634 -12.230  1.00  0.00     0.051 A 
ATOM      6  C   UNL     1     -14.365 -24.987 -13.394  1.00  0.00     0.157 A 
ENDROOT
BRANCH   1   7
ATOM      7  C   UNL     1     -12.081 -28.278 -11.826  1.00  0.00     0.010 C 
ATOM      8  C   UNL     1     -10.982 -28.136 -11.074  1.00  0.00     0.025 C 
BRANCH   8   9
ATOM      9  C   UNL     1     -10.209 -29.295 -10.600  1.00  0.00     0.064 C 
ATOM     10  O   UNL     1     -10.694 -30.044  -9.711  1.00  0.00    -0.545 OA
ATOM     11  O   UNL     1      -8.950 -29.579 -11.117  1.00  0.00    -0.545 OA
ENDBRANCH   8   9
ENDBRANCH   1   7
BRANCH   4  12
ATOM     12  O   UNL     1     -12.742 -24.802 -15.203  1.00  0.00    -0.504 OA
ATOM     13  H   UNL     1     -13.285 -24.801 -16.059  1.00  0.00     0.293 HD
ENDBRANCH   4  12
BRANCH   6  14
ATOM     14  O   UNL     1     -15.094 -23.918 -13.912  1.00  0.00    -0.504 OA
ATOM     15  H   UNL     1     -16.067 -23.773 -13.672  1.00  0.00     0.293 HD
ENDBRANCH   6  14
TORSDOF 4
ENDMDL
MODEL 4
REMARK VINA RESULT:    -5.674      7.131      9.234
REMARK INTER + INTRA:          -6.794
REMARK INTER:                  -6.661
REMARK INTRA:                  -0.133
REMARK UNBOUND:                -0.125
REMARK SMILES O=C([O-])C=Cc1ccc(O)c(O)c1
REMARK SMILES IDX 6 1 13 2 7 3 11 4 8 5 9 6 5 7 4 8 2 9 1 10 3 11 12 12 10 14
REMARK H PARENT 12 13 10 15
REMARK Flexibility Score: inf
ROOT
ATOM      1  C   UNL     1     -17.199 -35.585 -12.566  1.00  0.00    -0.022 A 
ATOM      2  C   UNL     1     -18.205 -34.667 -12.909  1.00  0.00     0.058 A 
ATOM      3  C   UNL     1     -17.571 -36.825 -12.009  1.00  0.00     0.012 A 
ATOM      4  C   UNL     1     -19.554 -34.961 -12.679  1.00  0.00     0.157 A 
ATOM      5  C   UNL     1     -18.917 -37.120 -11.778  1.00  0.00     0.051 A 
ATOM      6  C   UNL     1     -19.913 -36.194 -12.109  1.00  0.00     0.157 A 
ENDROOT
BRANCH   1   7
ATOM      7  C   UNL     1     -15.785 -35.226 -12.840  1.00  0.00     0.010 C 
ATOM      8  C   UNL     1     -15.409 -34.091 -13.445  1.00  0.00     0.025 C 
BRANCH   8   9
ATOM      9  C   UNL     1     -13.995 -33.781 -13.707  1.00  0.00     0.064 C 
ATOM     10  O   UNL     1     -13.555 -32.628 -13.455  1.00  0.00    -0.545 OA
ATOM     11  O   UNL     1     -13.133 -34.740 -14.227  1.00  0.00    -0.545 OA
ENDBRANCH   8   9
ENDBRANCH   1   7
BRANCH   4  12
ATOM     12  O   UNL     1     -20.522 -34.018 -13.024  1.00  0.00    -0.504 OA
ATOM     13  H   UNL     1     -20.530 -33.562 -13.928  1.00  0.00     0.293 HD
ENDBRANCH   4  12
BRANCH   6  14
ATOM     14  O   UNL     1     -21.254 -36.493 -11.876  1.00  0.00    -0.504 OA
ATOM     15  H   UNL     1     -21.587 -37.449 -11.847  1.00  0.00     0.293 HD
ENDBRANCH   6  14
TORSDOF 4
ENDMDL
MODEL 5
REMARK VINA RESULT:    -5.630      2.297      2.746
REMARK INTER + INTRA:          -6.742
REMARK INTER:                  -6.614
REMARK INTRA:                  -0.128
REMARK UNBOUND:                -0.125
REMARK SMILES O=C([O-])C=Cc1ccc(O)c(O)c1
REMARK SMILES IDX 6 1 13 2 7 3 11 4 8 5 9 6 5 7 4 8 2 9 1 10 3 11 12 12 10 14
REMARK H PARENT 12 13 10 15
REMARK Flexibility Score: inf
ROOT
ATOM      1  C   UNL     1     -14.086 -29.055 -13.004  1.00  0.00    -0.022 A 
ATOM      2  C   UNL     1     -13.163 -28.434 -13.863  1.00  0.00     0.058 A 
ATOM      3  C   UNL     1     -15.123 -28.281 -12.447  1.00  0.00     0.012 A 
ATOM      4  C   UNL     1     -13.252 -27.066 -14.143  1.00  0.00     0.157 A 
ATOM      5  C   UNL     1     -15.213 -26.915 -12.725  1.00  0.00     0.051 A 
ATOM      6  C   UNL     1     -14.281 -26.300 -13.570  1.00  0.00     0.157 A 
ENDROOT
BRANCH   1   7
ATOM      7  C   UNL     1     -13.952 -30.511 -12.750  1.00  0.00     0.010 C 
ATOM      8  C   UNL     1     -14.468 -31.458 -13.544  1.00  0.00     0.025 C 
BRANCH   8   9
ATOM      9  C   UNL     1     -14.319 -32.890 -13.246  1.00  0.00     0.064 C 
ATOM     10  O   UNL     1     -14.994 -33.734 -13.893  1.00  0.00    -0.545 OA
ATOM     11  O   UNL     1     -13.443 -33.332 -12.261  1.00  0.00    -0.545 OA
ENDBRANCH   8   9
ENDBRANCH   1   7
BRANCH   4  12
ATOM     12  O   UNL     1     -12.310 -26.486 -14.992  1.00  0.00    -0.504 OA
ATOM     13  H   UNL     1     -12.114 -26.859 -15.913  1.00  0.00     0.293 HD
ENDBRANCH   4  12
BRANCH   6  14
ATOM     14  O   UNL     1     -14.374 -24.937 -13.843  1.00  0.00    -0.504 OA
ATOM     15  H   UNL     1     -15.241 -24.516 -14.153  1.00  0.00     0.293 HD
ENDBRANCH   6  14
TORSDOF 4
ENDMDL
MODEL 6
REMARK VINA RESULT:    -5.387      2.106      2.824
REMARK INTER + INTRA:          -6.457
REMARK INTER:                  -6.321
REMARK INTRA:                  -0.136
REMARK UNBOUND:                -0.125
REMARK SMILES O=C([O-])C=Cc1ccc(O)c(O)c1
REMARK SMILES IDX 6 1 13 2 7 3 11 4 8 5 9 6 5 7 4 8 2 9 1 10 3 11 12 12 10 14
REMARK H PARENT 12 13 10 15
REMARK Flexibility Score: inf
ROOT
ATOM      1  C   UNL     1     -13.932 -28.386 -12.725  1.00  0.00    -0.022 A 
ATOM      2  C   UNL     1     -14.361 -27.536 -11.692  1.00  0.00     0.058 A 
ATOM      3  C   UNL     1     -13.623 -27.827 -13.981  1.00  0.00     0.012 A 
ATOM      4  C   UNL     1     -14.503 -26.160 -11.908  1.00  0.00     0.157 A 
ATOM      5  C   UNL     1     -13.765 -26.454 -14.198  1.00  0.00     0.051 A 
ATOM      6  C   UNL     1     -14.206 -25.615 -13.168  1.00  0.00     0.157 A 
ENDROOT
BRANCH   1   7
ATOM      7  C   UNL     1     -13.789 -29.835 -12.439  1.00  0.00     0.010 C 
ATOM      8  C   UNL     1     -14.130 -30.802 -13.301  1.00  0.00     0.025 C 
BRANCH   8   9
ATOM      9  C   UNL     1     -13.980 -32.228 -12.970  1.00  0.00     0.064 C 
ATOM     10  O   UNL     1     -13.388 -32.560 -11.909  1.00  0.00    -0.545 OA
ATOM     11  O   UNL     1     -14.483 -33.217 -13.807  1.00  0.00    -0.545 OA
ENDBRANCH   8   9
ENDBRANCH   1   7
BRANCH   4  12
ATOM     12  O   UNL     1     -14.941 -25.352 -10.858  1.00  0.00    -0.504 OA
ATOM     13  H   UNL     1     -15.381 -24.454 -11.019  1.00  0.00     0.293 HD
ENDBRANCH   4  12
BRANCH   6  14
ATOM     14  O   UNL     1     -14.347 -24.247 -13.390  1.00  0.00    -0.504 OA
ATOM     15  H   UNL     1     -14.637 -23.883 -14.289  1.00  0.00     0.293 HD
ENDBRANCH   6  14
TORSDOF 4
ENDMDL
MODEL 7
REMARK VINA RESULT:    -5.200      1.365      5.812
REMARK INTER + INTRA:          -6.237
REMARK INTER:                  -6.103
REMARK INTRA:                  -0.134
REMARK UNBOUND:                -0.125
REMARK SMILES O=C([O-])C=Cc1ccc(O)c(O)c1
REMARK SMILES IDX 6 1 13 2 7 3 11 4 8 5 9 6 5 7 4 8 2 9 1 10 3 11 12 12 10 14
REMARK H PARENT 12 13 10 15
REMARK Flexibility Score: inf
ROOT
ATOM      1  C   UNL     1     -13.459 -28.518 -11.418  1.00  0.00    -0.022 A 
ATOM      2  C   UNL     1     -12.077 -28.744 -11.531  1.00  0.00     0.058 A 
ATOM      3  C   UNL     1     -14.247 -29.454 -10.720  1.00  0.00     0.012 A 
ATOM      4  C   UNL     1     -11.490 -29.891 -10.983  1.00  0.00     0.157 A 
ATOM      5  C   UNL     1     -13.663 -30.600 -10.172  1.00  0.00     0.051 A 
ATOM      6  C   UNL     1     -12.287 -30.825 -10.301  1.00  0.00     0.157 A 
ENDROOT
BRANCH   1   7
ATOM      7  C   UNL     1     -14.027 -27.281 -12.010  1.00  0.00     0.010 C 
ATOM      8  C   UNL     1     -13.498 -26.648 -13.065  1.00  0.00     0.025 C 
BRANCH   8   9
ATOM      9  C   UNL     1     -14.089 -25.417 -13.611  1.00  0.00     0.064 C 
ATOM     10  O   UNL     1     -14.926 -24.772 -12.925  1.00  0.00    -0.545 OA
ATOM     11  O   UNL     1     -13.740 -24.950 -14.873  1.00  0.00    -0.545 OA
ENDBRANCH   8   9
ENDBRANCH   1   7
BRANCH   4  12
ATOM     12  O   UNL     1     -10.117 -30.083 -11.126  1.00  0.00    -0.504 OA
ATOM     13  H   UNL     1      -9.565 -29.553 -11.790  1.00  0.00     0.293 HD
ENDBRANCH   4  12
BRANCH   6  14
ATOM     14  O   UNL     1     -11.710 -31.970  -9.755  1.00  0.00    -0.504 OA
ATOM     15  H   UNL     1     -12.253 -32.807  -9.580  1.00  0.00     0.293 HD
ENDBRANCH   6  14
TORSDOF 4
ENDMDL
MODEL 8
REMARK VINA RESULT:    -5.171      2.977      6.025
REMARK INTER + INTRA:          -6.203
REMARK INTER:                  -6.071
REMARK INTRA:                  -0.132
REMARK UNBOUND:                -0.125
REMARK SMILES O=C([O-])C=Cc1ccc(O)c(O)c1
REMARK SMILES IDX 6 1 13 2 7 3 11 4 8 5 9 6 5 7 4 8 2 9 1 10 3 11 12 12 10 14
REMARK H PARENT 12 13 10 15
REMARK Flexibility Score: inf
ROOT
ATOM      1  C   UNL     1     -14.034 -30.638 -12.602  1.00  0.00    -0.022 A 
ATOM      2  C   UNL     1     -14.516 -31.479 -13.619  1.00  0.00     0.058 A 
ATOM      3  C   UNL     1     -13.441 -31.219 -11.464  1.00  0.00     0.012 A 
ATOM      4  C   UNL     1     -14.435 -32.872 -13.498  1.00  0.00     0.157 A 
ATOM      5  C   UNL     1     -13.359 -32.608 -11.341  1.00  0.00     0.051 A 
ATOM      6  C   UNL     1     -13.855 -33.440 -12.352  1.00  0.00     0.157 A 
ENDROOT
BRANCH   1   7
ATOM      7  C   UNL     1     -14.137 -29.169 -12.788  1.00  0.00     0.010 C 
ATOM      8  C   UNL     1     -14.606 -28.332 -11.854  1.00  0.00     0.025 C 
BRANCH   8   9
ATOM      9  C   UNL     1     -14.700 -26.882 -12.086  1.00  0.00     0.064 C 
ATOM     10  O   UNL     1     -14.651 -26.091 -11.107  1.00  0.00    -0.545 OA
ATOM     11  O   UNL     1     -14.841 -26.367 -13.370  1.00  0.00    -0.545 OA
ENDBRANCH   8   9
ENDBRANCH   1   7
BRANCH   4  12
ATOM     12  O   UNL     1     -14.934 -33.672 -14.525  1.00  0.00    -0.504 OA
ATOM     13  H   UNL     1     -15.390 -34.558 -14.344  1.00  0.00     0.293 HD
ENDBRANCH   4  12
BRANCH   6  14
ATOM     14  O   UNL     1     -13.772 -34.826 -12.223  1.00  0.00    -0.504 OA
ATOM     15  H   UNL     1     -14.523 -35.433 -12.530  1.00  0.00     0.293 HD
ENDBRANCH   6  14
TORSDOF 4
ENDMDL
MODEL 9
REMARK VINA RESULT:    -5.144      1.603      5.746
REMARK INTER + INTRA:          -6.171
REMARK INTER:                  -6.033
REMARK INTRA:                  -0.138
REMARK UNBOUND:                -0.125
REMARK SMILES O=C([O-])C=Cc1ccc(O)c(O)c1
REMARK SMILES IDX 6 1 13 2 7 3 11 4 8 5 9 6 5 7 4 8 2 9 1 10 3 11 12 12 10 14
REMARK H PARENT 12 13 10 15
REMARK Flexibility Score: inf
ROOT
ATOM      1  C   UNL     1     -13.578 -28.822 -12.766  1.00  0.00    -0.022 A 
ATOM      2  C   UNL     1     -13.390 -30.019 -13.477  1.00  0.00     0.058 A 
ATOM      3  C   UNL     1     -13.699 -28.875 -11.364  1.00  0.00     0.012 A 
ATOM      4  C   UNL     1     -13.348 -31.250 -12.811  1.00  0.00     0.157 A 
ATOM      5  C   UNL     1     -13.657 -30.103 -10.697  1.00  0.00     0.051 A 
ATOM      6  C   UNL     1     -13.484 -31.293 -11.413  1.00  0.00     0.157 A 
ENDROOT
BRANCH   1   7
ATOM      7  C   UNL     1     -13.605 -27.544 -13.522  1.00  0.00     0.010 C 
ATOM      8  C   UNL     1     -13.832 -26.350 -12.959  1.00  0.00     0.025 C 
BRANCH   8   9
ATOM      9  C   UNL     1     -13.860 -25.110 -13.750  1.00  0.00     0.064 C 
ATOM     10  O   UNL     1     -14.894 -24.391 -13.740  1.00  0.00    -0.545 OA
ATOM     11  O   UNL     1     -12.764 -24.716 -14.508  1.00  0.00    -0.545 OA
ENDBRANCH   8   9
ENDBRANCH   1   7
BRANCH   4  12
ATOM     12  O   UNL     1     -13.170 -32.416 -13.554  1.00  0.00    -0.504 OA
ATOM     13  H   UNL     1     -12.289 -32.639 -14.003  1.00  0.00     0.293 HD
ENDBRANCH   4  12
BRANCH   6  14
ATOM     14  O   UNL     1     -13.445 -32.515 -10.744  1.00  0.00    -0.504 OA
ATOM     15  H   UNL     1     -12.905 -33.296 -11.097  1.00  0.00     0.293 HD
ENDBRANCH   6  14
TORSDOF 4
ENDMDL
