MODEL 1
REMARK VINA RESULT:    -4.742      0.000      0.000
REMARK INTER + INTRA:          -4.881
REMARK INTER:                  -4.881
REMARK INTRA:                   0.000
REMARK UNBOUND:                 0.000
REMARK SMILES Oc1ccc2[nH]ccc2c1
REMARK SMILES IDX 3 1 4 2 5 3 9 4 8 5 7 6 6 7 10 8 2 9 1 11
REMARK H PARENT 6 10 1 12
REMARK Flexibility Score: inf
ROOT
ATOM      1  C   UNL     1     139.527 130.022 159.885  1.00  0.00     0.048 A 
ATOM      2  C   UNL     1     139.450 131.421 160.018  1.00  0.00     0.030 A 
ATOM      3  C   UNL     1     139.847 132.200 158.932  1.00  0.00     0.046 A 
ATOM      4  C   UNL     1     140.299 131.637 157.769  1.00  0.00     0.003 A 
ATOM      5  C   UNL     1     140.606 132.666 156.906  1.00  0.00     0.028 A 
ATOM      6  C   UNL     1     140.317 133.830 157.611  1.00  0.00     0.083 A 
ATOM      7  N   UNL     1     139.853 133.540 158.848  1.00  0.00    -0.361 N 
ATOM      8  C   UNL     1     140.388 130.257 157.605  1.00  0.00     0.056 A 
ATOM      9  C   UNL     1     139.994 129.438 158.685  1.00  0.00     0.116 A 
ATOM     10  H   UNL     1     139.561 134.222 159.583  1.00  0.00     0.166 HD
ENDROOT
BRANCH   9  11
ATOM     11  O   UNL     1     140.061 128.051 158.579  1.00  0.00    -0.508 OA
ATOM     12  H   UNL     1     140.935 127.577 158.390  1.00  0.00     0.293 HD
ENDBRANCH   9  11
TORSDOF 1
ENDMDL
MODEL 2
REMARK VINA RESULT:    -4.636      2.637      3.670
REMARK INTER + INTRA:          -4.772
REMARK INTER:                  -4.772
REMARK INTRA:                   0.000
REMARK UNBOUND:                 0.000
REMARK SMILES Oc1ccc2[nH]ccc2c1
REMARK SMILES IDX 3 1 4 2 5 3 9 4 8 5 7 6 6 7 10 8 2 9 1 11
REMARK H PARENT 6 10 1 12
REMARK Flexibility Score: inf
ROOT
ATOM      1  C   UNL     1     139.743 131.379 159.921  1.00  0.00     0.048 A 
ATOM      2  C   UNL     1     139.885 129.979 159.935  1.00  0.00     0.030 A 
ATOM      3  C   UNL     1     139.929 129.317 158.709  1.00  0.00     0.046 A 
ATOM      4  C   UNL     1     139.840 129.994 157.522  1.00  0.00     0.003 A 
ATOM      5  C   UNL     1     139.916 129.062 156.510  1.00  0.00     0.028 A 
ATOM      6  C   UNL     1     140.052 127.836 157.154  1.00  0.00     0.083 A 
ATOM      7  N   UNL     1     140.060 127.998 158.498  1.00  0.00    -0.361 N 
ATOM      8  C   UNL     1     139.698 131.379 157.473  1.00  0.00     0.056 A 
ATOM      9  C   UNL     1     139.649 132.080 158.696  1.00  0.00     0.116 A 
ATOM     10  H   UNL     1     140.149 127.247 159.218  1.00  0.00     0.166 HD
ENDROOT
BRANCH   9  11
ATOM     11  O   UNL     1     139.509 133.465 158.709  1.00  0.00    -0.508 OA
ATOM     12  H   UNL     1     138.958 133.948 158.010  1.00  0.00     0.293 HD
ENDBRANCH   9  11
TORSDOF 1
ENDMDL
MODEL 3
REMARK VINA RESULT:    -4.552      2.650      3.384
REMARK INTER + INTRA:          -4.685
REMARK INTER:                  -4.685
REMARK INTRA:                   0.000
REMARK UNBOUND:                 0.000
REMARK SMILES Oc1ccc2[nH]ccc2c1
REMARK SMILES IDX 3 1 4 2 5 3 9 4 8 5 7 6 6 7 10 8 2 9 1 11
REMARK H PARENT 6 10 1 12
REMARK Flexibility Score: inf
ROOT
ATOM      1  C   UNL     1     141.384 132.954 157.955  1.00  0.00     0.048 A 
ATOM      2  C   UNL     1     140.635 132.764 159.131  1.00  0.00     0.030 A 
ATOM      3  C   UNL     1     139.299 132.389 158.997  1.00  0.00     0.046 A 
ATOM      4  C   UNL     1     138.721 132.208 157.770  1.00  0.00     0.003 A 
ATOM      5  C   UNL     1     137.409 131.845 157.981  1.00  0.00     0.028 A 
ATOM      6  C   UNL     1     137.256 131.825 159.364  1.00  0.00     0.083 A 
ATOM      7  N   UNL     1     138.414 132.158 159.980  1.00  0.00    -0.361 N 
ATOM      8  C   UNL     1     139.434 132.388 156.586  1.00  0.00     0.056 A 
ATOM      9  C   UNL     1     140.790 132.768 156.685  1.00  0.00     0.116 A 
ATOM     10  H   UNL     1     138.580 132.221 161.009  1.00  0.00     0.166 HD
ENDROOT
BRANCH   9  11
ATOM     11  O   UNL     1     141.552 132.962 155.536  1.00  0.00    -0.508 OA
ATOM     12  H   UNL     1     142.515 132.650 155.481  1.00  0.00     0.293 HD
ENDBRANCH   9  11
TORSDOF 1
ENDMDL
MODEL 4
REMARK VINA RESULT:    -4.506      3.168      4.065
REMARK INTER + INTRA:          -4.638
REMARK INTER:                  -4.638
REMARK INTRA:                   0.000
REMARK UNBOUND:                 0.000
REMARK SMILES Oc1ccc2[nH]ccc2c1
REMARK SMILES IDX 3 1 4 2 5 3 9 4 8 5 7 6 6 7 10 8 2 9 1 11
REMARK H PARENT 6 10 1 12
REMARK Flexibility Score: inf
ROOT
ATOM      1  C   UNL     1     136.856 131.858 157.873  1.00  0.00     0.048 A 
ATOM      2  C   UNL     1     137.537 130.943 157.049  1.00  0.00     0.030 A 
ATOM      3  C   UNL     1     138.570 130.199 157.618  1.00  0.00     0.046 A 
ATOM      4  C   UNL     1     138.921 130.344 158.933  1.00  0.00     0.003 A 
ATOM      5  C   UNL     1     139.963 129.477 159.179  1.00  0.00     0.028 A 
ATOM      6  C   UNL     1     140.196 128.835 157.967  1.00  0.00     0.083 A 
ATOM      7  N   UNL     1     139.342 129.280 157.016  1.00  0.00    -0.361 N 
ATOM      8  C   UNL     1     138.267 131.240 159.776  1.00  0.00     0.056 A 
ATOM      9  C   UNL     1     137.216 132.009 159.232  1.00  0.00     0.116 A 
ATOM     10  H   UNL     1     139.296 128.969 156.020  1.00  0.00     0.166 HD
ENDROOT
BRANCH   9  11
ATOM     11  O   UNL     1     136.526 132.921 160.026  1.00  0.00    -0.508 OA
ATOM     12  H   UNL     1     136.993 133.445 160.757  1.00  0.00     0.293 HD
ENDBRANCH   9  11
TORSDOF 1
ENDMDL
MODEL 5
REMARK VINA RESULT:    -4.486      2.473      3.031
REMARK INTER + INTRA:          -4.617
REMARK INTER:                  -4.617
REMARK INTRA:                   0.000
REMARK UNBOUND:                 0.000
REMARK SMILES Oc1ccc2[nH]ccc2c1
REMARK SMILES IDX 3 1 4 2 5 3 9 4 8 5 7 6 6 7 10 8 2 9 1 11
REMARK H PARENT 6 10 1 12
REMARK Flexibility Score: inf
ROOT
ATOM      1  C   UNL     1     140.013 129.008 158.389  1.00  0.00     0.048 A 
ATOM      2  C   UNL     1     139.360 129.450 157.224  1.00  0.00     0.030 A 
ATOM      3  C   UNL     1     138.392 130.444 157.358  1.00  0.00     0.046 A 
ATOM      4  C   UNL     1     138.078 130.983 158.576  1.00  0.00     0.003 A 
ATOM      5  C   UNL     1     137.097 131.928 158.369  1.00  0.00     0.028 A 
ATOM      6  C   UNL     1     136.863 131.912 156.997  1.00  0.00     0.083 A 
ATOM      7  N   UNL     1     137.657 131.004 156.384  1.00  0.00    -0.361 N 
ATOM      8  C   UNL     1     138.705 130.568 159.749  1.00  0.00     0.056 A 
ATOM      9  C   UNL     1     139.690 129.563 159.650  1.00  0.00     0.116 A 
ATOM     10  H   UNL     1     137.687 130.787 155.363  1.00  0.00     0.166 HD
ENDROOT
BRANCH   9  11
ATOM     11  O   UNL     1     140.351 129.108 160.788  1.00  0.00    -0.508 OA
ATOM     12  H   UNL     1     139.874 128.560 161.493  1.00  0.00     0.293 HD
ENDBRANCH   9  11
TORSDOF 1
ENDMDL
MODEL 6
REMARK VINA RESULT:    -4.413      2.587      4.000
REMARK INTER + INTRA:          -4.542
REMARK INTER:                  -4.542
REMARK INTRA:                   0.000
REMARK UNBOUND:                 0.000
REMARK SMILES Oc1ccc2[nH]ccc2c1
REMARK SMILES IDX 3 1 4 2 5 3 9 4 8 5 7 6 6 7 10 8 2 9 1 11
REMARK H PARENT 6 10 1 12
REMARK Flexibility Score: inf
ROOT
ATOM      1  C   UNL     1     139.900 132.854 157.253  1.00  0.00     0.048 A 
ATOM      2  C   UNL     1     139.896 131.627 156.564  1.00  0.00     0.030 A 
ATOM      3  C   UNL     1     139.906 130.456 157.321  1.00  0.00     0.046 A 
ATOM      4  C   UNL     1     139.919 130.484 158.689  1.00  0.00     0.003 A 
ATOM      5  C   UNL     1     139.925 129.178 159.128  1.00  0.00     0.028 A 
ATOM      6  C   UNL     1     139.915 128.406 157.971  1.00  0.00     0.083 A 
ATOM      7  N   UNL     1     139.903 129.192 156.869  1.00  0.00    -0.361 N 
ATOM      8  C   UNL     1     139.923 131.681 159.402  1.00  0.00     0.056 A 
ATOM      9  C   UNL     1     139.914 132.886 158.667  1.00  0.00     0.116 A 
ATOM     10  H   UNL     1     139.894 128.875 155.874  1.00  0.00     0.166 HD
ENDROOT
BRANCH   9  11
ATOM     11  O   UNL     1     139.918 134.113 159.324  1.00  0.00    -0.508 OA
ATOM     12  H   UNL     1     139.296 134.863 159.049  1.00  0.00     0.293 HD
ENDBRANCH   9  11
TORSDOF 1
ENDMDL
MODEL 7
REMARK VINA RESULT:    -4.413     10.386     12.103
REMARK INTER + INTRA:          -4.542
REMARK INTER:                  -4.542
REMARK INTRA:                   0.000
REMARK UNBOUND:                 0.000
REMARK SMILES Oc1ccc2[nH]ccc2c1
REMARK SMILES IDX 3 1 4 2 5 3 9 4 8 5 7 6 6 7 10 8 2 9 1 11
REMARK H PARENT 6 10 1 12
REMARK Flexibility Score: inf
ROOT
ATOM      1  C   UNL     1     144.780 135.901 146.866  1.00  0.00     0.048 A 
ATOM      2  C   UNL     1     144.740 134.681 147.565  1.00  0.00     0.030 A 
ATOM      3  C   UNL     1     144.204 134.686 148.852  1.00  0.00     0.046 A 
ATOM      4  C   UNL     1     143.727 135.832 149.428  1.00  0.00     0.003 A 
ATOM      5  C   UNL     1     143.271 135.502 150.686  1.00  0.00     0.028 A 
ATOM      6  C   UNL     1     143.502 134.135 150.809  1.00  0.00     0.083 A 
ATOM      7  N   UNL     1     144.071 133.641 149.685  1.00  0.00    -0.361 N 
ATOM      8  C   UNL     1     143.752 137.056 148.764  1.00  0.00     0.056 A 
ATOM      9  C   UNL     1     144.288 137.087 147.459  1.00  0.00     0.116 A 
ATOM     10  H   UNL     1     144.349 132.650 149.508  1.00  0.00     0.166 HD
ENDROOT
BRANCH   9  11
ATOM     11  O   UNL     1     144.339 138.282 146.746  1.00  0.00    -0.508 OA
ATOM     12  H   UNL     1     143.832 138.402 145.878  1.00  0.00     0.293 HD
ENDBRANCH   9  11
TORSDOF 1
ENDMDL
MODEL 8
REMARK VINA RESULT:    -4.375      2.446      2.673
REMARK INTER + INTRA:          -4.503
REMARK INTER:                  -4.503
REMARK INTRA:                   0.000
REMARK UNBOUND:                 0.000
REMARK SMILES Oc1ccc2[nH]ccc2c1
REMARK SMILES IDX 3 1 4 2 5 3 9 4 8 5 7 6 6 7 10 8 2 9 1 11
REMARK H PARENT 6 10 1 12
REMARK Flexibility Score: inf
ROOT
ATOM      1  C   UNL     1     137.116 131.701 159.073  1.00  0.00     0.048 A 
ATOM      2  C   UNL     1     138.287 132.024 159.782  1.00  0.00     0.030 A 
ATOM      3  C   UNL     1     139.414 132.388 159.046  1.00  0.00     0.046 A 
ATOM      4  C   UNL     1     139.395 132.435 157.678  1.00  0.00     0.003 A 
ATOM      5  C   UNL     1     140.649 132.825 157.262  1.00  0.00     0.028 A 
ATOM      6  C   UNL     1     141.382 132.999 158.432  1.00  0.00     0.083 A 
ATOM      7  N   UNL     1     140.622 132.732 159.519  1.00  0.00    -0.361 N 
ATOM      8  C   UNL     1     138.253 132.121 156.945  1.00  0.00     0.056 A 
ATOM      9  C   UNL     1     137.094 131.748 157.659  1.00  0.00     0.116 A 
ATOM     10  H   UNL     1     140.920 132.782 160.519  1.00  0.00     0.166 HD
ENDROOT
BRANCH   9  11
ATOM     11  O   UNL     1     135.922 131.424 156.981  1.00  0.00    -0.508 OA
ATOM     12  H   UNL     1     135.939 130.888 156.122  1.00  0.00     0.293 HD
ENDBRANCH   9  11
TORSDOF 1
ENDMDL
MODEL 9
REMARK VINA RESULT:    -4.334      2.146      2.659
REMARK INTER + INTRA:          -4.460
REMARK INTER:                  -4.460
REMARK INTRA:                   0.000
REMARK UNBOUND:                 0.000
REMARK SMILES Oc1ccc2[nH]ccc2c1
REMARK SMILES IDX 3 1 4 2 5 3 9 4 8 5 7 6 6 7 10 8 2 9 1 11
REMARK H PARENT 6 10 1 12
REMARK Flexibility Score: inf
ROOT
ATOM      1  C   UNL     1     140.309 129.833 158.514  1.00  0.00     0.048 A 
ATOM      2  C   UNL     1     139.919 130.622 159.612  1.00  0.00     0.030 A 
ATOM      3  C   UNL     1     138.686 131.271 159.541  1.00  0.00     0.046 A 
ATOM      4  C   UNL     1     137.872 131.152 158.448  1.00  0.00     0.003 A 
ATOM      5  C   UNL     1     136.744 131.906 158.690  1.00  0.00     0.028 A 
ATOM      6  C   UNL     1     136.940 132.456 159.953  1.00  0.00     0.083 A 
ATOM      7  N   UNL     1     138.128 132.064 160.469  1.00  0.00    -0.361 N 
ATOM      8  C   UNL     1     138.228 130.380 157.344  1.00  0.00     0.056 A 
ATOM      9  C   UNL     1     139.469 129.710 157.382  1.00  0.00     0.116 A 
ATOM     10  H   UNL     1     138.524 132.328 161.399  1.00  0.00     0.166 HD
ENDROOT
BRANCH   9  11
ATOM     11  O   UNL     1     139.878 128.923 156.309  1.00  0.00    -0.508 OA
ATOM     12  H   UNL     1     140.753 129.097 155.828  1.00  0.00     0.293 HD
ENDBRANCH   9  11
TORSDOF 1
ENDMDL
