MODEL 1
REMARK VINA RESULT:    -4.942      0.000      0.000
REMARK INTER + INTRA:          -7.937
REMARK INTER:                  -7.253
REMARK INTRA:                  -0.684
REMARK UNBOUND:                -0.684
REMARK SMILES O=C([O-])CCCCCCCC(=O)[O-]
REMARK SMILES IDX 7 1 6 2 5 3 4 4 2 5 1 6 3 7 8 8 9 9 10 10 11 11 12 12 13 13
REMARK H PARENT
REMARK Flexibility Score: inf
ROOT
ATOM      1  C   UNL     1      -3.875   8.795  -7.215  1.00  0.00     0.000 C 
ENDROOT
BRANCH   1   2
ATOM      2  C   UNL     1      -4.614  10.095  -7.575  1.00  0.00     0.000 C 
BRANCH   2   3
ATOM      3  C   UNL     1      -4.773  10.284  -9.094  1.00  0.00     0.006 C 
BRANCH   3   4
ATOM      4  C   UNL     1      -5.301  11.680  -9.451  1.00  0.00     0.053 C 
BRANCH   4   5
ATOM      5  C   UNL     1      -6.740  11.847  -9.071  1.00  0.00     0.041 C 
ATOM      6  O   UNL     1      -7.075  12.705  -8.212  1.00  0.00    -0.550 OA
ATOM      7  O   UNL     1      -7.711  11.033  -9.644  1.00  0.00    -0.550 OA
ENDBRANCH   4   5
ENDBRANCH   3   4
ENDBRANCH   2   3
ENDBRANCH   1   2
BRANCH   1   8
ATOM      8  C   UNL     1      -4.003   7.720  -8.306  1.00  0.00     0.000 C 
BRANCH   8   9
ATOM      9  C   UNL     1      -5.025   6.630  -7.944  1.00  0.00     0.006 C 
BRANCH   9  10
ATOM     10  C   UNL     1      -5.872   6.190  -9.146  1.00  0.00     0.053 C 
BRANCH  10  11
ATOM     11  C   UNL     1      -6.735   7.318  -9.615  1.00  0.00     0.041 C 
ATOM     12  O   UNL     1      -7.619   7.797  -8.857  1.00  0.00    -0.550 OA
ATOM     13  O   UNL     1      -6.532   7.872 -10.873  1.00  0.00    -0.550 OA
ENDBRANCH  10  11
ENDBRANCH   9  10
ENDBRANCH   8   9
ENDBRANCH   1   8
TORSDOF 8
ENDMDL
MODEL 2
REMARK VINA RESULT:    -4.933      2.454      3.573
REMARK INTER + INTRA:          -7.924
REMARK INTER:                  -7.172
REMARK INTRA:                  -0.752
REMARK UNBOUND:                -0.684
REMARK SMILES O=C([O-])CCCCCCCC(=O)[O-]
REMARK SMILES IDX 7 1 6 2 5 3 4 4 2 5 1 6 3 7 8 8 9 9 10 10 11 11 12 12 13 13
REMARK H PARENT
REMARK Flexibility Score: inf
ROOT
ATOM      1  C   UNL     1      -6.643   7.542 -10.275  1.00  0.00     0.000 C 
ENDROOT
BRANCH   1   2
ATOM      2  C   UNL     1      -7.820   8.426  -9.829  1.00  0.00     0.000 C 
BRANCH   2   3
ATOM      3  C   UNL     1      -7.619   9.908 -10.193  1.00  0.00     0.006 C 
BRANCH   3   4
ATOM      4  C   UNL     1      -6.855  10.672  -9.104  1.00  0.00     0.053 C 
BRANCH   4   5
ATOM      5  C   UNL     1      -5.584  11.268  -9.626  1.00  0.00     0.041 C 
ATOM      6  O   UNL     1      -4.734  10.541 -10.206  1.00  0.00    -0.550 OA
ATOM      7  O   UNL     1      -5.322  12.621  -9.445  1.00  0.00    -0.550 OA
ENDBRANCH   4   5
ENDBRANCH   3   4
ENDBRANCH   2   3
ENDBRANCH   1   2
BRANCH   1   8
ATOM      8  C   UNL     1      -6.098   6.664  -9.137  1.00  0.00     0.000 C 
BRANCH   8   9
ATOM      9  C   UNL     1      -5.451   7.490  -8.013  1.00  0.00     0.006 C 
BRANCH   9  10
ATOM     10  C   UNL     1      -3.951   7.728  -8.241  1.00  0.00     0.053 C 
BRANCH  10  11
ATOM     11  C   UNL     1      -3.400   8.628  -7.182  1.00  0.00     0.041 C 
ATOM     12  O   UNL     1      -2.367   8.298  -6.543  1.00  0.00    -0.550 OA
ATOM     13  O   UNL     1      -4.002   9.855  -6.931  1.00  0.00    -0.550 OA
ENDBRANCH  10  11
ENDBRANCH   9  10
ENDBRANCH   8   9
ENDBRANCH   1   8
TORSDOF 8
ENDMDL
MODEL 3
REMARK VINA RESULT:    -4.931      2.348      4.505
REMARK INTER + INTRA:          -7.921
REMARK INTER:                  -7.292
REMARK INTRA:                  -0.629
REMARK UNBOUND:                -0.684
REMARK SMILES O=C([O-])CCCCCCCC(=O)[O-]
REMARK SMILES IDX 7 1 6 2 5 3 4 4 2 5 1 6 3 7 8 8 9 9 10 10 11 11 12 12 13 13
REMARK H PARENT
REMARK Flexibility Score: inf
ROOT
ATOM      1  C   UNL     1      -6.968   7.221  -9.726  1.00  0.00     0.000 C 
ENDROOT
BRANCH   1   2
ATOM      2  C   UNL     1      -5.781   6.364  -9.254  1.00  0.00     0.000 C 
BRANCH   2   3
ATOM      3  C   UNL     1      -5.092   6.943  -8.005  1.00  0.00     0.006 C 
BRANCH   3   4
ATOM      4  C   UNL     1      -3.926   7.872  -8.366  1.00  0.00     0.053 C 
BRANCH   4   5
ATOM      5  C   UNL     1      -3.498   8.710  -7.202  1.00  0.00     0.041 C 
ATOM      6  O   UNL     1      -4.146   9.746  -6.894  1.00  0.00    -0.550 OA
ATOM      7  O   UNL     1      -2.365   8.366  -6.474  1.00  0.00    -0.550 OA
ENDBRANCH   4   5
ENDBRANCH   3   4
ENDBRANCH   2   3
ENDBRANCH   1   2
BRANCH   1   8
ATOM      8  C   UNL     1      -6.566   8.254 -10.792  1.00  0.00     0.000 C 
BRANCH   8   9
ATOM      9  C   UNL     1      -7.183   9.638 -10.536  1.00  0.00     0.006 C 
BRANCH   9  10
ATOM     10  C   UNL     1      -6.980  10.119  -9.092  1.00  0.00     0.053 C 
BRANCH  10  11
ATOM     11  C   UNL     1      -6.437  11.513  -9.080  1.00  0.00     0.041 C 
ATOM     12  O   UNL     1      -7.100  12.447  -8.557  1.00  0.00    -0.550 OA
ATOM     13  O   UNL     1      -5.177  11.772  -9.605  1.00  0.00    -0.550 OA
ENDBRANCH  10  11
ENDBRANCH   9  10
ENDBRANCH   8   9
ENDBRANCH   1   8
TORSDOF 8
ENDMDL
MODEL 4
REMARK VINA RESULT:    -4.926      1.451      3.832
REMARK INTER + INTRA:          -7.914
REMARK INTER:                  -7.038
REMARK INTRA:                  -0.875
REMARK UNBOUND:                -0.684
REMARK SMILES O=C([O-])CCCCCCCC(=O)[O-]
REMARK SMILES IDX 7 1 6 2 5 3 4 4 2 5 1 6 3 7 8 8 9 9 10 10 11 11 12 12 13 13
REMARK H PARENT
REMARK Flexibility Score: inf
ROOT
ATOM      1  C   UNL     1      -3.962   9.038  -7.438  1.00  0.00     0.000 C 
ENDROOT
BRANCH   1   2
ATOM      2  C   UNL     1      -3.941   7.879  -8.449  1.00  0.00     0.000 C 
BRANCH   2   3
ATOM      3  C   UNL     1      -5.023   6.823  -8.161  1.00  0.00     0.006 C 
BRANCH   3   4
ATOM      4  C   UNL     1      -6.052   6.725  -9.296  1.00  0.00     0.053 C 
BRANCH   4   5
ATOM      5  C   UNL     1      -7.444   6.994  -8.813  1.00  0.00     0.041 C 
ATOM      6  O   UNL     1      -8.435   6.600  -9.483  1.00  0.00    -0.550 OA
ATOM      7  O   UNL     1      -7.649   7.706  -7.637  1.00  0.00    -0.550 OA
ENDBRANCH   4   5
ENDBRANCH   3   4
ENDBRANCH   2   3
ENDBRANCH   1   2
BRANCH   1   8
ATOM      8  C   UNL     1      -5.059  10.071  -7.744  1.00  0.00     0.000 C 
BRANCH   8   9
ATOM      9  C   UNL     1      -5.154  10.406  -9.242  1.00  0.00     0.006 C 
BRANCH   9  10
ATOM     10  C   UNL     1      -6.524  10.977  -9.635  1.00  0.00     0.053 C 
BRANCH  10  11
ATOM     11  C   UNL     1      -7.195  10.081 -10.628  1.00  0.00     0.041 C 
ATOM     12  O   UNL     1      -8.441   9.906 -10.583  1.00  0.00    -0.550 OA
ATOM     13  O   UNL     1      -6.450   9.475 -11.631  1.00  0.00    -0.550 OA
ENDBRANCH  10  11
ENDBRANCH   9  10
ENDBRANCH   8   9
ENDBRANCH   1   8
TORSDOF 8
ENDMDL
MODEL 5
REMARK VINA RESULT:    -4.918      2.544      3.952
REMARK INTER + INTRA:          -7.902
REMARK INTER:                  -7.147
REMARK INTRA:                  -0.755
REMARK UNBOUND:                -0.684
REMARK SMILES O=C([O-])CCCCCCCC(=O)[O-]
REMARK SMILES IDX 7 1 6 2 5 3 4 4 2 5 1 6 3 7 8 8 9 9 10 10 11 11 12 12 13 13
REMARK H PARENT
REMARK Flexibility Score: inf
ROOT
ATOM      1  C   UNL     1      -5.110  10.116 -10.153  1.00  0.00     0.000 C 
ENDROOT
BRANCH   1   2
ATOM      2  C   UNL     1      -5.366  10.739  -8.770  1.00  0.00     0.000 C 
BRANCH   2   3
ATOM      3  C   UNL     1      -4.612  10.008  -7.644  1.00  0.00     0.006 C 
BRANCH   3   4
ATOM      4  C   UNL     1      -3.995   8.688  -8.123  1.00  0.00     0.053 C 
BRANCH   4   5
ATOM      5  C   UNL     1      -3.270   7.978  -7.021  1.00  0.00     0.041 C 
ATOM      6  O   UNL     1      -2.278   8.518  -6.464  1.00  0.00    -0.550 OA
ATOM      7  O   UNL     1      -3.670   6.706  -6.630  1.00  0.00    -0.550 OA
ENDBRANCH   4   5
ENDBRANCH   3   4
ENDBRANCH   2   3
ENDBRANCH   1   2
BRANCH   1   8
ATOM      8  C   UNL     1      -6.402   9.633 -10.832  1.00  0.00     0.000 C 
BRANCH   8   9
ATOM      9  C   UNL     1      -6.588   8.110 -10.732  1.00  0.00     0.006 C 
BRANCH   9  10
ATOM     10  C   UNL     1      -7.514   7.702  -9.576  1.00  0.00     0.053 C 
BRANCH  10  11
ATOM     11  C   UNL     1      -6.824   6.724  -8.679  1.00  0.00     0.041 C 
ATOM     12  O   UNL     1      -6.015   5.886  -9.157  1.00  0.00    -0.550 OA
ATOM     13  O   UNL     1      -7.040   6.768  -7.307  1.00  0.00    -0.550 OA
ENDBRANCH  10  11
ENDBRANCH   9  10
ENDBRANCH   8   9
ENDBRANCH   1   8
TORSDOF 8
ENDMDL
MODEL 6
REMARK VINA RESULT:    -4.886      2.114      3.325
REMARK INTER + INTRA:          -7.855
REMARK INTER:                  -6.997
REMARK INTRA:                  -0.858
REMARK UNBOUND:                -0.684
REMARK SMILES O=C([O-])CCCCCCCC(=O)[O-]
REMARK SMILES IDX 7 1 6 2 5 3 4 4 2 5 1 6 3 7 8 8 9 9 10 10 11 11 12 12 13 13
REMARK H PARENT
REMARK Flexibility Score: inf
ROOT
ATOM      1  C   UNL     1      -6.901   9.758 -11.135  1.00  0.00     0.000 C 
ENDROOT
BRANCH   1   2
ATOM      2  C   UNL     1      -7.539  10.234  -9.819  1.00  0.00     0.000 C 
BRANCH   2   3
ATOM      3  C   UNL     1      -6.740  11.365  -9.148  1.00  0.00     0.006 C 
BRANCH   3   4
ATOM      4  C   UNL     1      -5.226  11.134  -9.237  1.00  0.00     0.053 C 
BRANCH   4   5
ATOM      5  C   UNL     1      -4.774  10.030  -8.332  1.00  0.00     0.041 C 
ATOM      6  O   UNL     1      -3.988   9.143  -8.757  1.00  0.00    -0.550 OA
ATOM      7  O   UNL     1      -5.246   9.962  -7.026  1.00  0.00    -0.550 OA
ENDBRANCH   4   5
ENDBRANCH   3   4
ENDBRANCH   2   3
ENDBRANCH   1   2
BRANCH   1   8
ATOM      8  C   UNL     1      -6.587   8.253 -11.131  1.00  0.00     0.000 C 
BRANCH   8   9
ATOM      9  C   UNL     1      -7.141   7.538  -9.888  1.00  0.00     0.006 C 
BRANCH   9  10
ATOM     10  C   UNL     1      -6.144   6.534  -9.289  1.00  0.00     0.053 C 
BRANCH  10  11
ATOM     11  C   UNL     1      -6.187   6.588  -7.795  1.00  0.00     0.041 C 
ATOM     12  O   UNL     1      -5.168   6.283  -7.121  1.00  0.00    -0.550 OA
ATOM     13  O   UNL     1      -7.338   7.018  -7.148  1.00  0.00    -0.550 OA
ENDBRANCH  10  11
ENDBRANCH   9  10
ENDBRANCH   8   9
ENDBRANCH   1   8
TORSDOF 8
ENDMDL
MODEL 7
REMARK VINA RESULT:    -4.880      1.491      1.974
REMARK INTER + INTRA:          -7.846
REMARK INTER:                  -6.920
REMARK INTRA:                  -0.926
REMARK UNBOUND:                -0.684
REMARK SMILES O=C([O-])CCCCCCCC(=O)[O-]
REMARK SMILES IDX 7 1 6 2 5 3 4 4 2 5 1 6 3 7 8 8 9 9 10 10 11 11 12 12 13 13
REMARK H PARENT
REMARK Flexibility Score: inf
ROOT
ATOM      1  C   UNL     1      -3.969   8.665  -8.320  1.00  0.00     0.000 C 
ENDROOT
BRANCH   1   2
ATOM      2  C   UNL     1      -4.666   9.902  -7.729  1.00  0.00     0.000 C 
BRANCH   2   3
ATOM      3  C   UNL     1      -5.707  10.510  -8.686  1.00  0.00     0.006 C 
BRANCH   3   4
ATOM      4  C   UNL     1      -5.443  10.124 -10.147  1.00  0.00     0.053 C 
BRANCH   4   5
ATOM      5  C   UNL     1      -6.711   9.811 -10.881  1.00  0.00     0.041 C 
ATOM      6  O   UNL     1      -6.670   9.376 -12.062  1.00  0.00    -0.550 OA
ATOM      7  O   UNL     1      -7.941  10.030 -10.271  1.00  0.00    -0.550 OA
ENDBRANCH   4   5
ENDBRANCH   3   4
ENDBRANCH   2   3
ENDBRANCH   1   2
BRANCH   1   8
ATOM      8  C   UNL     1      -3.886   7.499  -7.322  1.00  0.00     0.000 C 
BRANCH   8   9
ATOM      9  C   UNL     1      -5.085   6.543  -7.428  1.00  0.00     0.006 C 
BRANCH   9  10
ATOM     10  C   UNL     1      -5.768   6.600  -8.803  1.00  0.00     0.053 C 
BRANCH  10  11
ATOM     11  C   UNL     1      -7.214   6.950  -8.651  1.00  0.00     0.041 C 
ATOM     12  O   UNL     1      -7.591   7.692  -7.706  1.00  0.00    -0.550 OA
ATOM     13  O   UNL     1      -8.141   6.493  -9.580  1.00  0.00    -0.550 OA
ENDBRANCH  10  11
ENDBRANCH   9  10
ENDBRANCH   8   9
ENDBRANCH   1   8
TORSDOF 8
ENDMDL
MODEL 8
REMARK VINA RESULT:    -4.814      2.491      4.480
REMARK INTER + INTRA:          -7.749
REMARK INTER:                  -6.863
REMARK INTRA:                  -0.886
REMARK UNBOUND:                -0.684
REMARK SMILES O=C([O-])CCCCCCCC(=O)[O-]
REMARK SMILES IDX 7 1 6 2 5 3 4 4 2 5 1 6 3 7 8 8 9 9 10 10 11 11 12 12 13 13
REMARK H PARENT
REMARK Flexibility Score: inf
ROOT
ATOM      1  C   UNL     1      -5.232   9.889 -10.148  1.00  0.00     0.000 C 
ENDROOT
BRANCH   1   2
ATOM      2  C   UNL     1      -6.502   9.344 -10.824  1.00  0.00     0.000 C 
BRANCH   2   3
ATOM      3  C   UNL     1      -7.595   8.963  -9.810  1.00  0.00     0.006 C 
BRANCH   3   4
ATOM      4  C   UNL     1      -7.810   7.446  -9.735  1.00  0.00     0.053 C 
BRANCH   4   5
ATOM      5  C   UNL     1      -6.905   6.802  -8.729  1.00  0.00     0.041 C 
ATOM      6  O   UNL     1      -7.054   7.036  -7.501  1.00  0.00    -0.550 OA
ATOM      7  O   UNL     1      -5.877   5.968  -9.151  1.00  0.00    -0.550 OA
ENDBRANCH   4   5
ENDBRANCH   3   4
ENDBRANCH   2   3
ENDBRANCH   1   2
BRANCH   1   8
ATOM      8  C   UNL     1      -5.514  10.500  -8.765  1.00  0.00     0.000 C 
BRANCH   8   9
ATOM      9  C   UNL     1      -4.778   9.764  -7.633  1.00  0.00     0.006 C 
BRANCH   9  10
ATOM     10  C   UNL     1      -3.845   8.661  -8.154  1.00  0.00     0.053 C 
BRANCH  10  11
ATOM     11  C   UNL     1      -3.260   7.894  -7.011  1.00  0.00     0.041 C 
ATOM     12  O   UNL     1      -2.249   8.335  -6.403  1.00  0.00    -0.550 OA
ATOM     13  O   UNL     1      -3.858   6.714  -6.587  1.00  0.00    -0.550 OA
ENDBRANCH  10  11
ENDBRANCH   9  10
ENDBRANCH   8   9
ENDBRANCH   1   8
TORSDOF 8
ENDMDL
MODEL 9
REMARK VINA RESULT:    -4.752      1.453      2.615
REMARK INTER + INTRA:          -7.659
REMARK INTER:                  -6.870
REMARK INTRA:                  -0.789
REMARK UNBOUND:                -0.684
REMARK SMILES O=C([O-])CCCCCCCC(=O)[O-]
REMARK SMILES IDX 7 1 6 2 5 3 4 4 2 5 1 6 3 7 8 8 9 9 10 10 11 11 12 12 13 13
REMARK H PARENT
REMARK Flexibility Score: inf
ROOT
ATOM      1  C   UNL     1      -5.606   7.045  -7.885  1.00  0.00     0.000 C 
ENDROOT
BRANCH   1   2
ATOM      2  C   UNL     1      -4.163   7.520  -8.131  1.00  0.00     0.000 C 
BRANCH   2   3
ATOM      3  C   UNL     1      -3.989   9.031  -7.896  1.00  0.00     0.006 C 
BRANCH   3   4
ATOM      4  C   UNL     1      -4.364   9.856  -9.134  1.00  0.00     0.053 C 
BRANCH   4   5
ATOM      5  C   UNL     1      -5.276  10.994  -8.792  1.00  0.00     0.041 C 
ATOM      6  O   UNL     1      -6.176  10.847  -7.923  1.00  0.00    -0.550 OA
ATOM      7  O   UNL     1      -5.152  12.209  -9.455  1.00  0.00    -0.550 OA
ENDBRANCH   4   5
ENDBRANCH   3   4
ENDBRANCH   2   3
ENDBRANCH   1   2
BRANCH   1   8
ATOM      8  C   UNL     1      -6.187   6.274  -9.082  1.00  0.00     0.000 C 
BRANCH   8   9
ATOM      9  C   UNL     1      -6.595   7.200 -10.239  1.00  0.00     0.006 C 
BRANCH   9  10
ATOM     10  C   UNL     1      -7.671   8.217  -9.833  1.00  0.00     0.053 C 
BRANCH  10  11
ATOM     11  C   UNL     1      -7.641   9.399 -10.749  1.00  0.00     0.041 C 
ATOM     12  O   UNL     1      -6.885   9.402 -11.756  1.00  0.00    -0.550 OA
ATOM     13  O   UNL     1      -8.483  10.479 -10.517  1.00  0.00    -0.550 OA
ENDBRANCH  10  11
ENDBRANCH   9  10
ENDBRANCH   8   9
ENDBRANCH   1   8
TORSDOF 8
ENDMDL
