MODEL 1
REMARK VINA RESULT:    -6.789      0.000      0.000
REMARK INTER + INTRA:          -7.800
REMARK INTER:                  -7.583
REMARK INTRA:                  -0.217
REMARK UNBOUND:                -0.217
REMARK SMILES CC(C)c1ccc(C(=O)[O-])cc1
REMARK SMILES IDX 7 1 6 2 11 3 5 4 12 5 4 6 8 7 9 8 10 9 2 10 1 11 3 12
REMARK H PARENT
REMARK Flexibility Score: inf
ROOT
ATOM      1  C   UNL     1      -2.007  -1.725  -0.798  1.00  0.00    -0.003 A 
ATOM      2  C   UNL     1      -1.228  -2.891  -0.738  1.00  0.00     0.010 A 
ATOM      3  C   UNL     1      -1.524  -0.550  -0.197  1.00  0.00     0.010 A 
ATOM      4  C   UNL     1       0.011  -2.885  -0.089  1.00  0.00     0.004 A 
ATOM      5  C   UNL     1      -0.286  -0.544   0.452  1.00  0.00     0.004 A 
ATOM      6  C   UNL     1       0.497  -1.712   0.513  1.00  0.00    -0.045 A 
ENDROOT
BRANCH   1   7
ATOM      7  C   UNL     1      -3.318  -1.737  -1.486  1.00  0.00     0.071 C 
ATOM      8  O   UNL     1      -4.289  -1.079  -1.026  1.00  0.00    -0.545 OA
ATOM      9  O   UNL     1      -3.495  -2.476  -2.650  1.00  0.00    -0.545 OA
ENDBRANCH   1   7
BRANCH   6  10
ATOM     10  C   UNL     1       1.842  -1.718   1.214  1.00  0.00     0.013 C 
ATOM     11  C   UNL     1       2.417  -0.301   1.321  1.00  0.00     0.012 C 
ATOM     12  C   UNL     1       2.826  -2.662   0.512  1.00  0.00     0.012 C 
ENDBRANCH   6  10
TORSDOF 2
ENDMDL
MODEL 2
REMARK VINA RESULT:    -6.769      0.087      1.400
REMARK INTER + INTRA:          -7.778
REMARK INTER:                  -7.562
REMARK INTRA:                  -0.216
REMARK UNBOUND:                -0.217
REMARK SMILES CC(C)c1ccc(C(=O)[O-])cc1
REMARK SMILES IDX 7 1 6 2 11 3 5 4 12 5 4 6 8 7 9 8 10 9 2 10 1 11 3 12
REMARK H PARENT
REMARK Flexibility Score: inf
ROOT
ATOM      1  C   UNL     1      -2.040  -1.734  -0.749  1.00  0.00    -0.003 A 
ATOM      2  C   UNL     1      -1.522  -0.564  -0.171  1.00  0.00     0.010 A 
ATOM      3  C   UNL     1      -1.282  -2.916  -0.691  1.00  0.00     0.010 A 
ATOM      4  C   UNL     1      -0.271  -0.573   0.454  1.00  0.00     0.004 A 
ATOM      5  C   UNL     1      -0.031  -2.925  -0.067  1.00  0.00     0.004 A 
ATOM      6  C   UNL     1       0.489  -1.754   0.514  1.00  0.00    -0.045 A 
ENDROOT
BRANCH   1   7
ATOM      7  C   UNL     1      -3.364  -1.718  -1.410  1.00  0.00     0.071 C 
ATOM      8  O   UNL     1      -4.347  -1.153  -0.861  1.00  0.00    -0.545 OA
ATOM      9  O   UNL     1      -3.541  -2.328  -2.647  1.00  0.00    -0.545 OA
ENDBRANCH   1   7
BRANCH   6  10
ATOM     10  C   UNL     1       1.845  -1.751   1.195  1.00  0.00     0.013 C 
ATOM     11  C   UNL     1       2.417  -0.331   1.282  1.00  0.00     0.012 C 
ATOM     12  C   UNL     1       2.821  -2.697   0.486  1.00  0.00     0.012 C 
ENDBRANCH   6  10
TORSDOF 2
ENDMDL
MODEL 3
REMARK VINA RESULT:    -5.862      3.046      5.094
REMARK INTER + INTRA:          -6.764
REMARK INTER:                  -6.543
REMARK INTRA:                  -0.221
REMARK UNBOUND:                -0.217
REMARK SMILES CC(C)c1ccc(C(=O)[O-])cc1
REMARK SMILES IDX 7 1 6 2 11 3 5 4 12 5 4 6 8 7 9 8 10 9 2 10 1 11 3 12
REMARK H PARENT
REMARK Flexibility Score: inf
ROOT
ATOM      1  C   UNL     1       0.623  -1.519   0.455  1.00  0.00    -0.003 A 
ATOM      2  C   UNL     1       0.356  -2.809  -0.034  1.00  0.00     0.010 A 
ATOM      3  C   UNL     1      -0.363  -0.526   0.328  1.00  0.00     0.010 A 
ATOM      4  C   UNL     1      -0.870  -3.100  -0.638  1.00  0.00     0.004 A 
ATOM      5  C   UNL     1      -1.589  -0.816  -0.276  1.00  0.00     0.004 A 
ATOM      6  C   UNL     1      -1.858  -2.108  -0.765  1.00  0.00    -0.045 A 
ENDROOT
BRANCH   1   7
ATOM      7  C   UNL     1       1.923  -1.216   1.093  1.00  0.00     0.071 C 
ATOM      8  O   UNL     1       2.764  -2.130   1.300  1.00  0.00    -0.545 OA
ATOM      9  O   UNL     1       2.234   0.085   1.472  1.00  0.00    -0.545 OA
ENDBRANCH   1   7
BRANCH   6  10
ATOM     10  C   UNL     1      -3.185  -2.437  -1.423  1.00  0.00     0.013 C 
ATOM     11  C   UNL     1      -2.989  -3.350  -2.639  1.00  0.00     0.012 C 
ATOM     12  C   UNL     1      -3.943  -1.161  -1.806  1.00  0.00     0.012 C 
ENDBRANCH   6  10
TORSDOF 2
ENDMDL
MODEL 4
REMARK VINA RESULT:    -5.818      3.066      5.278
REMARK INTER + INTRA:          -6.716
REMARK INTER:                  -6.495
REMARK INTRA:                  -0.221
REMARK UNBOUND:                -0.217
REMARK SMILES CC(C)c1ccc(C(=O)[O-])cc1
REMARK SMILES IDX 7 1 6 2 11 3 5 4 12 5 4 6 8 7 9 8 10 9 2 10 1 11 3 12
REMARK H PARENT
REMARK Flexibility Score: inf
ROOT
ATOM      1  C   UNL     1       0.672  -1.555   0.456  1.00  0.00    -0.003 A 
ATOM      2  C   UNL     1      -0.308  -0.561   0.309  1.00  0.00     0.010 A 
ATOM      3  C   UNL     1       0.402  -2.852  -0.015  1.00  0.00     0.010 A 
ATOM      4  C   UNL     1      -1.534  -0.854  -0.295  1.00  0.00     0.004 A 
ATOM      5  C   UNL     1      -0.824  -3.147  -0.618  1.00  0.00     0.004 A 
ATOM      6  C   UNL     1      -1.806  -2.151  -0.766  1.00  0.00    -0.045 A 
ENDROOT
BRANCH   1   7
ATOM      7  C   UNL     1       1.968  -1.239   1.096  1.00  0.00     0.071 C 
ATOM      8  O   UNL     1       2.788  -2.155   1.370  1.00  0.00    -0.545 OA
ATOM      9  O   UNL     1       2.299   0.076   1.403  1.00  0.00    -0.545 OA
ENDBRANCH   1   7
BRANCH   6  10
ATOM     10  C   UNL     1      -3.141  -2.457  -1.419  1.00  0.00     0.013 C 
ATOM     11  C   UNL     1      -2.959  -3.333  -2.665  1.00  0.00     0.012 C 
ATOM     12  C   UNL     1      -3.900  -1.168  -1.757  1.00  0.00     0.012 C 
ENDBRANCH   6  10
TORSDOF 2
ENDMDL
MODEL 5
REMARK VINA RESULT:    -4.306     10.938     12.235
REMARK INTER + INTRA:          -5.026
REMARK INTER:                  -4.809
REMARK INTRA:                  -0.218
REMARK UNBOUND:                -0.217
REMARK SMILES CC(C)c1ccc(C(=O)[O-])cc1
REMARK SMILES IDX 7 1 6 2 11 3 5 4 12 5 4 6 8 7 9 8 10 9 2 10 1 11 3 12
REMARK H PARENT
REMARK Flexibility Score: inf
ROOT
ATOM      1  C   UNL     1       7.522  -9.343  -4.016  1.00  0.00    -0.003 A 
ATOM      2  C   UNL     1       7.060  -9.351  -5.342  1.00  0.00     0.010 A 
ATOM      3  C   UNL     1       6.612  -9.594  -2.975  1.00  0.00     0.010 A 
ATOM      4  C   UNL     1       5.714  -9.602  -5.623  1.00  0.00     0.004 A 
ATOM      5  C   UNL     1       5.266  -9.845  -3.256  1.00  0.00     0.004 A 
ATOM      6  C   UNL     1       4.801  -9.853  -4.584  1.00  0.00    -0.045 A 
ENDROOT
BRANCH   1   7
ATOM      7  C   UNL     1       8.948  -9.076  -3.723  1.00  0.00     0.071 C 
ATOM      8  O   UNL     1       9.500  -9.581  -2.710  1.00  0.00    -0.545 OA
ATOM      9  O   UNL     1       9.699  -8.263  -4.565  1.00  0.00    -0.545 OA
ENDBRANCH   1   7
BRANCH   6  10
ATOM     10  C   UNL     1       3.343 -10.125  -4.903  1.00  0.00     0.013 C 
ATOM     11  C   UNL     1       2.809  -9.132  -5.942  1.00  0.00     0.012 C 
ATOM     12  C   UNL     1       2.487 -10.107  -3.631  1.00  0.00     0.012 C 
ENDBRANCH   6  10
TORSDOF 2
ENDMDL
MODEL 6
REMARK VINA RESULT:    -4.241      9.649     10.204
REMARK INTER + INTRA:          -4.954
REMARK INTER:                  -4.743
REMARK INTRA:                  -0.211
REMARK UNBOUND:                -0.217
REMARK SMILES CC(C)c1ccc(C(=O)[O-])cc1
REMARK SMILES IDX 7 1 6 2 11 3 5 4 12 5 4 6 8 7 9 8 10 9 2 10 1 11 3 12
REMARK H PARENT
REMARK Flexibility Score: inf
ROOT
ATOM      1  C   UNL     1       2.469  -9.424  -5.750  1.00  0.00    -0.003 A 
ATOM      2  C   UNL     1       2.514  -9.994  -4.467  1.00  0.00     0.010 A 
ATOM      3  C   UNL     1       3.665  -8.984  -6.342  1.00  0.00     0.010 A 
ATOM      4  C   UNL     1       3.730 -10.122  -3.789  1.00  0.00     0.004 A 
ATOM      5  C   UNL     1       4.881  -9.111  -5.664  1.00  0.00     0.004 A 
ATOM      6  C   UNL     1       4.927  -9.682  -4.379  1.00  0.00    -0.045 A 
ENDROOT
BRANCH   1   7
ATOM      7  C   UNL     1       1.180  -9.291  -6.464  1.00  0.00     0.071 C 
ATOM      8  O   UNL     1       0.339  -8.421  -6.112  1.00  0.00    -0.545 OA
ATOM      9  O   UNL     1       0.879 -10.125  -7.535  1.00  0.00    -0.545 OA
ENDBRANCH   1   7
BRANCH   6  10
ATOM     10  C   UNL     1       6.240  -9.827  -3.632  1.00  0.00     0.013 C 
ATOM     11  C   UNL     1       6.118  -9.311  -2.193  1.00  0.00     0.012 C 
ATOM     12  C   UNL     1       7.380  -9.122  -4.376  1.00  0.00     0.012 C 
ENDBRANCH   6  10
TORSDOF 2
ENDMDL
MODEL 7
REMARK VINA RESULT:    -3.888      3.223      5.221
REMARK INTER + INTRA:          -4.560
REMARK INTER:                  -4.339
REMARK INTRA:                  -0.220
REMARK UNBOUND:                -0.217
REMARK SMILES CC(C)c1ccc(C(=O)[O-])cc1
REMARK SMILES IDX 7 1 6 2 11 3 5 4 12 5 4 6 8 7 9 8 10 9 2 10 1 11 3 12
REMARK H PARENT
REMARK Flexibility Score: inf
ROOT
ATOM      1  C   UNL     1       0.788  -0.746   0.616  1.00  0.00    -0.003 A 
ATOM      2  C   UNL     1      -0.387   0.013   0.740  1.00  0.00     0.010 A 
ATOM      3  C   UNL     1       0.731  -1.988  -0.040  1.00  0.00     0.010 A 
ATOM      4  C   UNL     1      -1.596  -0.459   0.221  1.00  0.00     0.004 A 
ATOM      5  C   UNL     1      -0.478  -2.461  -0.559  1.00  0.00     0.004 A 
ATOM      6  C   UNL     1      -1.656  -1.701  -0.435  1.00  0.00    -0.045 A 
ENDROOT
BRANCH   1   7
ATOM      7  C   UNL     1       2.065  -0.242   1.168  1.00  0.00     0.071 C 
ATOM      8  O   UNL     1       2.190   0.970   1.491  1.00  0.00    -0.545 OA
ATOM      9  O   UNL     1       3.146  -1.099   1.338  1.00  0.00    -0.545 OA
ENDBRANCH   1   7
BRANCH   6  10
ATOM     10  C   UNL     1      -2.974  -2.203  -0.994  1.00  0.00     0.013 C 
ATOM     11  C   UNL     1      -2.747  -3.250  -2.091  1.00  0.00     0.012 C 
ATOM     12  C   UNL     1      -3.833  -1.042  -1.509  1.00  0.00     0.012 C 
ENDBRANCH   6  10
TORSDOF 2
ENDMDL
MODEL 8
REMARK VINA RESULT:    -3.838     10.796     12.153
REMARK INTER + INTRA:          -4.504
REMARK INTER:                  -4.292
REMARK INTRA:                  -0.212
REMARK UNBOUND:                -0.217
REMARK SMILES CC(C)c1ccc(C(=O)[O-])cc1
REMARK SMILES IDX 7 1 6 2 11 3 5 4 12 5 4 6 8 7 9 8 10 9 2 10 1 11 3 12
REMARK H PARENT
REMARK Flexibility Score: inf
ROOT
ATOM      1  C   UNL     1       7.741  -9.373  -1.020  1.00  0.00    -0.003 A 
ATOM      2  C   UNL     1       8.386  -9.899  -2.151  1.00  0.00     0.010 A 
ATOM      3  C   UNL     1       6.376  -9.053  -1.102  1.00  0.00     0.010 A 
ATOM      4  C   UNL     1       7.681 -10.101  -3.342  1.00  0.00     0.004 A 
ATOM      5  C   UNL     1       5.670  -9.253  -2.292  1.00  0.00     0.004 A 
ATOM      6  C   UNL     1       6.315  -9.781  -3.426  1.00  0.00    -0.045 A 
ENDROOT
BRANCH   1   7
ATOM      7  C   UNL     1       8.492  -9.161   0.237  1.00  0.00     0.071 C 
ATOM      8  O   UNL     1       9.744  -9.022   0.220  1.00  0.00    -0.545 OA
ATOM      9  O   UNL     1       7.825  -9.113   1.456  1.00  0.00    -0.545 OA
ENDBRANCH   1   7
BRANCH   6  10
ATOM     10  C   UNL     1       5.562 -10.004  -4.724  1.00  0.00     0.013 C 
ATOM     11  C   UNL     1       5.999  -9.001  -5.798  1.00  0.00     0.012 C 
ATOM     12  C   UNL     1       4.046  -9.947  -4.499  1.00  0.00     0.012 C 
ENDBRANCH   6  10
TORSDOF 2
ENDMDL
