MODEL 1
REMARK VINA RESULT:    -4.068      0.000      0.000
REMARK INTER + INTRA:          -7.285
REMARK INTER:                  -5.495
REMARK INTRA:                  -1.790
REMARK UNBOUND:                -1.790
REMARK SMILES CC[C@H](CC[C@@H](C)[C@@H]1CC[C@H]2[C@H]3CC(=O)C4=CC(=O)CC[C@@]4(C)[C@H]3CC[C@]21C)C(C)C
REMARK SMILES IDX 4 1 3 2 2 3 1 4 29 5 30 6 31 7 5 8 6 9 7 10 8 11 9 12 27 13
REMARK SMILES IDX 10 14 11 15 26 16 28 17 12 18 25 19 24 20 13 21 22 22 14 23
REMARK SMILES IDX 16 24 21 25 23 26 15 27 17 28 20 29 18 30 19 31
REMARK H PARENT
REMARK Flexibility Score: inf
ROOT
ATOM      1  C   UNL     1     153.848 153.374 153.272  1.00  0.00     0.004 C 
ENDROOT
BRANCH   1   2
ATOM      2  C   UNL     1     154.868 154.162 154.141  1.00  0.00    -0.009 C 
BRANCH   2   3
ATOM      3  C   UNL     1     154.599 153.893 155.655  1.00  0.00     0.000 C 
ATOM      4  C   UNL     1     155.887 153.773 156.474  1.00  0.00     0.004 C 
ENDBRANCH   2   3
BRANCH   2   5
ATOM      5  C   UNL     1     156.358 153.893 153.734  1.00  0.00    -0.014 C 
ATOM      6  C   UNL     1     156.502 152.613 152.886  1.00  0.00     0.007 C 
ATOM      7  C   UNL     1     156.960 155.070 152.948  1.00  0.00     0.007 C 
ENDBRANCH   2   5
ENDBRANCH   1   2
BRANCH   1   8
ATOM      8  C   UNL     1     152.713 154.253 152.693  1.00  0.00     0.004 C 
BRANCH   8   9
ATOM      9  C   UNL     1     152.893 154.662 151.200  1.00  0.00    -0.011 C 
ATOM     10  C   UNL     1     152.636 156.180 151.066  1.00  0.00     0.008 C 
BRANCH   9  11
ATOM     11  C   UNL     1     154.259 154.161 150.559  1.00  0.00    -0.002 C 
ATOM     12  C   UNL     1     155.046 155.281 149.848  1.00  0.00     0.005 C 
ATOM     13  C   UNL     1     154.122 153.095 149.408  1.00  0.00    -0.026 C 
ATOM     14  C   UNL     1     154.540 155.313 148.411  1.00  0.00     0.005 C 
ATOM     15  C   UNL     1     153.813 153.975 148.172  1.00  0.00    -0.001 C 
ATOM     16  C   UNL     1     155.473 152.305 149.237  1.00  0.00     0.007 C 
ATOM     17  C   UNL     1     152.995 152.055 149.623  1.00  0.00     0.012 C 
ATOM     18  C   UNL     1     154.084 153.291 146.793  1.00  0.00     0.004 C 
ATOM     19  C   UNL     1     156.287 152.654 147.982  1.00  0.00     0.005 C 
ATOM     20  C   UNL     1     155.452 152.502 146.689  1.00  0.00     0.003 C 
ATOM     21  C   UNL     1     153.780 154.273 145.633  1.00  0.00     0.085 C 
ATOM     22  C   UNL     1     156.267 152.731 145.339  1.00  0.00    -0.000 C 
ATOM     23  C   UNL     1     155.005 154.978 145.161  1.00  0.00     0.159 C 
ATOM     24  C   UNL     1     156.232 154.201 144.915  1.00  0.00     0.005 C 
ATOM     25  C   UNL     1     157.760 152.276 145.479  1.00  0.00     0.020 C 
ATOM     26  C   UNL     1     155.612 151.875 144.219  1.00  0.00     0.017 C 
ATOM     27  O   UNL     1     154.961 156.220 144.940  1.00  0.00    -0.295 OA
ATOM     28  C   UNL     1     157.229 154.749 144.189  1.00  0.00     0.055 C 
ATOM     29  C   UNL     1     158.587 152.553 144.220  1.00  0.00     0.081 C 
ATOM     30  C   UNL     1     158.426 153.982 143.803  1.00  0.00     0.156 C 
ATOM     31  O   UNL     1     159.302 154.523 143.077  1.00  0.00    -0.295 OA
ENDBRANCH   9  11
ENDBRANCH   8   9
ENDBRANCH   1   8
TORSDOF 6
ENDMDL
MODEL 2
REMARK VINA RESULT:    -3.979      2.088      3.937
REMARK INTER + INTRA:          -7.165
REMARK INTER:                  -5.351
REMARK INTRA:                  -1.814
REMARK UNBOUND:                -1.790
REMARK SMILES CC[C@H](CC[C@@H](C)[C@@H]1CC[C@H]2[C@H]3CC(=O)C4=CC(=O)CC[C@@]4(C)[C@H]3CC[C@]21C)C(C)C
REMARK SMILES IDX 4 1 3 2 2 3 1 4 29 5 30 6 31 7 5 8 6 9 7 10 8 11 9 12 27 13
REMARK SMILES IDX 10 14 11 15 26 16 28 17 12 18 25 19 24 20 13 21 22 22 14 23
REMARK SMILES IDX 16 24 21 25 23 26 15 27 17 28 20 29 18 30 19 31
REMARK H PARENT
REMARK Flexibility Score: inf
ROOT
ATOM      1  C   UNL     1     154.758 154.440 151.254  1.00  0.00     0.004 C 
ENDROOT
BRANCH   1   2
ATOM      2  C   UNL     1     153.305 154.909 151.547  1.00  0.00    -0.009 C 
BRANCH   2   3
ATOM      3  C   UNL     1     153.090 155.056 153.085  1.00  0.00     0.000 C 
ATOM      4  C   UNL     1     152.362 153.857 153.700  1.00  0.00     0.004 C 
ENDBRANCH   2   3
BRANCH   2   5
ATOM      5  C   UNL     1     152.906 156.201 150.754  1.00  0.00    -0.014 C 
ATOM      6  C   UNL     1     154.130 156.885 150.113  1.00  0.00     0.007 C 
ATOM      7  C   UNL     1     151.878 155.903 149.648  1.00  0.00     0.007 C 
ENDBRANCH   2   5
ENDBRANCH   1   2
BRANCH   1   8
ATOM      8  C   UNL     1     154.870 152.937 150.906  1.00  0.00     0.004 C 
BRANCH   8   9
ATOM      9  C   UNL     1     154.543 152.578 149.424  1.00  0.00    -0.011 C 
ATOM     10  C   UNL     1     153.154 151.903 149.372  1.00  0.00     0.008 C 
BRANCH   9  11
ATOM     11  C   UNL     1     154.730 153.792 148.416  1.00  0.00    -0.002 C 
ATOM     12  C   UNL     1     153.836 153.688 147.163  1.00  0.00     0.005 C 
ATOM     13  C   UNL     1     156.160 153.928 147.769  1.00  0.00    -0.026 C 
ATOM     14  C   UNL     1     154.630 152.888 146.136  1.00  0.00     0.005 C 
ATOM     15  C   UNL     1     156.099 152.910 146.604  1.00  0.00    -0.001 C 
ATOM     16  C   UNL     1     156.382 155.398 147.249  1.00  0.00     0.007 C 
ATOM     17  C   UNL     1     157.332 153.587 148.722  1.00  0.00     0.012 C 
ATOM     18  C   UNL     1     157.166 153.129 145.483  1.00  0.00     0.004 C 
ATOM     19  C   UNL     1     156.348 155.569 145.723  1.00  0.00     0.005 C 
ATOM     20  C   UNL     1     157.351 154.629 145.013  1.00  0.00     0.003 C 
ATOM     21  C   UNL     1     156.987 152.084 144.354  1.00  0.00     0.085 C 
ATOM     22  C   UNL     1     157.457 154.838 143.436  1.00  0.00    -0.000 C 
ATOM     23  C   UNL     1     156.164 152.611 143.228  1.00  0.00     0.159 C 
ATOM     24  C   UNL     1     156.455 153.953 142.692  1.00  0.00     0.005 C 
ATOM     25  C   UNL     1     157.216 156.332 143.032  1.00  0.00     0.020 C 
ATOM     26  C   UNL     1     158.893 154.449 142.985  1.00  0.00     0.017 C 
ATOM     27  O   UNL     1     155.262 151.887 142.725  1.00  0.00    -0.295 OA
ATOM     28  C   UNL     1     155.958 154.308 141.490  1.00  0.00     0.055 C 
ATOM     29  C   UNL     1     157.238 156.550 141.516  1.00  0.00     0.081 C 
ATOM     30  C   UNL     1     156.312 155.584 140.844  1.00  0.00     0.156 C 
ATOM     31  O   UNL     1     155.866 155.842 139.695  1.00  0.00    -0.295 OA
ENDBRANCH   9  11
ENDBRANCH   8   9
ENDBRANCH   1   8
TORSDOF 6
ENDMDL
MODEL 3
REMARK VINA RESULT:    -3.947      2.876      8.762
REMARK INTER + INTRA:          -7.121
REMARK INTER:                  -5.458
REMARK INTRA:                  -1.663
REMARK UNBOUND:                -1.790
REMARK SMILES CC[C@H](CC[C@@H](C)[C@@H]1CC[C@H]2[C@H]3CC(=O)C4=CC(=O)CC[C@@]4(C)[C@H]3CC[C@]21C)C(C)C
REMARK SMILES IDX 4 1 3 2 2 3 1 4 29 5 30 6 31 7 5 8 6 9 7 10 8 11 9 12 27 13
REMARK SMILES IDX 10 14 11 15 26 16 28 17 12 18 25 19 24 20 13 21 22 22 14 23
REMARK SMILES IDX 16 24 21 25 23 26 15 27 17 28 20 29 18 30 19 31
REMARK H PARENT
REMARK Flexibility Score: inf
ROOT
ATOM      1  C   UNL     1     155.799 153.136 141.572  1.00  0.00     0.004 C 
ENDROOT
BRANCH   1   2
ATOM      2  C   UNL     1     155.033 154.243 140.795  1.00  0.00    -0.009 C 
BRANCH   2   3
ATOM      3  C   UNL     1     153.523 154.223 141.188  1.00  0.00     0.000 C 
ATOM      4  C   UNL     1     152.593 154.230 139.971  1.00  0.00     0.004 C 
ENDBRANCH   2   3
BRANCH   2   5
ATOM      5  C   UNL     1     155.680 155.663 140.953  1.00  0.00    -0.014 C 
ATOM      6  C   UNL     1     155.855 156.371 139.595  1.00  0.00     0.007 C 
ATOM      7  C   UNL     1     154.851 156.573 141.876  1.00  0.00     0.007 C 
ENDBRANCH   2   5
ENDBRANCH   1   2
BRANCH   1   8
ATOM      8  C   UNL     1     157.193 153.580 142.077  1.00  0.00     0.004 C 
BRANCH   8   9
ATOM      9  C   UNL     1     157.351 153.617 143.627  1.00  0.00    -0.011 C 
ATOM     10  C   UNL     1     158.724 154.236 143.972  1.00  0.00     0.008 C 
BRANCH   9  11
ATOM     11  C   UNL     1     156.117 154.277 144.381  1.00  0.00    -0.002 C 
ATOM     12  C   UNL     1     156.530 155.377 145.381  1.00  0.00     0.005 C 
ATOM     13  C   UNL     1     155.285 153.311 145.305  1.00  0.00    -0.026 C 
ATOM     14  C   UNL     1     156.791 154.673 146.708  1.00  0.00     0.005 C 
ATOM     15  C   UNL     1     156.125 153.286 146.606  1.00  0.00    -0.001 C 
ATOM     16  C   UNL     1     153.846 153.900 145.551  1.00  0.00     0.007 C 
ATOM     17  C   UNL     1     155.114 151.875 144.749  1.00  0.00     0.012 C 
ATOM     18  C   UNL     1     155.353 152.809 147.879  1.00  0.00     0.004 C 
ATOM     19  C   UNL     1     153.596 154.465 146.958  1.00  0.00     0.005 C 
ATOM     20  C   UNL     1     153.908 153.428 148.062  1.00  0.00     0.003 C 
ATOM     21  C   UNL     1     156.275 152.863 149.123  1.00  0.00     0.085 C 
ATOM     22  C   UNL     1     153.556 153.905 149.541  1.00  0.00    -0.000 C 
ATOM     23  C   UNL     1     156.106 154.130 149.890  1.00  0.00     0.159 C 
ATOM     24  C   UNL     1     154.747 154.612 150.192  1.00  0.00     0.005 C 
ATOM     25  C   UNL     1     152.319 154.865 149.562  1.00  0.00     0.020 C 
ATOM     26  C   UNL     1     153.200 152.652 150.389  1.00  0.00     0.017 C 
ATOM     27  O   UNL     1     157.126 154.747 150.302  1.00  0.00    -0.295 OA
ATOM     28  C   UNL     1     154.574 155.553 151.144  1.00  0.00     0.055 C 
ATOM     29  C   UNL     1     152.003 155.400 150.963  1.00  0.00     0.081 C 
ATOM     30  C   UNL     1     153.235 155.986 151.579  1.00  0.00     0.156 C 
ATOM     31  O   UNL     1     153.127 156.825 152.512  1.00  0.00    -0.295 OA
ENDBRANCH   9  11
ENDBRANCH   8   9
ENDBRANCH   1   8
TORSDOF 6
ENDMDL
MODEL 4
REMARK VINA RESULT:    -3.921      1.963      4.014
REMARK INTER + INTRA:          -7.087
REMARK INTER:                  -6.022
REMARK INTRA:                  -1.064
REMARK UNBOUND:                -1.790
REMARK SMILES CC[C@H](CC[C@@H](C)[C@@H]1CC[C@H]2[C@H]3CC(=O)C4=CC(=O)CC[C@@]4(C)[C@H]3CC[C@]21C)C(C)C
REMARK SMILES IDX 4 1 3 2 2 3 1 4 29 5 30 6 31 7 5 8 6 9 7 10 8 11 9 12 27 13
REMARK SMILES IDX 10 14 11 15 26 16 28 17 12 18 25 19 24 20 13 21 22 22 14 23
REMARK SMILES IDX 16 24 21 25 23 26 15 27 17 28 20 29 18 30 19 31
REMARK H PARENT
REMARK Flexibility Score: inf
ROOT
ATOM      1  C   UNL     1     153.257 154.050 151.149  1.00  0.00     0.004 C 
ENDROOT
BRANCH   1   2
ATOM      2  C   UNL     1     153.638 153.508 152.556  1.00  0.00    -0.009 C 
BRANCH   2   3
ATOM      3  C   UNL     1     155.036 154.058 152.978  1.00  0.00     0.000 C 
ATOM      4  C   UNL     1     156.123 152.979 152.979  1.00  0.00     0.004 C 
ENDBRANCH   2   3
BRANCH   2   5
ATOM      5  C   UNL     1     152.533 153.773 153.635  1.00  0.00    -0.014 C 
ATOM      6  C   UNL     1     153.022 153.434 155.057  1.00  0.00     0.007 C 
ATOM      7  C   UNL     1     152.052 155.235 153.619  1.00  0.00     0.007 C 
ENDBRANCH   2   5
ENDBRANCH   1   2
BRANCH   1   8
ATOM      8  C   UNL     1     153.242 152.964 150.047  1.00  0.00     0.004 C 
BRANCH   8   9
ATOM      9  C   UNL     1     154.437 153.025 149.047  1.00  0.00    -0.011 C 
ATOM     10  C   UNL     1     155.419 151.879 149.377  1.00  0.00     0.008 C 
BRANCH   9  11
ATOM     11  C   UNL     1     153.992 153.100 147.523  1.00  0.00    -0.002 C 
ATOM     12  C   UNL     1     154.712 152.072 146.626  1.00  0.00     0.005 C 
ATOM     13  C   UNL     1     154.325 154.449 146.781  1.00  0.00    -0.026 C 
ATOM     14  C   UNL     1     155.993 152.744 146.146  1.00  0.00     0.005 C 
ATOM     15  C   UNL     1     155.810 154.257 146.386  1.00  0.00    -0.001 C 
ATOM     16  C   UNL     1     153.402 154.614 145.516  1.00  0.00     0.007 C 
ATOM     17  C   UNL     1     154.160 155.720 147.650  1.00  0.00     0.012 C 
ATOM     18  C   UNL     1     156.312 155.192 145.238  1.00  0.00     0.004 C 
ATOM     19  C   UNL     1     154.097 154.411 144.161  1.00  0.00     0.005 C 
ATOM     20  C   UNL     1     155.334 155.327 144.002  1.00  0.00     0.003 C 
ATOM     21  C   UNL     1     157.793 154.886 144.899  1.00  0.00     0.085 C 
ATOM     22  C   UNL     1     156.034 155.256 142.572  1.00  0.00    -0.000 C 
ATOM     23  C   UNL     1     157.921 153.944 143.751  1.00  0.00     0.159 C 
ATOM     24  C   UNL     1     157.117 154.175 142.538  1.00  0.00     0.005 C 
ATOM     25  C   UNL     1     154.997 154.974 141.432  1.00  0.00     0.020 C 
ATOM     26  C   UNL     1     156.697 156.631 142.281  1.00  0.00     0.017 C 
ATOM     27  O   UNL     1     158.743 152.989 143.819  1.00  0.00    -0.295 OA
ATOM     28  C   UNL     1     157.451 153.547 141.392  1.00  0.00     0.055 C 
ATOM     29  C   UNL     1     155.651 154.826 140.054  1.00  0.00     0.081 C 
ATOM     30  C   UNL     1     156.766 153.829 140.119  1.00  0.00     0.156 C 
ATOM     31  O   UNL     1     157.154 153.258 139.066  1.00  0.00    -0.295 OA
ENDBRANCH   9  11
ENDBRANCH   8   9
ENDBRANCH   1   8
TORSDOF 6
ENDMDL
MODEL 5
REMARK VINA RESULT:    -3.910     19.661     22.456
REMARK INTER + INTRA:          -7.071
REMARK INTER:                  -5.617
REMARK INTRA:                  -1.454
REMARK UNBOUND:                -1.790
REMARK SMILES CC[C@H](CC[C@@H](C)[C@@H]1CC[C@H]2[C@H]3CC(=O)C4=CC(=O)CC[C@@]4(C)[C@H]3CC[C@]21C)C(C)C
REMARK SMILES IDX 4 1 3 2 2 3 1 4 29 5 30 6 31 7 5 8 6 9 7 10 8 11 9 12 27 13
REMARK SMILES IDX 10 14 11 15 26 16 28 17 12 18 25 19 24 20 13 21 22 22 14 23
REMARK SMILES IDX 16 24 21 25 23 26 15 27 17 28 20 29 18 30 19 31
REMARK H PARENT
REMARK Flexibility Score: inf
ROOT
ATOM      1  C   UNL     1     167.977 170.340 141.419  1.00  0.00     0.004 C 
ENDROOT
BRANCH   1   2
ATOM      2  C   UNL     1     168.233 168.936 140.803  1.00  0.00    -0.009 C 
BRANCH   2   3
ATOM      3  C   UNL     1     167.467 168.799 139.450  1.00  0.00     0.000 C 
ATOM      4  C   UNL     1     167.358 167.347 138.975  1.00  0.00     0.004 C 
ENDBRANCH   2   3
BRANCH   2   5
ATOM      5  C   UNL     1     169.758 168.593 140.673  1.00  0.00    -0.014 C 
ATOM      6  C   UNL     1     170.479 169.534 139.688  1.00  0.00     0.007 C 
ATOM      7  C   UNL     1     170.480 168.659 142.030  1.00  0.00     0.007 C 
ENDBRANCH   2   5
ENDBRANCH   1   2
BRANCH   1   8
ATOM      8  C   UNL     1     166.537 170.533 141.952  1.00  0.00     0.004 C 
BRANCH   8   9
ATOM      9  C   UNL     1     166.385 170.407 143.499  1.00  0.00    -0.011 C 
ATOM     10  C   UNL     1     165.029 169.735 143.812  1.00  0.00     0.008 C 
BRANCH   9  11
ATOM     11  C   UNL     1     167.638 169.739 144.213  1.00  0.00    -0.002 C 
ATOM     12  C   UNL     1     167.248 168.684 145.268  1.00  0.00     0.005 C 
ATOM     13  C   UNL     1     168.538 170.713 145.064  1.00  0.00    -0.026 C 
ATOM     14  C   UNL     1     167.070 169.435 146.581  1.00  0.00     0.005 C 
ATOM     15  C   UNL     1     167.765 170.801 146.402  1.00  0.00    -0.001 C 
ATOM     16  C   UNL     1     169.973 170.094 145.259  1.00  0.00     0.007 C 
ATOM     17  C   UNL     1     168.717 172.125 144.452  1.00  0.00     0.012 C 
ATOM     18  C   UNL     1     168.609 171.297 147.620  1.00  0.00     0.004 C 
ATOM     19  C   UNL     1     170.277 169.568 146.669  1.00  0.00     0.005 C 
ATOM     20  C   UNL     1     170.046 170.648 147.753  1.00  0.00     0.003 C 
ATOM     21  C   UNL     1     167.749 171.307 148.908  1.00  0.00     0.085 C 
ATOM     22  C   UNL     1     170.458 170.208 149.228  1.00  0.00    -0.000 C 
ATOM     23  C   UNL     1     167.924 170.061 149.707  1.00  0.00     0.159 C 
ATOM     24  C   UNL     1     169.284 169.553 149.959  1.00  0.00     0.005 C 
ATOM     25  C   UNL     1     171.672 169.217 149.221  1.00  0.00     0.020 C 
ATOM     26  C   UNL     1     170.887 171.478 150.016  1.00  0.00     0.017 C 
ATOM     27  O   UNL     1     166.910 169.484 150.189  1.00  0.00    -0.295 OA
ATOM     28  C   UNL     1     169.481 168.639 150.932  1.00  0.00     0.055 C 
ATOM     29  C   UNL     1     172.043 168.719 150.621  1.00  0.00     0.081 C 
ATOM     30  C   UNL     1     170.829 168.186 151.316  1.00  0.00     0.156 C 
ATOM     31  O   UNL     1     170.961 167.374 152.269  1.00  0.00    -0.295 OA
ENDBRANCH   9  11
ENDBRANCH   8   9
ENDBRANCH   1   8
TORSDOF 6
ENDMDL
MODEL 6
REMARK VINA RESULT:    -3.880      1.408      2.482
REMARK INTER + INTRA:          -7.031
REMARK INTER:                  -5.345
REMARK INTRA:                  -1.687
REMARK UNBOUND:                -1.790
REMARK SMILES CC[C@H](CC[C@@H](C)[C@@H]1CC[C@H]2[C@H]3CC(=O)C4=CC(=O)CC[C@@]4(C)[C@H]3CC[C@]21C)C(C)C
REMARK SMILES IDX 4 1 3 2 2 3 1 4 29 5 30 6 31 7 5 8 6 9 7 10 8 11 9 12 27 13
REMARK SMILES IDX 10 14 11 15 26 16 28 17 12 18 25 19 24 20 13 21 22 22 14 23
REMARK SMILES IDX 16 24 21 25 23 26 15 27 17 28 20 29 18 30 19 31
REMARK H PARENT
REMARK Flexibility Score: inf
ROOT
ATOM      1  C   UNL     1     154.488 154.146 151.981  1.00  0.00     0.004 C 
ENDROOT
BRANCH   1   2
ATOM      2  C   UNL     1     155.343 153.259 152.929  1.00  0.00    -0.009 C 
BRANCH   2   3
ATOM      3  C   UNL     1     156.828 153.242 152.450  1.00  0.00     0.000 C 
ATOM      4  C   UNL     1     157.296 154.600 151.919  1.00  0.00     0.004 C 
ENDBRANCH   2   3
BRANCH   2   5
ATOM      5  C   UNL     1     155.198 153.659 154.438  1.00  0.00    -0.014 C 
ATOM      6  C   UNL     1     153.784 153.371 154.978  1.00  0.00     0.007 C 
ATOM      7  C   UNL     1     156.219 152.926 155.326  1.00  0.00     0.007 C 
ENDBRANCH   2   5
ENDBRANCH   1   2
BRANCH   1   8
ATOM      8  C   UNL     1     153.330 153.386 151.291  1.00  0.00     0.004 C 
BRANCH   8   9
ATOM      9  C   UNL     1     153.252 153.565 149.745  1.00  0.00    -0.011 C 
ATOM     10  C   UNL     1     151.931 154.286 149.394  1.00  0.00     0.008 C 
BRANCH   9  11
ATOM     11  C   UNL     1     154.554 154.219 149.110  1.00  0.00    -0.002 C 
ATOM     12  C   UNL     1     154.251 155.150 147.918  1.00  0.00     0.005 C 
ATOM     13  C   UNL     1     155.580 153.212 148.467  1.00  0.00    -0.026 C 
ATOM     14  C   UNL     1     154.252 154.268 146.675  1.00  0.00     0.005 C 
ATOM     15  C   UNL     1     154.969 152.960 147.066  1.00  0.00    -0.001 C 
ATOM     16  C   UNL     1     157.004 153.876 148.371  1.00  0.00     0.007 C 
ATOM     17  C   UNL     1     155.737 151.875 149.233  1.00  0.00     0.012 C 
ATOM     18  C   UNL     1     155.965 152.389 146.006  1.00  0.00     0.004 C 
ATOM     19  C   UNL     1     157.450 154.278 146.957  1.00  0.00     0.005 C 
ATOM     20  C   UNL     1     157.384 153.089 145.969  1.00  0.00     0.003 C 
ATOM     21  C   UNL     1     155.259 152.215 144.638  1.00  0.00     0.085 C 
ATOM     22  C   UNL     1     157.947 153.404 144.511  1.00  0.00    -0.000 C 
ATOM     23  C   UNL     1     155.480 153.386 143.742  1.00  0.00     0.159 C 
ATOM     24  C   UNL     1     156.842 153.930 143.593  1.00  0.00     0.005 C 
ATOM     25  C   UNL     1     159.115 154.446 144.553  1.00  0.00     0.020 C 
ATOM     26  C   UNL     1     158.508 152.085 143.907  1.00  0.00     0.017 C 
ATOM     27  O   UNL     1     154.509 153.866 143.096  1.00  0.00    -0.295 OA
ATOM     28  C   UNL     1     157.116 154.755 142.561  1.00  0.00     0.055 C 
ATOM     29  C   UNL     1     159.627 154.824 143.160  1.00  0.00     0.081 C 
ATOM     30  C   UNL     1     158.482 155.232 142.285  1.00  0.00     0.156 C 
ATOM     31  O   UNL     1     158.695 155.954 141.275  1.00  0.00    -0.295 OA
ENDBRANCH   9  11
ENDBRANCH   8   9
ENDBRANCH   1   8
TORSDOF 6
ENDMDL
MODEL 7
REMARK VINA RESULT:    -3.870      2.439      4.779
REMARK INTER + INTRA:          -7.017
REMARK INTER:                  -5.257
REMARK INTRA:                  -1.760
REMARK UNBOUND:                -1.790
REMARK SMILES CC[C@H](CC[C@@H](C)[C@@H]1CC[C@H]2[C@H]3CC(=O)C4=CC(=O)CC[C@@]4(C)[C@H]3CC[C@]21C)C(C)C
REMARK SMILES IDX 4 1 3 2 2 3 1 4 29 5 30 6 31 7 5 8 6 9 7 10 8 11 9 12 27 13
REMARK SMILES IDX 10 14 11 15 26 16 28 17 12 18 25 19 24 20 13 21 22 22 14 23
REMARK SMILES IDX 16 24 21 25 23 26 15 27 17 28 20 29 18 30 19 31
REMARK H PARENT
REMARK Flexibility Score: inf
ROOT
ATOM      1  C   UNL     1     155.047 154.452 150.700  1.00  0.00     0.004 C 
ENDROOT
BRANCH   1   2
ATOM      2  C   UNL     1     154.019 153.404 151.211  1.00  0.00    -0.009 C 
BRANCH   2   3
ATOM      3  C   UNL     1     153.504 153.807 152.627  1.00  0.00     0.000 C 
ATOM      4  C   UNL     1     153.474 155.323 152.839  1.00  0.00     0.004 C 
ENDBRANCH   2   3
BRANCH   2   5
ATOM      5  C   UNL     1     152.854 153.142 150.195  1.00  0.00    -0.014 C 
ATOM      6  C   UNL     1     152.647 154.332 149.236  1.00  0.00     0.007 C 
ATOM      7  C   UNL     1     153.097 151.875 149.356  1.00  0.00     0.007 C 
ENDBRANCH   2   5
ENDBRANCH   1   2
BRANCH   1   8
ATOM      8  C   UNL     1     156.480 153.891 150.537  1.00  0.00     0.004 C 
BRANCH   8   9
ATOM      9  C   UNL     1     156.842 153.417 149.097  1.00  0.00    -0.011 C 
ATOM     10  C   UNL     1     156.719 151.877 149.036  1.00  0.00     0.008 C 
BRANCH   9  11
ATOM     11  C   UNL     1     156.057 154.192 147.952  1.00  0.00    -0.002 C 
ATOM     12  C   UNL     1     155.369 153.252 146.940  1.00  0.00     0.005 C 
ATOM     13  C   UNL     1     156.943 155.080 147.000  1.00  0.00    -0.026 C 
ATOM     14  C   UNL     1     156.398 152.964 145.854  1.00  0.00     0.005 C 
ATOM     15  C   UNL     1     157.490 154.045 145.987  1.00  0.00    -0.001 C 
ATOM     16  C   UNL     1     156.053 156.172 146.295  1.00  0.00     0.007 C 
ATOM     17  C   UNL     1     158.111 155.813 147.704  1.00  0.00     0.012 C 
ATOM     18  C   UNL     1     158.012 154.650 144.644  1.00  0.00     0.004 C 
ATOM     19  C   UNL     1     155.775 155.933 144.803  1.00  0.00     0.005 C 
ATOM     20  C   UNL     1     157.080 155.751 143.993  1.00  0.00     0.003 C 
ATOM     21  C   UNL     1     158.496 153.525 143.695  1.00  0.00     0.085 C 
ATOM     22  C   UNL     1     156.873 155.619 142.418  1.00  0.00    -0.000 C 
ATOM     23  C   UNL     1     157.438 153.117 142.726  1.00  0.00     0.159 C 
ATOM     24  C   UNL     1     156.684 154.158 142.005  1.00  0.00     0.005 C 
ATOM     25  C   UNL     1     155.641 156.452 141.924  1.00  0.00     0.020 C 
ATOM     26  C   UNL     1     158.138 156.176 141.708  1.00  0.00     0.017 C 
ATOM     27  O   UNL     1     157.234 151.891 142.509  1.00  0.00    -0.295 OA
ATOM     28  C   UNL     1     155.973 153.821 140.909  1.00  0.00     0.055 C 
ATOM     29  C   UNL     1     155.372 156.285 140.425  1.00  0.00     0.081 C 
ATOM     30  C   UNL     1     155.301 154.831 140.074  1.00  0.00     0.156 C 
ATOM     31  O   UNL     1     154.698 154.470 139.029  1.00  0.00    -0.295 OA
ENDBRANCH   9  11
ENDBRANCH   8   9
ENDBRANCH   1   8
TORSDOF 6
ENDMDL
MODEL 8
REMARK VINA RESULT:    -3.850     18.548     20.786
REMARK INTER + INTRA:          -6.991
REMARK INTER:                  -5.132
REMARK INTRA:                  -1.859
REMARK UNBOUND:                -1.790
REMARK SMILES CC[C@H](CC[C@@H](C)[C@@H]1CC[C@H]2[C@H]3CC(=O)C4=CC(=O)CC[C@@]4(C)[C@H]3CC[C@]21C)C(C)C
REMARK SMILES IDX 4 1 3 2 2 3 1 4 29 5 30 6 31 7 5 8 6 9 7 10 8 11 9 12 27 13
REMARK SMILES IDX 10 14 11 15 26 16 28 17 12 18 25 19 24 20 13 21 22 22 14 23
REMARK SMILES IDX 16 24 21 25 23 26 15 27 17 28 20 29 18 30 19 31
REMARK H PARENT
REMARK Flexibility Score: inf
ROOT
ATOM      1  C   UNL     1     170.574 170.959 150.101  1.00  0.00     0.004 C 
ENDROOT
BRANCH   1   2
ATOM      2  C   UNL     1     170.513 170.327 151.520  1.00  0.00    -0.009 C 
BRANCH   2   3
ATOM      3  C   UNL     1     169.138 170.644 152.187  1.00  0.00     0.000 C 
ATOM      4  C   UNL     1     168.076 171.085 151.176  1.00  0.00     0.004 C 
ENDBRANCH   2   3
BRANCH   2   5
ATOM      5  C   UNL     1     170.849 168.796 151.525  1.00  0.00    -0.014 C 
ATOM      6  C   UNL     1     171.550 168.363 152.827  1.00  0.00     0.007 C 
ATOM      7  C   UNL     1     169.589 167.931 151.337  1.00  0.00     0.007 C 
ENDBRANCH   2   5
ENDBRANCH   1   2
BRANCH   1   8
ATOM      8  C   UNL     1     171.537 170.227 149.135  1.00  0.00     0.004 C 
BRANCH   8   9
ATOM      9  C   UNL     1     170.861 169.616 147.870  1.00  0.00    -0.011 C 
ATOM     10  C   UNL     1     171.433 168.199 147.637  1.00  0.00     0.008 C 
BRANCH   9  11
ATOM     11  C   UNL     1     169.273 169.695 147.891  1.00  0.00    -0.002 C 
ATOM     12  C   UNL     1     168.591 168.413 147.372  1.00  0.00     0.005 C 
ATOM     13  C   UNL     1     168.633 170.789 146.956  1.00  0.00    -0.026 C 
ATOM     14  C   UNL     1     168.445 168.584 145.865  1.00  0.00     0.005 C 
ATOM     15  C   UNL     1     168.625 170.088 145.576  1.00  0.00    -0.001 C 
ATOM     16  C   UNL     1     167.176 171.134 147.444  1.00  0.00     0.007 C 
ATOM     17  C   UNL     1     169.427 172.117 146.880  1.00  0.00     0.012 C 
ATOM     18  C   UNL     1     167.636 170.701 144.532  1.00  0.00     0.004 C 
ATOM     19  C   UNL     1     166.040 170.594 146.561  1.00  0.00     0.005 C 
ATOM     20  C   UNL     1     166.193 171.037 145.087  1.00  0.00     0.003 C 
ATOM     21  C   UNL     1     167.682 169.899 143.207  1.00  0.00     0.085 C 
ATOM     22  C   UNL     1     164.985 170.614 144.137  1.00  0.00    -0.000 C 
ATOM     23  C   UNL     1     166.607 168.868 143.139  1.00  0.00     0.159 C 
ATOM     24  C   UNL     1     165.230 169.240 143.508  1.00  0.00     0.005 C 
ATOM     25  C   UNL     1     163.622 170.585 144.909  1.00  0.00     0.020 C 
ATOM     26  C   UNL     1     164.864 171.666 142.999  1.00  0.00     0.017 C 
ATOM     27  O   UNL     1     166.884 167.708 142.729  1.00  0.00    -0.295 OA
ATOM     28  C   UNL     1     164.208 168.438 143.147  1.00  0.00     0.055 C 
ATOM     29  C   UNL     1     162.454 170.110 144.039  1.00  0.00     0.081 C 
ATOM     30  C   UNL     1     162.802 168.813 143.376  1.00  0.00     0.156 C 
ATOM     31  O   UNL     1     161.883 168.055 142.968  1.00  0.00    -0.295 OA
ENDBRANCH   9  11
ENDBRANCH   8   9
ENDBRANCH   1   8
TORSDOF 6
ENDMDL
MODEL 9
REMARK VINA RESULT:    -3.830     18.500     20.440
REMARK INTER + INTRA:          -6.963
REMARK INTER:                  -5.173
REMARK INTRA:                  -1.790
REMARK UNBOUND:                -1.790
REMARK SMILES CC[C@H](CC[C@@H](C)[C@@H]1CC[C@H]2[C@H]3CC(=O)C4=CC(=O)CC[C@@]4(C)[C@H]3CC[C@]21C)C(C)C
REMARK SMILES IDX 4 1 3 2 2 3 1 4 29 5 30 6 31 7 5 8 6 9 7 10 8 11 9 12 27 13
REMARK SMILES IDX 10 14 11 15 26 16 28 17 12 18 25 19 24 20 13 21 22 22 14 23
REMARK SMILES IDX 16 24 21 25 23 26 15 27 17 28 20 29 18 30 19 31
REMARK H PARENT
REMARK Flexibility Score: inf
ROOT
ATOM      1  C   UNL     1     169.002 169.397 150.545  1.00  0.00     0.004 C 
ENDROOT
BRANCH   1   2
ATOM      2  C   UNL     1     170.161 170.268 151.106  1.00  0.00    -0.009 C 
BRANCH   2   3
ATOM      3  C   UNL     1     170.918 169.491 152.228  1.00  0.00     0.000 C 
ATOM      4  C   UNL     1     170.646 170.052 153.626  1.00  0.00     0.004 C 
ENDBRANCH   2   3
BRANCH   2   5
ATOM      5  C   UNL     1     171.120 170.805 149.989  1.00  0.00    -0.014 C 
ATOM      6  C   UNL     1     171.310 169.783 148.850  1.00  0.00     0.007 C 
ATOM      7  C   UNL     1     170.612 172.125 149.381  1.00  0.00     0.007 C 
ENDBRANCH   2   5
ENDBRANCH   1   2
BRANCH   1   8
ATOM      8  C   UNL     1     167.621 170.095 150.587  1.00  0.00     0.004 C 
BRANCH   8   9
ATOM      9  C   UNL     1     167.090 170.587 149.206  1.00  0.00    -0.011 C 
ATOM     10  C   UNL     1     166.941 172.124 149.250  1.00  0.00     0.008 C 
BRANCH   9  11
ATOM     11  C   UNL     1     167.920 170.035 147.967  1.00  0.00    -0.002 C 
ATOM     12  C   UNL     1     168.173 171.099 146.879  1.00  0.00     0.005 C 
ATOM     13  C   UNL     1     167.224 168.895 147.133  1.00  0.00    -0.026 C 
ATOM     14  C   UNL     1     166.979 171.037 145.934  1.00  0.00     0.005 C 
ATOM     15  C   UNL     1     166.277 169.690 146.202  1.00  0.00    -0.001 C 
ATOM     16  C   UNL     1     168.301 168.086 146.317  1.00  0.00     0.007 C 
ATOM     17  C   UNL     1     166.418 167.878 147.979  1.00  0.00     0.012 C 
ATOM     18  C   UNL     1     165.794 168.913 144.935  1.00  0.00     0.004 C 
ATOM     19  C   UNL     1     168.311 168.344 144.803  1.00  0.00     0.005 C 
ATOM     20  C   UNL     1     166.920 168.110 144.167  1.00  0.00     0.003 C 
ATOM     21  C   UNL     1     164.889 169.815 144.059  1.00  0.00     0.085 C 
ATOM     22  C   UNL     1     166.885 168.242 142.579  1.00  0.00    -0.000 C 
ATOM     23  C   UNL     1     165.652 170.479 142.965  1.00  0.00     0.159 C 
ATOM     24  C   UNL     1     166.583 169.679 142.150  1.00  0.00     0.005 C 
ATOM     25  C   UNL     1     168.236 167.788 141.929  1.00  0.00     0.020 C 
ATOM     26  C   UNL     1     165.760 167.316 142.035  1.00  0.00     0.017 C 
ATOM     27  O   UNL     1     165.459 171.703 142.727  1.00  0.00    -0.295 OA
ATOM     28  C   UNL     1     167.024 170.171 140.973  1.00  0.00     0.055 C 
ATOM     29  C   UNL     1     168.257 167.974 140.408  1.00  0.00     0.081 C 
ATOM     30  C   UNL     1     167.855 169.372 140.055  1.00  0.00     0.156 C 
ATOM     31  O   UNL     1     168.192 169.857 138.943  1.00  0.00    -0.295 OA
ENDBRANCH   9  11
ENDBRANCH   8   9
ENDBRANCH   1   8
TORSDOF 6
ENDMDL
