MODEL 1
REMARK VINA RESULT:    -3.555      0.000      0.000
REMARK INTER + INTRA:          -4.561
REMARK INTER:                  -4.386
REMARK INTRA:                  -0.174
REMARK UNBOUND:                -0.174
REMARK SMILES C=CC[C@H](C)C(=O)CC
REMARK SMILES IDX 4 1 5 2 6 3 7 4 8 5 9 6 3 7 2 8 1 9
REMARK H PARENT
REMARK Flexibility Score: inf
ROOT
ATOM      1  C   UNL     1      18.278 -48.081  -2.276  1.00  0.00     0.057 C 
ATOM      2  C   UNL     1      18.562 -48.631  -3.677  1.00  0.00     0.016 C 
ENDROOT
BRANCH   1   3
ATOM      3  C   UNL     1      19.145 -48.793  -1.256  1.00  0.00     0.135 C 
ATOM      4  O   UNL     1      18.723 -48.970  -0.121  1.00  0.00    -0.299 OA
BRANCH   3   5
ATOM      5  C   UNL     1      20.515 -49.304  -1.617  1.00  0.00     0.072 C 
ATOM      6  C   UNL     1      21.600 -48.529  -0.878  1.00  0.00     0.012 C 
ENDBRANCH   3   5
ENDBRANCH   1   3
BRANCH   1   7
ATOM      7  C   UNL     1      16.781 -48.220  -1.934  1.00  0.00     0.038 C 
BRANCH   7   8
ATOM      8  C   UNL     1      15.895 -47.892  -3.108  1.00  0.00    -0.034 C 
ATOM      9  C   UNL     1      14.866 -47.047  -2.999  1.00  0.00     0.004 C 
ENDBRANCH   7   8
ENDBRANCH   1   7
TORSDOF 4
ENDMDL
MODEL 2
REMARK VINA RESULT:    -3.528      1.643      4.637
REMARK INTER + INTRA:          -4.528
REMARK INTER:                  -4.298
REMARK INTRA:                  -0.230
REMARK UNBOUND:                -0.174
REMARK SMILES C=CC[C@H](C)C(=O)CC
REMARK SMILES IDX 4 1 5 2 6 3 7 4 8 5 9 6 3 7 2 8 1 9
REMARK H PARENT
REMARK Flexibility Score: inf
ROOT
ATOM      1  C   UNL     1      17.475 -48.132  -1.999  1.00  0.00     0.057 C 
ATOM      2  C   UNL     1      17.035 -49.002  -0.818  1.00  0.00     0.016 C 
ENDROOT
BRANCH   1   3
ATOM      3  C   UNL     1      16.770 -48.582  -3.264  1.00  0.00     0.135 C 
ATOM      4  O   UNL     1      17.411 -49.120  -4.155  1.00  0.00    -0.299 OA
BRANCH   3   5
ATOM      5  C   UNL     1      15.285 -48.395  -3.438  1.00  0.00     0.072 C 
ATOM      6  C   UNL     1      14.868 -46.974  -3.073  1.00  0.00     0.012 C 
ENDBRANCH   3   5
ENDBRANCH   1   3
BRANCH   1   7
ATOM      7  C   UNL     1      19.007 -48.181  -2.165  1.00  0.00     0.038 C 
BRANCH   7   8
ATOM      8  C   UNL     1      19.683 -48.878  -1.012  1.00  0.00    -0.034 C 
ATOM      9  C   UNL     1      21.012 -48.893  -0.879  1.00  0.00     0.004 C 
ENDBRANCH   7   8
ENDBRANCH   1   7
TORSDOF 4
ENDMDL
MODEL 3
REMARK VINA RESULT:    -3.525      2.131      2.966
REMARK INTER + INTRA:          -4.524
REMARK INTER:                  -4.304
REMARK INTRA:                  -0.219
REMARK UNBOUND:                -0.174
REMARK SMILES C=CC[C@H](C)C(=O)CC
REMARK SMILES IDX 4 1 5 2 6 3 7 4 8 5 9 6 3 7 2 8 1 9
REMARK H PARENT
REMARK Flexibility Score: inf
ROOT
ATOM      1  C   UNL     1      19.052 -48.221  -1.961  1.00  0.00     0.057 C 
ATOM      2  C   UNL     1      17.656 -48.044  -2.564  1.00  0.00     0.016 C 
ENDROOT
BRANCH   1   3
ATOM      3  C   UNL     1      19.969 -48.891  -2.966  1.00  0.00     0.135 C 
ATOM      4  O   UNL     1      19.793 -48.707  -4.162  1.00  0.00    -0.299 OA
BRANCH   3   5
ATOM      5  C   UNL     1      21.108 -49.769  -2.518  1.00  0.00     0.072 C 
ATOM      6  C   UNL     1      22.451 -49.091  -2.768  1.00  0.00     0.012 C 
ENDBRANCH   3   5
ENDBRANCH   1   3
BRANCH   1   7
ATOM      7  C   UNL     1      18.976 -49.029  -0.649  1.00  0.00     0.038 C 
BRANCH   7   8
ATOM      8  C   UNL     1      17.554 -49.254  -0.201  1.00  0.00    -0.034 C 
ATOM      9  C   UNL     1      17.259 -49.611   1.052  1.00  0.00     0.004 C 
ENDBRANCH   7   8
ENDBRANCH   1   7
TORSDOF 4
ENDMDL
MODEL 4
REMARK VINA RESULT:    -3.478      1.775      2.236
REMARK INTER + INTRA:          -4.466
REMARK INTER:                  -4.328
REMARK INTRA:                  -0.138
REMARK UNBOUND:                -0.174
REMARK SMILES C=CC[C@H](C)C(=O)CC
REMARK SMILES IDX 4 1 5 2 6 3 7 4 8 5 9 6 3 7 2 8 1 9
REMARK H PARENT
REMARK Flexibility Score: inf
ROOT
ATOM      1  C   UNL     1      18.980 -49.043  -2.015  1.00  0.00     0.057 C 
ATOM      2  C   UNL     1      19.265 -48.998  -0.511  1.00  0.00     0.016 C 
ENDROOT
BRANCH   1   3
ATOM      3  C   UNL     1      20.283 -49.008  -2.790  1.00  0.00     0.135 C 
ATOM      4  O   UNL     1      20.276 -48.696  -3.973  1.00  0.00    -0.299 OA
BRANCH   3   5
ATOM      5  C   UNL     1      21.594 -49.336  -2.125  1.00  0.00     0.072 C 
ATOM      6  C   UNL     1      22.769 -49.000  -3.038  1.00  0.00     0.012 C 
ENDBRANCH   3   5
ENDBRANCH   1   3
BRANCH   1   7
ATOM      7  C   UNL     1      18.054 -47.879  -2.425  1.00  0.00     0.038 C 
BRANCH   7   8
ATOM      8  C   UNL     1      16.597 -48.220  -2.247  1.00  0.00    -0.034 C 
ATOM      9  C   UNL     1      15.630 -47.501  -2.823  1.00  0.00     0.004 C 
ENDBRANCH   7   8
ENDBRANCH   1   7
TORSDOF 4
ENDMDL
MODEL 5
REMARK VINA RESULT:    -3.377      1.051      1.703
REMARK INTER + INTRA:          -4.341
REMARK INTER:                  -4.183
REMARK INTRA:                  -0.158
REMARK UNBOUND:                -0.174
REMARK SMILES C=CC[C@H](C)C(=O)CC
REMARK SMILES IDX 4 1 5 2 6 3 7 4 8 5 9 6 3 7 2 8 1 9
REMARK H PARENT
REMARK Flexibility Score: inf
ROOT
ATOM      1  C   UNL     1      16.898 -48.965  -1.571  1.00  0.00     0.057 C 
ATOM      2  C   UNL     1      15.811 -48.948  -0.491  1.00  0.00     0.016 C 
ENDROOT
BRANCH   1   3
ATOM      3  C   UNL     1      18.268 -48.874  -0.928  1.00  0.00     0.135 C 
ATOM      4  O   UNL     1      18.411 -49.202   0.241  1.00  0.00    -0.299 OA
BRANCH   3   5
ATOM      5  C   UNL     1      19.466 -48.401  -1.710  1.00  0.00     0.072 C 
ATOM      6  C   UNL     1      20.763 -48.840  -1.040  1.00  0.00     0.012 C 
ENDBRANCH   3   5
ENDBRANCH   1   3
BRANCH   1   7
ATOM      7  C   UNL     1      16.675 -47.819  -2.579  1.00  0.00     0.038 C 
BRANCH   7   8
ATOM      8  C   UNL     1      15.295 -47.851  -3.182  1.00  0.00    -0.034 C 
ATOM      9  C   UNL     1      14.476 -46.796  -3.124  1.00  0.00     0.004 C 
ENDBRANCH   7   8
ENDBRANCH   1   7
TORSDOF 4
ENDMDL
MODEL 6
REMARK VINA RESULT:    -3.322     19.544     20.183
REMARK INTER + INTRA:          -4.274
REMARK INTER:                  -4.037
REMARK INTRA:                  -0.237
REMARK UNBOUND:                -0.174
REMARK SMILES C=CC[C@H](C)C(=O)CC
REMARK SMILES IDX 4 1 5 2 6 3 7 4 8 5 9 6 3 7 2 8 1 9
REMARK H PARENT
REMARK Flexibility Score: inf
ROOT
ATOM      1  C   UNL     1      24.938 -32.272 -12.536  1.00  0.00     0.057 C 
ATOM      2  C   UNL     1      25.205 -30.928 -13.221  1.00  0.00     0.016 C 
ENDROOT
BRANCH   1   3
ATOM      3  C   UNL     1      25.180 -33.407 -13.512  1.00  0.00     0.135 C 
ATOM      4  O   UNL     1      26.317 -33.826 -13.683  1.00  0.00    -0.299 OA
BRANCH   3   5
ATOM      5  C   UNL     1      24.042 -34.044 -14.265  1.00  0.00     0.072 C 
ATOM      6  C   UNL     1      24.559 -34.895 -15.420  1.00  0.00     0.012 C 
ENDBRANCH   3   5
ENDBRANCH   1   3
BRANCH   1   7
ATOM      7  C   UNL     1      23.502 -32.315 -11.973  1.00  0.00     0.038 C 
BRANCH   7   8
ATOM      8  C   UNL     1      23.482 -32.519 -10.480  1.00  0.00    -0.034 C 
ATOM      9  C   UNL     1      24.221 -31.769  -9.657  1.00  0.00     0.004 C 
ENDBRANCH   7   8
ENDBRANCH   1   7
TORSDOF 4
ENDMDL
MODEL 7
REMARK VINA RESULT:    -3.321      1.314      4.469
REMARK INTER + INTRA:          -4.272
REMARK INTER:                  -4.103
REMARK INTRA:                  -0.169
REMARK UNBOUND:                -0.174
REMARK SMILES C=CC[C@H](C)C(=O)CC
REMARK SMILES IDX 4 1 5 2 6 3 7 4 8 5 9 6 3 7 2 8 1 9
REMARK H PARENT
REMARK Flexibility Score: inf
ROOT
ATOM      1  C   UNL     1      17.921 -48.857  -2.135  1.00  0.00     0.057 C 
ATOM      2  C   UNL     1      18.714 -47.857  -2.982  1.00  0.00     0.016 C 
ENDROOT
BRANCH   1   3
ATOM      3  C   UNL     1      16.467 -48.430  -2.056  1.00  0.00     0.135 C 
ATOM      4  O   UNL     1      15.886 -48.458  -0.980  1.00  0.00    -0.299 OA
BRANCH   3   5
ATOM      5  C   UNL     1      15.727 -47.955  -3.279  1.00  0.00     0.072 C 
ATOM      6  C   UNL     1      14.569 -47.040  -2.894  1.00  0.00     0.012 C 
ENDBRANCH   3   5
ENDBRANCH   1   3
BRANCH   1   7
ATOM      7  C   UNL     1      18.542 -48.987  -0.729  1.00  0.00     0.038 C 
BRANCH   7   8
ATOM      8  C   UNL     1      20.048 -48.951  -0.767  1.00  0.00    -0.034 C 
ATOM      9  C   UNL     1      20.777 -50.068  -0.854  1.00  0.00     0.004 C 
ENDBRANCH   7   8
ENDBRANCH   1   7
TORSDOF 4
ENDMDL
MODEL 8
REMARK VINA RESULT:    -3.284     19.521     20.185
REMARK INTER + INTRA:          -4.227
REMARK INTER:                  -4.016
REMARK INTRA:                  -0.210
REMARK UNBOUND:                -0.174
REMARK SMILES C=CC[C@H](C)C(=O)CC
REMARK SMILES IDX 4 1 5 2 6 3 7 4 8 5 9 6 3 7 2 8 1 9
REMARK H PARENT
REMARK Flexibility Score: inf
ROOT
ATOM      1  C   UNL     1      23.837 -32.430 -13.181  1.00  0.00     0.057 C 
ATOM      2  C   UNL     1      24.638 -31.560 -14.154  1.00  0.00     0.016 C 
ENDROOT
BRANCH   1   3
ATOM      3  C   UNL     1      24.417 -32.313 -11.784  1.00  0.00     0.135 C 
ATOM      4  O   UNL     1      25.609 -32.081 -11.641  1.00  0.00    -0.299 OA
BRANCH   3   5
ATOM      5  C   UNL     1      23.546 -32.461 -10.564  1.00  0.00     0.072 C 
ATOM      6  C   UNL     1      22.672 -31.227 -10.364  1.00  0.00     0.012 C 
ENDBRANCH   3   5
ENDBRANCH   1   3
BRANCH   1   7
ATOM      7  C   UNL     1      23.819 -33.897 -13.657  1.00  0.00     0.038 C 
BRANCH   7   8
ATOM      8  C   UNL     1      24.297 -34.040 -15.079  1.00  0.00    -0.034 C 
ATOM      9  C   UNL     1      24.830 -35.178 -15.533  1.00  0.00     0.004 C 
ENDBRANCH   7   8
ENDBRANCH   1   7
TORSDOF 4
ENDMDL
MODEL 9
REMARK VINA RESULT:    -3.230      1.452      2.048
REMARK INTER + INTRA:          -4.159
REMARK INTER:                  -3.766
REMARK INTRA:                  -0.393
REMARK UNBOUND:                -0.174
REMARK SMILES C=CC[C@H](C)C(=O)CC
REMARK SMILES IDX 4 1 5 2 6 3 7 4 8 5 9 6 3 7 2 8 1 9
REMARK H PARENT
REMARK Flexibility Score: inf
ROOT
ATOM      1  C   UNL     1      18.244 -48.208  -2.309  1.00  0.00     0.057 C 
ATOM      2  C   UNL     1      19.262 -48.262  -3.452  1.00  0.00     0.016 C 
ENDROOT
BRANCH   1   3
ATOM      3  C   UNL     1      18.780 -48.955  -1.103  1.00  0.00     0.135 C 
ATOM      4  O   UNL     1      19.886 -48.677  -0.661  1.00  0.00    -0.299 OA
BRANCH   3   5
ATOM      5  C   UNL     1      17.966 -50.025  -0.425  1.00  0.00     0.072 C 
ATOM      6  C   UNL     1      17.330 -49.497   0.858  1.00  0.00     0.012 C 
ENDBRANCH   3   5
ENDBRANCH   1   3
BRANCH   1   7
ATOM      7  C   UNL     1      16.888 -48.783  -2.766  1.00  0.00     0.038 C 
BRANCH   7   8
ATOM      8  C   UNL     1      15.744 -47.849  -2.469  1.00  0.00    -0.034 C 
ATOM      9  C   UNL     1      14.700 -48.227  -1.725  1.00  0.00     0.004 C 
ENDBRANCH   7   8
ENDBRANCH   1   7
TORSDOF 4
ENDMDL
