MODEL 1
REMARK VINA RESULT:    -3.931      0.000      0.000
REMARK INTER + INTRA:          -5.465
REMARK INTER:                  -5.080
REMARK INTRA:                  -0.385
REMARK UNBOUND:                -0.385
REMARK SMILES CCO[C@H]1O[C@H](CO)[C@H](O)[C@H](O)[C@@H]1O
REMARK SMILES IDX 4 1 13 2 11 3 9 4 6 5 5 6 3 7 2 8 1 9 14 10 12 12 7 14 8 15
REMARK SMILES IDX 10 17
REMARK H PARENT 14 11 12 13 8 16 10 18
REMARK Flexibility Score: inf
ROOT
ATOM      1  C   UNL     1       6.690  -3.673  -1.072  1.00  0.00     0.281 C 
ATOM      2  C   UNL     1       8.175  -3.245  -1.070  1.00  0.00     0.202 C 
ATOM      3  C   UNL     1       8.895  -3.806  -2.311  1.00  0.00     0.179 C 
ATOM      4  C   UNL     1       8.634  -5.320  -2.451  1.00  0.00     0.177 C 
ATOM      5  C   UNL     1       7.114  -5.576  -2.392  1.00  0.00     0.178 C 
ATOM      6  O   UNL     1       6.566  -5.085  -1.176  1.00  0.00    -0.341 OA
ENDROOT
BRANCH   1   7
ATOM      7  O   UNL     1       5.983  -3.039  -2.132  1.00  0.00    -0.350 OA
BRANCH   7   8
ATOM      8  C   UNL     1       4.858  -2.337  -1.645  1.00  0.00     0.160 C 
ATOM      9  C   UNL     1       3.593  -3.003  -2.163  1.00  0.00     0.035 C 
ENDBRANCH   7   8
ENDBRANCH   1   7
BRANCH   2  10
ATOM     10  O   UNL     1       8.783  -3.713   0.109  1.00  0.00    -0.385 OA
ATOM     11  H   UNL     1       8.437  -4.630   0.271  1.00  0.00     0.211 HD
ENDBRANCH   2  10
BRANCH   3  12
ATOM     12  O   UNL     1      10.271  -3.542  -2.227  1.00  0.00    -0.387 OA
ATOM     13  H   UNL     1      10.425  -3.101  -1.351  1.00  0.00     0.211 HD
ENDBRANCH   3  12
BRANCH   5  14
ATOM     14  C   UNL     1       6.803  -7.072  -2.508  1.00  0.00     0.191 C 
BRANCH  14  15
ATOM     15  O   UNL     1       7.007  -7.694  -1.269  1.00  0.00    -0.394 OA
ATOM     16  H   UNL     1       6.743  -8.643  -1.391  1.00  0.00     0.210 HD
ENDBRANCH  14  15
ENDBRANCH   5  14
BRANCH   4  17
ATOM     17  O   UNL     1       9.282  -6.028  -1.422  1.00  0.00    -0.387 OA
ATOM     18  H   UNL     1      10.226  -5.719  -1.409  1.00  0.00     0.211 HD
ENDBRANCH   4  17
TORSDOF 7
ENDMDL
MODEL 2
REMARK VINA RESULT:    -3.375      1.447      3.942
REMARK INTER + INTRA:          -4.747
REMARK INTER:                  -4.416
REMARK INTRA:                  -0.331
REMARK UNBOUND:                -0.385
REMARK SMILES CCO[C@H]1O[C@H](CO)[C@H](O)[C@H](O)[C@@H]1O
REMARK SMILES IDX 4 1 13 2 11 3 9 4 6 5 5 6 3 7 2 8 1 9 14 10 12 12 7 14 8 15
REMARK SMILES IDX 10 17
REMARK H PARENT 14 11 12 13 8 16 10 18
REMARK Flexibility Score: inf
ROOT
ATOM      1  C   UNL     1       7.995  -5.653  -2.384  1.00  0.00     0.281 C 
ATOM      2  C   UNL     1       8.901  -4.851  -1.423  1.00  0.00     0.202 C 
ATOM      3  C   UNL     1       8.047  -3.957  -0.504  1.00  0.00     0.179 C 
ATOM      4  C   UNL     1       7.049  -3.124  -1.332  1.00  0.00     0.177 C 
ATOM      5  C   UNL     1       6.259  -4.067  -2.264  1.00  0.00     0.178 C 
ATOM      6  O   UNL     1       7.138  -4.787  -3.117  1.00  0.00    -0.341 OA
ENDROOT
BRANCH   1   7
ATOM      7  O   UNL     1       7.227  -6.614  -1.671  1.00  0.00    -0.350 OA
BRANCH   7   8
ATOM      8  C   UNL     1       7.887  -7.863  -1.629  1.00  0.00     0.160 C 
ATOM      9  C   UNL     1       6.999  -8.873  -0.919  1.00  0.00     0.035 C 
ENDBRANCH   7   8
ENDBRANCH   1   7
BRANCH   2  10
ATOM     10  O   UNL     1       9.794  -4.073  -2.180  1.00  0.00    -0.385 OA
ATOM     11  H   UNL     1       9.271  -3.323  -2.567  1.00  0.00     0.211 HD
ENDBRANCH   2  10
BRANCH   3  12
ATOM     12  O   UNL     1       8.878  -3.124   0.262  1.00  0.00    -0.387 OA
ATOM     13  H   UNL     1       9.788  -3.521   0.231  1.00  0.00     0.211 HD
ENDBRANCH   3  12
BRANCH   5  14
ATOM     14  C   UNL     1       5.263  -3.282  -3.125  1.00  0.00     0.191 C 
BRANCH  14  15
ATOM     15  O   UNL     1       4.608  -2.327  -2.336  1.00  0.00    -0.394 OA
ATOM     16  H   UNL     1       4.066  -1.779  -2.960  1.00  0.00     0.210 HD
ENDBRANCH  14  15
ENDBRANCH   5  14
BRANCH   4  17
ATOM     17  O   UNL     1       7.728  -2.155  -2.093  1.00  0.00    -0.387 OA
ATOM     18  H   UNL     1       7.726  -1.316  -1.561  1.00  0.00     0.211 HD
ENDBRANCH   4  17
TORSDOF 7
ENDMDL
MODEL 3
REMARK VINA RESULT:    -3.327     22.079     24.074
REMARK INTER + INTRA:          -4.685
REMARK INTER:                  -4.375
REMARK INTRA:                  -0.310
REMARK UNBOUND:                -0.385
REMARK SMILES CCO[C@H]1O[C@H](CO)[C@H](O)[C@H](O)[C@@H]1O
REMARK SMILES IDX 4 1 13 2 11 3 9 4 6 5 5 6 3 7 2 8 1 9 14 10 12 12 7 14 8 15
REMARK SMILES IDX 10 17
REMARK H PARENT 14 11 12 13 8 16 10 18
REMARK Flexibility Score: inf
ROOT
ATOM      1  C   UNL     1      15.645   9.689  16.386  1.00  0.00     0.281 C 
ATOM      2  C   UNL     1      15.305   8.416  15.579  1.00  0.00     0.202 C 
ATOM      3  C   UNL     1      14.080   8.663  14.678  1.00  0.00     0.179 C 
ATOM      4  C   UNL     1      12.920   9.266  15.495  1.00  0.00     0.177 C 
ATOM      5  C   UNL     1      13.436  10.497  16.269  1.00  0.00     0.178 C 
ATOM      6  O   UNL     1      14.515  10.141  17.122  1.00  0.00    -0.341 OA
ENDROOT
BRANCH   1   7
ATOM      7  O   UNL     1      16.115  10.721  15.527  1.00  0.00    -0.350 OA
BRANCH   7   8
ATOM      8  C   UNL     1      17.434  11.101  15.864  1.00  0.00     0.160 C 
ATOM      9  C   UNL     1      17.885  10.310  17.081  1.00  0.00     0.035 C 
ENDBRANCH   7   8
ENDBRANCH   1   7
BRANCH   2  10
ATOM     10  O   UNL     1      15.056   7.361  16.474  1.00  0.00    -0.385 OA
ATOM     11  H   UNL     1      15.076   6.520  15.946  1.00  0.00     0.211 HD
ENDBRANCH   2  10
BRANCH   3  12
ATOM     12  O   UNL     1      13.687   7.464  14.062  1.00  0.00    -0.387 OA
ATOM     13  H   UNL     1      12.758   7.599  13.741  1.00  0.00     0.211 HD
ENDBRANCH   3  12
BRANCH   5  14
ATOM     14  C   UNL     1      12.321  11.123  17.114  1.00  0.00     0.191 C 
BRANCH  14  15
ATOM     15  O   UNL     1      11.079  10.869  16.517  1.00  0.00    -0.394 OA
ATOM     16  H   UNL     1      11.176  11.124  15.562  1.00  0.00     0.210 HD
ENDBRANCH  14  15
ENDBRANCH   5  14
BRANCH   4  17
ATOM     17  O   UNL     1      12.404   8.314  16.394  1.00  0.00    -0.387 OA
ATOM     18  H   UNL     1      13.109   8.145  17.072  1.00  0.00     0.211 HD
ENDBRANCH   4  17
TORSDOF 7
ENDMDL
MODEL 4
REMARK VINA RESULT:    -3.205      1.673      3.955
REMARK INTER + INTRA:          -4.527
REMARK INTER:                  -4.288
REMARK INTRA:                  -0.239
REMARK UNBOUND:                -0.385
REMARK SMILES CCO[C@H]1O[C@H](CO)[C@H](O)[C@H](O)[C@@H]1O
REMARK SMILES IDX 4 1 13 2 11 3 9 4 6 5 5 6 3 7 2 8 1 9 14 10 12 12 7 14 8 15
REMARK SMILES IDX 10 17
REMARK H PARENT 14 11 12 13 8 16 10 18
REMARK Flexibility Score: inf
ROOT
ATOM      1  C   UNL     1       7.951  -5.576  -1.612  1.00  0.00     0.281 C 
ATOM      2  C   UNL     1       6.864  -4.496  -1.411  1.00  0.00     0.202 C 
ATOM      3  C   UNL     1       6.899  -3.480  -2.569  1.00  0.00     0.179 C 
ATOM      4  C   UNL     1       8.332  -2.955  -2.787  1.00  0.00     0.177 C 
ATOM      5  C   UNL     1       9.292  -4.155  -2.925  1.00  0.00     0.178 C 
ATOM      6  O   UNL     1       9.234  -4.984  -1.773  1.00  0.00    -0.341 OA
ENDROOT
BRANCH   1   7
ATOM      7  O   UNL     1       7.646  -6.397  -2.732  1.00  0.00    -0.350 OA
BRANCH   7   8
ATOM      8  C   UNL     1       6.749  -7.430  -2.377  1.00  0.00     0.160 C 
ATOM      9  C   UNL     1       7.393  -8.307  -1.316  1.00  0.00     0.035 C 
ENDBRANCH   7   8
ENDBRANCH   1   7
BRANCH   2  10
ATOM     10  O   UNL     1       7.082  -3.851  -0.181  1.00  0.00    -0.385 OA
ATOM     11  H   UNL     1       7.215  -4.561   0.500  1.00  0.00     0.211 HD
ENDBRANCH   2  10
BRANCH   3  12
ATOM     12  O   UNL     1       6.014  -2.422  -2.307  1.00  0.00    -0.387 OA
ATOM     13  H   UNL     1       5.115  -2.722  -2.604  1.00  0.00     0.211 HD
ENDBRANCH   3  12
BRANCH   5  14
ATOM     14  C   UNL     1      10.737  -3.683  -3.125  1.00  0.00     0.191 C 
BRANCH  14  15
ATOM     15  O   UNL     1      11.603  -4.489  -2.376  1.00  0.00    -0.394 OA
ATOM     16  H   UNL     1      11.188  -5.391  -2.351  1.00  0.00     0.210 HD
ENDBRANCH  14  15
ENDBRANCH   5  14
BRANCH   4  17
ATOM     17  O   UNL     1       8.728  -2.144  -1.707  1.00  0.00    -0.387 OA
ATOM     18  H   UNL     1       9.618  -2.472  -1.410  1.00  0.00     0.211 HD
ENDBRANCH   4  17
TORSDOF 7
ENDMDL
MODEL 5
REMARK VINA RESULT:    -3.064      2.545      5.382
REMARK INTER + INTRA:          -4.345
REMARK INTER:                  -3.956
REMARK INTRA:                  -0.389
REMARK UNBOUND:                -0.385
REMARK SMILES CCO[C@H]1O[C@H](CO)[C@H](O)[C@H](O)[C@@H]1O
REMARK SMILES IDX 4 1 13 2 11 3 9 4 6 5 5 6 3 7 2 8 1 9 14 10 12 12 7 14 8 15
REMARK SMILES IDX 10 17
REMARK H PARENT 14 11 12 13 8 16 10 18
REMARK Flexibility Score: inf
ROOT
ATOM      1  C   UNL     1      10.977  -6.583  -1.251  1.00  0.00     0.281 C 
ATOM      2  C   UNL     1      10.053  -7.757  -1.646  1.00  0.00     0.202 C 
ATOM      3  C   UNL     1       9.190  -7.373  -2.864  1.00  0.00     0.179 C 
ATOM      4  C   UNL     1       8.490  -6.020  -2.627  1.00  0.00     0.177 C 
ATOM      5  C   UNL     1       9.543  -4.976  -2.201  1.00  0.00     0.178 C 
ATOM      6  O   UNL     1      10.226  -5.397  -1.028  1.00  0.00    -0.341 OA
ENDROOT
BRANCH   1   7
ATOM      7  O   UNL     1      11.964  -6.359  -2.250  1.00  0.00    -0.350 OA
BRANCH   7   8
ATOM      8  C   UNL     1      13.177  -5.915  -1.677  1.00  0.00     0.160 C 
ATOM      9  C   UNL     1      13.609  -4.627  -2.360  1.00  0.00     0.035 C 
ENDBRANCH   7   8
ENDBRANCH   1   7
BRANCH   2  10
ATOM     10  O   UNL     1       9.239  -8.087  -0.548  1.00  0.00    -0.385 OA
ATOM     11  H   UNL     1       8.992  -9.044  -0.646  1.00  0.00     0.211 HD
ENDBRANCH   2  10
BRANCH   3  12
ATOM     12  O   UNL     1       8.251  -8.383  -3.125  1.00  0.00    -0.387 OA
ATOM     13  H   UNL     1       7.988  -8.763  -2.246  1.00  0.00     0.211 HD
ENDBRANCH   3  12
BRANCH   5  14
ATOM     14  C   UNL     1       8.891  -3.614  -1.934  1.00  0.00     0.191 C 
BRANCH  14  15
ATOM     15  O   UNL     1       8.672  -3.458  -0.560  1.00  0.00    -0.394 OA
ATOM     16  H   UNL     1       7.845  -2.915  -0.472  1.00  0.00     0.210 HD
ENDBRANCH  14  15
ENDBRANCH   5  14
BRANCH   4  17
ATOM     17  O   UNL     1       7.505  -6.144  -1.629  1.00  0.00    -0.387 OA
ATOM     18  H   UNL     1       6.746  -6.641  -2.033  1.00  0.00     0.211 HD
ENDBRANCH   4  17
TORSDOF 7
ENDMDL
MODEL 6
REMARK VINA RESULT:    -2.994      4.100      6.966
REMARK INTER + INTRA:          -4.255
REMARK INTER:                  -4.073
REMARK INTRA:                  -0.181
REMARK UNBOUND:                -0.385
REMARK SMILES CCO[C@H]1O[C@H](CO)[C@H](O)[C@H](O)[C@@H]1O
REMARK SMILES IDX 4 1 13 2 11 3 9 4 6 5 5 6 3 7 2 8 1 9 14 10 12 12 7 14 8 15
REMARK SMILES IDX 10 17
REMARK H PARENT 14 11 12 13 8 16 10 18
REMARK Flexibility Score: inf
ROOT
ATOM      1  C   UNL     1      12.767  -6.722  -1.278  1.00  0.00     0.281 C 
ATOM      2  C   UNL     1      11.257  -7.051  -1.281  1.00  0.00     0.202 C 
ATOM      3  C   UNL     1      10.615  -6.605  -2.608  1.00  0.00     0.179 C 
ATOM      4  C   UNL     1      10.982  -5.141  -2.924  1.00  0.00     0.177 C 
ATOM      5  C   UNL     1      12.513  -4.976  -2.837  1.00  0.00     0.178 C 
ATOM      6  O   UNL     1      12.989  -5.344  -1.550  1.00  0.00    -0.341 OA
ENDROOT
BRANCH   1   7
ATOM      7  O   UNL     1      13.461  -7.527  -2.224  1.00  0.00    -0.350 OA
BRANCH   7   8
ATOM      8  C   UNL     1      14.525  -8.227  -1.613  1.00  0.00     0.160 C 
ATOM      9  C   UNL     1      15.784  -7.377  -1.682  1.00  0.00     0.035 C 
ENDBRANCH   7   8
ENDBRANCH   1   7
BRANCH   2  10
ATOM     10  O   UNL     1      10.646  -6.401  -0.194  1.00  0.00    -0.385 OA
ATOM     11  H   UNL     1       9.668  -6.545  -0.281  1.00  0.00     0.211 HD
ENDBRANCH   2  10
BRANCH   3  12
ATOM     12  O   UNL     1       9.222  -6.769  -2.547  1.00  0.00    -0.387 OA
ATOM     13  H   UNL     1       9.021  -7.659  -2.939  1.00  0.00     0.211 HD
ENDBRANCH   3  12
BRANCH   5  14
ATOM     14  C   UNL     1      12.928  -3.529  -3.125  1.00  0.00     0.191 C 
BRANCH  14  15
ATOM     15  O   UNL     1      14.097  -3.224  -2.417  1.00  0.00    -0.394 OA
ATOM     16  H   UNL     1      14.523  -4.095  -2.200  1.00  0.00     0.210 HD
ENDBRANCH  14  15
ENDBRANCH   5  14
BRANCH   4  17
ATOM     17  O   UNL     1      10.352  -4.269  -2.016  1.00  0.00    -0.387 OA
ATOM     18  H   UNL     1       9.436  -4.622  -1.865  1.00  0.00     0.211 HD
ENDBRANCH   4  17
TORSDOF 7
ENDMDL
MODEL 7
REMARK VINA RESULT:    -2.867      2.488      4.448
REMARK INTER + INTRA:          -4.091
REMARK INTER:                  -3.928
REMARK INTRA:                  -0.163
REMARK UNBOUND:                -0.385
REMARK SMILES CCO[C@H]1O[C@H](CO)[C@H](O)[C@H](O)[C@@H]1O
REMARK SMILES IDX 4 1 13 2 11 3 9 4 6 5 5 6 3 7 2 8 1 9 14 10 12 12 7 14 8 15
REMARK SMILES IDX 10 17
REMARK H PARENT 14 11 12 13 8 16 10 18
REMARK Flexibility Score: inf
ROOT
ATOM      1  C   UNL     1       9.002  -5.374  -2.102  1.00  0.00     0.281 C 
ATOM      2  C   UNL     1       8.690  -6.871  -1.877  1.00  0.00     0.202 C 
ATOM      3  C   UNL     1       9.830  -7.542  -1.086  1.00  0.00     0.179 C 
ATOM      4  C   UNL     1      11.194  -7.233  -1.734  1.00  0.00     0.177 C 
ATOM      5  C   UNL     1      11.326  -5.707  -1.927  1.00  0.00     0.178 C 
ATOM      6  O   UNL     1      10.266  -5.206  -2.730  1.00  0.00    -0.341 OA
ENDROOT
BRANCH   1   7
ATOM      7  O   UNL     1       8.966  -4.660  -0.872  1.00  0.00    -0.350 OA
BRANCH   7   8
ATOM      8  C   UNL     1       8.169  -3.499  -0.982  1.00  0.00     0.160 C 
ATOM      9  C   UNL     1       6.713  -3.869  -0.745  1.00  0.00     0.035 C 
ENDBRANCH   7   8
ENDBRANCH   1   7
BRANCH   2  10
ATOM     10  O   UNL     1       8.520  -7.495  -3.125  1.00  0.00    -0.385 OA
ATOM     11  H   UNL     1       8.229  -6.793  -3.764  1.00  0.00     0.211 HD
ENDBRANCH   2  10
BRANCH   3  12
ATOM     12  O   UNL     1       9.613  -8.927  -1.014  1.00  0.00    -0.387 OA
ATOM     13  H   UNL     1       9.260  -9.208  -1.899  1.00  0.00     0.211 HD
ENDBRANCH   3  12
BRANCH   5  14
ATOM     14  C   UNL     1      12.662  -5.350  -2.587  1.00  0.00     0.191 C 
BRANCH  14  15
ATOM     15  O   UNL     1      13.460  -4.638  -1.682  1.00  0.00    -0.394 OA
ATOM     16  H   UNL     1      13.996  -4.004  -2.226  1.00  0.00     0.210 HD
ENDBRANCH  14  15
ENDBRANCH   5  14
BRANCH   4  17
ATOM     17  O   UNL     1      11.309  -7.886  -2.976  1.00  0.00    -0.387 OA
ATOM     18  H   UNL     1      10.532  -7.600  -3.525  1.00  0.00     0.211 HD
ENDBRANCH   4  17
TORSDOF 7
ENDMDL
MODEL 8
REMARK VINA RESULT:    -2.780      2.476      3.339
REMARK INTER + INTRA:          -3.978
REMARK INTER:                  -3.551
REMARK INTRA:                  -0.427
REMARK UNBOUND:                -0.385
REMARK SMILES CCO[C@H]1O[C@H](CO)[C@H](O)[C@H](O)[C@@H]1O
REMARK SMILES IDX 4 1 13 2 11 3 9 4 6 5 5 6 3 7 2 8 1 9 14 10 12 12 7 14 8 15
REMARK SMILES IDX 10 17
REMARK H PARENT 14 11 12 13 8 16 10 18
REMARK Flexibility Score: inf
ROOT
ATOM      1  C   UNL     1       9.200  -5.305  -1.716  1.00  0.00     0.281 C 
ATOM      2  C   UNL     1      10.634  -5.842  -1.511  1.00  0.00     0.202 C 
ATOM      3  C   UNL     1      10.894  -7.042  -2.441  1.00  0.00     0.179 C 
ATOM      4  C   UNL     1       9.765  -8.084  -2.312  1.00  0.00     0.177 C 
ATOM      5  C   UNL     1       8.406  -7.378  -2.500  1.00  0.00     0.178 C 
ATOM      6  O   UNL     1       8.239  -6.339  -1.545  1.00  0.00    -0.341 OA
ENDROOT
BRANCH   1   7
ATOM      7  O   UNL     1       9.061  -4.714  -3.002  1.00  0.00    -0.350 OA
BRANCH   7   8
ATOM      8  C   UNL     1       9.270  -3.318  -2.946  1.00  0.00     0.160 C 
ATOM      9  C   UNL     1       8.570  -2.758  -1.719  1.00  0.00     0.035 C 
ENDBRANCH   7   8
ENDBRANCH   1   7
BRANCH   2  10
ATOM     10  O   UNL     1      10.794  -6.216  -0.165  1.00  0.00    -0.385 OA
ATOM     11  H   UNL     1      11.765  -6.361  -0.016  1.00  0.00     0.211 HD
ENDBRANCH   2  10
BRANCH   3  12
ATOM     12  O   UNL     1      12.141  -7.617  -2.146  1.00  0.00    -0.387 OA
ATOM     13  H   UNL     1      12.307  -8.311  -2.837  1.00  0.00     0.211 HD
ENDBRANCH   3  12
BRANCH   5  14
ATOM     14  C   UNL     1       7.246  -8.372  -2.361  1.00  0.00     0.191 C 
BRANCH  14  15
ATOM     15  O   UNL     1       6.892  -8.496  -1.011  1.00  0.00    -0.394 OA
ATOM     16  H   UNL     1       7.319  -9.332  -0.690  1.00  0.00     0.210 HD
ENDBRANCH  14  15
ENDBRANCH   5  14
BRANCH   4  17
ATOM     17  O   UNL     1       9.813  -8.707  -1.051  1.00  0.00    -0.387 OA
ATOM     18  H   UNL     1       9.372  -8.092  -0.407  1.00  0.00     0.211 HD
ENDBRANCH   4  17
TORSDOF 7
ENDMDL
MODEL 9
REMARK VINA RESULT:    -2.572      2.081      4.341
REMARK INTER + INTRA:          -3.710
REMARK INTER:                  -3.306
REMARK INTRA:                  -0.404
REMARK UNBOUND:                -0.385
REMARK SMILES CCO[C@H]1O[C@H](CO)[C@H](O)[C@H](O)[C@@H]1O
REMARK SMILES IDX 4 1 13 2 11 3 9 4 6 5 5 6 3 7 2 8 1 9 14 10 12 12 7 14 8 15
REMARK SMILES IDX 10 17
REMARK H PARENT 14 11 12 13 8 16 10 18
REMARK Flexibility Score: inf
ROOT
ATOM      1  C   UNL     1      10.058  -5.241  -2.400  1.00  0.00     0.281 C 
ATOM      2  C   UNL     1       9.175  -4.047  -1.972  1.00  0.00     0.202 C 
ATOM      3  C   UNL     1       7.950  -4.544  -1.181  1.00  0.00     0.179 C 
ATOM      4  C   UNL     1       7.228  -5.669  -1.950  1.00  0.00     0.177 C 
ATOM      5  C   UNL     1       8.255  -6.754  -2.337  1.00  0.00     0.178 C 
ATOM      6  O   UNL     1       9.300  -6.201  -3.125  1.00  0.00    -0.341 OA
ENDROOT
BRANCH   1   7
ATOM      7  O   UNL     1      10.667  -5.850  -1.268  1.00  0.00    -0.350 OA
BRANCH   7   8
ATOM      8  C   UNL     1      11.896  -6.455  -1.615  1.00  0.00     0.160 C 
ATOM      9  C   UNL     1      12.830  -5.396  -2.179  1.00  0.00     0.035 C 
ENDBRANCH   7   8
ENDBRANCH   1   7
BRANCH   2  10
ATOM     10  O   UNL     1       8.770  -3.344  -3.120  1.00  0.00    -0.385 OA
ATOM     11  H   UNL     1       8.819  -2.377  -2.901  1.00  0.00     0.211 HD
ENDBRANCH   2  10
BRANCH   3  12
ATOM     12  O   UNL     1       7.077  -3.475  -0.925  1.00  0.00    -0.387 OA
ATOM     13  H   UNL     1       6.379  -3.817  -0.308  1.00  0.00     0.211 HD
ENDBRANCH   3  12
BRANCH   5  14
ATOM     14  C   UNL     1       7.587  -7.888  -3.122  1.00  0.00     0.191 C 
BRANCH  14  15
ATOM     15  O   UNL     1       6.298  -8.111  -2.623  1.00  0.00    -0.394 OA
ATOM     16  H   UNL     1       5.811  -8.611  -3.330  1.00  0.00     0.210 HD
ENDBRANCH  14  15
ENDBRANCH   5  14
BRANCH   4  17
ATOM     17  O   UNL     1       6.610  -5.157  -3.107  1.00  0.00    -0.387 OA
ATOM     18  H   UNL     1       7.158  -5.452  -3.881  1.00  0.00     0.211 HD
ENDBRANCH   4  17
TORSDOF 7
ENDMDL
