MODEL 1
REMARK VINA RESULT:    -4.906      0.000      0.000
REMARK INTER + INTRA:          -6.472
REMARK INTER:                  -6.053
REMARK INTRA:                  -0.419
REMARK UNBOUND:                -0.419
REMARK SMILES C=CC[C@@H](C)C(=O)CC
REMARK SMILES IDX 4 1 5 2 6 3 7 4 8 5 9 6 3 7 2 8 1 9
REMARK H PARENT
REMARK Flexibility Score: inf
ROOT
ATOM      1  C   UNL     1      31.622  17.580  27.080  1.00  0.00     0.057 C 
ATOM      2  C   UNL     1      31.756  18.933  26.367  1.00  0.00     0.016 C 
ENDROOT
BRANCH   1   3
ATOM      3  C   UNL     1      31.831  17.743  28.572  1.00  0.00     0.135 C 
ATOM      4  O   UNL     1      30.942  18.242  29.245  1.00  0.00    -0.299 OA
BRANCH   3   5
ATOM      5  C   UNL     1      33.095  17.283  29.257  1.00  0.00     0.072 C 
ATOM      6  C   UNL     1      33.622  15.999  28.624  1.00  0.00     0.012 C 
ENDBRANCH   3   5
ENDBRANCH   1   3
BRANCH   1   7
ATOM      7  C   UNL     1      30.266  16.905  26.789  1.00  0.00     0.038 C 
BRANCH   7   8
ATOM      8  C   UNL     1      30.290  15.441  27.143  1.00  0.00    -0.034 C 
ATOM      9  C   UNL     1      29.327  14.875  27.875  1.00  0.00     0.004 C 
ENDBRANCH   7   8
ENDBRANCH   1   7
TORSDOF 4
ENDMDL
MODEL 2
REMARK VINA RESULT:    -4.828      1.430      3.345
REMARK INTER + INTRA:          -6.376
REMARK INTER:                  -6.107
REMARK INTRA:                  -0.269
REMARK UNBOUND:                -0.419
REMARK SMILES C=CC[C@@H](C)C(=O)CC
REMARK SMILES IDX 4 1 5 2 6 3 7 4 8 5 9 6 3 7 2 8 1 9
REMARK H PARENT
REMARK Flexibility Score: inf
ROOT
ATOM      1  C   UNL     1      30.855  18.223  27.601  1.00  0.00     0.057 C 
ATOM      2  C   UNL     1      31.821  19.162  26.863  1.00  0.00     0.016 C 
ENDROOT
BRANCH   1   3
ATOM      3  C   UNL     1      30.559  16.998  26.761  1.00  0.00     0.135 C 
ATOM      4  O   UNL     1      30.241  17.144  25.590  1.00  0.00    -0.299 OA
BRANCH   3   5
ATOM      5  C   UNL     1      30.670  15.600  27.318  1.00  0.00     0.072 C 
ATOM      6  C   UNL     1      29.290  15.008  27.586  1.00  0.00     0.012 C 
ENDBRANCH   3   5
ENDBRANCH   1   3
BRANCH   1   7
ATOM      7  C   UNL     1      31.389  17.818  28.989  1.00  0.00     0.038 C 
BRANCH   7   8
ATOM      8  C   UNL     1      32.895  17.778  29.012  1.00  0.00    -0.034 C 
ATOM      9  C   UNL     1      33.569  16.631  29.132  1.00  0.00     0.004 C 
ENDBRANCH   7   8
ENDBRANCH   1   7
TORSDOF 4
ENDMDL
MODEL 3
REMARK VINA RESULT:    -4.805      1.435      2.663
REMARK INTER + INTRA:          -6.347
REMARK INTER:                  -6.116
REMARK INTRA:                  -0.231
REMARK UNBOUND:                -0.419
REMARK SMILES C=CC[C@@H](C)C(=O)CC
REMARK SMILES IDX 4 1 5 2 6 3 7 4 8 5 9 6 3 7 2 8 1 9
REMARK H PARENT
REMARK Flexibility Score: inf
ROOT
ATOM      1  C   UNL     1      32.226  16.529  28.601  1.00  0.00     0.057 C 
ATOM      2  C   UNL     1      33.643  15.950  28.717  1.00  0.00     0.016 C 
ENDROOT
BRANCH   1   3
ATOM      3  C   UNL     1      32.274  18.041  28.517  1.00  0.00     0.135 C 
ATOM      4  O   UNL     1      33.351  18.607  28.628  1.00  0.00    -0.299 OA
BRANCH   3   5
ATOM      5  C   UNL     1      31.036  18.869  28.276  1.00  0.00     0.072 C 
ATOM      6  C   UNL     1      31.391  20.208  27.637  1.00  0.00     0.012 C 
ENDBRANCH   3   5
ENDBRANCH   1   3
BRANCH   1   7
ATOM      7  C   UNL     1      31.456  15.940  27.402  1.00  0.00     0.038 C 
BRANCH   7   8
ATOM      8  C   UNL     1      30.192  15.250  27.841  1.00  0.00    -0.034 C 
ATOM      9  C   UNL     1      29.066  15.312  27.124  1.00  0.00     0.004 C 
ENDBRANCH   7   8
ENDBRANCH   1   7
TORSDOF 4
ENDMDL
MODEL 4
REMARK VINA RESULT:    -4.745      1.152      2.601
REMARK INTER + INTRA:          -6.274
REMARK INTER:                  -5.969
REMARK INTRA:                  -0.305
REMARK UNBOUND:                -0.419
REMARK SMILES C=CC[C@@H](C)C(=O)CC
REMARK SMILES IDX 4 1 5 2 6 3 7 4 8 5 9 6 3 7 2 8 1 9
REMARK H PARENT
REMARK Flexibility Score: inf
ROOT
ATOM      1  C   UNL     1      31.715  17.187  28.524  1.00  0.00     0.057 C 
ATOM      2  C   UNL     1      33.139  17.421  29.049  1.00  0.00     0.016 C 
ENDROOT
BRANCH   1   3
ATOM      3  C   UNL     1      31.267  18.353  27.667  1.00  0.00     0.135 C 
ATOM      4  O   UNL     1      30.813  19.349  28.210  1.00  0.00    -0.299 OA
BRANCH   3   5
ATOM      5  C   UNL     1      31.388  18.334  26.163  1.00  0.00     0.072 C 
ATOM      6  C   UNL     1      32.021  19.623  25.649  1.00  0.00     0.012 C 
ENDBRANCH   3   5
ENDBRANCH   1   3
BRANCH   1   7
ATOM      7  C   UNL     1      31.596  15.861  27.747  1.00  0.00     0.038 C 
BRANCH   7   8
ATOM      8  C   UNL     1      30.273  15.188  28.001  1.00  0.00    -0.034 C 
ATOM      9  C   UNL     1      29.238  15.326  27.168  1.00  0.00     0.004 C 
ENDBRANCH   7   8
ENDBRANCH   1   7
TORSDOF 4
ENDMDL
MODEL 5
REMARK VINA RESULT:    -4.717      1.537      3.717
REMARK INTER + INTRA:          -6.239
REMARK INTER:                  -5.911
REMARK INTRA:                  -0.328
REMARK UNBOUND:                -0.419
REMARK SMILES C=CC[C@@H](C)C(=O)CC
REMARK SMILES IDX 4 1 5 2 6 3 7 4 8 5 9 6 3 7 2 8 1 9
REMARK H PARENT
REMARK Flexibility Score: inf
ROOT
ATOM      1  C   UNL     1      32.159  17.548  28.223  1.00  0.00     0.057 C 
ATOM      2  C   UNL     1      33.192  17.395  29.348  1.00  0.00     0.016 C 
ENDROOT
BRANCH   1   3
ATOM      3  C   UNL     1      31.587  16.199  27.840  1.00  0.00     0.135 C 
ATOM      4  O   UNL     1      32.220  15.188  28.106  1.00  0.00    -0.299 OA
BRANCH   3   5
ATOM      5  C   UNL     1      30.246  16.062  27.161  1.00  0.00     0.072 C 
ATOM      6  C   UNL     1      29.437  14.925  27.776  1.00  0.00     0.012 C 
ENDBRANCH   3   5
ENDBRANCH   1   3
BRANCH   1   7
ATOM      7  C   UNL     1      31.033  18.531  28.602  1.00  0.00     0.038 C 
BRANCH   7   8
ATOM      8  C   UNL     1      31.145  19.822  27.833  1.00  0.00    -0.034 C 
ATOM      9  C   UNL     1      31.956  19.949  26.780  1.00  0.00     0.004 C 
ENDBRANCH   7   8
ENDBRANCH   1   7
TORSDOF 4
ENDMDL
MODEL 6
REMARK VINA RESULT:    -4.626      1.711      3.768
REMARK INTER + INTRA:          -6.126
REMARK INTER:                  -5.842
REMARK INTRA:                  -0.284
REMARK UNBOUND:                -0.419
REMARK SMILES C=CC[C@@H](C)C(=O)CC
REMARK SMILES IDX 4 1 5 2 6 3 7 4 8 5 9 6 3 7 2 8 1 9
REMARK H PARENT
REMARK Flexibility Score: inf
ROOT
ATOM      1  C   UNL     1      30.897  16.112  27.552  1.00  0.00     0.057 C 
ATOM      2  C   UNL     1      29.768  15.137  27.917  1.00  0.00     0.016 C 
ENDROOT
BRANCH   1   3
ATOM      3  C   UNL     1      30.537  16.899  26.308  1.00  0.00     0.135 C 
ATOM      4  O   UNL     1      29.509  16.624  25.708  1.00  0.00    -0.299 OA
BRANCH   3   5
ATOM      5  C   UNL     1      31.397  18.031  25.802  1.00  0.00     0.072 C 
ATOM      6  C   UNL     1      31.400  18.074  24.277  1.00  0.00     0.012 C 
ENDBRANCH   3   5
ENDBRANCH   1   3
BRANCH   1   7
ATOM      7  C   UNL     1      31.243  17.059  28.718  1.00  0.00     0.038 C 
BRANCH   7   8
ATOM      8  C   UNL     1      32.710  17.008  29.055  1.00  0.00    -0.034 C 
ATOM      9  C   UNL     1      33.495  16.007  28.646  1.00  0.00     0.004 C 
ENDBRANCH   7   8
ENDBRANCH   1   7
TORSDOF 4
ENDMDL
MODEL 7
REMARK VINA RESULT:    -4.550      1.638      3.844
REMARK INTER + INTRA:          -6.032
REMARK INTER:                  -5.564
REMARK INTRA:                  -0.468
REMARK UNBOUND:                -0.419
REMARK SMILES C=CC[C@@H](C)C(=O)CC
REMARK SMILES IDX 4 1 5 2 6 3 7 4 8 5 9 6 3 7 2 8 1 9
REMARK H PARENT
REMARK Flexibility Score: inf
ROOT
ATOM      1  C   UNL     1      31.660  16.953  27.807  1.00  0.00     0.057 C 
ATOM      2  C   UNL     1      32.705  15.971  28.355  1.00  0.00     0.016 C 
ENDROOT
BRANCH   1   3
ATOM      3  C   UNL     1      30.438  16.207  27.311  1.00  0.00     0.135 C 
ATOM      4  O   UNL     1      30.000  15.279  27.974  1.00  0.00    -0.299 OA
BRANCH   3   5
ATOM      5  C   UNL     1      29.729  16.591  26.035  1.00  0.00     0.072 C 
ATOM      6  C   UNL     1      30.659  17.364  25.106  1.00  0.00     0.012 C 
ENDBRANCH   3   5
ENDBRANCH   1   3
BRANCH   1   7
ATOM      7  C   UNL     1      31.265  18.019  28.849  1.00  0.00     0.038 C 
BRANCH   7   8
ATOM      8  C   UNL     1      30.964  19.343  28.198  1.00  0.00    -0.034 C 
ATOM      9  C   UNL     1      31.871  19.989  27.458  1.00  0.00     0.004 C 
ENDBRANCH   7   8
ENDBRANCH   1   7
TORSDOF 4
ENDMDL
MODEL 8
REMARK VINA RESULT:    -4.534      1.987      3.565
REMARK INTER + INTRA:          -6.013
REMARK INTER:                  -5.579
REMARK INTRA:                  -0.434
REMARK UNBOUND:                -0.419
REMARK SMILES C=CC[C@@H](C)C(=O)CC
REMARK SMILES IDX 4 1 5 2 6 3 7 4 8 5 9 6 3 7 2 8 1 9
REMARK H PARENT
REMARK Flexibility Score: inf
ROOT
ATOM      1  C   UNL     1      31.446  17.953  27.031  1.00  0.00     0.057 C 
ATOM      2  C   UNL     1      30.369  17.197  26.240  1.00  0.00     0.016 C 
ENDROOT
BRANCH   1   3
ATOM      3  C   UNL     1      31.777  19.268  26.355  1.00  0.00     0.135 C 
ATOM      4  O   UNL     1      31.942  19.288  25.144  1.00  0.00    -0.299 OA
BRANCH   3   5
ATOM      5  C   UNL     1      31.884  20.559  27.128  1.00  0.00     0.072 C 
ATOM      6  C   UNL     1      33.338  20.880  27.455  1.00  0.00     0.012 C 
ENDBRANCH   3   5
ENDBRANCH   1   3
BRANCH   1   7
ATOM      7  C   UNL     1      31.032  18.182  28.498  1.00  0.00     0.038 C 
BRANCH   7   8
ATOM      8  C   UNL     1      32.039  17.597  29.454  1.00  0.00    -0.034 C 
ATOM      9  C   UNL     1      33.283  17.293  29.071  1.00  0.00     0.004 C 
ENDBRANCH   7   8
ENDBRANCH   1   7
TORSDOF 4
ENDMDL
MODEL 9
REMARK VINA RESULT:    -4.464      2.175      3.748
REMARK INTER + INTRA:          -5.927
REMARK INTER:                  -5.469
REMARK INTRA:                  -0.457
REMARK UNBOUND:                -0.419
REMARK SMILES C=CC[C@@H](C)C(=O)CC
REMARK SMILES IDX 4 1 5 2 6 3 7 4 8 5 9 6 3 7 2 8 1 9
REMARK H PARENT
REMARK Flexibility Score: inf
ROOT
ATOM      1  C   UNL     1      31.707  19.481  27.368  1.00  0.00     0.057 C 
ATOM      2  C   UNL     1      31.350  20.952  27.628  1.00  0.00     0.016 C 
ENDROOT
BRANCH   1   3
ATOM      3  C   UNL     1      31.899  19.234  25.885  1.00  0.00     0.135 C 
ATOM      4  O   UNL     1      32.593  20.006  25.240  1.00  0.00    -0.299 OA
BRANCH   3   5
ATOM      5  C   UNL     1      31.279  18.050  25.184  1.00  0.00     0.072 C 
ATOM      6  C   UNL     1      30.291  17.332  26.097  1.00  0.00     0.012 C 
ENDBRANCH   3   5
ENDBRANCH   1   3
BRANCH   1   7
ATOM      7  C   UNL     1      32.953  19.038  28.161  1.00  0.00     0.038 C 
BRANCH   7   8
ATOM      8  C   UNL     1      32.671  17.817  28.997  1.00  0.00    -0.034 C 
ATOM      9  C   UNL     1      33.058  16.596  28.617  1.00  0.00     0.004 C 
ENDBRANCH   7   8
ENDBRANCH   1   7
TORSDOF 4
ENDMDL
