MODEL 1
REMARK VINA RESULT:    -2.462      0.000      0.000
REMARK INTER + INTRA:          -2.462
REMARK INTER:                  -2.462
REMARK INTRA:                   0.000
REMARK UNBOUND:                 0.000
REMARK SMILES CC(=O)[O-]
REMARK SMILES IDX 1 1 2 2 3 3 4 4
REMARK H PARENT
REMARK Flexibility Score: inf
ROOT
ATOM      1  C   UNL     1      35.675  32.013  14.128  1.00  0.00     0.063 C 
ATOM      2  C   UNL     1      35.477  30.535  14.112  1.00  0.00     0.038 C 
ATOM      3  O   UNL     1      36.204  29.793  14.823  1.00  0.00    -0.550 OA
ATOM      4  O   UNL     1      34.457  29.978  13.353  1.00  0.00    -0.550 OA
ENDROOT
TORSDOF 0
ENDMDL
MODEL 2
REMARK VINA RESULT:    -2.451      9.116      9.627
REMARK INTER + INTRA:          -2.451
REMARK INTER:                  -2.451
REMARK INTRA:                   0.000
REMARK UNBOUND:                 0.000
REMARK SMILES CC(=O)[O-]
REMARK SMILES IDX 1 1 2 2 3 3 4 4
REMARK H PARENT
REMARK Flexibility Score: inf
ROOT
ATOM      1  C   UNL     1      40.986  37.232  13.447  1.00  0.00     0.063 C 
ATOM      2  C   UNL     1      40.310  38.551  13.286  1.00  0.00     0.038 C 
ATOM      3  O   UNL     1      39.495  38.733  12.344  1.00  0.00    -0.550 OA
ATOM      4  O   UNL     1      40.536  39.566  14.207  1.00  0.00    -0.550 OA
ENDROOT
TORSDOF 0
ENDMDL
MODEL 3
REMARK VINA RESULT:    -2.439      8.840      9.307
REMARK INTER + INTRA:          -2.439
REMARK INTER:                  -2.439
REMARK INTRA:                   0.000
REMARK UNBOUND:                 0.000
REMARK SMILES CC(=O)[O-]
REMARK SMILES IDX 1 1 2 2 3 3 4 4
REMARK H PARENT
REMARK Flexibility Score: inf
ROOT
ATOM      1  C   UNL     1      39.296  38.676  12.225  1.00  0.00     0.063 C 
ATOM      2  C   UNL     1      40.301  38.356  13.278  1.00  0.00     0.038 C 
ATOM      3  O   UNL     1      40.651  39.237  14.107  1.00  0.00    -0.550 OA
ATOM      4  O   UNL     1      40.816  37.070  13.381  1.00  0.00    -0.550 OA
ENDROOT
TORSDOF 0
ENDMDL
MODEL 4
REMARK VINA RESULT:    -2.333      1.341      1.900
REMARK INTER + INTRA:          -2.333
REMARK INTER:                  -2.333
REMARK INTRA:                   0.000
REMARK UNBOUND:                 0.000
REMARK SMILES CC(=O)[O-]
REMARK SMILES IDX 1 1 2 2 3 3 4 4
REMARK H PARENT
REMARK Flexibility Score: inf
ROOT
ATOM      1  C   UNL     1      36.260  31.547  14.321  1.00  0.00     0.063 C 
ATOM      2  C   UNL     1      35.003  31.316  13.554  1.00  0.00     0.038 C 
ATOM      3  O   UNL     1      34.372  32.291  13.067  1.00  0.00    -0.550 OA
ATOM      4  O   UNL     1      34.553  30.022  13.328  1.00  0.00    -0.550 OA
ENDROOT
TORSDOF 0
ENDMDL
MODEL 5
REMARK VINA RESULT:    -2.320     12.445     12.979
REMARK INTER + INTRA:          -2.320
REMARK INTER:                  -2.320
REMARK INTRA:                   0.000
REMARK UNBOUND:                 0.000
REMARK SMILES CC(=O)[O-]
REMARK SMILES IDX 1 1 2 2 3 3 4 4
REMARK H PARENT
REMARK Flexibility Score: inf
ROOT
ATOM      1  C   UNL     1      41.879  40.007  19.856  1.00  0.00     0.063 C 
ATOM      2  C   UNL     1      41.463  40.964  18.791  1.00  0.00     0.038 C 
ATOM      3  O   UNL     1      41.388  42.195  19.042  1.00  0.00    -0.550 OA
ATOM      4  O   UNL     1      41.207  40.506  17.505  1.00  0.00    -0.550 OA
ENDROOT
TORSDOF 0
ENDMDL
MODEL 6
REMARK VINA RESULT:    -2.309     11.574     12.111
REMARK INTER + INTRA:          -2.309
REMARK INTER:                  -2.309
REMARK INTRA:                   0.000
REMARK UNBOUND:                 0.000
REMARK SMILES CC(=O)[O-]
REMARK SMILES IDX 1 1 2 2 3 3 4 4
REMARK H PARENT
REMARK Flexibility Score: inf
ROOT
ATOM      1  C   UNL     1      40.682  40.904  16.895  1.00  0.00     0.063 C 
ATOM      2  C   UNL     1      40.924  41.106  15.438  1.00  0.00     0.038 C 
ATOM      3  O   UNL     1      40.562  40.231  14.609  1.00  0.00    -0.550 OA
ATOM      4  O   UNL     1      41.502  42.286  14.986  1.00  0.00    -0.550 OA
ENDROOT
TORSDOF 0
ENDMDL
MODEL 7
REMARK VINA RESULT:    -2.246      9.167      9.738
REMARK INTER + INTRA:          -2.246
REMARK INTER:                  -2.246
REMARK INTRA:                   0.000
REMARK UNBOUND:                 0.000
REMARK SMILES CC(=O)[O-]
REMARK SMILES IDX 1 1 2 2 3 3 4 4
REMARK H PARENT
REMARK Flexibility Score: inf
ROOT
ATOM      1  C   UNL     1      40.256  38.180  13.122  1.00  0.00     0.063 C 
ATOM      2  C   UNL     1      41.658  37.835  13.493  1.00  0.00     0.038 C 
ATOM      3  O   UNL     1      42.084  36.661  13.331  1.00  0.00    -0.550 OA
ATOM      4  O   UNL     1      42.515  38.819  13.969  1.00  0.00    -0.550 OA
ENDROOT
TORSDOF 0
ENDMDL
MODEL 8
REMARK VINA RESULT:    -2.215     12.721     13.306
REMARK INTER + INTRA:          -2.215
REMARK INTER:                  -2.215
REMARK INTRA:                   0.000
REMARK UNBOUND:                 0.000
REMARK SMILES CC(=O)[O-]
REMARK SMILES IDX 1 1 2 2 3 3 4 4
REMARK H PARENT
REMARK Flexibility Score: inf
ROOT
ATOM      1  C   UNL     1      41.454  40.747  18.060  1.00  0.00     0.063 C 
ATOM      2  C   UNL     1      41.695  40.868  19.526  1.00  0.00     0.038 C 
ATOM      3  O   UNL     1      42.055  39.862  20.192  1.00  0.00    -0.550 OA
ATOM      4  O   UNL     1      41.575  42.102  20.152  1.00  0.00    -0.550 OA
ENDROOT
TORSDOF 0
ENDMDL
MODEL 9
REMARK VINA RESULT:    -2.209     12.256     12.656
REMARK INTER + INTRA:          -2.209
REMARK INTER:                  -2.209
REMARK INTRA:                   0.000
REMARK UNBOUND:                 0.000
REMARK SMILES CC(=O)[O-]
REMARK SMILES IDX 1 1 2 2 3 3 4 4
REMARK H PARENT
REMARK Flexibility Score: inf
ROOT
ATOM      1  C   UNL     1      42.630  41.746  18.384  1.00  0.00     0.063 C 
ATOM      2  C   UNL     1      41.527  40.743  18.407  1.00  0.00     0.038 C 
ATOM      3  O   UNL     1      41.380  39.989  19.404  1.00  0.00    -0.550 OA
ATOM      4  O   UNL     1      40.626  40.675  17.352  1.00  0.00    -0.550 OA
ENDROOT
TORSDOF 0
ENDMDL
