MODEL 1
REMARK VINA RESULT:    -3.559      0.000      0.000
REMARK INTER + INTRA:          -5.041
REMARK INTER:                  -4.599
REMARK INTRA:                  -0.441
REMARK UNBOUND:                -0.441
REMARK SMILES CCO[C@H]1O[C@@H](CO)[C@@H](O)[C@@H](O)[C@H]1O
REMARK SMILES IDX 4 1 13 2 11 3 9 4 6 5 5 6 3 7 2 8 1 9 14 10 12 12 7 14 8 15
REMARK SMILES IDX 10 17
REMARK H PARENT 14 11 12 13 8 16 10 18
REMARK Flexibility Score: inf
ROOT
ATOM      1  C   UNL     1      17.692  -7.803   5.491  1.00  0.00     0.281 C 
ATOM      2  C   UNL     1      18.486  -9.067   5.895  1.00  0.00     0.202 C 
ATOM      3  C   UNL     1      19.678  -8.704   6.813  1.00  0.00     0.179 C 
ATOM      4  C   UNL     1      20.234  -7.290   6.497  1.00  0.00     0.177 C 
ATOM      5  C   UNL     1      19.876  -6.897   5.043  1.00  0.00     0.178 C 
ATOM      6  O   UNL     1      18.473  -6.812   4.819  1.00  0.00    -0.341 OA
ENDROOT
BRANCH   1   7
ATOM      7  O   UNL     1      17.095  -7.243   6.648  1.00  0.00    -0.350 OA
BRANCH   7   8
ATOM      8  C   UNL     1      15.787  -6.794   6.360  1.00  0.00     0.160 C 
ATOM      9  C   UNL     1      14.790  -7.850   6.809  1.00  0.00     0.035 C 
ENDBRANCH   7   8
ENDBRANCH   1   7
BRANCH   2  10
ATOM     10  O   UNL     1      17.626  -9.987   6.518  1.00  0.00    -0.385 OA
ATOM     11  H   UNL     1      18.034 -10.884   6.396  1.00  0.00     0.211 HD
ENDBRANCH   2  10
BRANCH   3  12
ATOM     12  O   UNL     1      19.298  -8.798   8.165  1.00  0.00    -0.387 OA
ATOM     13  H   UNL     1      18.357  -8.484   8.219  1.00  0.00     0.211 HD
ENDBRANCH   3  12
BRANCH   5  14
ATOM     14  C   UNL     1      20.529  -5.569   4.636  1.00  0.00     0.191 C 
BRANCH  14  15
ATOM     15  O   UNL     1      21.611  -5.274   5.475  1.00  0.00    -0.394 OA
ATOM     16  H   UNL     1      21.779  -4.301   5.376  1.00  0.00     0.210 HD
ENDBRANCH  14  15
ENDBRANCH   5  14
BRANCH   4  17
ATOM     17  O   UNL     1      19.706  -6.334   7.384  1.00  0.00    -0.387 OA
ATOM     18  H   UNL     1      20.470  -5.950   7.888  1.00  0.00     0.211 HD
ENDBRANCH   4  17
TORSDOF 7
ENDMDL
MODEL 2
REMARK VINA RESULT:    -3.328      1.587      4.061
REMARK INTER + INTRA:          -4.742
REMARK INTER:                  -4.327
REMARK INTRA:                  -0.416
REMARK UNBOUND:                -0.441
REMARK SMILES CCO[C@H]1O[C@@H](CO)[C@@H](O)[C@@H](O)[C@H]1O
REMARK SMILES IDX 4 1 13 2 11 3 9 4 6 5 5 6 3 7 2 8 1 9 14 10 12 12 7 14 8 15
REMARK SMILES IDX 10 17
REMARK H PARENT 14 11 12 13 8 16 10 18
REMARK Flexibility Score: inf
ROOT
ATOM      1  C   UNL     1      19.372  -9.086   6.256  1.00  0.00     0.281 C 
ATOM      2  C   UNL     1      19.886  -7.903   5.404  1.00  0.00     0.202 C 
ATOM      3  C   UNL     1      19.227  -6.574   5.845  1.00  0.00     0.179 C 
ATOM      4  C   UNL     1      17.793  -6.800   6.394  1.00  0.00     0.177 C 
ATOM      5  C   UNL     1      17.213  -8.117   5.821  1.00  0.00     0.178 C 
ATOM      6  O   UNL     1      17.954  -9.267   6.211  1.00  0.00    -0.341 OA
ENDROOT
BRANCH   1   7
ATOM      7  O   UNL     1      19.792  -8.907   7.598  1.00  0.00    -0.350 OA
BRANCH   7   8
ATOM      8  C   UNL     1      19.686 -10.119   8.314  1.00  0.00     0.160 C 
ATOM      9  C   UNL     1      19.915  -9.843   9.792  1.00  0.00     0.035 C 
ENDBRANCH   7   8
ENDBRANCH   1   7
BRANCH   2  10
ATOM     10  O   UNL     1      21.286  -7.830   5.492  1.00  0.00    -0.385 OA
ATOM     11  H   UNL     1      21.642  -8.641   5.044  1.00  0.00     0.211 HD
ENDBRANCH   2  10
BRANCH   3  12
ATOM     12  O   UNL     1      20.029  -5.926   6.803  1.00  0.00    -0.387 OA
ATOM     13  H   UNL     1      20.748  -5.458   6.303  1.00  0.00     0.211 HD
ENDBRANCH   3  12
BRANCH   5  14
ATOM     14  C   UNL     1      15.743  -8.310   6.220  1.00  0.00     0.191 C 
BRANCH  14  15
ATOM     15  O   UNL     1      15.183  -7.097   6.641  1.00  0.00    -0.394 OA
ATOM     16  H   UNL     1      14.512  -7.330   7.335  1.00  0.00     0.210 HD
ENDBRANCH  14  15
ENDBRANCH   5  14
BRANCH   4  17
ATOM     17  O   UNL     1      17.799  -6.864   7.799  1.00  0.00    -0.387 OA
ATOM     18  H   UNL     1      18.507  -6.243   8.116  1.00  0.00     0.211 HD
ENDBRANCH   4  17
TORSDOF 7
ENDMDL
MODEL 3
REMARK VINA RESULT:    -3.296      2.015      3.238
REMARK INTER + INTRA:          -4.700
REMARK INTER:                  -4.540
REMARK INTRA:                  -0.160
REMARK UNBOUND:                -0.441
REMARK SMILES CCO[C@H]1O[C@@H](CO)[C@@H](O)[C@@H](O)[C@H]1O
REMARK SMILES IDX 4 1 13 2 11 3 9 4 6 5 5 6 3 7 2 8 1 9 14 10 12 12 7 14 8 15
REMARK SMILES IDX 10 17
REMARK H PARENT 14 11 12 13 8 16 10 18
REMARK Flexibility Score: inf
ROOT
ATOM      1  C   UNL     1      15.990  -6.642   6.274  1.00  0.00     0.281 C 
ATOM      2  C   UNL     1      16.670  -6.398   4.908  1.00  0.00     0.202 C 
ATOM      3  C   UNL     1      17.884  -7.340   4.717  1.00  0.00     0.179 C 
ATOM      4  C   UNL     1      18.561  -7.684   6.070  1.00  0.00     0.177 C 
ATOM      5  C   UNL     1      18.245  -6.582   7.111  1.00  0.00     0.178 C 
ATOM      6  O   UNL     1      16.856  -6.470   7.398  1.00  0.00    -0.341 OA
ENDROOT
BRANCH   1   7
ATOM      7  O   UNL     1      15.436  -7.947   6.288  1.00  0.00    -0.350 OA
BRANCH   7   8
ATOM      8  C   UNL     1      14.134  -7.925   6.837  1.00  0.00     0.160 C 
ATOM      9  C   UNL     1      13.143  -7.549   5.746  1.00  0.00     0.035 C 
ENDBRANCH   7   8
ENDBRANCH   1   7
BRANCH   2  10
ATOM     10  O   UNL     1      15.733  -6.562   3.875  1.00  0.00    -0.385 OA
ATOM     11  H   UNL     1      14.836  -6.450   4.285  1.00  0.00     0.211 HD
ENDBRANCH   2  10
BRANCH   3  12
ATOM     12  O   UNL     1      17.490  -8.511   4.045  1.00  0.00    -0.387 OA
ATOM     13  H   UNL     1      17.351  -9.206   4.740  1.00  0.00     0.211 HD
ENDBRANCH   3  12
BRANCH   5  14
ATOM     14  C   UNL     1      19.011  -6.803   8.423  1.00  0.00     0.191 C 
BRANCH  14  15
ATOM     15  O   UNL     1      19.181  -5.591   9.104  1.00  0.00    -0.394 OA
ATOM     16  H   UNL     1      20.136  -5.343   8.989  1.00  0.00     0.210 HD
ENDBRANCH  14  15
ENDBRANCH   5  14
BRANCH   4  17
ATOM     17  O   UNL     1      18.111  -8.926   6.552  1.00  0.00    -0.387 OA
ATOM     18  H   UNL     1      17.706  -9.408   5.784  1.00  0.00     0.211 HD
ENDBRANCH   4  17
TORSDOF 7
ENDMDL
MODEL 4
REMARK VINA RESULT:    -3.226      1.127      1.142
REMARK INTER + INTRA:          -4.610
REMARK INTER:                  -4.182
REMARK INTRA:                  -0.428
REMARK UNBOUND:                -0.441
REMARK SMILES CCO[C@H]1O[C@@H](CO)[C@@H](O)[C@@H](O)[C@H]1O
REMARK SMILES IDX 4 1 13 2 11 3 9 4 6 5 5 6 3 7 2 8 1 9 14 10 12 12 7 14 8 15
REMARK SMILES IDX 10 17
REMARK H PARENT 14 11 12 13 8 16 10 18
REMARK Flexibility Score: inf
ROOT
ATOM      1  C   UNL     1      17.932  -7.209   4.640  1.00  0.00     0.281 C 
ATOM      2  C   UNL     1      18.488  -8.633   4.415  1.00  0.00     0.202 C 
ATOM      3  C   UNL     1      19.720  -8.897   5.315  1.00  0.00     0.179 C 
ATOM      4  C   UNL     1      20.519  -7.594   5.587  1.00  0.00     0.177 C 
ATOM      5  C   UNL     1      20.244  -6.565   4.463  1.00  0.00     0.178 C 
ATOM      6  O   UNL     1      18.880  -6.166   4.397  1.00  0.00    -0.341 OA
ENDROOT
BRANCH   1   7
ATOM      7  O   UNL     1      17.436  -7.109   5.964  1.00  0.00    -0.350 OA
BRANCH   7   8
ATOM      8  C   UNL     1      16.137  -6.556   5.964  1.00  0.00     0.160 C 
ATOM      9  C   UNL     1      15.169  -7.564   6.566  1.00  0.00     0.035 C 
ENDBRANCH   7   8
ENDBRANCH   1   7
BRANCH   2  10
ATOM     10  O   UNL     1      17.476  -9.579   4.650  1.00  0.00    -0.385 OA
ATOM     11  H   UNL     1      16.753  -9.106   5.138  1.00  0.00     0.211 HD
ENDBRANCH   2  10
BRANCH   3  12
ATOM     12  O   UNL     1      19.322  -9.497   6.523  1.00  0.00    -0.387 OA
ATOM     13  H   UNL     1      18.348  -9.676   6.446  1.00  0.00     0.211 HD
ENDBRANCH   3  12
BRANCH   5  14
ATOM     14  C   UNL     1      21.124  -5.315   4.611  1.00  0.00     0.191 C 
BRANCH  14  15
ATOM     15  O   UNL     1      22.292  -5.617   5.322  1.00  0.00    -0.394 OA
ATOM     16  H   UNL     1      22.954  -5.923   4.648  1.00  0.00     0.210 HD
ENDBRANCH  14  15
ENDBRANCH   5  14
BRANCH   4  17
ATOM     17  O   UNL     1      20.162  -7.039   6.829  1.00  0.00    -0.387 OA
ATOM     18  H   UNL     1      20.639  -6.172   6.909  1.00  0.00     0.211 HD
ENDBRANCH   4  17
TORSDOF 7
ENDMDL
MODEL 5
REMARK VINA RESULT:    -3.108      1.559      2.942
REMARK INTER + INTRA:          -4.458
REMARK INTER:                  -4.046
REMARK INTRA:                  -0.413
REMARK UNBOUND:                -0.441
REMARK SMILES CCO[C@H]1O[C@@H](CO)[C@@H](O)[C@@H](O)[C@H]1O
REMARK SMILES IDX 4 1 13 2 11 3 9 4 6 5 5 6 3 7 2 8 1 9 14 10 12 12 7 14 8 15
REMARK SMILES IDX 10 17
REMARK H PARENT 14 11 12 13 8 16 10 18
REMARK Flexibility Score: inf
ROOT
ATOM      1  C   UNL     1      18.947  -7.365   6.936  1.00  0.00     0.281 C 
ATOM      2  C   UNL     1      17.834  -7.774   5.946  1.00  0.00     0.202 C 
ATOM      3  C   UNL     1      18.433  -8.211   4.587  1.00  0.00     0.179 C 
ATOM      4  C   UNL     1      19.756  -7.461   4.277  1.00  0.00     0.177 C 
ATOM      5  C   UNL     1      19.798  -6.125   5.058  1.00  0.00     0.178 C 
ATOM      6  O   UNL     1      19.786  -6.306   6.470  1.00  0.00    -0.341 OA
ENDROOT
BRANCH   1   7
ATOM      7  O   UNL     1      19.734  -8.504   7.242  1.00  0.00    -0.350 OA
BRANCH   7   8
ATOM      8  C   UNL     1      19.875  -8.645   8.641  1.00  0.00     0.160 C 
ATOM      9  C   UNL     1      19.760 -10.117   9.004  1.00  0.00     0.035 C 
ENDBRANCH   7   8
ENDBRANCH   1   7
BRANCH   2  10
ATOM     10  O   UNL     1      17.050  -8.796   6.508  1.00  0.00    -0.385 OA
ATOM     11  H   UNL     1      16.139  -8.422   6.626  1.00  0.00     0.211 HD
ENDBRANCH   2  10
BRANCH   3  12
ATOM     12  O   UNL     1      18.634  -9.603   4.568  1.00  0.00    -0.387 OA
ATOM     13  H   UNL     1      18.710  -9.868   3.615  1.00  0.00     0.211 HD
ENDBRANCH   3  12
BRANCH   5  14
ATOM     14  C   UNL     1      21.021  -5.280   4.673  1.00  0.00     0.191 C 
BRANCH  14  15
ATOM     15  O   UNL     1      22.129  -5.634   5.453  1.00  0.00    -0.394 OA
ATOM     16  H   UNL     1      21.818  -6.351   6.065  1.00  0.00     0.210 HD
ENDBRANCH  14  15
ENDBRANCH   5  14
BRANCH   4  17
ATOM     17  O   UNL     1      20.869  -8.245   4.629  1.00  0.00    -0.387 OA
ATOM     18  H   UNL     1      20.901  -9.008   3.995  1.00  0.00     0.211 HD
ENDBRANCH   4  17
TORSDOF 7
ENDMDL
MODEL 6
REMARK VINA RESULT:    -2.952      1.817      4.049
REMARK INTER + INTRA:          -4.257
REMARK INTER:                  -3.820
REMARK INTRA:                  -0.436
REMARK UNBOUND:                -0.441
REMARK SMILES CCO[C@H]1O[C@@H](CO)[C@@H](O)[C@@H](O)[C@H]1O
REMARK SMILES IDX 4 1 13 2 11 3 9 4 6 5 5 6 3 7 2 8 1 9 14 10 12 12 7 14 8 15
REMARK SMILES IDX 10 17
REMARK H PARENT 14 11 12 13 8 16 10 18
REMARK Flexibility Score: inf
ROOT
ATOM      1  C   UNL     1      20.470  -7.363   5.262  1.00  0.00     0.281 C 
ATOM      2  C   UNL     1      19.973  -8.821   5.133  1.00  0.00     0.202 C 
ATOM      3  C   UNL     1      18.443  -8.908   5.352  1.00  0.00     0.179 C 
ATOM      4  C   UNL     1      17.942  -7.815   6.333  1.00  0.00     0.177 C 
ATOM      5  C   UNL     1      19.106  -7.354   7.245  1.00  0.00     0.178 C 
ATOM      6  O   UNL     1      20.175  -6.755   6.522  1.00  0.00    -0.341 OA
ENDROOT
BRANCH   1   7
ATOM      7  O   UNL     1      19.914  -6.590   4.212  1.00  0.00    -0.350 OA
BRANCH   7   8
ATOM      8  C   UNL     1      20.492  -5.302   4.189  1.00  0.00     0.160 C 
ATOM      9  C   UNL     1      21.978  -5.430   3.892  1.00  0.00     0.035 C 
ENDBRANCH   7   8
ENDBRANCH   1   7
BRANCH   2  10
ATOM     10  O   UNL     1      20.336  -9.336   3.877  1.00  0.00    -0.385 OA
ATOM     11  H   UNL     1      20.425  -8.558   3.266  1.00  0.00     0.211 HD
ENDBRANCH   2  10
BRANCH   3  12
ATOM     12  O   UNL     1      17.769  -8.818   4.120  1.00  0.00    -0.387 OA
ATOM     13  H   UNL     1      16.977  -9.413   4.183  1.00  0.00     0.211 HD
ENDBRANCH   3  12
BRANCH   5  14
ATOM     14  C   UNL     1      18.626  -6.379   8.329  1.00  0.00     0.191 C 
BRANCH  14  15
ATOM     15  O   UNL     1      17.226  -6.346   8.377  1.00  0.00    -0.394 OA
ATOM     16  H   UNL     1      16.912  -6.718   7.512  1.00  0.00     0.210 HD
ENDBRANCH  14  15
ENDBRANCH   5  14
BRANCH   4  17
ATOM     17  O   UNL     1      17.432  -6.708   5.630  1.00  0.00    -0.387 OA
ATOM     18  H   UNL     1      16.452  -6.843   5.546  1.00  0.00     0.211 HD
ENDBRANCH   4  17
TORSDOF 7
ENDMDL
MODEL 7
REMARK VINA RESULT:    -2.908      2.017      4.805
REMARK INTER + INTRA:          -4.200
REMARK INTER:                  -3.897
REMARK INTRA:                  -0.303
REMARK UNBOUND:                -0.441
REMARK SMILES CCO[C@H]1O[C@@H](CO)[C@@H](O)[C@@H](O)[C@H]1O
REMARK SMILES IDX 4 1 13 2 11 3 9 4 6 5 5 6 3 7 2 8 1 9 14 10 12 12 7 14 8 15
REMARK SMILES IDX 10 17
REMARK H PARENT 14 11 12 13 8 16 10 18
REMARK Flexibility Score: inf
ROOT
ATOM      1  C   UNL     1      17.218  -8.350   5.082  1.00  0.00     0.281 C 
ATOM      2  C   UNL     1      17.484  -6.901   5.549  1.00  0.00     0.202 C 
ATOM      3  C   UNL     1      16.452  -6.465   6.618  1.00  0.00     0.179 C 
ATOM      4  C   UNL     1      15.082  -7.163   6.409  1.00  0.00     0.177 C 
ATOM      5  C   UNL     1      14.936  -7.603   4.932  1.00  0.00     0.178 C 
ATOM      6  O   UNL     1      15.913  -8.560   4.537  1.00  0.00    -0.341 OA
ENDROOT
BRANCH   1   7
ATOM      7  O   UNL     1      17.434  -9.234   6.168  1.00  0.00    -0.350 OA
BRANCH   7   8
ATOM      8  C   UNL     1      18.526 -10.090   5.899  1.00  0.00     0.160 C 
ATOM      9  C   UNL     1      19.439 -10.125   7.115  1.00  0.00     0.035 C 
ENDBRANCH   7   8
ENDBRANCH   1   7
BRANCH   2  10
ATOM     10  O   UNL     1      18.797  -6.794   6.037  1.00  0.00    -0.385 OA
ATOM     11  H   UNL     1      18.762  -7.026   7.001  1.00  0.00     0.211 HD
ENDBRANCH   2  10
BRANCH   3  12
ATOM     12  O   UNL     1      16.950  -6.722   7.908  1.00  0.00    -0.387 OA
ATOM     13  H   UNL     1      17.191  -7.685   7.935  1.00  0.00     0.211 HD
ENDBRANCH   3  12
BRANCH   5  14
ATOM     14  C   UNL     1      13.538  -8.168   4.643  1.00  0.00     0.191 C 
BRANCH  14  15
ATOM     15  O   UNL     1      12.561  -7.444   5.338  1.00  0.00    -0.394 OA
ATOM     16  H   UNL     1      12.065  -6.924   4.653  1.00  0.00     0.210 HD
ENDBRANCH  14  15
ENDBRANCH   5  14
BRANCH   4  17
ATOM     17  O   UNL     1      14.960  -8.286   7.247  1.00  0.00    -0.387 OA
ATOM     18  H   UNL     1      13.997  -8.529   7.272  1.00  0.00     0.211 HD
ENDBRANCH   4  17
TORSDOF 7
ENDMDL
MODEL 8
REMARK VINA RESULT:    -2.797      1.671      3.974
REMARK INTER + INTRA:          -4.056
REMARK INTER:                  -3.604
REMARK INTRA:                  -0.452
REMARK UNBOUND:                -0.441
REMARK SMILES CCO[C@H]1O[C@@H](CO)[C@@H](O)[C@@H](O)[C@H]1O
REMARK SMILES IDX 4 1 13 2 11 3 9 4 6 5 5 6 3 7 2 8 1 9 14 10 12 12 7 14 8 15
REMARK SMILES IDX 10 17
REMARK H PARENT 14 11 12 13 8 16 10 18
REMARK Flexibility Score: inf
ROOT
ATOM      1  C   UNL     1      19.797  -8.001   6.520  1.00  0.00     0.281 C 
ATOM      2  C   UNL     1      20.505  -7.905   5.150  1.00  0.00     0.202 C 
ATOM      3  C   UNL     1      19.525  -7.429   4.050  1.00  0.00     0.179 C 
ATOM      4  C   UNL     1      18.071  -7.889   4.341  1.00  0.00     0.177 C 
ATOM      5  C   UNL     1      18.088  -9.134   5.261  1.00  0.00     0.178 C 
ATOM      6  O   UNL     1      18.667  -8.877   6.535  1.00  0.00    -0.341 OA
ENDROOT
BRANCH   1   7
ATOM      7  O   UNL     1      19.404  -6.702   6.929  1.00  0.00    -0.350 OA
BRANCH   7   8
ATOM      8  C   UNL     1      19.015  -6.708   8.287  1.00  0.00     0.160 C 
ATOM      9  C   UNL     1      17.535  -6.370   8.379  1.00  0.00     0.035 C 
ENDBRANCH   7   8
ENDBRANCH   1   7
BRANCH   2  10
ATOM     10  O   UNL     1      21.614  -7.047   5.248  1.00  0.00    -0.385 OA
ATOM     11  H   UNL     1      21.258  -6.147   5.463  1.00  0.00     0.211 HD
ENDBRANCH   2  10
BRANCH   3  12
ATOM     12  O   UNL     1      19.587  -6.030   3.915  1.00  0.00    -0.387 OA
ATOM     13  H   UNL     1      19.967  -5.678   4.761  1.00  0.00     0.211 HD
ENDBRANCH   3  12
BRANCH   5  14
ATOM     14  C   UNL     1      16.680  -9.713   5.460  1.00  0.00     0.191 C 
BRANCH  14  15
ATOM     15  O   UNL     1      16.029  -9.070   6.521  1.00  0.00    -0.394 OA
ATOM     16  H   UNL     1      15.076  -9.344   6.465  1.00  0.00     0.210 HD
ENDBRANCH  14  15
ENDBRANCH   5  14
BRANCH   4  17
ATOM     17  O   UNL     1      17.336  -6.860   4.959  1.00  0.00    -0.387 OA
ATOM     18  H   UNL     1      17.457  -6.044   4.407  1.00  0.00     0.211 HD
ENDBRANCH   4  17
TORSDOF 7
ENDMDL
