MODEL 1
REMARK VINA RESULT:    -3.158      0.000      0.000
REMARK INTER + INTRA:          -3.435
REMARK INTER:                  -3.435
REMARK INTRA:                   0.000
REMARK UNBOUND:                 0.000
REMARK SMILES [NH3+]CC(=O)[O-]
REMARK SMILES IDX 2 1 1 2 3 6 4 7 5 8
REMARK H PARENT 1 3 1 4 1 5
REMARK Flexibility Score: inf
ROOT
ATOM      1  C   UNL     1      -7.472 -40.673  -8.848  1.00  0.00     0.312 C 
ENDROOT
BRANCH   1   2
ATOM      2  N   UNL     1      -6.204 -41.356  -8.595  1.00  0.00    -0.353 N 
ATOM      3  H   UNL     1      -5.423 -40.848  -9.071  1.00  0.00     0.344 HD
ATOM      4  H   UNL     1      -6.022 -41.370  -7.567  1.00  0.00     0.344 HD
ATOM      5  H   UNL     1      -6.251 -42.341  -8.945  1.00  0.00     0.344 HD
ENDBRANCH   1   2
BRANCH   1   6
ATOM      6  C   UNL     1      -7.251 -39.426  -9.647  1.00  0.00     0.096 C 
ATOM      7  O   UNL     1      -6.280 -39.348 -10.445  1.00  0.00    -0.544 OA
ATOM      8  O   UNL     1      -8.089 -38.331  -9.473  1.00  0.00    -0.544 OA
ENDBRANCH   1   6
TORSDOF 2
ENDMDL
MODEL 2
REMARK VINA RESULT:    -3.124      2.282      2.501
REMARK INTER + INTRA:          -3.398
REMARK INTER:                  -3.398
REMARK INTRA:                   0.000
REMARK UNBOUND:                 0.000
REMARK SMILES [NH3+]CC(=O)[O-]
REMARK SMILES IDX 2 1 1 2 3 6 4 7 5 8
REMARK H PARENT 1 3 1 4 1 5
REMARK Flexibility Score: inf
ROOT
ATOM      1  C   UNL     1      -8.321 -39.246  -8.783  1.00  0.00     0.312 C 
ENDROOT
BRANCH   1   2
ATOM      2  N   UNL     1      -8.731 -38.094  -9.585  1.00  0.00    -0.353 N 
ATOM      3  H   UNL     1      -8.364 -37.212  -9.159  1.00  0.00     0.344 HD
ATOM      4  H   UNL     1      -8.341 -38.193 -10.549  1.00  0.00     0.344 HD
ATOM      5  H   UNL     1      -9.775 -38.052  -9.644  1.00  0.00     0.344 HD
ENDBRANCH   1   2
BRANCH   1   6
ATOM      6  C   UNL     1      -7.108 -39.896  -9.372  1.00  0.00     0.096 C 
ATOM      7  O   UNL     1      -6.516 -39.365 -10.348  1.00  0.00    -0.544 OA
ATOM      8  O   UNL     1      -6.661 -41.114  -8.875  1.00  0.00    -0.544 OA
ENDBRANCH   1   6
TORSDOF 2
ENDMDL
MODEL 3
REMARK VINA RESULT:    -3.124      0.089      1.451
REMARK INTER + INTRA:          -3.398
REMARK INTER:                  -3.398
REMARK INTRA:                   0.000
REMARK UNBOUND:                 0.000
REMARK SMILES [NH3+]CC(=O)[O-]
REMARK SMILES IDX 2 1 1 2 3 6 4 7 5 8
REMARK H PARENT 1 3 1 4 1 5
REMARK Flexibility Score: inf
ROOT
ATOM      1  C   UNL     1      -7.481 -40.599  -8.789  1.00  0.00     0.312 C 
ENDROOT
BRANCH   1   2
ATOM      2  N   UNL     1      -6.227 -41.326  -8.598  1.00  0.00    -0.353 N 
ATOM      3  H   UNL     1      -6.194 -42.156  -9.233  1.00  0.00     0.344 HD
ATOM      4  H   UNL     1      -5.427 -40.693  -8.824  1.00  0.00     0.344 HD
ATOM      5  H   UNL     1      -6.141 -41.637  -7.602  1.00  0.00     0.344 HD
ENDBRANCH   1   2
BRANCH   1   6
ATOM      6  C   UNL     1      -7.264 -39.382  -9.633  1.00  0.00     0.096 C 
ATOM      7  O   UNL     1      -8.040 -38.395  -9.534  1.00  0.00    -0.544 OA
ATOM      8  O   UNL     1      -6.235 -39.357 -10.566  1.00  0.00    -0.544 OA
ENDBRANCH   1   6
TORSDOF 2
ENDMDL
MODEL 4
REMARK VINA RESULT:    -2.851      2.525      2.984
REMARK INTER + INTRA:          -3.101
REMARK INTER:                  -3.101
REMARK INTRA:                   0.000
REMARK UNBOUND:                 0.000
REMARK SMILES [NH3+]CC(=O)[O-]
REMARK SMILES IDX 2 1 1 2 3 6 4 7 5 8
REMARK H PARENT 1 3 1 4 1 5
REMARK Flexibility Score: inf
ROOT
ATOM      1  C   UNL     1      -7.576 -38.971  -9.520  1.00  0.00     0.312 C 
ENDROOT
BRANCH   1   2
ATOM      2  N   UNL     1      -8.833 -38.224  -9.526  1.00  0.00    -0.353 N 
ATOM      3  H   UNL     1      -8.697 -37.299  -9.995  1.00  0.00     0.344 HD
ATOM      4  H   UNL     1      -9.552 -38.769 -10.052  1.00  0.00     0.344 HD
ATOM      5  H   UNL     1      -9.168 -38.079  -8.545  1.00  0.00     0.344 HD
ENDBRANCH   1   2
BRANCH   1   6
ATOM      6  C   UNL     1      -7.812 -40.400  -9.139  1.00  0.00     0.096 C 
ATOM      7  O   UNL     1      -8.985 -40.851  -9.068  1.00  0.00    -0.544 OA
ATOM      8  O   UNL     1      -6.738 -41.219  -8.814  1.00  0.00    -0.544 OA
ENDBRANCH   1   6
TORSDOF 2
ENDMDL
MODEL 5
REMARK VINA RESULT:    -2.799     11.247     11.390
REMARK INTER + INTRA:          -3.045
REMARK INTER:                  -3.045
REMARK INTRA:                   0.000
REMARK UNBOUND:                 0.000
REMARK SMILES [NH3+]CC(=O)[O-]
REMARK SMILES IDX 2 1 1 2 3 6 4 7 5 8
REMARK H PARENT 1 3 1 4 1 5
REMARK Flexibility Score: inf
ROOT
ATOM      1  C   UNL     1     -14.853 -45.090 -14.739  1.00  0.00     0.312 C 
ENDROOT
BRANCH   1   2
ATOM      2  N   UNL     1     -14.348 -45.851 -15.881  1.00  0.00    -0.353 N 
ATOM      3  H   UNL     1     -13.323 -45.679 -16.001  1.00  0.00     0.344 HD
ATOM      4  H   UNL     1     -14.503 -46.869 -15.708  1.00  0.00     0.344 HD
ATOM      5  H   UNL     1     -14.859 -45.573 -16.751  1.00  0.00     0.344 HD
ENDBRANCH   1   2
BRANCH   1   6
ATOM      6  C   UNL     1     -15.821 -44.040 -15.189  1.00  0.00     0.096 C 
ATOM      7  O   UNL     1     -15.505 -42.822 -15.135  1.00  0.00    -0.544 OA
ATOM      8  O   UNL     1     -17.090 -44.403 -15.621  1.00  0.00    -0.544 OA
ENDBRANCH   1   6
TORSDOF 2
ENDMDL
MODEL 6
REMARK VINA RESULT:    -2.664     20.553     20.663
REMARK INTER + INTRA:          -2.898
REMARK INTER:                  -2.898
REMARK INTRA:                   0.000
REMARK UNBOUND:                 0.000
REMARK SMILES [NH3+]CC(=O)[O-]
REMARK SMILES IDX 2 1 1 2 3 6 4 7 5 8
REMARK H PARENT 1 3 1 4 1 5
REMARK Flexibility Score: inf
ROOT
ATOM      1  C   UNL     1     -18.417 -33.039 -25.157  1.00  0.00     0.312 C 
ENDROOT
BRANCH   1   2
ATOM      2  N   UNL     1     -18.110 -33.616 -23.849  1.00  0.00    -0.353 N 
ATOM      3  H   UNL     1     -18.529 -33.029 -23.092  1.00  0.00     0.344 HD
ATOM      4  H   UNL     1     -18.515 -34.577 -23.796  1.00  0.00     0.344 HD
ATOM      5  H   UNL     1     -17.073 -33.677 -23.718  1.00  0.00     0.344 HD
ENDBRANCH   1   2
BRANCH   1   6
ATOM      6  C   UNL     1     -18.019 -33.976 -26.255  1.00  0.00     0.096 C 
ATOM      7  O   UNL     1     -17.175 -33.618 -27.118  1.00  0.00    -0.544 OA
ATOM      8  O   UNL     1     -18.618 -35.225 -26.354  1.00  0.00    -0.544 OA
ENDBRANCH   1   6
TORSDOF 2
ENDMDL
MODEL 7
REMARK VINA RESULT:    -2.661      3.180      3.412
REMARK INTER + INTRA:          -2.894
REMARK INTER:                  -2.894
REMARK INTRA:                   0.000
REMARK UNBOUND:                 0.000
REMARK SMILES [NH3+]CC(=O)[O-]
REMARK SMILES IDX 2 1 1 2 3 6 4 7 5 8
REMARK H PARENT 1 3 1 4 1 5
REMARK Flexibility Score: inf
ROOT
ATOM      1  C   UNL     1      -8.308 -39.179  -8.698  1.00  0.00     0.312 C 
ENDROOT
BRANCH   1   2
ATOM      2  N   UNL     1      -8.789 -38.110  -9.572  1.00  0.00    -0.353 N 
ATOM      3  H   UNL     1      -8.451 -37.184  -9.224  1.00  0.00     0.344 HD
ATOM      4  H   UNL     1      -8.421 -38.266 -10.537  1.00  0.00     0.344 HD
ATOM      5  H   UNL     1      -9.835 -38.117  -9.604  1.00  0.00     0.344 HD
ENDBRANCH   1   2
BRANCH   1   6
ATOM      6  C   UNL     1      -9.429 -40.093  -8.313  1.00  0.00     0.096 C 
ATOM      7  O   UNL     1     -10.009 -40.788  -9.189  1.00  0.00    -0.544 OA
ATOM      8  O   UNL     1      -9.867 -40.140  -6.996  1.00  0.00    -0.544 OA
ENDBRANCH   1   6
TORSDOF 2
ENDMDL
MODEL 8
REMARK VINA RESULT:    -2.651      5.997      6.255
REMARK INTER + INTRA:          -2.883
REMARK INTER:                  -2.883
REMARK INTRA:                   0.000
REMARK UNBOUND:                 0.000
REMARK SMILES [NH3+]CC(=O)[O-]
REMARK SMILES IDX 2 1 1 2 3 6 4 7 5 8
REMARK H PARENT 1 3 1 4 1 5
REMARK Flexibility Score: inf
ROOT
ATOM      1  C   UNL     1     -13.195 -43.114  -9.597  1.00  0.00     0.312 C 
ENDROOT
BRANCH   1   2
ATOM      2  N   UNL     1     -14.134 -42.942  -8.489  1.00  0.00    -0.353 N 
ATOM      3  H   UNL     1     -13.688 -43.242  -7.592  1.00  0.00     0.344 HD
ATOM      4  H   UNL     1     -14.397 -41.934  -8.418  1.00  0.00     0.344 HD
ATOM      5  H   UNL     1     -14.998 -43.507  -8.662  1.00  0.00     0.344 HD
ENDBRANCH   1   2
BRANCH   1   6
ATOM      6  C   UNL     1     -11.921 -42.375  -9.330  1.00  0.00     0.096 C 
ATOM      7  O   UNL     1     -11.292 -41.833 -10.277  1.00  0.00    -0.544 OA
ATOM      8  O   UNL     1     -11.401 -42.329  -8.042  1.00  0.00    -0.544 OA
ENDBRANCH   1   6
TORSDOF 2
ENDMDL
MODEL 9
REMARK VINA RESULT:    -2.586     13.646     13.768
REMARK INTER + INTRA:          -2.813
REMARK INTER:                  -2.813
REMARK INTRA:                   0.000
REMARK UNBOUND:                 0.000
REMARK SMILES [NH3+]CC(=O)[O-]
REMARK SMILES IDX 2 1 1 2 3 6 4 7 5 8
REMARK H PARENT 1 3 1 4 1 5
REMARK Flexibility Score: inf
ROOT
ATOM      1  C   UNL     1     -18.425 -44.170 -16.273  1.00  0.00     0.312 C 
ENDROOT
BRANCH   1   2
ATOM      2  N   UNL     1     -18.734 -45.078 -17.377  1.00  0.00    -0.353 N 
ATOM      3  H   UNL     1     -18.324 -46.022 -17.189  1.00  0.00     0.344 HD
ATOM      4  H   UNL     1     -19.771 -45.169 -17.464  1.00  0.00     0.344 HD
ATOM      5  H   UNL     1     -18.350 -44.697 -18.272  1.00  0.00     0.344 HD
ENDBRANCH   1   2
BRANCH   1   6
ATOM      6  C   UNL     1     -17.681 -42.969 -16.768  1.00  0.00     0.096 C 
ATOM      7  O   UNL     1     -16.982 -42.285 -15.975  1.00  0.00    -0.544 OA
ATOM      8  O   UNL     1     -17.799 -42.577 -18.095  1.00  0.00    -0.544 OA
ENDBRANCH   1   6
TORSDOF 2
ENDMDL
