MODEL 1
REMARK VINA RESULT:    -6.321      0.000      0.000
REMARK INTER + INTRA:          -7.125
REMARK INTER:                  -7.060
REMARK INTRA:                  -0.065
REMARK UNBOUND:                -0.065
REMARK SMILES COc1cc2ccc(=O)oc2c(O)c1O
REMARK SMILES IDX 3 1 14 2 12 3 11 4 5 5 4 6 6 7 7 8 8 9 9 10 10 11 2 12 1 13
REMARK SMILES IDX 15 14 13 16
REMARK H PARENT 15 15 13 17
REMARK Flexibility Score: inf
ROOT
ATOM      1  C   UNL     1     -30.971  -3.075 -18.657  1.00  0.00     0.165 A 
ATOM      2  C   UNL     1     -31.244  -2.639 -19.969  1.00  0.00     0.204 A 
ATOM      3  C   UNL     1     -32.562  -2.655 -20.462  1.00  0.00     0.205 A 
ATOM      4  C   UNL     1     -33.608  -3.104 -19.647  1.00  0.00     0.184 A 
ATOM      5  C   UNL     1     -33.339  -3.540 -18.333  1.00  0.00     0.025 A 
ATOM      6  C   UNL     1     -32.029  -3.526 -17.843  1.00  0.00     0.062 A 
ATOM      7  C   UNL     1     -34.408  -3.984 -17.546  1.00  0.00     0.020 A 
ATOM      8  C   UNL     1     -35.698  -3.981 -18.076  1.00  0.00     0.094 A 
ATOM      9  C   UNL     1     -35.890  -3.534 -19.386  1.00  0.00     0.336 A 
ATOM     10  O   UNL     1     -37.046  -3.523 -19.884  1.00  0.00    -0.246 OA
ATOM     11  O   UNL     1     -34.856  -3.118 -20.114  1.00  0.00    -0.419 OA
ENDROOT
BRANCH   1  12
ATOM     12  O   UNL     1     -29.644  -3.046 -18.198  1.00  0.00    -0.493 OA
ATOM     13  C   UNL     1     -28.881  -4.199 -17.853  1.00  0.00     0.278 C 
ENDBRANCH   1  12
BRANCH   2  14
ATOM     14  O   UNL     1     -30.213  -2.188 -20.795  1.00  0.00    -0.502 OA
ATOM     15  H   UNL     1     -30.047  -1.204 -20.968  1.00  0.00     0.293 HD
ENDBRANCH   2  14
BRANCH   3  16
ATOM     16  O   UNL     1     -32.847  -2.226 -21.758  1.00  0.00    -0.502 OA
ATOM     17  H   UNL     1     -33.654  -1.652 -21.972  1.00  0.00     0.293 HD
ENDBRANCH   3  16
TORSDOF 3
ENDMDL
MODEL 2
REMARK VINA RESULT:    -5.752      2.052      3.012
REMARK INTER + INTRA:          -6.489
REMARK INTER:                  -6.434
REMARK INTRA:                  -0.056
REMARK UNBOUND:                -0.065
REMARK SMILES COc1cc2ccc(=O)oc2c(O)c1O
REMARK SMILES IDX 3 1 14 2 12 3 11 4 5 5 4 6 6 7 7 8 8 9 9 10 10 11 2 12 1 13
REMARK SMILES IDX 15 14 13 16
REMARK H PARENT 15 15 13 17
REMARK Flexibility Score: inf
ROOT
ATOM      1  C   UNL     1     -33.100  -3.521 -19.209  1.00  0.00     0.165 A 
ATOM      2  C   UNL     1     -33.742  -4.304 -20.189  1.00  0.00     0.204 A 
ATOM      3  C   UNL     1     -34.924  -5.000 -19.879  1.00  0.00     0.205 A 
ATOM      4  C   UNL     1     -35.468  -4.915 -18.592  1.00  0.00     0.184 A 
ATOM      5  C   UNL     1     -34.830  -4.131 -17.608  1.00  0.00     0.025 A 
ATOM      6  C   UNL     1     -33.653  -3.439 -17.916  1.00  0.00     0.062 A 
ATOM      7  C   UNL     1     -35.400  -4.069 -16.331  1.00  0.00     0.020 A 
ATOM      8  C   UNL     1     -36.574  -4.774 -16.069  1.00  0.00     0.094 A 
ATOM      9  C   UNL     1     -37.151  -5.530 -17.093  1.00  0.00     0.336 A 
ATOM     10  O   UNL     1     -38.211  -6.175 -16.878  1.00  0.00    -0.246 OA
ATOM     11  O   UNL     1     -36.588  -5.573 -18.298  1.00  0.00    -0.419 OA
ENDROOT
BRANCH   1  12
ATOM     12  O   UNL     1     -31.921  -2.839 -19.554  1.00  0.00    -0.493 OA
ATOM     13  C   UNL     1     -30.742  -2.806 -18.756  1.00  0.00     0.278 C 
ENDBRANCH   1  12
BRANCH   2  14
ATOM     14  O   UNL     1     -33.212  -4.400 -21.477  1.00  0.00    -0.502 OA
ATOM     15  H   UNL     1     -32.615  -3.684 -21.873  1.00  0.00     0.293 HD
ENDBRANCH   2  14
BRANCH   3  16
ATOM     16  O   UNL     1     -35.570  -5.779 -20.839  1.00  0.00    -0.502 OA
ATOM     17  H   UNL     1     -36.425  -6.284 -20.639  1.00  0.00     0.293 HD
ENDBRANCH   3  16
TORSDOF 3
ENDMDL
MODEL 3
REMARK VINA RESULT:    -5.584      5.258      7.287
REMARK INTER + INTRA:          -6.302
REMARK INTER:                  -6.235
REMARK INTRA:                  -0.067
REMARK UNBOUND:                -0.065
REMARK SMILES COc1cc2ccc(=O)oc2c(O)c1O
REMARK SMILES IDX 3 1 14 2 12 3 11 4 5 5 4 6 6 7 7 8 8 9 9 10 10 11 2 12 1 13
REMARK SMILES IDX 15 14 13 16
REMARK H PARENT 15 15 13 17
REMARK Flexibility Score: inf
ROOT
ATOM      1  C   UNL     1     -36.543  -3.873 -15.228  1.00  0.00     0.165 A 
ATOM      2  C   UNL     1     -36.067  -4.992 -15.939  1.00  0.00     0.204 A 
ATOM      3  C   UNL     1     -36.645  -6.258 -15.739  1.00  0.00     0.205 A 
ATOM      4  C   UNL     1     -37.698  -6.410 -14.830  1.00  0.00     0.184 A 
ATOM      5  C   UNL     1     -38.180  -5.293 -14.117  1.00  0.00     0.025 A 
ATOM      6  C   UNL     1     -37.605  -4.033 -14.315  1.00  0.00     0.062 A 
ATOM      7  C   UNL     1     -39.234  -5.481 -13.215  1.00  0.00     0.020 A 
ATOM      8  C   UNL     1     -39.777  -6.754 -13.050  1.00  0.00     0.094 A 
ATOM      9  C   UNL     1     -39.250  -7.815 -13.791  1.00  0.00     0.336 A 
ATOM     10  O   UNL     1     -39.724  -8.973 -13.657  1.00  0.00    -0.246 OA
ATOM     11  O   UNL     1     -38.246  -7.610 -14.640  1.00  0.00    -0.419 OA
ENDROOT
BRANCH   1  12
ATOM     12  O   UNL     1     -35.943  -2.623 -15.453  1.00  0.00    -0.493 OA
ATOM     13  C   UNL     1     -36.435  -1.639 -16.358  1.00  0.00     0.278 C 
ENDBRANCH   1  12
BRANCH   2  14
ATOM     14  O   UNL     1     -35.017  -4.857 -16.849  1.00  0.00    -0.502 OA
ATOM     15  H   UNL     1     -34.954  -5.415 -17.692  1.00  0.00     0.293 HD
ENDBRANCH   2  14
BRANCH   3  16
ATOM     16  O   UNL     1     -36.183  -7.375 -16.436  1.00  0.00    -0.502 OA
ATOM     17  H   UNL     1     -36.497  -8.314 -16.222  1.00  0.00     0.293 HD
ENDBRANCH   3  16
TORSDOF 3
ENDMDL
MODEL 4
REMARK VINA RESULT:    -5.572      5.775      7.616
REMARK INTER + INTRA:          -6.289
REMARK INTER:                  -6.221
REMARK INTRA:                  -0.068
REMARK UNBOUND:                -0.065
REMARK SMILES COc1cc2ccc(=O)oc2c(O)c1O
REMARK SMILES IDX 3 1 14 2 12 3 11 4 5 5 4 6 6 7 7 8 8 9 9 10 10 11 2 12 1 13
REMARK SMILES IDX 15 14 13 16
REMARK H PARENT 15 15 13 17
REMARK Flexibility Score: inf
ROOT
ATOM      1  C   UNL     1     -36.651  -7.853 -14.715  1.00  0.00     0.165 A 
ATOM      2  C   UNL     1     -38.014  -7.704 -14.388  1.00  0.00     0.204 A 
ATOM      3  C   UNL     1     -38.826  -6.819 -15.119  1.00  0.00     0.205 A 
ATOM      4  C   UNL     1     -38.282  -6.082 -16.178  1.00  0.00     0.184 A 
ATOM      5  C   UNL     1     -36.919  -6.229 -16.511  1.00  0.00     0.025 A 
ATOM      6  C   UNL     1     -36.110  -7.109 -15.782  1.00  0.00     0.062 A 
ATOM      7  C   UNL     1     -36.407  -5.478 -17.574  1.00  0.00     0.020 A 
ATOM      8  C   UNL     1     -37.250  -4.614 -18.272  1.00  0.00     0.094 A 
ATOM      9  C   UNL     1     -38.590  -4.519 -17.887  1.00  0.00     0.336 A 
ATOM     10  O   UNL     1     -39.369  -3.745 -18.503  1.00  0.00    -0.246 OA
ATOM     11  O   UNL     1     -39.052  -5.245 -16.871  1.00  0.00    -0.419 OA
ENDROOT
BRANCH   1  12
ATOM     12  O   UNL     1     -35.869  -8.745 -13.964  1.00  0.00    -0.493 OA
ATOM     13  C   UNL     1     -34.887  -8.355 -13.009  1.00  0.00     0.278 C 
ENDBRANCH   1  12
BRANCH   2  14
ATOM     14  O   UNL     1     -38.572  -8.430 -13.335  1.00  0.00    -0.502 OA
ATOM     15  H   UNL     1     -38.996  -9.340 -13.468  1.00  0.00     0.293 HD
ENDBRANCH   2  14
BRANCH   3  16
ATOM     16  O   UNL     1     -40.177  -6.661 -14.807  1.00  0.00    -0.502 OA
ATOM     17  H   UNL     1     -40.617  -5.750 -14.756  1.00  0.00     0.293 HD
ENDBRANCH   3  16
TORSDOF 3
ENDMDL
MODEL 5
REMARK VINA RESULT:    -5.552      4.606      6.402
REMARK INTER + INTRA:          -6.266
REMARK INTER:                  -6.217
REMARK INTRA:                  -0.049
REMARK UNBOUND:                -0.065
REMARK SMILES COc1cc2ccc(=O)oc2c(O)c1O
REMARK SMILES IDX 3 1 14 2 12 3 11 4 5 5 4 6 6 7 7 8 8 9 9 10 10 11 2 12 1 13
REMARK SMILES IDX 15 14 13 16
REMARK H PARENT 15 15 13 17
REMARK Flexibility Score: inf
ROOT
ATOM      1  C   UNL     1     -36.552  -2.934 -14.966  1.00  0.00     0.165 A 
ATOM      2  C   UNL     1     -35.800  -3.256 -16.114  1.00  0.00     0.204 A 
ATOM      3  C   UNL     1     -35.635  -4.598 -16.500  1.00  0.00     0.205 A 
ATOM      4  C   UNL     1     -36.221  -5.620 -15.745  1.00  0.00     0.184 A 
ATOM      5  C   UNL     1     -36.976  -5.303 -14.597  1.00  0.00     0.025 A 
ATOM      6  C   UNL     1     -37.139  -3.968 -14.211  1.00  0.00     0.062 A 
ATOM      7  C   UNL     1     -37.547  -6.350 -13.864  1.00  0.00     0.020 A 
ATOM      8  C   UNL     1     -37.359  -7.665 -14.286  1.00  0.00     0.094 A 
ATOM      9  C   UNL     1     -36.599  -7.905 -15.433  1.00  0.00     0.336 A 
ATOM     10  O   UNL     1     -36.415  -9.085 -15.832  1.00  0.00    -0.246 OA
ATOM     11  O   UNL     1     -36.065  -6.892 -16.111  1.00  0.00    -0.419 OA
ENDROOT
BRANCH   1  12
ATOM     12  O   UNL     1     -36.696  -1.583 -14.609  1.00  0.00    -0.493 OA
ATOM     13  C   UNL     1     -37.198  -1.125 -13.357  1.00  0.00     0.278 C 
ENDBRANCH   1  12
BRANCH   2  14
ATOM     14  O   UNL     1     -35.209  -2.248 -16.878  1.00  0.00    -0.502 OA
ATOM     15  H   UNL     1     -35.675  -1.371 -17.074  1.00  0.00     0.293 HD
ENDBRANCH   2  14
BRANCH   3  16
ATOM     16  O   UNL     1     -34.893  -4.931 -17.634  1.00  0.00    -0.502 OA
ATOM     17  H   UNL     1     -34.426  -5.824 -17.730  1.00  0.00     0.293 HD
ENDBRANCH   3  16
TORSDOF 3
ENDMDL
MODEL 6
REMARK VINA RESULT:    -5.501      6.618      9.141
REMARK INTER + INTRA:          -6.209
REMARK INTER:                  -6.159
REMARK INTRA:                  -0.050
REMARK UNBOUND:                -0.065
REMARK SMILES COc1cc2ccc(=O)oc2c(O)c1O
REMARK SMILES IDX 3 1 14 2 12 3 11 4 5 5 4 6 6 7 7 8 8 9 9 10 10 11 2 12 1 13
REMARK SMILES IDX 15 14 13 16
REMARK H PARENT 15 15 13 17
REMARK Flexibility Score: inf
ROOT
ATOM      1  C   UNL     1     -37.536  -6.667 -15.479  1.00  0.00     0.165 A 
ATOM      2  C   UNL     1     -38.551  -7.621 -15.270  1.00  0.00     0.204 A 
ATOM      3  C   UNL     1     -39.421  -7.501 -14.171  1.00  0.00     0.205 A 
ATOM      4  C   UNL     1     -39.280  -6.430 -13.280  1.00  0.00     0.184 A 
ATOM      5  C   UNL     1     -38.266  -5.472 -13.487  1.00  0.00     0.025 A 
ATOM      6  C   UNL     1     -37.400  -5.591 -14.580  1.00  0.00     0.062 A 
ATOM      7  C   UNL     1     -38.152  -4.414 -12.577  1.00  0.00     0.020 A 
ATOM      8  C   UNL     1     -39.038  -4.335 -11.504  1.00  0.00     0.094 A 
ATOM      9  C   UNL     1     -40.019  -5.320 -11.361  1.00  0.00     0.336 A 
ATOM     10  O   UNL     1     -40.828  -5.268 -10.399  1.00  0.00    -0.246 OA
ATOM     11  O   UNL     1     -40.104  -6.316 -12.240  1.00  0.00    -0.419 OA
ENDROOT
BRANCH   1  12
ATOM     12  O   UNL     1     -36.685  -6.818 -16.586  1.00  0.00    -0.493 OA
ATOM     13  C   UNL     1     -35.975  -5.753 -17.213  1.00  0.00     0.278 C 
ENDBRANCH   1  12
BRANCH   2  14
ATOM     14  O   UNL     1     -38.705  -8.695 -16.147  1.00  0.00    -0.502 OA
ATOM     15  H   UNL     1     -39.468  -8.749 -16.811  1.00  0.00     0.293 HD
ENDBRANCH   2  14
BRANCH   3  16
ATOM     16  O   UNL     1     -40.431  -8.438 -13.951  1.00  0.00    -0.502 OA
ATOM     17  H   UNL     1     -40.285  -9.269 -13.391  1.00  0.00     0.293 HD
ENDBRANCH   3  16
TORSDOF 3
ENDMDL
MODEL 7
REMARK VINA RESULT:    -5.398      5.731      7.696
REMARK INTER + INTRA:          -6.094
REMARK INTER:                  -6.028
REMARK INTRA:                  -0.066
REMARK UNBOUND:                -0.065
REMARK SMILES COc1cc2ccc(=O)oc2c(O)c1O
REMARK SMILES IDX 3 1 14 2 12 3 11 4 5 5 4 6 6 7 7 8 8 9 9 10 10 11 2 12 1 13
REMARK SMILES IDX 15 14 13 16
REMARK H PARENT 15 15 13 17
REMARK Flexibility Score: inf
ROOT
ATOM      1  C   UNL     1     -37.820  -7.560 -14.321  1.00  0.00     0.165 A 
ATOM      2  C   UNL     1     -36.951  -7.605 -15.430  1.00  0.00     0.204 A 
ATOM      3  C   UNL     1     -36.410  -6.417 -15.955  1.00  0.00     0.205 A 
ATOM      4  C   UNL     1     -36.732  -5.185 -15.374  1.00  0.00     0.184 A 
ATOM      5  C   UNL     1     -37.599  -5.136 -14.263  1.00  0.00     0.025 A 
ATOM      6  C   UNL     1     -38.139  -6.317 -13.741  1.00  0.00     0.062 A 
ATOM      7  C   UNL     1     -37.901  -3.887 -13.707  1.00  0.00     0.020 A 
ATOM      8  C   UNL     1     -37.340  -2.737 -14.259  1.00  0.00     0.094 A 
ATOM      9  C   UNL     1     -36.488  -2.861 -15.361  1.00  0.00     0.336 A 
ATOM     10  O   UNL     1     -35.971  -1.836 -15.875  1.00  0.00    -0.246 OA
ATOM     11  O   UNL     1     -36.218  -4.061 -15.871  1.00  0.00    -0.419 OA
ENDROOT
BRANCH   1  12
ATOM     12  O   UNL     1     -38.342  -8.765 -13.824  1.00  0.00    -0.493 OA
ATOM     13  C   UNL     1     -39.721  -9.124 -13.854  1.00  0.00     0.278 C 
ENDBRANCH   1  12
BRANCH   2  14
ATOM     14  O   UNL     1     -36.621  -8.825 -16.022  1.00  0.00    -0.502 OA
ATOM     15  H   UNL     1     -37.207  -9.267 -16.720  1.00  0.00     0.293 HD
ENDBRANCH   2  14
BRANCH   3  16
ATOM     16  O   UNL     1     -35.549  -6.446 -17.052  1.00  0.00    -0.502 OA
ATOM     17  H   UNL     1     -34.557  -6.259 -16.967  1.00  0.00     0.293 HD
ENDBRANCH   3  16
TORSDOF 3
ENDMDL
MODEL 8
REMARK VINA RESULT:    -5.360      6.626      7.973
REMARK INTER + INTRA:          -6.052
REMARK INTER:                  -5.994
REMARK INTRA:                  -0.058
REMARK UNBOUND:                -0.065
REMARK SMILES COc1cc2ccc(=O)oc2c(O)c1O
REMARK SMILES IDX 3 1 14 2 12 3 11 4 5 5 4 6 6 7 7 8 8 9 9 10 10 11 2 12 1 13
REMARK SMILES IDX 15 14 13 16
REMARK H PARENT 15 15 13 17
REMARK Flexibility Score: inf
ROOT
ATOM      1  C   UNL     1     -38.528  -5.094 -16.629  1.00  0.00     0.165 A 
ATOM      2  C   UNL     1     -38.091  -4.313 -15.541  1.00  0.00     0.204 A 
ATOM      3  C   UNL     1     -37.253  -4.870 -14.559  1.00  0.00     0.205 A 
ATOM      4  C   UNL     1     -36.850  -6.207 -14.660  1.00  0.00     0.184 A 
ATOM      5  C   UNL     1     -37.284  -6.993 -15.747  1.00  0.00     0.025 A 
ATOM      6  C   UNL     1     -38.118  -6.438 -16.725  1.00  0.00     0.062 A 
ATOM      7  C   UNL     1     -36.862  -8.326 -15.818  1.00  0.00     0.020 A 
ATOM      8  C   UNL     1     -36.031  -8.835 -14.822  1.00  0.00     0.094 A 
ATOM      9  C   UNL     1     -35.640  -7.998 -13.773  1.00  0.00     0.336 A 
ATOM     10  O   UNL     1     -34.889  -8.438 -12.863  1.00  0.00    -0.246 OA
ATOM     11  O   UNL     1     -36.056  -6.735 -13.730  1.00  0.00    -0.419 OA
ENDROOT
BRANCH   1  12
ATOM     12  O   UNL     1     -39.364  -4.505 -17.591  1.00  0.00    -0.493 OA
ATOM     13  C   UNL     1     -38.907  -3.863 -18.778  1.00  0.00     0.278 C 
ENDBRANCH   1  12
BRANCH   2  14
ATOM     14  O   UNL     1     -38.484  -2.979 -15.425  1.00  0.00    -0.502 OA
ATOM     15  H   UNL     1     -37.966  -2.220 -15.852  1.00  0.00     0.293 HD
ENDBRANCH   2  14
BRANCH   3  16
ATOM     16  O   UNL     1     -36.812  -4.108 -13.476  1.00  0.00    -0.502 OA
ATOM     17  H   UNL     1     -35.862  -4.162 -13.129  1.00  0.00     0.293 HD
ENDBRANCH   3  16
TORSDOF 3
ENDMDL
MODEL 9
REMARK VINA RESULT:    -5.327      4.908      6.961
REMARK INTER + INTRA:          -6.014
REMARK INTER:                  -5.953
REMARK INTRA:                  -0.062
REMARK UNBOUND:                -0.065
REMARK SMILES COc1cc2ccc(=O)oc2c(O)c1O
REMARK SMILES IDX 3 1 14 2 12 3 11 4 5 5 4 6 6 7 7 8 8 9 9 10 10 11 2 12 1 13
REMARK SMILES IDX 15 14 13 16
REMARK H PARENT 15 15 13 17
REMARK Flexibility Score: inf
ROOT
ATOM      1  C   UNL     1     -35.707  -4.840 -16.474  1.00  0.00     0.165 A 
ATOM      2  C   UNL     1     -36.339  -4.099 -15.456  1.00  0.00     0.204 A 
ATOM      3  C   UNL     1     -37.306  -4.705 -14.633  1.00  0.00     0.205 A 
ATOM      4  C   UNL     1     -37.643  -6.050 -14.824  1.00  0.00     0.184 A 
ATOM      5  C   UNL     1     -37.012  -6.796 -15.841  1.00  0.00     0.025 A 
ATOM      6  C   UNL     1     -36.051  -6.193 -16.660  1.00  0.00     0.062 A 
ATOM      7  C   UNL     1     -37.372  -8.139 -16.005  1.00  0.00     0.020 A 
ATOM      8  C   UNL     1     -38.334  -8.698 -15.166  1.00  0.00     0.094 A 
ATOM      9  C   UNL     1     -38.918  -7.898 -14.179  1.00  0.00     0.336 A 
ATOM     10  O   UNL     1     -39.789  -8.383 -13.411  1.00  0.00    -0.246 OA
ATOM     11  O   UNL     1     -38.558  -6.624 -14.045  1.00  0.00    -0.419 OA
ENDROOT
BRANCH   1  12
ATOM     12  O   UNL     1     -34.747  -4.202 -17.277  1.00  0.00    -0.493 OA
ATOM     13  C   UNL     1     -35.024  -3.569 -18.522  1.00  0.00     0.278 C 
ENDBRANCH   1  12
BRANCH   2  14
ATOM     14  O   UNL     1     -36.016  -2.756 -15.252  1.00  0.00    -0.502 OA
ATOM     15  H   UNL     1     -36.448  -2.198 -14.526  1.00  0.00     0.293 HD
ENDBRANCH   2  14
BRANCH   3  16
ATOM     16  O   UNL     1     -37.940  -3.984 -13.621  1.00  0.00    -0.502 OA
ATOM     17  H   UNL     1     -37.917  -4.277 -12.652  1.00  0.00     0.293 HD
ENDBRANCH   3  16
TORSDOF 3
ENDMDL
