MODEL 1
REMARK VINA RESULT:    -4.054      0.000      0.000
REMARK INTER + INTRA:          -5.988
REMARK INTER:                  -6.187
REMARK INTRA:                   0.199
REMARK UNBOUND:                 0.199
REMARK SMILES CC1=CCC[C@@H](C)C(=O)C[C@H](C(C)C)C(=O)C1
REMARK SMILES IDX 8 1 9 2 6 3 7 4 5 5 4 6 3 7 2 8 1 9 10 11 11 12 15 13 16 14
REMARK SMILES IDX 17 15 12 17 13 18 14 19
REMARK H PARENT
REMARK Flexibility Score: 70.00
ROOT
ATOM      1  C   UNL     1     -17.125  13.200 -29.871  1.00  0.00     0.136 C 
ATOM      2  O   UNL     1     -16.973  13.514 -28.698  1.00  0.00    -0.299 OA
ENDROOT
BRANCH   1   3
ATOM      3  C   UNL     1     -18.045  12.048 -30.226  1.00  0.00     0.053 C 
ATOM      4  C   UNL     1     -19.514  12.452 -30.029  1.00  0.00     0.016 C 
BRANCH   3   5
ATOM      5  C   UNL     1     -17.696  10.805 -29.378  1.00  0.00     0.015 C 
BRANCH   5   6
ATOM      6  C   UNL     1     -16.575   9.961 -30.018  1.00  0.00     0.028 C 
BRANCH   6   7
ATOM      7  C   UNL     1     -15.243  10.229 -29.364  1.00  0.00    -0.028 C 
ATOM      8  C   UNL     1     -14.145  10.701 -29.999  1.00  0.00    -0.070 CG0
ATOM      9  C   UNL     1     -12.913  10.970 -29.173  1.00  0.00     0.039 C 
ATOM     10  G   UNL     1     -14.100  10.984 -31.493  1.00  0.00     0.000 G0
ENDBRANCH   6   7
ENDBRANCH   5   6
ENDBRANCH   3   5
ENDBRANCH   1   3
BRANCH   1  11
ATOM     11  C   UNL     1     -16.390  13.973 -30.941  1.00  0.00     0.087 C 
BRANCH  11  12
ATOM     12  C   UNL     1     -14.943  13.460 -31.155  1.00  0.00     0.066 C 
BRANCH  12  13
ATOM     13  C   UNL     1     -14.940  12.142 -31.921  1.00  0.00     0.140 C 
ATOM     14  O   UNL     1     -15.697  12.014 -32.874  1.00  0.00    -0.299 OA
BRANCH  13  15
ATOM     15  C   UNL     1     -14.086  10.969 -31.495  1.00  0.00     0.106 CG0
ATOM     16  G   UNL     1     -14.157  10.719 -29.997  1.00  0.00     0.000 G0
ENDBRANCH  13  15
ENDBRANCH  12  13
BRANCH  12  17
ATOM     17  C   UNL     1     -14.013  14.518 -31.833  1.00  0.00    -0.006 C 
ATOM     18  C   UNL     1     -14.123  15.905 -31.174  1.00  0.00     0.008 C 
ATOM     19  C   UNL     1     -12.541  14.068 -31.791  1.00  0.00     0.008 C 
ENDBRANCH  12  17
ENDBRANCH  11  12
ENDBRANCH   1  11
TORSDOF 1
ENDMDL
MODEL 2
REMARK VINA RESULT:    -4.002      1.988      4.669
REMARK INTER + INTRA:          -5.908
REMARK INTER:                  -5.920
REMARK INTRA:                   0.012
REMARK UNBOUND:                 0.199
REMARK SMILES CC1=CCC[C@@H](C)C(=O)C[C@H](C(C)C)C(=O)C1
REMARK SMILES IDX 8 1 9 2 6 3 7 4 5 5 4 6 3 7 2 8 1 9 10 11 11 12 15 13 16 14
REMARK SMILES IDX 17 15 12 17 13 18 14 19
REMARK H PARENT
REMARK Flexibility Score: 70.00
ROOT
ATOM      1  C   UNL     1     -13.343  11.914 -31.548  1.00  0.00     0.136 C 
ATOM      2  O   UNL     1     -12.141  11.754 -31.717  1.00  0.00    -0.299 OA
ENDROOT
BRANCH   1   3
ATOM      3  C   UNL     1     -14.052  13.060 -32.243  1.00  0.00     0.053 C 
ATOM      4  C   UNL     1     -13.963  14.340 -31.398  1.00  0.00     0.016 C 
BRANCH   3   5
ATOM      5  C   UNL     1     -15.524  12.685 -32.525  1.00  0.00     0.015 C 
BRANCH   5   6
ATOM      6  C   UNL     1     -16.510  13.557 -31.722  1.00  0.00     0.028 C 
BRANCH   6   7
ATOM      7  C   UNL     1     -17.663  12.742 -31.195  1.00  0.00    -0.028 C 
ATOM      8  C   UNL     1     -17.784  12.297 -29.922  1.00  0.00    -0.070 CG0
ATOM      9  C   UNL     1     -19.038  11.545 -29.553  1.00  0.00     0.039 C 
ATOM     10  G   UNL     1     -16.729  12.528 -28.852  1.00  0.00     0.000 G0
ENDBRANCH   6   7
ENDBRANCH   5   6
ENDBRANCH   3   5
ENDBRANCH   1   3
BRANCH   1  11
ATOM     11  C   UNL     1     -14.093  10.960 -30.648  1.00  0.00     0.087 C 
BRANCH  11  12
ATOM     12  C   UNL     1     -14.285  11.522 -29.215  1.00  0.00     0.066 C 
BRANCH  12  13
ATOM     13  C   UNL     1     -15.732  11.372 -28.761  1.00  0.00     0.140 C 
ATOM     14  O   UNL     1     -16.117  10.277 -28.377  1.00  0.00    -0.299 OA
BRANCH  13  15
ATOM     15  C   UNL     1     -16.719  12.515 -28.839  1.00  0.00     0.106 CG0
ATOM     16  G   UNL     1     -17.765  12.300 -29.922  1.00  0.00     0.000 G0
ENDBRANCH  13  15
ENDBRANCH  12  13
BRANCH  12  17
ATOM     17  C   UNL     1     -13.292  10.904 -28.178  1.00  0.00    -0.006 C 
ATOM     18  C   UNL     1     -12.066  10.261 -28.850  1.00  0.00     0.008 C 
ATOM     19  C   UNL     1     -12.803  11.970 -27.179  1.00  0.00     0.008 C 
ENDBRANCH  12  17
ENDBRANCH  11  12
ENDBRANCH   1  11
TORSDOF 1
ENDMDL
MODEL 3
REMARK VINA RESULT:    -3.877      8.799     11.185
REMARK INTER + INTRA:          -5.719
REMARK INTER:                  -5.758
REMARK INTRA:                   0.039
REMARK UNBOUND:                 0.199
REMARK SMILES CC1=CCC[C@@H](C)C(=O)C[C@H](C(C)C)C(=O)C1
REMARK SMILES IDX 8 1 9 2 6 3 7 4 5 5 4 6 3 7 2 8 1 9 10 11 11 12 15 13 16 14
REMARK SMILES IDX 17 15 12 17 13 18 14 19
REMARK H PARENT
REMARK Flexibility Score: 70.00
ROOT
ATOM      1  C   UNL     1     -28.646  13.155 -30.684  1.00  0.00     0.136 C 
ATOM      2  O   UNL     1     -29.461  14.065 -30.772  1.00  0.00    -0.299 OA
ENDROOT
BRANCH   1   3
ATOM      3  C   UNL     1     -29.030  11.872 -29.974  1.00  0.00     0.053 C 
ATOM      4  C   UNL     1     -29.068  12.089 -28.453  1.00  0.00     0.016 C 
BRANCH   3   5
ATOM      5  C   UNL     1     -28.046  10.740 -30.346  1.00  0.00     0.015 C 
BRANCH   5   6
ATOM      6  C   UNL     1     -27.225  10.260 -29.132  1.00  0.00     0.028 C 
BRANCH   6   7
ATOM      7  C   UNL     1     -25.769  10.094 -29.483  1.00  0.00    -0.028 C 
ATOM      8  C   UNL     1     -24.825  11.057 -29.368  1.00  0.00    -0.070 CG0
ATOM      9  C   UNL     1     -23.402  10.695 -29.707  1.00  0.00     0.039 C 
ATOM     10  G   UNL     1     -25.128  12.473 -28.903  1.00  0.00     0.000 G0
ENDBRANCH   6   7
ENDBRANCH   5   6
ENDBRANCH   3   5
ENDBRANCH   1   3
BRANCH   1  11
ATOM     11  C   UNL     1     -27.274  13.335 -31.290  1.00  0.00     0.087 C 
BRANCH  11  12
ATOM     12  C   UNL     1     -26.360  14.247 -30.431  1.00  0.00     0.066 C 
BRANCH  12  13
ATOM     13  C   UNL     1     -25.105  13.501 -29.991  1.00  0.00     0.140 C 
ATOM     14  O   UNL     1     -24.062  13.699 -30.597  1.00  0.00    -0.299 OA
BRANCH  13  15
ATOM     15  C   UNL     1     -25.130  12.475 -28.880  1.00  0.00     0.106 CG0
ATOM     16  G   UNL     1     -24.820  11.073 -29.383  1.00  0.00     0.000 G0
ENDBRANCH  13  15
ENDBRANCH  12  13
BRANCH  12  17
ATOM     17  C   UNL     1     -26.007  15.596 -31.135  1.00  0.00    -0.006 C 
ATOM     18  C   UNL     1     -27.168  16.132 -31.993  1.00  0.00     0.008 C 
ATOM     19  C   UNL     1     -25.619  16.673 -30.104  1.00  0.00     0.008 C 
ENDBRANCH  12  17
ENDBRANCH  11  12
ENDBRANCH   1  11
TORSDOF 1
ENDMDL
MODEL 4
REMARK VINA RESULT:    -3.845      1.610      2.158
REMARK INTER + INTRA:          -5.669
REMARK INTER:                  -5.379
REMARK INTRA:                  -0.290
REMARK UNBOUND:                 0.199
REMARK SMILES CC1=CCC[C@@H](C)C(=O)C[C@H](C(C)C)C(=O)C1
REMARK SMILES IDX 8 1 9 2 6 3 7 4 5 5 4 6 3 7 2 8 1 9 10 11 11 12 15 13 16 14
REMARK SMILES IDX 17 15 12 17 13 18 14 19
REMARK H PARENT
REMARK Flexibility Score: 70.00
ROOT
ATOM      1  C   UNL     1     -17.021  11.844 -30.259  1.00  0.00     0.136 C 
ATOM      2  O   UNL     1     -17.367  13.016 -30.190  1.00  0.00    -0.299 OA
ENDROOT
BRANCH   1   3
ATOM      3  C   UNL     1     -17.732  10.803 -29.416  1.00  0.00     0.053 C 
ATOM      4  C   UNL     1     -19.252  11.021 -29.460  1.00  0.00     0.016 C 
BRANCH   3   5
ATOM      5  C   UNL     1     -17.209  10.843 -27.963  1.00  0.00     0.015 C 
BRANCH   5   6
ATOM      6  C   UNL     1     -16.030   9.875 -27.742  1.00  0.00     0.028 C 
BRANCH   6   7
ATOM      7  C   UNL     1     -14.782  10.614 -27.327  1.00  0.00    -0.028 C 
ATOM      8  C   UNL     1     -13.694  10.803 -28.109  1.00  0.00    -0.070 CG0
ATOM      9  C   UNL     1     -12.558  11.622 -27.550  1.00  0.00     0.039 C 
ATOM     10  G   UNL     1     -13.569  10.245 -29.518  1.00  0.00     0.000 G0
ENDBRANCH   6   7
ENDBRANCH   5   6
ENDBRANCH   3   5
ENDBRANCH   1   3
BRANCH   1  11
ATOM     11  C   UNL     1     -15.891  11.463 -31.185  1.00  0.00     0.087 C 
BRANCH  11  12
ATOM     12  C   UNL     1     -14.594  12.265 -30.901  1.00  0.00     0.066 C 
BRANCH  12  13
ATOM     13  C   UNL     1     -13.438  11.330 -30.566  1.00  0.00     0.140 C 
ATOM     14  O   UNL     1     -12.400  11.426 -31.205  1.00  0.00    -0.299 OA
BRANCH  13  15
ATOM     15  C   UNL     1     -13.562  10.245 -29.520  1.00  0.00     0.106 CG0
ATOM     16  G   UNL     1     -13.694  10.811 -28.115  1.00  0.00     0.000 G0
ENDBRANCH  13  15
ENDBRANCH  12  13
BRANCH  12  17
ATOM     17  C   UNL     1     -14.219  13.249 -32.056  1.00  0.00    -0.006 C 
ATOM     18  C   UNL     1     -15.027  12.985 -33.339  1.00  0.00     0.008 C 
ATOM     19  C   UNL     1     -14.438  14.713 -31.628  1.00  0.00     0.008 C 
ENDBRANCH  12  17
ENDBRANCH  11  12
ENDBRANCH   1  11
TORSDOF 1
ENDMDL
MODEL 5
REMARK VINA RESULT:    -3.654      1.932      4.227
REMARK INTER + INTRA:          -5.378
REMARK INTER:                  -5.583
REMARK INTRA:                   0.205
REMARK UNBOUND:                 0.199
REMARK SMILES CC1=CCC[C@@H](C)C(=O)C[C@H](C(C)C)C(=O)C1
REMARK SMILES IDX 8 1 9 2 6 3 7 4 5 5 4 6 3 7 2 8 1 9 10 11 11 12 15 13 16 14
REMARK SMILES IDX 17 15 12 17 13 18 14 19
REMARK H PARENT
REMARK Flexibility Score: 70.00
ROOT
ATOM      1  C   UNL     1     -14.649  13.541 -32.962  1.00  0.00     0.136 C 
ATOM      2  O   UNL     1     -15.646  13.640 -33.665  1.00  0.00    -0.299 OA
ENDROOT
BRANCH   1   3
ATOM      3  C   UNL     1     -13.996  14.792 -32.408  1.00  0.00     0.053 C 
ATOM      4  C   UNL     1     -12.470  14.718 -32.566  1.00  0.00     0.016 C 
BRANCH   3   5
ATOM      5  C   UNL     1     -14.389  14.990 -30.927  1.00  0.00     0.015 C 
BRANCH   5   6
ATOM      6  C   UNL     1     -15.894  14.750 -30.687  1.00  0.00     0.028 C 
BRANCH   6   7
ATOM      7  C   UNL     1     -16.136  14.041 -29.379  1.00  0.00    -0.028 C 
ATOM      8  C   UNL     1     -16.492  12.742 -29.252  1.00  0.00    -0.070 CG0
ATOM      9  C   UNL     1     -16.632  12.181 -27.860  1.00  0.00     0.039 C 
ATOM     10  G   UNL     1     -16.741  11.823 -30.438  1.00  0.00     0.000 G0
ENDBRANCH   6   7
ENDBRANCH   5   6
ENDBRANCH   3   5
ENDBRANCH   1   3
BRANCH   1  11
ATOM     11  C   UNL     1     -14.095  12.169 -32.660  1.00  0.00     0.087 C 
BRANCH  11  12
ATOM     12  C   UNL     1     -14.213  11.798 -31.159  1.00  0.00     0.066 C 
BRANCH  12  13
ATOM     13  C   UNL     1     -15.527  11.077 -30.878  1.00  0.00     0.140 C 
ATOM     14  O   UNL     1     -15.595   9.875 -31.090  1.00  0.00    -0.299 OA
BRANCH  13  15
ATOM     15  C   UNL     1     -16.763  11.816 -30.416  1.00  0.00     0.106 CG0
ATOM     16  G   UNL     1     -16.479  12.735 -29.239  1.00  0.00     0.000 G0
ENDBRANCH  13  15
ENDBRANCH  12  13
BRANCH  12  17
ATOM     17  C   UNL     1     -12.989  10.982 -30.632  1.00  0.00    -0.006 C 
ATOM     18  C   UNL     1     -11.679  11.361 -31.346  1.00  0.00     0.008 C 
ATOM     19  C   UNL     1     -12.800  11.184 -29.117  1.00  0.00     0.008 C 
ENDBRANCH  12  17
ENDBRANCH  11  12
ENDBRANCH   1  11
TORSDOF 1
ENDMDL
MODEL 6
REMARK VINA RESULT:    -3.605      1.903      3.430
REMARK INTER + INTRA:          -5.303
REMARK INTER:                  -5.700
REMARK INTRA:                   0.397
REMARK UNBOUND:                 0.199
REMARK SMILES CC1=CCC[C@@H](C)C(=O)C[C@H](C(C)C)C(=O)C1
REMARK SMILES IDX 8 1 9 2 6 3 7 4 5 5 4 6 3 7 2 8 1 9 10 11 11 12 15 13 16 14
REMARK SMILES IDX 17 15 12 17 13 18 14 19
REMARK H PARENT
REMARK Flexibility Score: 70.00
ROOT
ATOM      1  C   UNL     1     -14.151  11.544 -29.403  1.00  0.00     0.136 C 
ATOM      2  O   UNL     1     -13.510  10.701 -30.017  1.00  0.00    -0.299 OA
ENDROOT
BRANCH   1   3
ATOM      3  C   UNL     1     -14.530  11.290 -27.957  1.00  0.00     0.053 C 
ATOM      4  C   UNL     1     -13.271  11.148 -27.088  1.00  0.00     0.016 C 
BRANCH   3   5
ATOM      5  C   UNL     1     -15.421  10.032 -27.850  1.00  0.00     0.015 C 
BRANCH   5   6
ATOM      6  C   UNL     1     -16.432   9.936 -29.010  1.00  0.00     0.028 C 
BRANCH   6   7
ATOM      7  C   UNL     1     -17.404  11.089 -28.989  1.00  0.00    -0.028 C 
ATOM      8  C   UNL     1     -17.789  11.801 -30.074  1.00  0.00    -0.070 CG0
ATOM      9  C   UNL     1     -18.820  12.883 -29.877  1.00  0.00     0.039 C 
ATOM     10  G   UNL     1     -17.246  11.554 -31.473  1.00  0.00     0.000 G0
ENDBRANCH   6   7
ENDBRANCH   5   6
ENDBRANCH   3   5
ENDBRANCH   1   3
BRANCH   1  11
ATOM     11  C   UNL     1     -14.549  12.822 -30.103  1.00  0.00     0.087 C 
BRANCH  11  12
ATOM     12  C   UNL     1     -14.817  12.610 -31.616  1.00  0.00     0.066 C 
BRANCH  12  13
ATOM     13  C   UNL     1     -16.310  12.660 -31.917  1.00  0.00     0.140 C 
ATOM     14  O   UNL     1     -16.762  13.641 -32.490  1.00  0.00    -0.299 OA
BRANCH  13  15
ATOM     15  C   UNL     1     -17.256  11.570 -31.464  1.00  0.00     0.106 CG0
ATOM     16  G   UNL     1     -17.788  11.814 -30.060  1.00  0.00     0.000 G0
ENDBRANCH  13  15
ENDBRANCH  12  13
BRANCH  12  17
ATOM     17  C   UNL     1     -14.016  13.600 -32.523  1.00  0.00    -0.006 C 
ATOM     18  C   UNL     1     -13.437  14.785 -31.730  1.00  0.00     0.008 C 
ATOM     19  C   UNL     1     -12.862  12.879 -33.244  1.00  0.00     0.008 C 
ENDBRANCH  12  17
ENDBRANCH  11  12
ENDBRANCH   1  11
TORSDOF 1
ENDMDL
MODEL 7
REMARK VINA RESULT:    -3.422      1.559      3.737
REMARK INTER + INTRA:          -5.024
REMARK INTER:                  -5.687
REMARK INTRA:                   0.664
REMARK UNBOUND:                 0.199
REMARK SMILES CC1=CCC[C@@H](C)C(=O)C[C@H](C(C)C)C(=O)C1
REMARK SMILES IDX 8 1 9 2 6 3 7 4 5 5 4 6 3 7 2 8 1 9 10 11 11 12 15 13 16 14
REMARK SMILES IDX 17 15 12 17 13 18 14 19
REMARK H PARENT
REMARK Flexibility Score: 70.00
ROOT
ATOM      1  C   UNL     1     -15.932  12.320 -28.480  1.00  0.00     0.136 C 
ATOM      2  O   UNL     1     -16.615  12.464 -27.474  1.00  0.00    -0.299 OA
ENDROOT
BRANCH   1   3
ATOM      3  C   UNL     1     -15.069  11.082 -28.628  1.00  0.00     0.053 C 
ATOM      4  C   UNL     1     -15.128  10.229 -27.352  1.00  0.00     0.016 C 
BRANCH   3   5
ATOM      5  C   UNL     1     -13.614  11.482 -28.960  1.00  0.00     0.015 C 
BRANCH   5   6
ATOM      6  C   UNL     1     -13.196  11.032 -30.374  1.00  0.00     0.028 C 
BRANCH   6   7
ATOM      7  C   UNL     1     -13.118  12.201 -31.323  1.00  0.00    -0.028 C 
ATOM      8  C   UNL     1     -14.129  12.631 -32.113  1.00  0.00    -0.070 CG0
ATOM      9  C   UNL     1     -13.894  13.858 -32.957  1.00  0.00     0.039 C 
ATOM     10  G   UNL     1     -15.486  11.947 -32.181  1.00  0.00     0.000 G0
ENDBRANCH   6   7
ENDBRANCH   5   6
ENDBRANCH   3   5
ENDBRANCH   1   3
BRANCH   1  11
ATOM     11  C   UNL     1     -15.970  13.382 -29.553  1.00  0.00     0.087 C 
BRANCH  11  12
ATOM     12  C   UNL     1     -17.155  13.192 -30.535  1.00  0.00     0.066 C 
BRANCH  12  13
ATOM     13  C   UNL     1     -16.652  12.886 -31.941  1.00  0.00     0.140 C 
ATOM     14  O   UNL     1     -17.239  13.377 -32.895  1.00  0.00    -0.299 OA
BRANCH  13  15
ATOM     15  C   UNL     1     -15.500  11.939 -32.192  1.00  0.00     0.106 CG0
ATOM     16  G   UNL     1     -14.152  12.638 -32.111  1.00  0.00     0.000 G0
ENDBRANCH  13  15
ENDBRANCH  12  13
BRANCH  12  17
ATOM     17  C   UNL     1     -18.186  12.123 -30.049  1.00  0.00    -0.006 C 
ATOM     18  C   UNL     1     -19.641  12.610 -30.178  1.00  0.00     0.008 C 
ATOM     19  C   UNL     1     -18.034  10.810 -30.839  1.00  0.00     0.008 C 
ENDBRANCH  12  17
ENDBRANCH  11  12
ENDBRANCH   1  11
TORSDOF 1
ENDMDL
MODEL 8
REMARK VINA RESULT:    -3.282      9.319     11.846
REMARK INTER + INTRA:          -4.809
REMARK INTER:                  -5.125
REMARK INTRA:                   0.315
REMARK UNBOUND:                 0.199
REMARK SMILES CC1=CCC[C@@H](C)C(=O)C[C@H](C(C)C)C(=O)C1
REMARK SMILES IDX 8 1 9 2 6 3 7 4 5 5 4 6 3 7 2 8 1 9 10 11 11 12 15 13 16 14
REMARK SMILES IDX 17 15 12 17 13 18 14 19
REMARK H PARENT
REMARK Flexibility Score: 70.00
ROOT
ATOM      1  C   UNL     1     -26.107  10.303 -30.440  1.00  0.00     0.136 C 
ATOM      2  O   UNL     1     -25.458   9.875 -31.386  1.00  0.00    -0.299 OA
ENDROOT
BRANCH   1   3
ATOM      3  C   UNL     1     -25.516  10.261 -29.045  1.00  0.00     0.053 C 
ATOM      4  C   UNL     1     -26.598   9.917 -28.011  1.00  0.00     0.016 C 
BRANCH   3   5
ATOM      5  C   UNL     1     -24.841  11.610 -28.709  1.00  0.00     0.015 C 
BRANCH   5   6
ATOM      6  C   UNL     1     -23.986  12.139 -29.878  1.00  0.00     0.028 C 
BRANCH   6   7
ATOM      7  C   UNL     1     -24.122  13.633 -30.028  1.00  0.00    -0.028 C 
ATOM      8  C   UNL     1     -25.035  14.257 -30.808  1.00  0.00    -0.070 CG0
ATOM      9  C   UNL     1     -25.068  15.764 -30.788  1.00  0.00     0.039 C 
ATOM     10  G   UNL     1     -26.030  13.516 -31.688  1.00  0.00     0.000 G0
ENDBRANCH   6   7
ENDBRANCH   5   6
ENDBRANCH   3   5
ENDBRANCH   1   3
BRANCH   1  11
ATOM     11  C   UNL     1     -27.486  10.868 -30.689  1.00  0.00     0.087 C 
BRANCH  11  12
ATOM     12  C   UNL     1     -27.684  12.261 -30.038  1.00  0.00     0.066 C 
BRANCH  12  13
ATOM     13  C   UNL     1     -27.388  13.375 -31.036  1.00  0.00     0.140 C 
ATOM     14  O   UNL     1     -28.293  14.132 -31.356  1.00  0.00    -0.299 OA
BRANCH  13  15
ATOM     15  C   UNL     1     -26.033  13.526 -31.690  1.00  0.00     0.106 CG0
ATOM     16  G   UNL     1     -25.044  14.267 -30.804  1.00  0.00     0.000 G0
ENDBRANCH  13  15
ENDBRANCH  12  13
BRANCH  12  17
ATOM     17  C   UNL     1     -29.093  12.436 -29.385  1.00  0.00    -0.006 C 
ATOM     18  C   UNL     1     -30.112  11.406 -29.902  1.00  0.00     0.008 C 
ATOM     19  C   UNL     1     -29.010  12.319 -27.851  1.00  0.00     0.008 C 
ENDBRANCH  12  17
ENDBRANCH  11  12
ENDBRANCH   1  11
TORSDOF 1
ENDMDL
MODEL 9
REMARK VINA RESULT:    -3.217      1.952      2.525
REMARK INTER + INTRA:          -4.711
REMARK INTER:                  -5.081
REMARK INTRA:                   0.370
REMARK UNBOUND:                 0.199
REMARK SMILES CC1=CCC[C@@H](C)C(=O)C[C@H](C(C)C)C(=O)C1
REMARK SMILES IDX 8 1 9 2 6 3 7 4 5 5 4 6 3 7 2 8 1 9 10 11 11 12 15 13 16 14
REMARK SMILES IDX 17 15 12 17 13 18 14 19
REMARK H PARENT
REMARK Flexibility Score: 70.00
ROOT
ATOM      1  C   UNL     1     -17.818  12.027 -31.380  1.00  0.00     0.136 C 
ATOM      2  O   UNL     1     -18.157  13.136 -31.773  1.00  0.00    -0.299 OA
ENDROOT
BRANCH   1   3
ATOM      3  C   UNL     1     -18.856  11.091 -30.792  1.00  0.00     0.053 C 
ATOM      4  C   UNL     1     -19.747  11.837 -29.789  1.00  0.00     0.016 C 
BRANCH   3   5
ATOM      5  C   UNL     1     -18.167   9.880 -30.125  1.00  0.00     0.015 C 
BRANCH   5   6
ATOM      6  C   UNL     1     -17.959  10.090 -28.612  1.00  0.00     0.028 C 
BRANCH   6   7
ATOM      7  C   UNL     1     -16.508   9.942 -28.229  1.00  0.00    -0.028 C 
ATOM      8  C   UNL     1     -15.597  10.942 -28.230  1.00  0.00    -0.070 CG0
ATOM      9  C   UNL     1     -14.201  10.626 -27.758  1.00  0.00     0.039 C 
ATOM     10  G   UNL     1     -15.916  12.363 -28.670  1.00  0.00     0.000 G0
ENDBRANCH   6   7
ENDBRANCH   5   6
ENDBRANCH   3   5
ENDBRANCH   1   3
BRANCH   1  11
ATOM     11  C   UNL     1     -16.369  11.617 -31.493  1.00  0.00     0.087 C 
BRANCH  11  12
ATOM     12  C   UNL     1     -15.396  12.797 -31.236  1.00  0.00     0.066 C 
BRANCH  12  13
ATOM     13  C   UNL     1     -14.999  12.865 -29.766  1.00  0.00     0.140 C 
ATOM     14  O   UNL     1     -13.888  13.285 -29.477  1.00  0.00    -0.299 OA
BRANCH  13  15
ATOM     15  C   UNL     1     -15.908  12.364 -28.666  1.00  0.00     0.106 CG0
ATOM     16  G   UNL     1     -15.569  10.943 -28.242  1.00  0.00     0.000 G0
ENDBRANCH  13  15
ENDBRANCH  12  13
BRANCH  12  17
ATOM     17  C   UNL     1     -14.142  12.770 -32.168  1.00  0.00    -0.006 C 
ATOM     18  C   UNL     1     -14.364  11.914 -33.428  1.00  0.00     0.008 C 
ATOM     19  C   UNL     1     -13.745  14.193 -32.604  1.00  0.00     0.008 C 
ENDBRANCH  12  17
ENDBRANCH  11  12
ENDBRANCH   1  11
TORSDOF 1
ENDMDL
