MODEL 1
REMARK VINA RESULT:    -4.093      0.000      0.000
REMARK INTER + INTRA:          -6.746
REMARK INTER:                  -6.246
REMARK INTRA:                  -0.500
REMARK UNBOUND:                -0.500
REMARK SMILES O=C([O-])CCCCCCCCC(=O)[O-]
REMARK SMILES IDX 7 1 6 2 5 3 4 4 2 5 1 6 3 7 8 8 9 9 10 10 11 11 12 12 13 13
REMARK SMILES IDX 14 14
REMARK H PARENT
REMARK Flexibility Score: inf
ROOT
ATOM      1  C   UNL     1      48.660   5.055  21.785  1.00  0.00     0.000 C 
ENDROOT
BRANCH   1   2
ATOM      2  C   UNL     1      49.833   4.078  21.960  1.00  0.00     0.000 C 
BRANCH   2   3
ATOM      3  C   UNL     1      50.113   3.319  20.654  1.00  0.00     0.006 C 
BRANCH   3   4
ATOM      4  C   UNL     1      51.380   2.459  20.742  1.00  0.00     0.053 C 
BRANCH   4   5
ATOM      5  C   UNL     1      52.204   2.553  19.495  1.00  0.00     0.041 C 
ATOM      6  O   UNL     1      52.122   3.570  18.758  1.00  0.00    -0.550 OA
ATOM      7  O   UNL     1      53.037   1.504  19.129  1.00  0.00    -0.550 OA
ENDBRANCH   4   5
ENDBRANCH   3   4
ENDBRANCH   2   3
ENDBRANCH   1   2
BRANCH   1   8
ATOM      8  C   UNL     1      49.091   6.527  21.888  1.00  0.00     0.000 C 
BRANCH   8   9
ATOM      9  C   UNL     1      49.238   7.196  20.511  1.00  0.00     0.000 C 
BRANCH   9  10
ATOM     10  C   UNL     1      50.666   7.707  20.247  1.00  0.00     0.006 C 
BRANCH  10  11
ATOM     11  C   UNL     1      51.063   7.746  18.762  1.00  0.00     0.053 C 
BRANCH  11  12
ATOM     12  C   UNL     1      50.176   8.652  17.967  1.00  0.00     0.041 C 
ATOM     13  O   UNL     1      49.600   8.226  16.931  1.00  0.00    -0.550 OA
ATOM     14  O   UNL     1      49.958   9.959  18.388  1.00  0.00    -0.550 OA
ENDBRANCH  11  12
ENDBRANCH  10  11
ENDBRANCH   9  10
ENDBRANCH   8   9
ENDBRANCH   1   8
TORSDOF 9
ENDMDL
MODEL 2
REMARK VINA RESULT:    -4.083      0.852      5.215
REMARK INTER + INTRA:          -6.731
REMARK INTER:                  -6.106
REMARK INTRA:                  -0.625
REMARK UNBOUND:                -0.500
REMARK SMILES O=C([O-])CCCCCCCCC(=O)[O-]
REMARK SMILES IDX 7 1 6 2 5 3 4 4 2 5 1 6 3 7 8 8 9 9 10 10 11 11 12 12 13 13
REMARK SMILES IDX 14 14
REMARK H PARENT
REMARK Flexibility Score: inf
ROOT
ATOM      1  C   UNL     1      48.453   5.859  21.881  1.00  0.00     0.000 C 
ENDROOT
BRANCH   1   2
ATOM      2  C   UNL     1      49.611   6.818  22.197  1.00  0.00     0.000 C 
BRANCH   2   3
ATOM      3  C   UNL     1      49.774   7.864  21.084  1.00  0.00     0.006 C 
BRANCH   3   4
ATOM      4  C   UNL     1      50.732   7.396  19.981  1.00  0.00     0.053 C 
BRANCH   4   5
ATOM      5  C   UNL     1      50.744   8.338  18.817  1.00  0.00     0.041 C 
ATOM      6  O   UNL     1      50.783   9.581  19.009  1.00  0.00    -0.550 OA
ATOM      7  O   UNL     1      50.679   7.844  17.520  1.00  0.00    -0.550 OA
ENDBRANCH   4   5
ENDBRANCH   3   4
ENDBRANCH   2   3
ENDBRANCH   1   2
BRANCH   1   8
ATOM      8  C   UNL     1      48.937   4.472  21.424  1.00  0.00     0.000 C 
BRANCH   8   9
ATOM      9  C   UNL     1      49.994   3.875  22.368  1.00  0.00     0.000 C 
BRANCH   9  10
ATOM     10  C   UNL     1      50.944   2.896  21.654  1.00  0.00     0.006 C 
BRANCH  10  11
ATOM     11  C   UNL     1      50.603   2.642  20.177  1.00  0.00     0.053 C 
BRANCH  11  12
ATOM     12  C   UNL     1      51.737   3.003  19.268  1.00  0.00     0.041 C 
ATOM     13  O   UNL     1      51.773   4.136  18.719  1.00  0.00    -0.550 OA
ATOM     14  O   UNL     1      52.773   2.102  19.055  1.00  0.00    -0.550 OA
ENDBRANCH  11  12
ENDBRANCH  10  11
ENDBRANCH   9  10
ENDBRANCH   8   9
ENDBRANCH   1   8
TORSDOF 9
ENDMDL
MODEL 3
REMARK VINA RESULT:    -3.966      4.334      8.742
REMARK INTER + INTRA:          -6.553
REMARK INTER:                  -6.180
REMARK INTRA:                  -0.372
REMARK UNBOUND:                -0.500
REMARK SMILES O=C([O-])CCCCCCCCC(=O)[O-]
REMARK SMILES IDX 7 1 6 2 5 3 4 4 2 5 1 6 3 7 8 8 9 9 10 10 11 11 12 12 13 13
REMARK SMILES IDX 14 14
REMARK H PARENT
REMARK Flexibility Score: inf
ROOT
ATOM      1  C   UNL     1      53.047   0.790  19.769  1.00  0.00     0.000 C 
ENDROOT
BRANCH   1   2
ATOM      2  C   UNL     1      53.381   2.290  19.806  1.00  0.00     0.000 C 
BRANCH   2   3
ATOM      3  C   UNL     1      52.203   3.126  19.285  1.00  0.00     0.006 C 
BRANCH   3   4
ATOM      4  C   UNL     1      50.862   2.671  19.872  1.00  0.00     0.053 C 
BRANCH   4   5
ATOM      5  C   UNL     1      50.539   3.390  21.146  1.00  0.00     0.041 C 
ATOM      6  O   UNL     1      50.897   2.910  22.252  1.00  0.00    -0.550 OA
ATOM      7  O   UNL     1      49.813   4.574  21.112  1.00  0.00    -0.550 OA
ENDBRANCH   4   5
ENDBRANCH   3   4
ENDBRANCH   2   3
ENDBRANCH   1   2
BRANCH   1   8
ATOM      8  C   UNL     1      54.155  -0.049  19.110  1.00  0.00     0.000 C 
BRANCH   8   9
ATOM      9  C   UNL     1      54.177  -1.500  19.618  1.00  0.00     0.000 C 
BRANCH   9  10
ATOM     10  C   UNL     1      55.286  -2.344  18.961  1.00  0.00     0.006 C 
BRANCH  10  11
ATOM     11  C   UNL     1      56.703  -2.044  19.476  1.00  0.00     0.053 C 
BRANCH  11  12
ATOM     12  C   UNL     1      57.649  -1.720  18.362  1.00  0.00     0.041 C 
ATOM     13  O   UNL     1      58.291  -2.638  17.789  1.00  0.00    -0.550 OA
ATOM     14  O   UNL     1      57.796  -0.406  17.935  1.00  0.00    -0.550 OA
ENDBRANCH  11  12
ENDBRANCH  10  11
ENDBRANCH   9  10
ENDBRANCH   8   9
ENDBRANCH   1   8
TORSDOF 9
ENDMDL
MODEL 4
REMARK VINA RESULT:    -3.949      2.244      5.772
REMARK INTER + INTRA:          -6.526
REMARK INTER:                  -5.929
REMARK INTRA:                  -0.597
REMARK UNBOUND:                -0.500
REMARK SMILES O=C([O-])CCCCCCCCC(=O)[O-]
REMARK SMILES IDX 7 1 6 2 5 3 4 4 2 5 1 6 3 7 8 8 9 9 10 10 11 11 12 12 13 13
REMARK SMILES IDX 14 14
REMARK H PARENT
REMARK Flexibility Score: inf
ROOT
ATOM      1  C   UNL     1      51.867   4.120  18.617  1.00  0.00     0.000 C 
ENDROOT
BRANCH   1   2
ATOM      2  C   UNL     1      52.607   5.467  18.637  1.00  0.00     0.000 C 
BRANCH   2   3
ATOM      3  C   UNL     1      51.675   6.610  18.209  1.00  0.00     0.006 C 
BRANCH   3   4
ATOM      4  C   UNL     1      51.492   7.657  19.315  1.00  0.00     0.053 C 
BRANCH   4   5
ATOM      5  C   UNL     1      50.330   8.561  19.039  1.00  0.00     0.041 C 
ATOM      6  O   UNL     1      50.152   9.028  17.884  1.00  0.00    -0.550 OA
ATOM      7  O   UNL     1      49.464   8.915  20.066  1.00  0.00    -0.550 OA
ENDBRANCH   4   5
ENDBRANCH   3   4
ENDBRANCH   2   3
ENDBRANCH   1   2
BRANCH   1   8
ATOM      8  C   UNL     1      52.699   2.976  19.220  1.00  0.00     0.000 C 
BRANCH   8   9
ATOM      9  C   UNL     1      51.911   2.157  20.255  1.00  0.00     0.000 C 
BRANCH   9  10
ATOM     10  C   UNL     1      50.539   2.775  20.584  1.00  0.00     0.006 C 
BRANCH  10  11
ATOM     11  C   UNL     1      50.395   3.269  22.032  1.00  0.00     0.053 C 
BRANCH  11  12
ATOM     12  C   UNL     1      49.598   4.534  22.118  1.00  0.00     0.041 C 
ATOM     13  O   UNL     1      49.668   5.391  21.198  1.00  0.00    -0.550 OA
ATOM     14  O   UNL     1      48.751   4.752  23.198  1.00  0.00    -0.550 OA
ENDBRANCH  11  12
ENDBRANCH  10  11
ENDBRANCH   9  10
ENDBRANCH   8   9
ENDBRANCH   1   8
TORSDOF 9
ENDMDL
MODEL 5
REMARK VINA RESULT:    -3.931      4.687      6.239
REMARK INTER + INTRA:          -6.499
REMARK INTER:                  -5.998
REMARK INTRA:                  -0.500
REMARK UNBOUND:                -0.500
REMARK SMILES O=C([O-])CCCCCCCCC(=O)[O-]
REMARK SMILES IDX 7 1 6 2 5 3 4 4 2 5 1 6 3 7 8 8 9 9 10 10 11 11 12 12 13 13
REMARK SMILES IDX 14 14
REMARK H PARENT
REMARK Flexibility Score: inf
ROOT
ATOM      1  C   UNL     1      48.206   2.003  20.747  1.00  0.00     0.000 C 
ENDROOT
BRANCH   1   2
ATOM      2  C   UNL     1      48.751   3.347  21.256  1.00  0.00     0.000 C 
BRANCH   2   3
ATOM      3  C   UNL     1      50.285   3.320  21.338  1.00  0.00     0.006 C 
BRANCH   3   4
ATOM      4  C   UNL     1      50.891   2.178  20.513  1.00  0.00     0.053 C 
BRANCH   4   5
ATOM      5  C   UNL     1      51.820   2.687  19.454  1.00  0.00     0.041 C 
ATOM      6  O   UNL     1      51.561   3.760  18.848  1.00  0.00    -0.550 OA
ATOM      7  O   UNL     1      52.954   1.961  19.114  1.00  0.00    -0.550 OA
ENDBRANCH   4   5
ENDBRANCH   3   4
ENDBRANCH   2   3
ENDBRANCH   1   2
BRANCH   1   8
ATOM      8  C   UNL     1      46.898   2.155  19.952  1.00  0.00     0.000 C 
BRANCH   8   9
ATOM      9  C   UNL     1      46.071   3.370  20.404  1.00  0.00     0.000 C 
BRANCH   9  10
ATOM     10  C   UNL     1      44.629   3.343  19.862  1.00  0.00     0.006 C 
BRANCH  10  11
ATOM     11  C   UNL     1      43.542   3.299  20.948  1.00  0.00     0.053 C 
BRANCH  11  12
ATOM     12  C   UNL     1      43.426   1.943  21.573  1.00  0.00     0.041 C 
ATOM     13  O   UNL     1      43.483   0.909  20.857  1.00  0.00    -0.550 OA
ATOM     14  O   UNL     1      43.289   1.821  22.950  1.00  0.00    -0.550 OA
ENDBRANCH  11  12
ENDBRANCH  10  11
ENDBRANCH   9  10
ENDBRANCH   8   9
ENDBRANCH   1   8
TORSDOF 9
ENDMDL
MODEL 6
REMARK VINA RESULT:    -3.925      3.692      6.375
REMARK INTER + INTRA:          -6.490
REMARK INTER:                  -5.935
REMARK INTRA:                  -0.555
REMARK UNBOUND:                -0.500
REMARK SMILES O=C([O-])CCCCCCCCC(=O)[O-]
REMARK SMILES IDX 7 1 6 2 5 3 4 4 2 5 1 6 3 7 8 8 9 9 10 10 11 11 12 12 13 13
REMARK SMILES IDX 14 14
REMARK H PARENT
REMARK Flexibility Score: inf
ROOT
ATOM      1  C   UNL     1      48.657   8.013  21.414  1.00  0.00     0.000 C 
ENDROOT
BRANCH   1   2
ATOM      2  C   UNL     1      49.699   7.100  20.749  1.00  0.00     0.000 C 
BRANCH   2   3
ATOM      3  C   UNL     1      50.818   7.928  20.101  1.00  0.00     0.006 C 
BRANCH   3   4
ATOM      4  C   UNL     1      50.945   7.657  18.596  1.00  0.00     0.053 C 
BRANCH   4   5
ATOM      5  C   UNL     1      50.126   8.614  17.787  1.00  0.00     0.041 C 
ATOM      6  O   UNL     1      49.700   8.278  16.651  1.00  0.00    -0.550 OA
ATOM      7  O   UNL     1      49.860   9.888  18.272  1.00  0.00    -0.550 OA
ENDBRANCH   4   5
ENDBRANCH   3   4
ENDBRANCH   2   3
ENDBRANCH   1   2
BRANCH   1   8
ATOM      8  C   UNL     1      48.608   7.845  22.942  1.00  0.00     0.000 C 
BRANCH   8   9
ATOM      9  C   UNL     1      49.659   8.704  23.664  1.00  0.00     0.000 C 
BRANCH   9  10
ATOM     10  C   UNL     1      50.275   7.991  24.883  1.00  0.00     0.006 C 
BRANCH  10  11
ATOM     11  C   UNL     1      50.483   6.479  24.697  1.00  0.00     0.053 C 
BRANCH  11  12
ATOM     12  C   UNL     1      50.097   5.704  25.919  1.00  0.00     0.041 C 
ATOM     13  O   UNL     1      50.669   5.927  27.018  1.00  0.00    -0.550 OA
ATOM     14  O   UNL     1      49.081   4.759  25.851  1.00  0.00    -0.550 OA
ENDBRANCH  11  12
ENDBRANCH  10  11
ENDBRANCH   9  10
ENDBRANCH   8   9
ENDBRANCH   1   8
TORSDOF 9
ENDMDL
MODEL 7
REMARK VINA RESULT:    -3.896      4.559      6.654
REMARK INTER + INTRA:          -6.446
REMARK INTER:                  -5.937
REMARK INTRA:                  -0.509
REMARK UNBOUND:                -0.500
REMARK SMILES O=C([O-])CCCCCCCCC(=O)[O-]
REMARK SMILES IDX 7 1 6 2 5 3 4 4 2 5 1 6 3 7 8 8 9 9 10 10 11 11 12 12 13 13
REMARK SMILES IDX 14 14
REMARK H PARENT
REMARK Flexibility Score: inf
ROOT
ATOM      1  C   UNL     1      48.051   1.127  20.921  1.00  0.00     0.000 C 
ENDROOT
BRANCH   1   2
ATOM      2  C   UNL     1      47.255   2.099  20.035  1.00  0.00     0.000 C 
BRANCH   2   3
ATOM      3  C   UNL     1      45.982   2.575  20.750  1.00  0.00     0.006 C 
BRANCH   3   4
ATOM      4  C   UNL     1      45.192   1.414  21.366  1.00  0.00     0.053 C 
BRANCH   4   5
ATOM      5  C   UNL     1      43.732   1.499  21.042  1.00  0.00     0.041 C 
ATOM      6  O   UNL     1      43.270   2.522  20.473  1.00  0.00    -0.550 OA
ATOM      7  O   UNL     1      42.878   0.463  21.397  1.00  0.00    -0.550 OA
ENDBRANCH   4   5
ENDBRANCH   3   4
ENDBRANCH   2   3
ENDBRANCH   1   2
BRANCH   1   8
ATOM      8  C   UNL     1      49.479   1.618  21.209  1.00  0.00     0.000 C 
BRANCH   8   9
ATOM      9  C   UNL     1      49.610   3.147  21.105  1.00  0.00     0.000 C 
BRANCH   9  10
ATOM     10  C   UNL     1      50.928   3.588  20.441  1.00  0.00     0.006 C 
BRANCH  10  11
ATOM     11  C   UNL     1      51.448   2.626  19.360  1.00  0.00     0.053 C 
BRANCH  11  12
ATOM     12  C   UNL     1      52.912   2.350  19.511  1.00  0.00     0.041 C 
ATOM     13  O   UNL     1      53.346   1.171  19.427  1.00  0.00    -0.550 OA
ATOM     14  O   UNL     1      53.802   3.398  19.711  1.00  0.00    -0.550 OA
ENDBRANCH  11  12
ENDBRANCH  10  11
ENDBRANCH   9  10
ENDBRANCH   8   9
ENDBRANCH   1   8
TORSDOF 9
ENDMDL
MODEL 8
REMARK VINA RESULT:    -3.879      3.601      7.265
REMARK INTER + INTRA:          -6.420
REMARK INTER:                  -5.631
REMARK INTRA:                  -0.789
REMARK UNBOUND:                -0.500
REMARK SMILES O=C([O-])CCCCCCCCC(=O)[O-]
REMARK SMILES IDX 7 1 6 2 5 3 4 4 2 5 1 6 3 7 8 8 9 9 10 10 11 11 12 12 13 13
REMARK SMILES IDX 14 14
REMARK H PARENT
REMARK Flexibility Score: inf
ROOT
ATOM      1  C   UNL     1      48.517   2.327  20.559  1.00  0.00     0.000 C 
ENDROOT
BRANCH   1   2
ATOM      2  C   UNL     1      49.367   2.803  21.747  1.00  0.00     0.000 C 
BRANCH   2   3
ATOM      3  C   UNL     1      50.813   3.083  21.310  1.00  0.00     0.006 C 
BRANCH   3   4
ATOM      4  C   UNL     1      51.107   2.551  19.902  1.00  0.00     0.053 C 
BRANCH   4   5
ATOM      5  C   UNL     1      52.193   3.331  19.227  1.00  0.00     0.041 C 
ATOM      6  O   UNL     1      53.401   3.047  19.439  1.00  0.00    -0.550 OA
ATOM      7  O   UNL     1      51.872   4.393  18.392  1.00  0.00    -0.550 OA
ENDBRANCH   4   5
ENDBRANCH   3   4
ENDBRANCH   2   3
ENDBRANCH   1   2
BRANCH   1   8
ATOM      8  C   UNL     1      47.974   0.902  20.749  1.00  0.00     0.000 C 
BRANCH   8   9
ATOM      9  C   UNL     1      48.380   0.291  22.101  1.00  0.00     0.000 C 
BRANCH   9  10
ATOM     10  C   UNL     1      49.297  -0.937  21.948  1.00  0.00     0.006 C 
BRANCH  10  11
ATOM     11  C   UNL     1      50.780  -0.664  22.249  1.00  0.00     0.053 C 
BRANCH  11  12
ATOM     12  C   UNL     1      51.519  -1.915  22.612  1.00  0.00     0.041 C 
ATOM     13  O   UNL     1      52.082  -2.600  21.718  1.00  0.00    -0.550 OA
ATOM     14  O   UNL     1      51.615  -2.306  23.942  1.00  0.00    -0.550 OA
ENDBRANCH  11  12
ENDBRANCH  10  11
ENDBRANCH   9  10
ENDBRANCH   8   9
ENDBRANCH   1   8
TORSDOF 9
ENDMDL
MODEL 9
REMARK VINA RESULT:    -3.836      4.201      5.099
REMARK INTER + INTRA:          -6.354
REMARK INTER:                  -5.919
REMARK INTRA:                  -0.435
REMARK UNBOUND:                -0.500
REMARK SMILES O=C([O-])CCCCCCCCC(=O)[O-]
REMARK SMILES IDX 7 1 6 2 5 3 4 4 2 5 1 6 3 7 8 8 9 9 10 10 11 11 12 12 13 13
REMARK SMILES IDX 14 14
REMARK H PARENT
REMARK Flexibility Score: inf
ROOT
ATOM      1  C   UNL     1      49.786   7.814  23.693  1.00  0.00     0.000 C 
ENDROOT
BRANCH   1   2
ATOM      2  C   UNL     1      50.028   7.674  25.204  1.00  0.00     0.000 C 
BRANCH   2   3
ATOM      3  C   UNL     1      50.738   6.350  25.525  1.00  0.00     0.006 C 
BRANCH   3   4
ATOM      4  C   UNL     1      50.375   5.819  26.918  1.00  0.00     0.053 C 
BRANCH   4   5
ATOM      5  C   UNL     1      49.309   4.769  26.853  1.00  0.00     0.041 C 
ATOM      6  O   UNL     1      48.130   5.083  26.542  1.00  0.00    -0.550 OA
ATOM      7  O   UNL     1      49.609   3.451  27.170  1.00  0.00    -0.550 OA
ENDBRANCH   4   5
ENDBRANCH   3   4
ENDBRANCH   2   3
ENDBRANCH   1   2
BRANCH   1   8
ATOM      8  C   UNL     1      49.586   6.458  22.995  1.00  0.00     0.000 C 
BRANCH   8   9
ATOM      9  C   UNL     1      49.339   6.604  21.484  1.00  0.00     0.000 C 
BRANCH   9  10
ATOM     10  C   UNL     1      49.656   8.018  20.963  1.00  0.00     0.006 C 
BRANCH  10  11
ATOM     11  C   UNL     1      50.738   8.067  19.873  1.00  0.00     0.053 C 
BRANCH  11  12
ATOM     12  C   UNL     1      50.321   8.903  18.703  1.00  0.00     0.041 C 
ATOM     13  O   UNL     1      50.335  10.159  18.784  1.00  0.00    -0.550 OA
ATOM     14  O   UNL     1      49.948   8.294  17.510  1.00  0.00    -0.550 OA
ENDBRANCH  11  12
ENDBRANCH  10  11
ENDBRANCH   9  10
ENDBRANCH   8   9
ENDBRANCH   1   8
TORSDOF 9
ENDMDL
