MODEL 1
REMARK VINA RESULT:    -2.671      0.000      0.000
REMARK INTER + INTRA:          -2.955
REMARK INTER:                  -2.905
REMARK INTRA:                  -0.050
REMARK UNBOUND:                -0.050
REMARK SMILES CCc1cccc(O)c1
REMARK SMILES IDX 3 1 9 2 7 3 6 4 5 5 4 6 2 7 1 8 8 9
REMARK H PARENT 8 10
REMARK Flexibility Score: inf
ROOT
ATOM      1  C   UNL     1      -8.623   0.404  -6.555  1.00  0.00    -0.045 A 
ATOM      2  C   UNL     1     -10.018   0.423  -6.389  1.00  0.00     0.049 A 
ATOM      3  C   UNL     1     -10.676   1.619  -6.066  1.00  0.00     0.115 A 
ATOM      4  C   UNL     1      -9.937   2.795  -5.899  1.00  0.00     0.046 A 
ATOM      5  C   UNL     1      -8.549   2.779  -6.050  1.00  0.00     0.004 A 
ATOM      6  C   UNL     1      -7.891   1.588  -6.373  1.00  0.00     0.004 A 
ENDROOT
BRANCH   1   7
ATOM      7  C   UNL     1      -7.914  -0.886  -6.870  1.00  0.00     0.032 C 
ATOM      8  C   UNL     1      -8.304  -1.973  -5.875  1.00  0.00     0.009 C 
ENDBRANCH   1   7
BRANCH   3   9
ATOM      9  O   UNL     1     -12.059   1.647  -5.906  1.00  0.00    -0.508 OA
ATOM     10  H   UNL     1     -12.591   0.800  -5.743  1.00  0.00     0.293 HD
ENDBRANCH   3   9
TORSDOF 2
ENDMDL
