MODEL 1
REMARK VINA RESULT:    -3.572      0.000      0.000
REMARK INTER + INTRA:          -4.520
REMARK INTER:                  -4.407
REMARK INTRA:                  -0.113
REMARK UNBOUND:                -0.113
REMARK SMILES CCCCCC(=O)[O-]
REMARK SMILES IDX 4 1 5 2 6 3 7 4 8 5 3 6 2 7 1 8
REMARK H PARENT
REMARK Flexibility Score: inf
ROOT
ATOM      1  C   UNL     1      32.487  44.411  21.469  1.00  0.00     0.006 C 
ENDROOT
BRANCH   1   2
ATOM      2  C   UNL     1      33.747  44.612  22.317  1.00  0.00     0.053 C 
BRANCH   2   3
ATOM      3  C   UNL     1      34.801  45.324  21.531  1.00  0.00     0.041 C 
ATOM      4  O   UNL     1      34.996  46.556  21.702  1.00  0.00    -0.550 OA
ATOM      5  O   UNL     1      35.604  44.617  20.644  1.00  0.00    -0.550 OA
ENDBRANCH   2   3
ENDBRANCH   1   2
BRANCH   1   6
ATOM      6  C   UNL     1      31.252  44.983  22.174  1.00  0.00     0.000 C 
BRANCH   6   7
ATOM      7  C   UNL     1      31.024  46.448  21.781  1.00  0.00    -0.003 C 
ATOM      8  C   UNL     1      29.768  47.007  22.443  1.00  0.00     0.004 C 
ENDBRANCH   6   7
ENDBRANCH   1   6
TORSDOF 4
ENDMDL
MODEL 2
REMARK VINA RESULT:    -3.466      2.813      4.298
REMARK INTER + INTRA:          -4.389
REMARK INTER:                  -4.226
REMARK INTRA:                  -0.163
REMARK UNBOUND:                -0.113
REMARK SMILES CCCCCC(=O)[O-]
REMARK SMILES IDX 4 1 5 2 6 3 7 4 8 5 3 6 2 7 1 8
REMARK H PARENT
REMARK Flexibility Score: inf
ROOT
ATOM      1  C   UNL     1      34.004  44.657  21.796  1.00  0.00     0.006 C 
ENDROOT
BRANCH   1   2
ATOM      2  C   UNL     1      32.495  44.923  21.819  1.00  0.00     0.053 C 
BRANCH   2   3
ATOM      3  C   UNL     1      31.796  43.901  22.659  1.00  0.00     0.041 C 
ATOM      4  O   UNL     1      30.773  43.313  22.219  1.00  0.00    -0.550 OA
ATOM      5  O   UNL     1      32.302  43.562  23.907  1.00  0.00    -0.550 OA
ENDBRANCH   2   3
ENDBRANCH   1   2
BRANCH   1   6
ATOM      6  C   UNL     1      34.794  45.970  21.828  1.00  0.00     0.000 C 
BRANCH   6   7
ATOM      7  C   UNL     1      35.896  45.923  22.893  1.00  0.00    -0.003 C 
ATOM      8  C   UNL     1      35.601  44.857  23.945  1.00  0.00     0.004 C 
ENDBRANCH   6   7
ENDBRANCH   1   6
TORSDOF 4
ENDMDL
MODEL 3
REMARK VINA RESULT:    -3.190      1.781      2.401
REMARK INTER + INTRA:          -4.049
REMARK INTER:                  -3.930
REMARK INTRA:                  -0.119
REMARK UNBOUND:                -0.113
REMARK SMILES CCCCCC(=O)[O-]
REMARK SMILES IDX 4 1 5 2 6 3 7 4 8 5 3 6 2 7 1 8
REMARK H PARENT
REMARK Flexibility Score: inf
ROOT
ATOM      1  C   UNL     1      33.627  44.494  21.744  1.00  0.00     0.006 C 
ENDROOT
BRANCH   1   2
ATOM      2  C   UNL     1      34.903  45.299  21.478  1.00  0.00     0.053 C 
BRANCH   2   3
ATOM      3  C   UNL     1      35.567  45.672  22.765  1.00  0.00     0.041 C 
ATOM      4  O   UNL     1      35.437  44.939  23.781  1.00  0.00    -0.550 OA
ATOM      5  O   UNL     1      36.370  46.804  22.831  1.00  0.00    -0.550 OA
ENDBRANCH   2   3
ENDBRANCH   1   2
BRANCH   1   6
ATOM      6  C   UNL     1      32.394  45.405  21.752  1.00  0.00     0.000 C 
BRANCH   6   7
ATOM      7  C   UNL     1      31.137  44.625  22.154  1.00  0.00    -0.003 C 
ATOM      8  C   UNL     1      31.474  43.181  22.513  1.00  0.00     0.004 C 
ENDBRANCH   6   7
ENDBRANCH   1   6
TORSDOF 4
ENDMDL
MODEL 4
REMARK VINA RESULT:    -3.110      2.077      2.643
REMARK INTER + INTRA:          -3.950
REMARK INTER:                  -3.850
REMARK INTRA:                  -0.100
REMARK UNBOUND:                -0.113
REMARK SMILES CCCCCC(=O)[O-]
REMARK SMILES IDX 4 1 5 2 6 3 7 4 8 5 3 6 2 7 1 8
REMARK H PARENT
REMARK Flexibility Score: inf
ROOT
ATOM      1  C   UNL     1      34.203  45.836  21.685  1.00  0.00     0.006 C 
ENDROOT
BRANCH   1   2
ATOM      2  C   UNL     1      35.713  45.944  21.916  1.00  0.00     0.053 C 
BRANCH   2   3
ATOM      3  C   UNL     1      36.426  44.795  21.277  1.00  0.00     0.041 C 
ATOM      4  O   UNL     1      37.125  44.015  21.976  1.00  0.00    -0.550 OA
ATOM      5  O   UNL     1      36.278  44.554  19.917  1.00  0.00    -0.550 OA
ENDBRANCH   2   3
ENDBRANCH   1   2
BRANCH   1   6
ATOM      6  C   UNL     1      33.660  44.503  22.211  1.00  0.00     0.000 C 
BRANCH   6   7
ATOM      7  C   UNL     1      32.293  44.183  21.595  1.00  0.00    -0.003 C 
ATOM      8  C   UNL     1      31.495  43.234  22.485  1.00  0.00     0.004 C 
ENDBRANCH   6   7
ENDBRANCH   1   6
TORSDOF 4
ENDMDL
MODEL 5
REMARK VINA RESULT:    -3.002     18.151     19.272
REMARK INTER + INTRA:          -3.817
REMARK INTER:                  -3.569
REMARK INTRA:                  -0.248
REMARK UNBOUND:                -0.113
REMARK SMILES CCCCCC(=O)[O-]
REMARK SMILES IDX 4 1 5 2 6 3 7 4 8 5 3 6 2 7 1 8
REMARK H PARENT
REMARK Flexibility Score: inf
ROOT
ATOM      1  C   UNL     1      34.315  27.170  13.015  1.00  0.00     0.006 C 
ENDROOT
BRANCH   1   2
ATOM      2  C   UNL     1      33.947  28.469  12.291  1.00  0.00     0.053 C 
BRANCH   2   3
ATOM      3  C   UNL     1      32.927  29.235  13.073  1.00  0.00     0.041 C 
ATOM      4  O   UNL     1      32.265  28.666  13.979  1.00  0.00    -0.550 OA
ATOM      5  O   UNL     1      32.744  30.591  12.835  1.00  0.00    -0.550 OA
ENDBRANCH   2   3
ENDBRANCH   1   2
BRANCH   1   6
ATOM      6  C   UNL     1      35.587  27.348  13.851  1.00  0.00     0.000 C 
BRANCH   6   7
ATOM      7  C   UNL     1      35.314  27.074  15.334  1.00  0.00    -0.003 C 
ATOM      8  C   UNL     1      35.209  28.375  16.126  1.00  0.00     0.004 C 
ENDBRANCH   6   7
ENDBRANCH   1   6
TORSDOF 4
ENDMDL
MODEL 6
REMARK VINA RESULT:    -2.943     18.329     19.481
REMARK INTER + INTRA:          -3.745
REMARK INTER:                  -3.641
REMARK INTRA:                  -0.104
REMARK UNBOUND:                -0.113
REMARK SMILES CCCCCC(=O)[O-]
REMARK SMILES IDX 4 1 5 2 6 3 7 4 8 5 3 6 2 7 1 8
REMARK H PARENT
REMARK Flexibility Score: inf
ROOT
ATOM      1  C   UNL     1      34.837  27.196  12.347  1.00  0.00     0.006 C 
ENDROOT
BRANCH   1   2
ATOM      2  C   UNL     1      34.695  26.898  13.843  1.00  0.00     0.053 C 
BRANCH   2   3
ATOM      3  C   UNL     1      35.888  27.396  14.594  1.00  0.00     0.041 C 
ATOM      4  O   UNL     1      37.049  27.079  14.222  1.00  0.00    -0.550 OA
ATOM      5  O   UNL     1      35.722  28.253  15.675  1.00  0.00    -0.550 OA
ENDBRANCH   2   3
ENDBRANCH   1   2
BRANCH   1   6
ATOM      6  C   UNL     1      33.870  28.304  11.913  1.00  0.00     0.000 C 
BRANCH   6   7
ATOM      7  C   UNL     1      32.992  28.757  13.085  1.00  0.00    -0.003 C 
ATOM      8  C   UNL     1      32.660  30.244  12.982  1.00  0.00     0.004 C 
ENDBRANCH   6   7
ENDBRANCH   1   6
TORSDOF 4
ENDMDL
MODEL 7
REMARK VINA RESULT:    -2.870     18.068     19.332
REMARK INTER + INTRA:          -3.655
REMARK INTER:                  -3.420
REMARK INTRA:                  -0.234
REMARK UNBOUND:                -0.113
REMARK SMILES CCCCCC(=O)[O-]
REMARK SMILES IDX 4 1 5 2 6 3 7 4 8 5 3 6 2 7 1 8
REMARK H PARENT
REMARK Flexibility Score: inf
ROOT
ATOM      1  C   UNL     1      34.929  26.894  14.520  1.00  0.00     0.006 C 
ENDROOT
BRANCH   1   2
ATOM      2  C   UNL     1      34.359  27.046  13.106  1.00  0.00     0.053 C 
BRANCH   2   3
ATOM      3  C   UNL     1      33.714  28.385  12.941  1.00  0.00     0.041 C 
ATOM      4  O   UNL     1      34.127  29.183  12.059  1.00  0.00    -0.550 OA
ATOM      5  O   UNL     1      32.624  28.734  13.728  1.00  0.00    -0.550 OA
ENDBRANCH   2   3
ENDBRANCH   1   2
BRANCH   1   6
ATOM      6  C   UNL     1      36.268  27.627  14.655  1.00  0.00     0.000 C 
BRANCH   6   7
ATOM      7  C   UNL     1      36.398  28.288  16.032  1.00  0.00    -0.003 C 
ATOM      8  C   UNL     1      35.052  28.820  16.517  1.00  0.00     0.004 C 
ENDBRANCH   6   7
ENDBRANCH   1   6
TORSDOF 4
ENDMDL
MODEL 8
REMARK VINA RESULT:    -2.442     17.640     18.811
REMARK INTER + INTRA:          -3.126
REMARK INTER:                  -3.037
REMARK INTRA:                  -0.089
REMARK UNBOUND:                -0.113
REMARK SMILES CCCCCC(=O)[O-]
REMARK SMILES IDX 4 1 5 2 6 3 7 4 8 5 3 6 2 7 1 8
REMARK H PARENT
REMARK Flexibility Score: inf
ROOT
ATOM      1  C   UNL     1      35.370  28.477  16.058  1.00  0.00     0.006 C 
ENDROOT
BRANCH   1   2
ATOM      2  C   UNL     1      35.169  27.256  15.155  1.00  0.00     0.053 C 
BRANCH   2   3
ATOM      3  C   UNL     1      34.294  27.602  13.993  1.00  0.00     0.041 C 
ATOM      4  O   UNL     1      34.289  26.875  12.965  1.00  0.00    -0.550 OA
ATOM      5  O   UNL     1      33.445  28.700  14.063  1.00  0.00    -0.550 OA
ENDBRANCH   2   3
ENDBRANCH   1   2
BRANCH   1   6
ATOM      6  C   UNL     1      36.181  28.111  17.306  1.00  0.00     0.000 C 
BRANCH   6   7
ATOM      7  C   UNL     1      35.724  28.929  18.519  1.00  0.00    -0.003 C 
ATOM      8  C   UNL     1      34.344  28.485  18.996  1.00  0.00     0.004 C 
ENDBRANCH   6   7
ENDBRANCH   1   6
TORSDOF 4
ENDMDL
