MODEL 1
REMARK VINA RESULT:    -5.320      0.000      0.000
REMARK INTER + INTRA:          -9.653
REMARK INTER:                  -8.120
REMARK INTRA:                  -1.533
REMARK UNBOUND:                -1.533
REMARK SMILES COc1cc(C=CC(=O)CC(=O)C=Cc2ccc(O)c(OC)c2)ccc1O
REMARK SMILES IDX 10 1 8 2 9 3 7 4 6 5 5 6 3 7 26 8 4 9 25 10 24 11 2 12 1 13
REMARK SMILES IDX 27 14 11 16 12 17 13 18 14 19 15 20 23 21 16 22 20 23 17 24
REMARK SMILES IDX 18 25 21 26 22 27 19 28
REMARK H PARENT 27 15 19 29
REMARK Flexibility Score: inf
ROOT
ATOM      1  C   UNL     1     124.068 132.845  96.819  1.00  0.00     0.160 C 
ENDROOT
BRANCH   1   2
ATOM      2  C   UNL     1     124.330 132.237  98.177  1.00  0.00     0.163 C 
ATOM      3  O   UNL     1     125.067 131.219  98.279  1.00  0.00    -0.294 OA
BRANCH   2   4
ATOM      4  C   UNL     1     123.730 132.786  99.412  1.00  0.00     0.048 C 
ATOM      5  C   UNL     1     123.963 132.281 100.633  1.00  0.00     0.012 C 
BRANCH   5   6
ATOM      6  C   UNL     1     123.373 132.836 101.877  1.00  0.00    -0.022 A 
ATOM      7  C   UNL     1     123.294 134.660 103.508  1.00  0.00     0.161 A 
ATOM      8  C   UNL     1     122.331 133.954 104.243  1.00  0.00     0.157 A 
ATOM      9  C   UNL     1     123.815 134.092 102.328  1.00  0.00     0.058 A 
ATOM     10  C   UNL     1     121.900 132.695 103.808  1.00  0.00     0.051 A 
ATOM     11  C   UNL     1     122.418 132.136 102.638  1.00  0.00     0.012 A 
BRANCH   7  12
ATOM     12  O   UNL     1     123.706 135.916 103.980  1.00  0.00    -0.493 OA
ATOM     13  C   UNL     1     124.920 136.155 104.685  1.00  0.00     0.278 C 
ENDBRANCH   7  12
BRANCH   8  14
ATOM     14  O   UNL     1     121.810 134.511 105.409  1.00  0.00    -0.504 OA
ATOM     15  H   UNL     1     121.921 134.058 106.308  1.00  0.00     0.293 HD
ENDBRANCH   8  14
ENDBRANCH   5   6
ENDBRANCH   2   4
ENDBRANCH   1   2
BRANCH   1  16
ATOM     16  C   UNL     1     125.324 133.339  96.160  1.00  0.00     0.163 C 
ATOM     17  O   UNL     1     126.072 132.514  95.568  1.00  0.00    -0.294 OA
BRANCH  16  18
ATOM     18  C   UNL     1     125.676 134.776  96.227  1.00  0.00     0.048 C 
ATOM     19  C   UNL     1     126.558 135.324  97.078  1.00  0.00     0.012 C 
BRANCH  19  20
ATOM     20  C   UNL     1     127.464 134.573  97.972  1.00  0.00    -0.022 A 
ATOM     21  C   UNL     1     128.705 134.137  97.485  1.00  0.00     0.058 A 
ATOM     22  C   UNL     1     127.063 134.203  99.265  1.00  0.00     0.012 A 
ATOM     23  C   UNL     1     129.569 133.380  98.301  1.00  0.00     0.161 A 
ATOM     24  C   UNL     1     127.916 133.457 100.080  1.00  0.00     0.051 A 
ATOM     25  C   UNL     1     129.169 133.048  99.603  1.00  0.00     0.157 A 
BRANCH  23  26
ATOM     26  O   UNL     1     130.826 132.942  97.856  1.00  0.00    -0.493 OA
ATOM     27  C   UNL     1     131.990 133.760  97.796  1.00  0.00     0.278 C 
ENDBRANCH  23  26
BRANCH  25  28
ATOM     28  O   UNL     1     130.022 132.306 100.418  1.00  0.00    -0.504 OA
ATOM     29  H   UNL     1     130.884 132.698 100.779  1.00  0.00     0.293 HD
ENDBRANCH  25  28
ENDBRANCH  19  20
ENDBRANCH  16  18
ENDBRANCH   1  16
TORSDOF 10
ENDMDL
MODEL 2
REMARK VINA RESULT:    -5.290      1.458      4.465
REMARK INTER + INTRA:          -9.607
REMARK INTER:                  -8.012
REMARK INTRA:                  -1.594
REMARK UNBOUND:                -1.533
REMARK SMILES COc1cc(C=CC(=O)CC(=O)C=Cc2ccc(O)c(OC)c2)ccc1O
REMARK SMILES IDX 10 1 8 2 9 3 7 4 6 5 5 6 3 7 26 8 4 9 25 10 24 11 2 12 1 13
REMARK SMILES IDX 27 14 11 16 12 17 13 18 14 19 15 20 23 21 16 22 20 23 17 24
REMARK SMILES IDX 18 25 21 26 22 27 19 28
REMARK H PARENT 27 15 19 29
REMARK Flexibility Score: inf
ROOT
ATOM      1  C   UNL     1     128.704 132.495  98.900  1.00  0.00     0.160 C 
ENDROOT
BRANCH   1   2
ATOM      2  C   UNL     1     128.884 132.940 100.333  1.00  0.00     0.163 C 
ATOM      3  O   UNL     1     130.044 133.088 100.805  1.00  0.00    -0.294 OA
BRANCH   2   4
ATOM      4  C   UNL     1     127.733 133.194 101.227  1.00  0.00     0.048 C 
ATOM      5  C   UNL     1     126.643 133.879 100.850  1.00  0.00     0.012 C 
BRANCH   5   6
ATOM      6  C   UNL     1     125.481 134.124 101.740  1.00  0.00    -0.022 A 
ATOM      7  C   UNL     1     124.521 135.372 103.614  1.00  0.00     0.161 A 
ATOM      8  C   UNL     1     123.336 134.634 103.492  1.00  0.00     0.157 A 
ATOM      9  C   UNL     1     125.593 135.107 102.737  1.00  0.00     0.058 A 
ATOM     10  C   UNL     1     123.225 133.641 102.512  1.00  0.00     0.051 A 
ATOM     11  C   UNL     1     124.288 133.382 101.645  1.00  0.00     0.012 A 
BRANCH   7  12
ATOM     12  O   UNL     1     124.596 136.355 104.613  1.00  0.00    -0.493 OA
ATOM     13  C   UNL     1     125.179 136.156 105.898  1.00  0.00     0.278 C 
ENDBRANCH   7  12
BRANCH   8  14
ATOM     14  O   UNL     1     122.272 134.893 104.354  1.00  0.00    -0.504 OA
ATOM     15  H   UNL     1     121.379 134.424 104.250  1.00  0.00     0.293 HD
ENDBRANCH   8  14
ENDBRANCH   5   6
ENDBRANCH   2   4
ENDBRANCH   1   2
BRANCH   1  16
ATOM     16  C   UNL     1     129.134 133.545  97.915  1.00  0.00     0.163 C 
ATOM     17  O   UNL     1     130.002 133.252  97.048  1.00  0.00    -0.294 OA
BRANCH  16  18
ATOM     18  C   UNL     1     128.553 134.905  97.985  1.00  0.00     0.048 C 
ATOM     19  C   UNL     1     127.405 135.293  97.407  1.00  0.00     0.012 C 
BRANCH  19  20
ATOM     20  C   UNL     1     126.431 134.394  96.753  1.00  0.00    -0.022 A 
ATOM     21  C   UNL     1     125.199 134.146  97.375  1.00  0.00     0.058 A 
ATOM     22  C   UNL     1     126.757 133.710  95.571  1.00  0.00     0.012 A 
ATOM     23  C   UNL     1     124.269 133.260  96.796  1.00  0.00     0.161 A 
ATOM     24  C   UNL     1     125.839 132.832  94.991  1.00  0.00     0.051 A 
ATOM     25  C   UNL     1     124.595 132.609  95.597  1.00  0.00     0.157 A 
BRANCH  23  26
ATOM     26  O   UNL     1     123.019 133.000  97.379  1.00  0.00    -0.493 OA
ATOM     27  C   UNL     1     122.817 132.159  98.510  1.00  0.00     0.278 C 
ENDBRANCH  23  26
BRANCH  25  28
ATOM     28  O   UNL     1     123.678 131.736  95.016  1.00  0.00    -0.504 OA
ATOM     29  H   UNL     1     123.632 130.759  95.284  1.00  0.00     0.293 HD
ENDBRANCH  25  28
ENDBRANCH  19  20
ENDBRANCH  16  18
ENDBRANCH   1  16
TORSDOF 10
ENDMDL
MODEL 3
REMARK VINA RESULT:    -5.270      0.817      1.768
REMARK INTER + INTRA:          -9.575
REMARK INTER:                  -8.001
REMARK INTRA:                  -1.574
REMARK UNBOUND:                -1.533
REMARK SMILES COc1cc(C=CC(=O)CC(=O)C=Cc2ccc(O)c(OC)c2)ccc1O
REMARK SMILES IDX 10 1 8 2 9 3 7 4 6 5 5 6 3 7 26 8 4 9 25 10 24 11 2 12 1 13
REMARK SMILES IDX 27 14 11 16 12 17 13 18 14 19 15 20 23 21 16 22 20 23 17 24
REMARK SMILES IDX 18 25 21 26 22 27 19 28
REMARK H PARENT 27 15 19 29
REMARK Flexibility Score: inf
ROOT
ATOM      1  C   UNL     1     123.871 132.908  96.757  1.00  0.00     0.160 C 
ENDROOT
BRANCH   1   2
ATOM      2  C   UNL     1     124.301 132.384  98.106  1.00  0.00     0.163 C 
ATOM      3  O   UNL     1     125.111 131.420  98.178  1.00  0.00    -0.294 OA
BRANCH   2   4
ATOM      4  C   UNL     1     123.786 132.953  99.370  1.00  0.00     0.048 C 
ATOM      5  C   UNL     1     123.717 132.260 100.517  1.00  0.00     0.012 C 
BRANCH   5   6
ATOM      6  C   UNL     1     123.213 132.831 101.791  1.00  0.00    -0.022 A 
ATOM      7  C   UNL     1     123.287 134.647 103.431  1.00  0.00     0.161 A 
ATOM      8  C   UNL     1     122.337 133.974 104.211  1.00  0.00     0.157 A 
ATOM      9  C   UNL     1     123.726 134.066 102.224  1.00  0.00     0.058 A 
ATOM     10  C   UNL     1     121.836 132.735 103.794  1.00  0.00     0.051 A 
ATOM     11  C   UNL     1     122.272 132.164 102.597  1.00  0.00     0.012 A 
BRANCH   7  12
ATOM     12  O   UNL     1     123.771 135.883 103.886  1.00  0.00    -0.493 OA
ATOM     13  C   UNL     1     124.908 136.552 103.349  1.00  0.00     0.278 C 
ENDBRANCH   7  12
BRANCH   8  14
ATOM     14  O   UNL     1     121.898 134.544 105.404  1.00  0.00    -0.504 OA
ATOM     15  H   UNL     1     121.299 134.037 106.045  1.00  0.00     0.293 HD
ENDBRANCH   8  14
ENDBRANCH   5   6
ENDBRANCH   2   4
ENDBRANCH   1   2
BRANCH   1  16
ATOM     16  C   UNL     1     125.019 133.469  95.966  1.00  0.00     0.163 C 
ATOM     17  O   UNL     1     125.616 132.727  95.140  1.00  0.00    -0.294 OA
BRANCH  16  18
ATOM     18  C   UNL     1     125.444 134.872  96.177  1.00  0.00     0.048 C 
ATOM     19  C   UNL     1     126.467 135.270  96.950  1.00  0.00     0.012 C 
BRANCH  19  20
ATOM     20  C   UNL     1     127.459 134.374  97.581  1.00  0.00    -0.022 A 
ATOM     21  C   UNL     1     127.433 134.192  98.972  1.00  0.00     0.058 A 
ATOM     22  C   UNL     1     128.484 133.782  96.828  1.00  0.00     0.012 A 
ATOM     23  C   UNL     1     128.393 133.379  99.606  1.00  0.00     0.161 A 
ATOM     24  C   UNL     1     129.437 132.973  97.450  1.00  0.00     0.051 A 
ATOM     25  C   UNL     1     129.392 132.766  98.835  1.00  0.00     0.157 A 
BRANCH  23  26
ATOM     26  O   UNL     1     128.389 133.158 100.992  1.00  0.00    -0.493 OA
ATOM     27  C   UNL     1     127.242 133.287 101.825  1.00  0.00     0.278 C 
ENDBRANCH  23  26
BRANCH  25  28
ATOM     28  O   UNL     1     130.341 131.956  99.455  1.00  0.00    -0.504 OA
ATOM     29  H   UNL     1     130.073 131.121  99.965  1.00  0.00     0.293 HD
ENDBRANCH  25  28
ENDBRANCH  19  20
ENDBRANCH  16  18
ENDBRANCH   1  16
TORSDOF 10
ENDMDL
MODEL 4
REMARK VINA RESULT:    -5.267      1.387      2.087
REMARK INTER + INTRA:          -9.570
REMARK INTER:                  -8.038
REMARK INTRA:                  -1.532
REMARK UNBOUND:                -1.533
REMARK SMILES COc1cc(C=CC(=O)CC(=O)C=Cc2ccc(O)c(OC)c2)ccc1O
REMARK SMILES IDX 10 1 8 2 9 3 7 4 6 5 5 6 3 7 26 8 4 9 25 10 24 11 2 12 1 13
REMARK SMILES IDX 27 14 11 16 12 17 13 18 14 19 15 20 23 21 16 22 20 23 17 24
REMARK SMILES IDX 18 25 21 26 22 27 19 28
REMARK H PARENT 27 15 19 29
REMARK Flexibility Score: inf
ROOT
ATOM      1  C   UNL     1     123.241 133.379  97.644  1.00  0.00     0.160 C 
ENDROOT
BRANCH   1   2
ATOM      2  C   UNL     1     123.423 132.509  98.865  1.00  0.00     0.163 C 
ATOM      3  O   UNL     1     122.933 131.346  98.888  1.00  0.00    -0.294 OA
BRANCH   2   4
ATOM      4  C   UNL     1     124.147 132.980 100.065  1.00  0.00     0.048 C 
ATOM      5  C   UNL     1     123.551 133.620 101.082  1.00  0.00     0.012 C 
BRANCH   5   6
ATOM      6  C   UNL     1     124.271 134.083 102.294  1.00  0.00    -0.022 A 
ATOM      7  C   UNL     1     124.166 134.781 104.638  1.00  0.00     0.161 A 
ATOM      8  C   UNL     1     125.551 134.993 104.632  1.00  0.00     0.157 A 
ATOM      9  C   UNL     1     123.531 134.331 103.463  1.00  0.00     0.058 A 
ATOM     10  C   UNL     1     126.291 134.765 103.466  1.00  0.00     0.051 A 
ATOM     11  C   UNL     1     125.659 134.318 102.304  1.00  0.00     0.012 A 
BRANCH   7  12
ATOM     12  O   UNL     1     123.458 135.028 105.825  1.00  0.00    -0.493 OA
ATOM     13  C   UNL     1     122.580 134.096 106.450  1.00  0.00     0.278 C 
ENDBRANCH   7  12
BRANCH   8  14
ATOM     14  O   UNL     1     126.186 135.435 105.791  1.00  0.00    -0.504 OA
ATOM     15  H   UNL     1     126.831 136.217 105.777  1.00  0.00     0.293 HD
ENDBRANCH   8  14
ENDBRANCH   5   6
ENDBRANCH   2   4
ENDBRANCH   1   2
BRANCH   1  16
ATOM     16  C   UNL     1     124.470 133.421  96.780  1.00  0.00     0.163 C 
ATOM     17  O   UNL     1     125.008 132.337  96.425  1.00  0.00    -0.294 OA
BRANCH  16  18
ATOM     18  C   UNL     1     125.042 134.726  96.375  1.00  0.00     0.048 C 
ATOM     19  C   UNL     1     126.228 135.214  96.769  1.00  0.00     0.012 C 
BRANCH  19  20
ATOM     20  C   UNL     1     127.251 134.465  97.529  1.00  0.00    -0.022 A 
ATOM     21  C   UNL     1     128.237 133.750  96.834  1.00  0.00     0.058 A 
ATOM     22  C   UNL     1     127.193 134.376  98.929  1.00  0.00     0.012 A 
ATOM     23  C   UNL     1     129.198 132.991  97.532  1.00  0.00     0.161 A 
ATOM     24  C   UNL     1     128.143 133.628  99.626  1.00  0.00     0.051 A 
ATOM     25  C   UNL     1     129.148 132.940  98.933  1.00  0.00     0.157 A 
BRANCH  23  26
ATOM     26  O   UNL     1     130.211 132.278  96.873  1.00  0.00    -0.493 OA
ATOM     27  C   UNL     1     131.280 132.880  96.149  1.00  0.00     0.278 C 
ENDBRANCH  23  26
BRANCH  25  28
ATOM     28  O   UNL     1     130.099 132.197  99.629  1.00  0.00    -0.504 OA
ATOM     29  H   UNL     1     130.553 131.392  99.211  1.00  0.00     0.293 HD
ENDBRANCH  25  28
ENDBRANCH  19  20
ENDBRANCH  16  18
ENDBRANCH   1  16
TORSDOF 10
ENDMDL
MODEL 5
REMARK VINA RESULT:    -5.258      1.736      4.386
REMARK INTER + INTRA:          -9.557
REMARK INTER:                  -7.336
REMARK INTRA:                  -2.220
REMARK UNBOUND:                -1.533
REMARK SMILES COc1cc(C=CC(=O)CC(=O)C=Cc2ccc(O)c(OC)c2)ccc1O
REMARK SMILES IDX 10 1 8 2 9 3 7 4 6 5 5 6 3 7 26 8 4 9 25 10 24 11 2 12 1 13
REMARK SMILES IDX 27 14 11 16 12 17 13 18 14 19 15 20 23 21 16 22 20 23 17 24
REMARK SMILES IDX 18 25 21 26 22 27 19 28
REMARK H PARENT 27 15 19 29
REMARK Flexibility Score: inf
ROOT
ATOM      1  C   UNL     1     128.379 134.703  97.906  1.00  0.00     0.160 C 
ENDROOT
BRANCH   1   2
ATOM      2  C   UNL     1     127.962 133.819  99.057  1.00  0.00     0.163 C 
ATOM      3  O   UNL     1     128.619 132.776  99.320  1.00  0.00    -0.294 OA
BRANCH   2   4
ATOM      4  C   UNL     1     126.779 134.124  99.892  1.00  0.00     0.048 C 
ATOM      5  C   UNL     1     126.692 133.805 101.192  1.00  0.00     0.012 C 
BRANCH   5   6
ATOM      6  C   UNL     1     125.513 134.120 102.037  1.00  0.00    -0.022 A 
ATOM      7  C   UNL     1     123.266 133.504 102.787  1.00  0.00     0.161 A 
ATOM      8  C   UNL     1     123.222 134.656 103.584  1.00  0.00     0.157 A 
ATOM      9  C   UNL     1     124.414 133.245 102.011  1.00  0.00     0.058 A 
ATOM     10  C   UNL     1     124.307 135.541 103.600  1.00  0.00     0.051 A 
ATOM     11  C   UNL     1     125.442 135.280 102.831  1.00  0.00     0.012 A 
BRANCH   7  12
ATOM     12  O   UNL     1     122.156 132.646 102.793  1.00  0.00    -0.493 OA
ATOM     13  C   UNL     1     122.090 131.416 103.508  1.00  0.00     0.278 C 
ENDBRANCH   7  12
BRANCH   8  14
ATOM     14  O   UNL     1     122.091 134.917 104.356  1.00  0.00    -0.504 OA
ATOM     15  H   UNL     1     121.486 134.171 104.677  1.00  0.00     0.293 HD
ENDBRANCH   8  14
ENDBRANCH   5   6
ENDBRANCH   2   4
ENDBRANCH   1   2
BRANCH   1  16
ATOM     16  C   UNL     1     127.313 134.815  96.852  1.00  0.00     0.163 C 
ATOM     17  O   UNL     1     126.549 135.818  96.858  1.00  0.00    -0.294 OA
BRANCH  16  18
ATOM     18  C   UNL     1     127.164 133.746  95.838  1.00  0.00     0.048 C 
ATOM     19  C   UNL     1     126.303 132.719  95.909  1.00  0.00     0.012 C 
BRANCH  19  20
ATOM     20  C   UNL     1     125.233 132.569  96.917  1.00  0.00    -0.022 A 
ATOM     21  C   UNL     1     125.331 131.550  97.877  1.00  0.00     0.058 A 
ATOM     22  C   UNL     1     124.076 133.362  96.870  1.00  0.00     0.012 A 
ATOM     23  C   UNL     1     124.304 131.356  98.822  1.00  0.00     0.161 A 
ATOM     24  C   UNL     1     123.057 133.176  97.806  1.00  0.00     0.051 A 
ATOM     25  C   UNL     1     123.169 132.179  98.784  1.00  0.00     0.157 A 
BRANCH  23  26
ATOM     26  O   UNL     1     124.374 130.360  99.809  1.00  0.00    -0.493 OA
ATOM     27  C   UNL     1     125.575 129.946 100.452  1.00  0.00     0.278 C 
ENDBRANCH  23  26
BRANCH  25  28
ATOM     28  O   UNL     1     122.154 131.996  99.720  1.00  0.00    -0.504 OA
ATOM     29  H   UNL     1     121.490 132.732  99.933  1.00  0.00     0.293 HD
ENDBRANCH  25  28
ENDBRANCH  19  20
ENDBRANCH  16  18
ENDBRANCH   1  16
TORSDOF 10
ENDMDL
MODEL 6
REMARK VINA RESULT:    -5.173      2.790      8.073
REMARK INTER + INTRA:          -9.428
REMARK INTER:                  -8.085
REMARK INTRA:                  -1.343
REMARK UNBOUND:                -1.533
REMARK SMILES COc1cc(C=CC(=O)CC(=O)C=Cc2ccc(O)c(OC)c2)ccc1O
REMARK SMILES IDX 10 1 8 2 9 3 7 4 6 5 5 6 3 7 26 8 4 9 25 10 24 11 2 12 1 13
REMARK SMILES IDX 27 14 11 16 12 17 13 18 14 19 15 20 23 21 16 22 20 23 17 24
REMARK SMILES IDX 18 25 21 26 22 27 19 28
REMARK H PARENT 27 15 19 29
REMARK Flexibility Score: inf
ROOT
ATOM      1  C   UNL     1     123.616 133.840 102.431  1.00  0.00     0.160 C 
ENDROOT
BRANCH   1   2
ATOM      2  C   UNL     1     124.892 133.081 102.704  1.00  0.00     0.163 C 
ATOM      3  O   UNL     1     124.910 132.177 103.584  1.00  0.00    -0.294 OA
BRANCH   2   4
ATOM      4  C   UNL     1     126.150 133.374 101.984  1.00  0.00     0.048 C 
ATOM      5  C   UNL     1     126.268 133.312 100.649  1.00  0.00     0.012 C 
BRANCH   5   6
ATOM      6  C   UNL     1     127.524 133.618  99.921  1.00  0.00    -0.022 A 
ATOM      7  C   UNL     1     129.941 133.291  99.714  1.00  0.00     0.161 A 
ATOM      8  C   UNL     1     129.961 134.166  98.619  1.00  0.00     0.157 A 
ATOM      9  C   UNL     1     128.720 133.026 100.365  1.00  0.00     0.058 A 
ATOM     10  C   UNL     1     128.776 134.773  98.184  1.00  0.00     0.051 A 
ATOM     11  C   UNL     1     127.568 134.507  98.831  1.00  0.00     0.012 A 
BRANCH   7  12
ATOM     12  O   UNL     1     131.151 132.708 100.124  1.00  0.00    -0.493 OA
ATOM     13  C   UNL     1     131.543 131.371  99.829  1.00  0.00     0.278 C 
ENDBRANCH   7  12
BRANCH   8  14
ATOM     14  O   UNL     1     131.165 134.430  97.970  1.00  0.00    -0.504 OA
ATOM     15  H   UNL     1     131.584 135.353  97.986  1.00  0.00     0.293 HD
ENDBRANCH   8  14
ENDBRANCH   5   6
ENDBRANCH   2   4
ENDBRANCH   1   2
BRANCH   1  16
ATOM     16  C   UNL     1     123.253 134.776 103.548  1.00  0.00     0.163 C 
ATOM     17  O   UNL     1     122.242 134.523 104.257  1.00  0.00    -0.294 OA
BRANCH  16  18
ATOM     18  C   UNL     1     124.072 135.987 103.791  1.00  0.00     0.048 C 
ATOM     19  C   UNL     1     124.805 136.225 104.890  1.00  0.00     0.012 C 
BRANCH  19  20
ATOM     20  C   UNL     1     125.069 135.250 105.969  1.00  0.00    -0.022 A 
ATOM     21  C   UNL     1     126.213 134.441 105.899  1.00  0.00     0.058 A 
ATOM     22  C   UNL     1     124.147 135.053 107.009  1.00  0.00     0.012 A 
ATOM     23  C   UNL     1     126.466 133.473 106.891  1.00  0.00     0.161 A 
ATOM     24  C   UNL     1     124.395 134.097 107.996  1.00  0.00     0.051 A 
ATOM     25  C   UNL     1     125.553 133.310 107.943  1.00  0.00     0.157 A 
BRANCH  23  26
ATOM     26  O   UNL     1     127.608 132.657 106.865  1.00  0.00    -0.493 OA
ATOM     27  C   UNL     1     127.747 131.491 106.060  1.00  0.00     0.278 C 
ENDBRANCH  23  26
BRANCH  25  28
ATOM     28  O   UNL     1     125.802 132.359 108.930  1.00  0.00    -0.504 OA
ATOM     29  H   UNL     1     125.833 132.610 109.912  1.00  0.00     0.293 HD
ENDBRANCH  25  28
ENDBRANCH  19  20
ENDBRANCH  16  18
ENDBRANCH   1  16
TORSDOF 10
ENDMDL
MODEL 7
REMARK VINA RESULT:    -5.173      2.220      7.771
REMARK INTER + INTRA:          -9.427
REMARK INTER:                  -7.499
REMARK INTRA:                  -1.928
REMARK UNBOUND:                -1.533
REMARK SMILES COc1cc(C=CC(=O)CC(=O)C=Cc2ccc(O)c(OC)c2)ccc1O
REMARK SMILES IDX 10 1 8 2 9 3 7 4 6 5 5 6 3 7 26 8 4 9 25 10 24 11 2 12 1 13
REMARK SMILES IDX 27 14 11 16 12 17 13 18 14 19 15 20 23 21 16 22 20 23 17 24
REMARK SMILES IDX 18 25 21 26 22 27 19 28
REMARK H PARENT 27 15 19 29
REMARK Flexibility Score: inf
ROOT
ATOM      1  C   UNL     1     127.108 134.121 103.965  1.00  0.00     0.160 C 
ENDROOT
BRANCH   1   2
ATOM      2  C   UNL     1     126.675 132.903 103.183  1.00  0.00     0.163 C 
ATOM      3  O   UNL     1     126.280 131.872 103.792  1.00  0.00    -0.294 OA
BRANCH   2   4
ATOM      4  C   UNL     1     126.716 132.863 101.706  1.00  0.00     0.048 C 
ATOM      5  C   UNL     1     126.674 133.962 100.936  1.00  0.00     0.012 C 
BRANCH   5   6
ATOM      6  C   UNL     1     126.728 133.927  99.454  1.00  0.00    -0.022 A 
ATOM      7  C   UNL     1     125.730 133.167  97.352  1.00  0.00     0.161 A 
ATOM      8  C   UNL     1     126.768 133.784  96.641  1.00  0.00     0.157 A 
ATOM      9  C   UNL     1     125.719 133.237  98.760  1.00  0.00     0.058 A 
ATOM     10  C   UNL     1     127.785 134.457  97.328  1.00  0.00     0.051 A 
ATOM     11  C   UNL     1     127.771 134.526  98.722  1.00  0.00     0.012 A 
BRANCH   7  12
ATOM     12  O   UNL     1     124.732 132.495  96.628  1.00  0.00    -0.493 OA
ATOM     13  C   UNL     1     123.342 132.796  96.700  1.00  0.00     0.278 C 
ENDBRANCH   7  12
BRANCH   8  14
ATOM     14  O   UNL     1     126.783 133.720  95.249  1.00  0.00    -0.504 OA
ATOM     15  H   UNL     1     126.713 132.836  94.758  1.00  0.00     0.293 HD
ENDBRANCH   8  14
ENDBRANCH   5   6
ENDBRANCH   2   4
ENDBRANCH   1   2
BRANCH   1  16
ATOM     16  C   UNL     1     125.946 134.870 104.552  1.00  0.00     0.163 C 
ATOM     17  O   UNL     1     125.624 134.660 105.753  1.00  0.00    -0.294 OA
BRANCH  16  18
ATOM     18  C   UNL     1     125.186 135.826 103.714  1.00  0.00     0.048 C 
ATOM     19  C   UNL     1     124.032 135.563 103.080  1.00  0.00     0.012 C 
BRANCH  19  20
ATOM     20  C   UNL     1     123.225 134.337 103.250  1.00  0.00    -0.022 A 
ATOM     21  C   UNL     1     123.222 133.370 102.233  1.00  0.00     0.058 A 
ATOM     22  C   UNL     1     122.387 134.169 104.363  1.00  0.00     0.012 A 
ATOM     23  C   UNL     1     122.428 132.212 102.348  1.00  0.00     0.161 A 
ATOM     24  C   UNL     1     121.600 133.022 104.484  1.00  0.00     0.051 A 
ATOM     25  C   UNL     1     121.621 132.042 103.483  1.00  0.00     0.157 A 
BRANCH  23  26
ATOM     26  O   UNL     1     122.412 131.214 101.361  1.00  0.00    -0.493 OA
ATOM     27  C   UNL     1     122.144 131.449  99.983  1.00  0.00     0.278 C 
ENDBRANCH  23  26
BRANCH  25  28
ATOM     28  O   UNL     1     120.838 130.896 103.606  1.00  0.00    -0.504 OA
ATOM     29  H   UNL     1     121.212 130.037 103.994  1.00  0.00     0.293 HD
ENDBRANCH  25  28
ENDBRANCH  19  20
ENDBRANCH  16  18
ENDBRANCH   1  16
TORSDOF 10
ENDMDL
MODEL 8
REMARK VINA RESULT:    -5.171      2.172      2.841
REMARK INTER + INTRA:          -9.424
REMARK INTER:                  -8.278
REMARK INTRA:                  -1.146
REMARK UNBOUND:                -1.533
REMARK SMILES COc1cc(C=CC(=O)CC(=O)C=Cc2ccc(O)c(OC)c2)ccc1O
REMARK SMILES IDX 10 1 8 2 9 3 7 4 6 5 5 6 3 7 26 8 4 9 25 10 24 11 2 12 1 13
REMARK SMILES IDX 27 14 11 16 12 17 13 18 14 19 15 20 23 21 16 22 20 23 17 24
REMARK SMILES IDX 18 25 21 26 22 27 19 28
REMARK H PARENT 27 15 19 29
REMARK Flexibility Score: inf
ROOT
ATOM      1  C   UNL     1     124.438 132.794  98.569  1.00  0.00     0.160 C 
ENDROOT
BRANCH   1   2
ATOM      2  C   UNL     1     125.468 132.800  99.675  1.00  0.00     0.163 C 
ATOM      3  O   UNL     1     126.601 132.280  99.482  1.00  0.00    -0.294 OA
BRANCH   2   4
ATOM      4  C   UNL     1     125.188 133.382 101.005  1.00  0.00     0.048 C 
ATOM      5  C   UNL     1     126.030 134.214 101.638  1.00  0.00     0.012 C 
BRANCH   5   6
ATOM      6  C   UNL     1     125.748 134.811 102.967  1.00  0.00    -0.022 A 
ATOM      7  C   UNL     1     125.531 134.499 105.385  1.00  0.00     0.161 A 
ATOM      8  C   UNL     1     125.196 135.853 105.525  1.00  0.00     0.157 A 
ATOM      9  C   UNL     1     125.800 133.983 104.101  1.00  0.00     0.058 A 
ATOM     10  C   UNL     1     125.125 136.678 104.396  1.00  0.00     0.051 A 
ATOM     11  C   UNL     1     125.393 136.164 103.127  1.00  0.00     0.012 A 
BRANCH   7  12
ATOM     12  O   UNL     1     125.585 133.702 106.539  1.00  0.00    -0.493 OA
ATOM     13  C   UNL     1     126.781 133.385 107.246  1.00  0.00     0.278 C 
ENDBRANCH   7  12
BRANCH   8  14
ATOM     14  O   UNL     1     124.932 136.370 106.791  1.00  0.00    -0.504 OA
ATOM     15  H   UNL     1     125.292 135.929 107.630  1.00  0.00     0.293 HD
ENDBRANCH   8  14
ENDBRANCH   5   6
ENDBRANCH   2   4
ENDBRANCH   1   2
BRANCH   1  16
ATOM     16  C   UNL     1     124.944 132.137  97.317  1.00  0.00     0.163 C 
ATOM     17  O   UNL     1     125.308 130.931  97.361  1.00  0.00    -0.294 OA
BRANCH  16  18
ATOM     18  C   UNL     1     125.026 132.913  96.058  1.00  0.00     0.048 C 
ATOM     19  C   UNL     1     125.981 133.806  95.753  1.00  0.00     0.012 C 
BRANCH  19  20
ATOM     20  C   UNL     1     127.212 134.042  96.536  1.00  0.00    -0.022 A 
ATOM     21  C   UNL     1     128.296 133.165  96.391  1.00  0.00     0.058 A 
ATOM     22  C   UNL     1     127.278 135.069  97.490  1.00  0.00     0.012 A 
ATOM     23  C   UNL     1     129.466 133.340  97.158  1.00  0.00     0.161 A 
ATOM     24  C   UNL     1     128.435 135.249  98.250  1.00  0.00     0.051 A 
ATOM     25  C   UNL     1     129.530 134.391  98.083  1.00  0.00     0.157 A 
BRANCH  23  26
ATOM     26  O   UNL     1     130.579 132.494  97.029  1.00  0.00    -0.493 OA
ATOM     27  C   UNL     1     131.571 132.617  96.015  1.00  0.00     0.278 C 
ENDBRANCH  23  26
BRANCH  25  28
ATOM     28  O   UNL     1     130.687 134.574  98.839  1.00  0.00    -0.504 OA
ATOM     29  H   UNL     1     131.050 133.840  99.437  1.00  0.00     0.293 HD
ENDBRANCH  25  28
ENDBRANCH  19  20
ENDBRANCH  16  18
ENDBRANCH   1  16
TORSDOF 10
ENDMDL
MODEL 9
REMARK VINA RESULT:    -5.141      1.809      4.480
REMARK INTER + INTRA:          -9.379
REMARK INTER:                  -7.437
REMARK INTRA:                  -1.943
REMARK UNBOUND:                -1.533
REMARK SMILES COc1cc(C=CC(=O)CC(=O)C=Cc2ccc(O)c(OC)c2)ccc1O
REMARK SMILES IDX 10 1 8 2 9 3 7 4 6 5 5 6 3 7 26 8 4 9 25 10 24 11 2 12 1 13
REMARK SMILES IDX 27 14 11 16 12 17 13 18 14 19 15 20 23 21 16 22 20 23 17 24
REMARK SMILES IDX 18 25 21 26 22 27 19 28
REMARK H PARENT 27 15 19 29
REMARK Flexibility Score: inf
ROOT
ATOM      1  C   UNL     1     129.134 131.591  98.196  1.00  0.00     0.160 C 
ENDROOT
BRANCH   1   2
ATOM      2  C   UNL     1     129.360 131.743  99.682  1.00  0.00     0.163 C 
ATOM      3  O   UNL     1     130.532 131.720 100.146  1.00  0.00    -0.294 OA
BRANCH   2   4
ATOM      4  C   UNL     1     128.240 131.900 100.635  1.00  0.00     0.048 C 
ATOM      5  C   UNL     1     128.089 132.973 101.426  1.00  0.00     0.012 C 
BRANCH   5   6
ATOM      6  C   UNL     1     126.959 133.141 102.374  1.00  0.00    -0.022 A 
ATOM      7  C   UNL     1     125.486 134.657 103.608  1.00  0.00     0.161 A 
ATOM      8  C   UNL     1     124.844 133.554 104.187  1.00  0.00     0.157 A 
ATOM      9  C   UNL     1     126.548 134.443 102.707  1.00  0.00     0.058 A 
ATOM     10  C   UNL     1     125.261 132.254 103.874  1.00  0.00     0.051 A 
ATOM     11  C   UNL     1     126.312 132.047 102.979  1.00  0.00     0.012 A 
BRANCH   7  12
ATOM     12  O   UNL     1     125.044 135.944 103.953  1.00  0.00    -0.493 OA
ATOM     13  C   UNL     1     125.338 137.124 103.212  1.00  0.00     0.278 C 
ENDBRANCH   7  12
BRANCH   8  14
ATOM     14  O   UNL     1     123.792 133.758 105.078  1.00  0.00    -0.504 OA
ATOM     15  H   UNL     1     123.766 134.565 105.691  1.00  0.00     0.293 HD
ENDBRANCH   8  14
ENDBRANCH   5   6
ENDBRANCH   2   4
ENDBRANCH   1   2
BRANCH   1  16
ATOM     16  C   UNL     1     129.353 132.875  97.448  1.00  0.00     0.163 C 
ATOM     17  O   UNL     1     129.597 132.831  96.212  1.00  0.00    -0.294 OA
BRANCH  16  18
ATOM     18  C   UNL     1     129.299 134.168  98.169  1.00  0.00     0.048 C 
ATOM     19  C   UNL     1     128.227 134.972  98.249  1.00  0.00     0.012 C 
BRANCH  19  20
ATOM     20  C   UNL     1     126.866 134.631  97.786  1.00  0.00    -0.022 A 
ATOM     21  C   UNL     1     126.049 133.822  98.590  1.00  0.00     0.058 A 
ATOM     22  C   UNL     1     126.414 135.020  96.515  1.00  0.00     0.012 A 
ATOM     23  C   UNL     1     124.764 133.445  98.153  1.00  0.00     0.161 A 
ATOM     24  C   UNL     1     125.140 134.651  96.078  1.00  0.00     0.051 A 
ATOM     25  C   UNL     1     124.313 133.869  96.895  1.00  0.00     0.157 A 
BRANCH  23  26
ATOM     26  O   UNL     1     123.910 132.652  98.937  1.00  0.00    -0.493 OA
ATOM     27  C   UNL     1     123.616 132.898 100.308  1.00  0.00     0.278 C 
ENDBRANCH  23  26
BRANCH  25  28
ATOM     28  O   UNL     1     123.040 133.505  96.461  1.00  0.00    -0.504 OA
ATOM     29  H   UNL     1     122.898 133.018  95.583  1.00  0.00     0.293 HD
ENDBRANCH  25  28
ENDBRANCH  19  20
ENDBRANCH  16  18
ENDBRANCH   1  16
TORSDOF 10
ENDMDL
