MODEL 1
REMARK VINA RESULT:    -4.987      0.000      0.000
REMARK INTER + INTRA:          -7.352
REMARK INTER:                  -7.028
REMARK INTRA:                  -0.324
REMARK UNBOUND:                -0.324
REMARK SMILES CCCCCCCCC(=O)[O-]
REMARK SMILES IDX 6 1 7 2 8 3 9 4 10 5 11 6 5 7 4 8 3 9 2 10 1 11
REMARK H PARENT
REMARK Flexibility Score: inf
ROOT
ATOM      1  C   UNL     1      -4.646 -31.509 -52.837  1.00  0.00     0.000 C 
ENDROOT
BRANCH   1   2
ATOM      2  C   UNL     1      -3.185 -31.957 -52.687  1.00  0.00     0.006 C 
BRANCH   2   3
ATOM      3  C   UNL     1      -3.067 -33.114 -51.690  1.00  0.00     0.053 C 
BRANCH   3   4
ATOM      4  C   UNL     1      -1.890 -32.913 -50.788  1.00  0.00     0.041 C 
ATOM      5  O   UNL     1      -1.180 -31.878 -50.895  1.00  0.00    -0.550 OA
ATOM      6  O   UNL     1      -1.546 -33.891 -49.864  1.00  0.00    -0.550 OA
ENDBRANCH   3   4
ENDBRANCH   2   3
ENDBRANCH   1   2
BRANCH   1   7
ATOM      7  C   UNL     1      -5.540 -32.011 -51.692  1.00  0.00     0.000 C 
BRANCH   7   8
ATOM      8  C   UNL     1      -5.928 -30.896 -50.711  1.00  0.00    -0.000 C 
BRANCH   8   9
ATOM      9  C   UNL     1      -7.080 -31.342 -49.801  1.00  0.00    -0.000 C 
BRANCH   9  10
ATOM     10  C   UNL     1      -7.511 -30.209 -48.863  1.00  0.00    -0.003 C 
ATOM     11  C   UNL     1      -6.564 -29.017 -48.966  1.00  0.00     0.004 C 
ENDBRANCH   9  10
ENDBRANCH   8   9
ENDBRANCH   7   8
ENDBRANCH   1   7
TORSDOF 7
ENDMDL
MODEL 2
REMARK VINA RESULT:    -4.922      2.869      3.749
REMARK INTER + INTRA:          -7.260
REMARK INTER:                  -6.625
REMARK INTRA:                  -0.635
REMARK UNBOUND:                -0.324
REMARK SMILES CCCCCCCCC(=O)[O-]
REMARK SMILES IDX 6 1 7 2 8 3 9 4 10 5 11 6 5 7 4 8 3 9 2 10 1 11
REMARK H PARENT
REMARK Flexibility Score: inf
ROOT
ATOM      1  C   UNL     1      -4.298 -31.892 -51.363  1.00  0.00     0.000 C 
ENDROOT
BRANCH   1   2
ATOM      2  C   UNL     1      -3.883 -30.726 -52.272  1.00  0.00     0.006 C 
BRANCH   2   3
ATOM      3  C   UNL     1      -5.112 -29.978 -52.799  1.00  0.00     0.053 C 
BRANCH   3   4
ATOM      4  C   UNL     1      -5.187 -30.078 -54.290  1.00  0.00     0.041 C 
ATOM      5  O   UNL     1      -4.856 -31.145 -54.872  1.00  0.00    -0.550 OA
ATOM      6  O   UNL     1      -5.574 -28.975 -55.041  1.00  0.00    -0.550 OA
ENDBRANCH   3   4
ENDBRANCH   2   3
ENDBRANCH   1   2
BRANCH   1   7
ATOM      7  C   UNL     1      -5.799 -31.879 -51.032  1.00  0.00     0.000 C 
BRANCH   7   8
ATOM      8  C   UNL     1      -6.080 -31.526 -49.565  1.00  0.00    -0.000 C 
BRANCH   8   9
ATOM      9  C   UNL     1      -7.185 -30.467 -49.457  1.00  0.00    -0.000 C 
BRANCH   9  10
ATOM     10  C   UNL     1      -6.663 -29.193 -48.783  1.00  0.00    -0.003 C 
ATOM     11  C   UNL     1      -6.172 -28.183 -49.817  1.00  0.00     0.004 C 
ENDBRANCH   9  10
ENDBRANCH   8   9
ENDBRANCH   7   8
ENDBRANCH   1   7
TORSDOF 7
ENDMDL
MODEL 3
REMARK VINA RESULT:    -4.901      3.552      5.356
REMARK INTER + INTRA:          -7.231
REMARK INTER:                  -6.755
REMARK INTRA:                  -0.476
REMARK UNBOUND:                -0.324
REMARK SMILES CCCCCCCCC(=O)[O-]
REMARK SMILES IDX 6 1 7 2 8 3 9 4 10 5 11 6 5 7 4 8 3 9 2 10 1 11
REMARK H PARENT
REMARK Flexibility Score: inf
ROOT
ATOM      1  C   UNL     1      -5.879 -32.095 -51.310  1.00  0.00     0.000 C 
ENDROOT
BRANCH   1   2
ATOM      2  C   UNL     1      -6.153 -31.104 -50.169  1.00  0.00     0.006 C 
BRANCH   2   3
ATOM      3  C   UNL     1      -7.477 -31.426 -49.470  1.00  0.00     0.053 C 
BRANCH   3   4
ATOM      4  C   UNL     1      -8.006 -30.217 -48.766  1.00  0.00     0.041 C 
ATOM      5  O   UNL     1      -9.172 -30.221 -48.289  1.00  0.00    -0.550 OA
ATOM      6  O   UNL     1      -7.232 -29.067 -48.681  1.00  0.00    -0.550 OA
ENDBRANCH   3   4
ENDBRANCH   2   3
ENDBRANCH   1   2
BRANCH   1   7
ATOM      7  C   UNL     1      -4.381 -32.247 -51.617  1.00  0.00     0.000 C 
BRANCH   7   8
ATOM      8  C   UNL     1      -3.989 -31.638 -52.970  1.00  0.00    -0.000 C 
BRANCH   8   9
ATOM      9  C   UNL     1      -5.224 -31.426 -53.855  1.00  0.00    -0.000 C 
BRANCH   9  10
ATOM     10  C   UNL     1      -5.318 -29.972 -54.330  1.00  0.00    -0.003 C 
ATOM     11  C   UNL     1      -4.561 -29.034 -53.393  1.00  0.00     0.004 C 
ENDBRANCH   9  10
ENDBRANCH   8   9
ENDBRANCH   7   8
ENDBRANCH   1   7
TORSDOF 7
ENDMDL
MODEL 4
REMARK VINA RESULT:    -4.817      3.241      5.121
REMARK INTER + INTRA:          -7.111
REMARK INTER:                  -6.498
REMARK INTRA:                  -0.613
REMARK UNBOUND:                -0.324
REMARK SMILES CCCCCCCCC(=O)[O-]
REMARK SMILES IDX 6 1 7 2 8 3 9 4 10 5 11 6 5 7 4 8 3 9 2 10 1 11
REMARK H PARENT
REMARK Flexibility Score: inf
ROOT
ATOM      1  C   UNL     1      -4.020 -32.366 -51.096  1.00  0.00     0.000 C 
ENDROOT
BRANCH   1   2
ATOM      2  C   UNL     1      -5.243 -32.176 -52.005  1.00  0.00     0.006 C 
BRANCH   2   3
ATOM      3  C   UNL     1      -5.230 -30.789 -52.656  1.00  0.00     0.053 C 
BRANCH   3   4
ATOM      4  C   UNL     1      -4.972 -30.902 -54.125  1.00  0.00     0.041 C 
ATOM      5  O   UNL     1      -4.462 -31.952 -54.600  1.00  0.00    -0.550 OA
ATOM      6  O   UNL     1      -5.245 -29.829 -54.964  1.00  0.00    -0.550 OA
ENDBRANCH   3   4
ENDBRANCH   2   3
ENDBRANCH   1   2
BRANCH   1   7
ATOM      7  C   UNL     1      -3.037 -33.417 -51.639  1.00  0.00     0.000 C 
BRANCH   7   8
ATOM      8  C   UNL     1      -1.768 -32.790 -52.232  1.00  0.00    -0.000 C 
BRANCH   8   9
ATOM      9  C   UNL     1      -1.350 -31.545 -51.440  1.00  0.00    -0.000 C 
BRANCH   9  10
ATOM     10  C   UNL     1      -1.070 -30.365 -52.378  1.00  0.00    -0.003 C 
ATOM     11  C   UNL     1      -0.615 -29.135 -51.597  1.00  0.00     0.004 C 
ENDBRANCH   9  10
ENDBRANCH   8   9
ENDBRANCH   7   8
ENDBRANCH   1   7
TORSDOF 7
ENDMDL
MODEL 5
REMARK VINA RESULT:    -4.807      2.889      4.519
REMARK INTER + INTRA:          -7.098
REMARK INTER:                  -6.534
REMARK INTRA:                  -0.564
REMARK UNBOUND:                -0.324
REMARK SMILES CCCCCCCCC(=O)[O-]
REMARK SMILES IDX 6 1 7 2 8 3 9 4 10 5 11 6 5 7 4 8 3 9 2 10 1 11
REMARK H PARENT
REMARK Flexibility Score: inf
ROOT
ATOM      1  C   UNL     1      -6.098 -27.851 -50.565  1.00  0.00     0.000 C 
ENDROOT
BRANCH   1   2
ATOM      2  C   UNL     1      -5.010 -28.389 -51.506  1.00  0.00     0.006 C 
BRANCH   2   3
ATOM      3  C   UNL     1      -5.361 -28.100 -52.969  1.00  0.00     0.053 C 
BRANCH   3   4
ATOM      4  C   UNL     1      -4.887 -29.211 -53.852  1.00  0.00     0.041 C 
ATOM      5  O   UNL     1      -5.461 -29.437 -54.950  1.00  0.00    -0.550 OA
ATOM      6  O   UNL     1      -3.844 -30.030 -53.439  1.00  0.00    -0.550 OA
ENDBRANCH   3   4
ENDBRANCH   2   3
ENDBRANCH   1   2
BRANCH   1   7
ATOM      7  C   UNL     1      -6.227 -28.678 -49.275  1.00  0.00     0.000 C 
BRANCH   7   8
ATOM      8  C   UNL     1      -7.150 -29.893 -49.442  1.00  0.00    -0.000 C 
BRANCH   8   9
ATOM      9  C   UNL     1      -6.346 -31.199 -49.417  1.00  0.00    -0.000 C 
BRANCH   9  10
ATOM     10  C   UNL     1      -6.060 -31.697 -50.839  1.00  0.00    -0.003 C 
ATOM     11  C   UNL     1      -4.661 -32.299 -50.941  1.00  0.00     0.004 C 
ENDBRANCH   9  10
ENDBRANCH   8   9
ENDBRANCH   7   8
ENDBRANCH   1   7
TORSDOF 7
ENDMDL
MODEL 6
REMARK VINA RESULT:    -4.804      3.539      5.502
REMARK INTER + INTRA:          -7.094
REMARK INTER:                  -6.524
REMARK INTRA:                  -0.570
REMARK UNBOUND:                -0.324
REMARK SMILES CCCCCCCCC(=O)[O-]
REMARK SMILES IDX 6 1 7 2 8 3 9 4 10 5 11 6 5 7 4 8 3 9 2 10 1 11
REMARK H PARENT
REMARK Flexibility Score: inf
ROOT
ATOM      1  C   UNL     1      -7.131 -31.116 -49.723  1.00  0.00     0.000 C 
ENDROOT
BRANCH   1   2
ATOM      2  C   UNL     1      -7.258 -29.624 -49.380  1.00  0.00     0.006 C 
BRANCH   2   3
ATOM      3  C   UNL     1      -5.999 -28.858 -49.797  1.00  0.00     0.053 C 
BRANCH   3   4
ATOM      4  C   UNL     1      -6.354 -27.487 -50.278  1.00  0.00     0.041 C 
ATOM      5  O   UNL     1      -6.806 -26.630 -49.473  1.00  0.00    -0.550 OA
ATOM      6  O   UNL     1      -6.236 -27.171 -51.626  1.00  0.00    -0.550 OA
ENDBRANCH   3   4
ENDBRANCH   2   3
ENDBRANCH   1   2
BRANCH   1   7
ATOM      7  C   UNL     1      -5.737 -31.485 -50.253  1.00  0.00     0.000 C 
BRANCH   7   8
ATOM      8  C   UNL     1      -5.787 -32.160 -51.632  1.00  0.00    -0.000 C 
BRANCH   8   9
ATOM      9  C   UNL     1      -4.502 -31.886 -52.424  1.00  0.00    -0.000 C 
BRANCH   9  10
ATOM     10  C   UNL     1      -4.440 -30.424 -52.881  1.00  0.00    -0.003 C 
ATOM     11  C   UNL     1      -5.409 -30.163 -54.031  1.00  0.00     0.004 C 
ENDBRANCH   9  10
ENDBRANCH   8   9
ENDBRANCH   7   8
ENDBRANCH   1   7
TORSDOF 7
ENDMDL
MODEL 7
REMARK VINA RESULT:    -4.794      1.718      2.606
REMARK INTER + INTRA:          -7.080
REMARK INTER:                  -6.539
REMARK INTRA:                  -0.541
REMARK UNBOUND:                -0.324
REMARK SMILES CCCCCCCCC(=O)[O-]
REMARK SMILES IDX 6 1 7 2 8 3 9 4 10 5 11 6 5 7 4 8 3 9 2 10 1 11
REMARK H PARENT
REMARK Flexibility Score: inf
ROOT
ATOM      1  C   UNL     1      -5.344 -31.916 -51.827  1.00  0.00     0.000 C 
ENDROOT
BRANCH   1   2
ATOM      2  C   UNL     1      -4.277 -32.745 -51.097  1.00  0.00     0.006 C 
BRANCH   2   3
ATOM      3  C   UNL     1      -2.947 -32.716 -51.856  1.00  0.00     0.053 C 
BRANCH   3   4
ATOM      4  C   UNL     1      -1.797 -32.718 -50.899  1.00  0.00     0.041 C 
ATOM      5  O   UNL     1      -0.964 -31.773 -50.907  1.00  0.00    -0.550 OA
ATOM      6  O   UNL     1      -1.615 -33.789 -50.033  1.00  0.00    -0.550 OA
ENDBRANCH   3   4
ENDBRANCH   2   3
ENDBRANCH   1   2
BRANCH   1   7
ATOM      7  C   UNL     1      -5.056 -31.772 -53.330  1.00  0.00     0.000 C 
BRANCH   7   8
ATOM      8  C   UNL     1      -5.252 -30.335 -53.835  1.00  0.00    -0.000 C 
BRANCH   8   9
ATOM      9  C   UNL     1      -4.272 -29.375 -53.150  1.00  0.00    -0.000 C 
BRANCH   9  10
ATOM     10  C   UNL     1      -4.992 -28.117 -52.650  1.00  0.00    -0.003 C 
ATOM     11  C   UNL     1      -5.459 -28.286 -51.206  1.00  0.00     0.004 C 
ENDBRANCH   9  10
ENDBRANCH   8   9
ENDBRANCH   7   8
ENDBRANCH   1   7
TORSDOF 7
ENDMDL
MODEL 8
REMARK VINA RESULT:    -4.737      3.327      5.536
REMARK INTER + INTRA:          -6.999
REMARK INTER:                  -6.619
REMARK INTRA:                  -0.381
REMARK UNBOUND:                -0.324
REMARK SMILES CCCCCCCCC(=O)[O-]
REMARK SMILES IDX 6 1 7 2 8 3 9 4 10 5 11 6 5 7 4 8 3 9 2 10 1 11
REMARK H PARENT
REMARK Flexibility Score: inf
ROOT
ATOM      1  C   UNL     1      -5.640 -32.213 -51.363  1.00  0.00     0.000 C 
ENDROOT
BRANCH   1   2
ATOM      2  C   UNL     1      -6.097 -30.951 -50.616  1.00  0.00     0.006 C 
BRANCH   2   3
ATOM      3  C   UNL     1      -7.208 -31.280 -49.615  1.00  0.00     0.053 C 
BRANCH   3   4
ATOM      4  C   UNL     1      -7.764 -30.027 -49.017  1.00  0.00     0.041 C 
ATOM      5  O   UNL     1      -7.124 -28.945 -49.104  1.00  0.00    -0.550 OA
ATOM      6  O   UNL     1      -8.965 -30.062 -48.320  1.00  0.00    -0.550 OA
ENDBRANCH   3   4
ENDBRANCH   2   3
ENDBRANCH   1   2
BRANCH   1   7
ATOM      7  C   UNL     1      -5.139 -31.911 -52.784  1.00  0.00     0.000 C 
BRANCH   7   8
ATOM      8  C   UNL     1      -3.717 -31.331 -52.801  1.00  0.00    -0.000 C 
BRANCH   8   9
ATOM      9  C   UNL     1      -2.670 -32.450 -52.881  1.00  0.00    -0.000 C 
BRANCH   9  10
ATOM     10  C   UNL     1      -1.982 -32.657 -51.526  1.00  0.00    -0.003 C 
ATOM     11  C   UNL     1      -2.443 -33.954 -50.866  1.00  0.00     0.004 C 
ENDBRANCH   9  10
ENDBRANCH   8   9
ENDBRANCH   7   8
ENDBRANCH   1   7
TORSDOF 7
ENDMDL
MODEL 9
REMARK VINA RESULT:    -4.704      1.339      1.856
REMARK INTER + INTRA:          -6.952
REMARK INTER:                  -6.638
REMARK INTRA:                  -0.314
REMARK UNBOUND:                -0.324
REMARK SMILES CCCCCCCCC(=O)[O-]
REMARK SMILES IDX 6 1 7 2 8 3 9 4 10 5 11 6 5 7 4 8 3 9 2 10 1 11
REMARK H PARENT
REMARK Flexibility Score: inf
ROOT
ATOM      1  C   UNL     1      -4.612 -32.608 -51.663  1.00  0.00     0.000 C 
ENDROOT
BRANCH   1   2
ATOM      2  C   UNL     1      -3.301 -32.827 -50.894  1.00  0.00     0.006 C 
BRANCH   2   3
ATOM      3  C   UNL     1      -2.312 -33.652 -51.723  1.00  0.00     0.053 C 
BRANCH   3   4
ATOM      4  C   UNL     1      -1.248 -32.773 -52.300  1.00  0.00     0.041 C 
ATOM      5  O   UNL     1      -0.188 -32.555 -51.656  1.00  0.00    -0.550 OA
ATOM      6  O   UNL     1      -1.449 -32.153 -53.527  1.00  0.00    -0.550 OA
ENDBRANCH   3   4
ENDBRANCH   2   3
ENDBRANCH   1   2
BRANCH   1   7
ATOM      7  C   UNL     1      -4.759 -31.171 -52.188  1.00  0.00     0.000 C 
BRANCH   7   8
ATOM      8  C   UNL     1      -5.601 -30.285 -51.258  1.00  0.00    -0.000 C 
BRANCH   8   9
ATOM      9  C   UNL     1      -6.357 -31.133 -50.229  1.00  0.00    -0.000 C 
BRANCH   9  10
ATOM     10  C   UNL     1      -6.831 -30.275 -49.050  1.00  0.00    -0.003 C 
ATOM     11  C   UNL     1      -8.235 -30.675 -48.605  1.00  0.00     0.004 C 
ENDBRANCH   9  10
ENDBRANCH   8   9
ENDBRANCH   7   8
ENDBRANCH   1   7
TORSDOF 7
ENDMDL
