MODEL 1
REMARK VINA RESULT:    -3.936      0.000      0.000
REMARK INTER + INTRA:          -6.283
REMARK INTER:                  -6.008
REMARK INTRA:                  -0.275
REMARK UNBOUND:                -0.275
REMARK SMILES CC1=CCC[C@H](C)C(=O)C[C@@H](C(C)C)C(=O)C1
REMARK SMILES IDX 8 1 9 2 6 3 7 4 5 5 4 6 3 7 2 8 1 9 10 11 11 12 15 13 16 14
REMARK SMILES IDX 17 15 12 17 13 18 14 19
REMARK H PARENT
REMARK Flexibility Score: 70.00
ROOT
ATOM      1  C   UNL     1     -13.932 -21.841  21.572  1.00  0.00     0.136 C 
ATOM      2  O   UNL     1     -14.609 -21.177  20.802  1.00  0.00    -0.299 OA
ENDROOT
BRANCH   1   3
ATOM      3  C   UNL     1     -12.460 -22.048  21.222  1.00  0.00     0.053 C 
ATOM      4  C   UNL     1     -12.358 -22.454  19.745  1.00  0.00     0.016 C 
BRANCH   3   5
ATOM      5  C   UNL     1     -11.502 -20.858  21.500  1.00  0.00     0.015 C 
BRANCH   5   6
ATOM      6  C   UNL     1     -10.741 -20.952  22.845  1.00  0.00     0.028 C 
BRANCH   6   7
ATOM      7  C   UNL     1     -10.744 -22.366  23.379  1.00  0.00    -0.028 C 
ATOM      8  C   UNL     1     -11.365 -22.783  24.507  1.00  0.00    -0.070 CG0
ATOM      9  C   UNL     1     -11.204 -24.228  24.910  1.00  0.00     0.039 C 
ATOM     10  G   UNL     1     -12.225 -21.873  25.365  1.00  0.00     0.000 G0
ENDBRANCH   6   7
ENDBRANCH   5   6
ENDBRANCH   3   5
ENDBRANCH   1   3
BRANCH   1  11
ATOM     11  C   UNL     1     -14.599 -22.361  22.831  1.00  0.00     0.087 C 
BRANCH  11  12
ATOM     12  C   UNL     1     -14.466 -21.410  24.056  1.00  0.00     0.066 C 
BRANCH  12  13
ATOM     13  C   UNL     1     -13.702 -22.108  25.170  1.00  0.00     0.140 C 
ATOM     14  O   UNL     1     -14.298 -22.848  25.941  1.00  0.00    -0.299 OA
BRANCH  13  15
ATOM     15  C   UNL     1     -12.227 -21.889  25.374  1.00  0.00     0.106 CG0
ATOM     16  G   UNL     1     -11.380 -22.794  24.497  1.00  0.00     0.000 G0
ENDBRANCH  13  15
ENDBRANCH  12  13
BRANCH  12  17
ATOM     17  C   UNL     1     -15.820 -20.821  24.578  1.00  0.00    -0.006 C 
ATOM     18  C   UNL     1     -16.899 -20.758  23.483  1.00  0.00     0.008 C 
ATOM     19  C   UNL     1     -15.613 -19.407  25.153  1.00  0.00     0.008 C 
ENDBRANCH  12  17
ENDBRANCH  11  12
ENDBRANCH   1  11
TORSDOF 1
ENDMDL
MODEL 2
REMARK VINA RESULT:    -3.754      2.015      2.775
REMARK INTER + INTRA:          -6.005
REMARK INTER:                  -5.855
REMARK INTRA:                  -0.150
REMARK UNBOUND:                -0.275
REMARK SMILES CC1=CCC[C@H](C)C(=O)C[C@@H](C(C)C)C(=O)C1
REMARK SMILES IDX 8 1 9 2 6 3 7 4 5 5 4 6 3 7 2 8 1 9 10 11 11 12 15 13 16 14
REMARK SMILES IDX 17 15 12 17 13 18 14 19
REMARK H PARENT
REMARK Flexibility Score: 70.00
ROOT
ATOM      1  C   UNL     1     -11.533 -22.629  20.476  1.00  0.00     0.136 C 
ATOM      2  O   UNL     1     -12.222 -22.988  19.533  1.00  0.00    -0.299 OA
ENDROOT
BRANCH   1   3
ATOM      3  C   UNL     1     -10.287 -21.803  20.167  1.00  0.00     0.053 C 
ATOM      4  C   UNL     1      -9.558 -22.439  18.975  1.00  0.00     0.016 C 
BRANCH   3   5
ATOM      5  C   UNL     1     -10.502 -20.289  19.896  1.00  0.00     0.015 C 
BRANCH   5   6
ATOM      6  C   UNL     1     -10.229 -19.377  21.117  1.00  0.00     0.028 C 
BRANCH   6   7
ATOM      7  C   UNL     1      -9.324 -20.058  22.118  1.00  0.00    -0.028 C 
ATOM      8  C   UNL     1      -9.663 -20.401  23.383  1.00  0.00    -0.070 CG0
ATOM      9  C   UNL     1      -8.601 -21.021  24.256  1.00  0.00     0.039 C 
ATOM     10  G   UNL     1     -11.058 -20.207  23.950  1.00  0.00     0.000 G0
ENDBRANCH   6   7
ENDBRANCH   5   6
ENDBRANCH   3   5
ENDBRANCH   1   3
BRANCH   1  11
ATOM     11  C   UNL     1     -12.000 -22.994  21.872  1.00  0.00     0.087 C 
BRANCH  11  12
ATOM     12  C   UNL     1     -12.690 -21.825  22.634  1.00  0.00     0.066 C 
BRANCH  12  13
ATOM     13  C   UNL     1     -11.884 -21.470  23.874  1.00  0.00     0.140 C 
ATOM     14  O   UNL     1     -11.919 -22.207  24.850  1.00  0.00    -0.299 OA
BRANCH  13  15
ATOM     15  C   UNL     1     -11.061 -20.212  23.948  1.00  0.00     0.106 CG0
ATOM     16  G   UNL     1      -9.670 -20.395  23.368  1.00  0.00     0.000 G0
ENDBRANCH  13  15
ENDBRANCH  12  13
BRANCH  12  17
ATOM     17  C   UNL     1     -14.196 -22.071  22.986  1.00  0.00    -0.006 C 
ATOM     18  C   UNL     1     -15.096 -22.112  21.739  1.00  0.00     0.008 C 
ATOM     19  C   UNL     1     -14.717 -20.979  23.940  1.00  0.00     0.008 C 
ENDBRANCH  12  17
ENDBRANCH  11  12
ENDBRANCH   1  11
TORSDOF 1
ENDMDL
MODEL 3
REMARK VINA RESULT:    -3.670      2.001      4.334
REMARK INTER + INTRA:          -5.875
REMARK INTER:                  -5.824
REMARK INTRA:                  -0.052
REMARK UNBOUND:                -0.275
REMARK SMILES CC1=CCC[C@H](C)C(=O)C[C@@H](C(C)C)C(=O)C1
REMARK SMILES IDX 8 1 9 2 6 3 7 4 5 5 4 6 3 7 2 8 1 9 10 11 11 12 15 13 16 14
REMARK SMILES IDX 17 15 12 17 13 18 14 19
REMARK H PARENT
REMARK Flexibility Score: 70.00
ROOT
ATOM      1  C   UNL     1     -13.593 -21.508  21.718  1.00  0.00     0.136 C 
ATOM      2  O   UNL     1     -13.824 -21.789  20.552  1.00  0.00    -0.299 OA
ENDROOT
BRANCH   1   3
ATOM      3  C   UNL     1     -14.788 -21.322  22.650  1.00  0.00     0.053 C 
ATOM      4  C   UNL     1     -16.064 -21.737  21.903  1.00  0.00     0.016 C 
BRANCH   3   5
ATOM      5  C   UNL     1     -14.728 -22.054  24.018  1.00  0.00     0.015 C 
BRANCH   5   6
ATOM      6  C   UNL     1     -14.126 -23.479  23.954  1.00  0.00     0.028 C 
BRANCH   6   7
ATOM      7  C   UNL     1     -13.016 -23.652  24.965  1.00  0.00    -0.028 C 
ATOM      8  C   UNL     1     -11.771 -24.114  24.699  1.00  0.00    -0.070 CG0
ATOM      9  C   UNL     1     -10.815 -24.273  25.855  1.00  0.00     0.039 C 
ATOM     10  G   UNL     1     -11.295 -24.458  23.300  1.00  0.00     0.000 G0
ENDBRANCH   6   7
ENDBRANCH   5   6
ENDBRANCH   3   5
ENDBRANCH   1   3
BRANCH   1  11
ATOM     11  C   UNL     1     -12.142 -21.415  22.148  1.00  0.00     0.087 C 
BRANCH  11  12
ATOM     12  C   UNL     1     -11.226 -22.508  21.525  1.00  0.00     0.066 C 
BRANCH  12  13
ATOM     13  C   UNL     1     -10.569 -23.322  22.629  1.00  0.00     0.140 C 
ATOM     14  O   UNL     1      -9.417 -23.075  22.960  1.00  0.00    -0.299 OA
BRANCH  13  15
ATOM     15  C   UNL     1     -11.290 -24.454  23.313  1.00  0.00     0.106 CG0
ATOM     16  G   UNL     1     -11.767 -24.080  24.704  1.00  0.00     0.000 G0
ENDBRANCH  13  15
ENDBRANCH  12  13
BRANCH  12  17
ATOM     17  C   UNL     1     -10.165 -21.972  20.507  1.00  0.00    -0.006 C 
ATOM     18  C   UNL     1     -10.042 -20.439  20.532  1.00  0.00     0.008 C 
ATOM     19  C   UNL     1     -10.511 -22.419  19.073  1.00  0.00     0.008 C 
ENDBRANCH  12  17
ENDBRANCH  11  12
ENDBRANCH   1  11
TORSDOF 1
ENDMDL
MODEL 4
REMARK VINA RESULT:    -3.668      2.159      2.927
REMARK INTER + INTRA:          -5.872
REMARK INTER:                  -5.702
REMARK INTRA:                  -0.171
REMARK UNBOUND:                -0.275
REMARK SMILES CC1=CCC[C@H](C)C(=O)C[C@@H](C(C)C)C(=O)C1
REMARK SMILES IDX 8 1 9 2 6 3 7 4 5 5 4 6 3 7 2 8 1 9 10 11 11 12 15 13 16 14
REMARK SMILES IDX 17 15 12 17 13 18 14 19
REMARK H PARENT
REMARK Flexibility Score: 70.00
ROOT
ATOM      1  C   UNL     1     -11.391 -21.957  19.901  1.00  0.00     0.136 C 
ATOM      2  O   UNL     1     -11.679 -20.770  19.920  1.00  0.00    -0.299 OA
ENDROOT
BRANCH   1   3
ATOM      3  C   UNL     1     -10.101 -22.361  19.190  1.00  0.00     0.053 C 
ATOM      4  C   UNL     1      -9.981 -21.550  17.891  1.00  0.00     0.016 C 
BRANCH   3   5
ATOM      5  C   UNL     1      -8.785 -22.233  20.004  1.00  0.00     0.015 C 
BRANCH   5   6
ATOM      6  C   UNL     1      -8.989 -22.135  21.536  1.00  0.00     0.028 C 
BRANCH   6   7
ATOM      7  C   UNL     1      -8.811 -23.481  22.200  1.00  0.00    -0.028 C 
ATOM      8  C   UNL     1      -9.558 -23.962  23.222  1.00  0.00    -0.070 CG0
ATOM      9  C   UNL     1      -9.189 -25.308  23.794  1.00  0.00     0.039 C 
ATOM     10  G   UNL     1     -10.750 -23.221  23.799  1.00  0.00     0.000 G0
ENDBRANCH   6   7
ENDBRANCH   5   6
ENDBRANCH   3   5
ENDBRANCH   1   3
BRANCH   1  11
ATOM     11  C   UNL     1     -12.313 -22.920  20.625  1.00  0.00     0.087 C 
BRANCH  11  12
ATOM     12  C   UNL     1     -12.644 -22.500  22.087  1.00  0.00     0.066 C 
BRANCH  12  13
ATOM     13  C   UNL     1     -12.052 -23.507  23.060  1.00  0.00     0.140 C 
ATOM     14  O   UNL     1     -12.634 -24.563  23.266  1.00  0.00    -0.299 OA
BRANCH  13  15
ATOM     15  C   UNL     1     -10.775 -23.227  23.808  1.00  0.00     0.106 CG0
ATOM     16  G   UNL     1      -9.583 -23.951  23.210  1.00  0.00     0.000 G0
ENDBRANCH  13  15
ENDBRANCH  12  13
BRANCH  12  17
ATOM     17  C   UNL     1     -14.164 -22.260  22.372  1.00  0.00    -0.006 C 
ATOM     18  C   UNL     1     -14.914 -21.700  21.151  1.00  0.00     0.008 C 
ATOM     19  C   UNL     1     -14.352 -21.294  23.557  1.00  0.00     0.008 C 
ENDBRANCH  12  17
ENDBRANCH  11  12
ENDBRANCH   1  11
TORSDOF 1
ENDMDL
MODEL 5
REMARK VINA RESULT:    -3.657      1.842      3.986
REMARK INTER + INTRA:          -5.857
REMARK INTER:                  -5.812
REMARK INTRA:                  -0.044
REMARK UNBOUND:                -0.275
REMARK SMILES CC1=CCC[C@H](C)C(=O)C[C@@H](C(C)C)C(=O)C1
REMARK SMILES IDX 8 1 9 2 6 3 7 4 5 5 4 6 3 7 2 8 1 9 10 11 11 12 15 13 16 14
REMARK SMILES IDX 17 15 12 17 13 18 14 19
REMARK H PARENT
REMARK Flexibility Score: 70.00
ROOT
ATOM      1  C   UNL     1     -13.894 -21.969  24.796  1.00  0.00     0.136 C 
ATOM      2  O   UNL     1     -14.847 -21.713  25.516  1.00  0.00    -0.299 OA
ENDROOT
BRANCH   1   3
ATOM      3  C   UNL     1     -13.093 -23.231  25.107  1.00  0.00     0.053 C 
ATOM      4  C   UNL     1     -13.460 -23.713  26.518  1.00  0.00     0.016 C 
BRANCH   3   5
ATOM      5  C   UNL     1     -13.229 -24.410  24.106  1.00  0.00     0.015 C 
BRANCH   5   6
ATOM      6  C   UNL     1     -11.881 -25.033  23.666  1.00  0.00     0.028 C 
BRANCH   6   7
ATOM      7  C   UNL     1     -10.740 -24.059  23.850  1.00  0.00    -0.028 C 
ATOM      8  C   UNL     1     -10.370 -23.101  22.968  1.00  0.00    -0.070 CG0
ATOM      9  C   UNL     1      -9.163 -22.260  23.304  1.00  0.00     0.039 C 
ATOM     10  G   UNL     1     -11.120 -22.827  21.678  1.00  0.00     0.000 G0
ENDBRANCH   6   7
ENDBRANCH   5   6
ENDBRANCH   3   5
ENDBRANCH   1   3
BRANCH   1  11
ATOM     11  C   UNL     1     -13.620 -21.040  23.630  1.00  0.00     0.087 C 
BRANCH  11  12
ATOM     12  C   UNL     1     -13.471 -21.767  22.262  1.00  0.00     0.066 C 
BRANCH  12  13
ATOM     13  C   UNL     1     -12.043 -21.634  21.759  1.00  0.00     0.140 C 
ATOM     14  O   UNL     1     -11.628 -20.541  21.398  1.00  0.00    -0.299 OA
BRANCH  13  15
ATOM     15  C   UNL     1     -11.124 -22.823  21.661  1.00  0.00     0.106 CG0
ATOM     16  G   UNL     1     -10.380 -23.088  22.957  1.00  0.00     0.000 G0
ENDBRANCH  13  15
ENDBRANCH  12  13
BRANCH  12  17
ATOM     17  C   UNL     1     -14.502 -21.326  21.170  1.00  0.00    -0.006 C 
ATOM     18  C   UNL     1     -15.950 -21.322  21.690  1.00  0.00     0.008 C 
ATOM     19  C   UNL     1     -14.420 -22.249  19.938  1.00  0.00     0.008 C 
ENDBRANCH  12  17
ENDBRANCH  11  12
ENDBRANCH   1  11
TORSDOF 1
ENDMDL
MODEL 6
REMARK VINA RESULT:    -3.601      2.847      5.709
REMARK INTER + INTRA:          -5.771
REMARK INTER:                  -5.684
REMARK INTRA:                  -0.087
REMARK UNBOUND:                -0.275
REMARK SMILES CC1=CCC[C@H](C)C(=O)C[C@@H](C(C)C)C(=O)C1
REMARK SMILES IDX 8 1 9 2 6 3 7 4 5 5 4 6 3 7 2 8 1 9 10 11 11 12 15 13 16 14
REMARK SMILES IDX 17 15 12 17 13 18 14 19
REMARK H PARENT
REMARK Flexibility Score: 70.00
ROOT
ATOM      1  C   UNL     1      -8.949 -21.213  22.302  1.00  0.00     0.136 C 
ATOM      2  O   UNL     1      -8.392 -20.301  21.710  1.00  0.00    -0.299 OA
ENDROOT
BRANCH   1   3
ATOM      3  C   UNL     1      -8.989 -21.145  23.827  1.00  0.00     0.053 C 
ATOM      4  C   UNL     1      -7.723 -20.432  24.322  1.00  0.00     0.016 C 
BRANCH   3   5
ATOM      5  C   UNL     1     -10.240 -20.481  24.464  1.00  0.00     0.015 C 
BRANCH   5   6
ATOM      6  C   UNL     1     -11.352 -20.112  23.452  1.00  0.00     0.028 C 
BRANCH   6   7
ATOM      7  C   UNL     1     -12.456 -21.144  23.450  1.00  0.00    -0.028 C 
ATOM      8  C   UNL     1     -13.106 -21.604  22.355  1.00  0.00    -0.070 CG0
ATOM      9  C   UNL     1     -14.225 -22.594  22.562  1.00  0.00     0.039 C 
ATOM     10  G   UNL     1     -12.749 -21.184  20.942  1.00  0.00     0.000 G0
ENDBRANCH   6   7
ENDBRANCH   5   6
ENDBRANCH   3   5
ENDBRANCH   1   3
BRANCH   1  11
ATOM     11  C   UNL     1      -9.592 -22.307  21.471  1.00  0.00     0.087 C 
BRANCH  11  12
ATOM     12  C   UNL     1     -10.301 -21.791  20.186  1.00  0.00     0.066 C 
BRANCH  12  13
ATOM     13  C   UNL     1     -11.787 -22.108  20.253  1.00  0.00     0.140 C 
ATOM     14  O   UNL     1     -12.212 -23.127  19.725  1.00  0.00    -0.299 OA
BRANCH  13  15
ATOM     15  C   UNL     1     -12.763 -21.183  20.929  1.00  0.00     0.106 CG0
ATOM     16  G   UNL     1     -13.090 -21.621  22.345  1.00  0.00     0.000 G0
ENDBRANCH  13  15
ENDBRANCH  12  13
BRANCH  12  17
ATOM     17  C   UNL     1      -9.673 -22.294  18.843  1.00  0.00    -0.006 C 
ATOM     18  C   UNL     1      -8.155 -22.524  18.950  1.00  0.00     0.008 C 
ATOM     19  C   UNL     1      -9.943 -21.291  17.705  1.00  0.00     0.008 C 
ENDBRANCH  12  17
ENDBRANCH  11  12
ENDBRANCH   1  11
TORSDOF 1
ENDMDL
MODEL 7
REMARK VINA RESULT:    -3.521      2.042      3.642
REMARK INTER + INTRA:          -5.649
REMARK INTER:                  -5.818
REMARK INTRA:                   0.170
REMARK UNBOUND:                -0.275
REMARK SMILES CC1=CCC[C@H](C)C(=O)C[C@@H](C(C)C)C(=O)C1
REMARK SMILES IDX 8 1 9 2 6 3 7 4 5 5 4 6 3 7 2 8 1 9 10 11 11 12 15 13 16 14
REMARK SMILES IDX 17 15 12 17 13 18 14 19
REMARK H PARENT
REMARK Flexibility Score: 70.00
ROOT
ATOM      1  C   UNL     1     -14.805 -22.258  22.964  1.00  0.00     0.136 C 
ATOM      2  O   UNL     1     -14.950 -21.208  23.572  1.00  0.00    -0.299 OA
ENDROOT
BRANCH   1   3
ATOM      3  C   UNL     1     -15.257 -22.297  21.506  1.00  0.00     0.053 C 
ATOM      4  C   UNL     1     -16.364 -21.254  21.305  1.00  0.00     0.016 C 
BRANCH   3   5
ATOM      5  C   UNL     1     -14.156 -22.100  20.428  1.00  0.00     0.015 C 
BRANCH   5   6
ATOM      6  C   UNL     1     -12.992 -21.177  20.866  1.00  0.00     0.028 C 
BRANCH   6   7
ATOM      7  C   UNL     1     -11.653 -21.762  20.478  1.00  0.00    -0.028 C 
ATOM      8  C   UNL     1     -10.681 -22.146  21.338  1.00  0.00    -0.070 CG0
ATOM      9  C   UNL     1      -9.385 -22.654  20.757  1.00  0.00     0.039 C 
ATOM     10  G   UNL     1     -10.844 -22.107  22.846  1.00  0.00     0.000 G0
ENDBRANCH   6   7
ENDBRANCH   5   6
ENDBRANCH   3   5
ENDBRANCH   1   3
BRANCH   1  11
ATOM     11  C   UNL     1     -14.148 -23.413  23.694  1.00  0.00     0.087 C 
BRANCH  11  12
ATOM     12  C   UNL     1     -12.792 -23.047  24.365  1.00  0.00     0.066 C 
BRANCH  12  13
ATOM     13  C   UNL     1     -11.654 -23.256  23.378  1.00  0.00     0.140 C 
ATOM     14  O   UNL     1     -11.367 -24.390  23.017  1.00  0.00    -0.299 OA
BRANCH  13  15
ATOM     15  C   UNL     1     -10.844 -22.103  22.850  1.00  0.00     0.106 CG0
ATOM     16  G   UNL     1     -10.676 -22.155  21.342  1.00  0.00     0.000 G0
ENDBRANCH  13  15
ENDBRANCH  12  13
BRANCH  12  17
ATOM     17  C   UNL     1     -12.511 -23.782  25.719  1.00  0.00    -0.006 C 
ATOM     18  C   UNL     1     -13.569 -23.471  26.792  1.00  0.00     0.008 C 
ATOM     19  C   UNL     1     -11.122 -23.403  26.267  1.00  0.00     0.008 C 
ENDBRANCH  12  17
ENDBRANCH  11  12
ENDBRANCH   1  11
TORSDOF 1
ENDMDL
MODEL 8
REMARK VINA RESULT:    -3.517      2.027      4.732
REMARK INTER + INTRA:          -5.642
REMARK INTER:                  -5.331
REMARK INTRA:                  -0.311
REMARK UNBOUND:                -0.275
REMARK SMILES CC1=CCC[C@H](C)C(=O)C[C@@H](C(C)C)C(=O)C1
REMARK SMILES IDX 8 1 9 2 6 3 7 4 5 5 4 6 3 7 2 8 1 9 10 11 11 12 15 13 16 14
REMARK SMILES IDX 17 15 12 17 13 18 14 19
REMARK H PARENT
REMARK Flexibility Score: 70.00
ROOT
ATOM      1  C   UNL     1     -13.598 -21.779  22.864  1.00  0.00     0.136 C 
ATOM      2  O   UNL     1     -14.065 -22.894  22.687  1.00  0.00    -0.299 OA
ENDROOT
BRANCH   1   3
ATOM      3  C   UNL     1     -13.577 -21.241  24.293  1.00  0.00     0.053 C 
ATOM      4  C   UNL     1     -15.019 -21.164  24.812  1.00  0.00     0.016 C 
BRANCH   3   5
ATOM      5  C   UNL     1     -12.698 -22.012  25.316  1.00  0.00     0.015 C 
BRANCH   5   6
ATOM      6  C   UNL     1     -11.175 -21.894  25.065  1.00  0.00     0.028 C 
BRANCH   6   7
ATOM      7  C   UNL     1     -10.749 -20.449  24.942  1.00  0.00    -0.028 C 
ATOM      8  C   UNL     1     -10.045 -19.918  23.915  1.00  0.00    -0.070 CG0
ATOM      9  C   UNL     1      -9.662 -18.461  24.000  1.00  0.00     0.039 C 
ATOM     10  G   UNL     1      -9.645 -20.712  22.686  1.00  0.00     0.000 G0
ENDBRANCH   6   7
ENDBRANCH   5   6
ENDBRANCH   3   5
ENDBRANCH   1   3
BRANCH   1  11
ATOM     11  C   UNL     1     -13.039 -21.047  21.659  1.00  0.00     0.087 C 
BRANCH  11  12
ATOM     12  C   UNL     1     -11.643 -21.560  21.200  1.00  0.00     0.066 C 
BRANCH  12  13
ATOM     13  C   UNL     1     -10.580 -20.522  21.523  1.00  0.00     0.140 C 
ATOM     14  O   UNL     1     -10.476 -19.524  20.822  1.00  0.00    -0.299 OA
BRANCH  13  15
ATOM     15  C   UNL     1      -9.624 -20.700  22.672  1.00  0.00     0.106 CG0
ATOM     16  G   UNL     1     -10.044 -19.918  23.902  1.00  0.00     0.000 G0
ENDBRANCH  13  15
ENDBRANCH  12  13
BRANCH  12  17
ATOM     17  C   UNL     1     -11.568 -22.002  19.700  1.00  0.00    -0.006 C 
ATOM     18  C   UNL     1     -12.800 -22.811  19.259  1.00  0.00     0.008 C 
ATOM     19  C   UNL     1     -10.303 -22.843  19.442  1.00  0.00     0.008 C 
ENDBRANCH  12  17
ENDBRANCH  11  12
ENDBRANCH   1  11
TORSDOF 1
ENDMDL
MODEL 9
REMARK VINA RESULT:    -3.341      2.245      4.877
REMARK INTER + INTRA:          -5.374
REMARK INTER:                  -5.458
REMARK INTRA:                   0.084
REMARK UNBOUND:                -0.275
REMARK SMILES CC1=CCC[C@H](C)C(=O)C[C@@H](C(C)C)C(=O)C1
REMARK SMILES IDX 8 1 9 2 6 3 7 4 5 5 4 6 3 7 2 8 1 9 10 11 11 12 15 13 16 14
REMARK SMILES IDX 17 15 12 17 13 18 14 19
REMARK H PARENT
REMARK Flexibility Score: 70.00
ROOT
ATOM      1  C   UNL     1     -13.142 -21.682  21.228  1.00  0.00     0.136 C 
ATOM      2  O   UNL     1     -13.947 -22.094  20.407  1.00  0.00    -0.299 OA
ENDROOT
BRANCH   1   3
ATOM      3  C   UNL     1     -13.492 -21.847  22.706  1.00  0.00     0.053 C 
ATOM      4  C   UNL     1     -14.946 -21.403  22.919  1.00  0.00     0.016 C 
BRANCH   3   5
ATOM      5  C   UNL     1     -13.285 -23.258  23.320  1.00  0.00     0.015 C 
BRANCH   5   6
ATOM      6  C   UNL     1     -11.925 -23.450  24.034  1.00  0.00     0.028 C 
BRANCH   6   7
ATOM      7  C   UNL     1     -11.400 -22.140  24.576  1.00  0.00    -0.028 C 
ATOM      8  C   UNL     1     -10.243 -21.540  24.209  1.00  0.00    -0.070 CG0
ATOM      9  C   UNL     1      -9.859 -20.261  24.909  1.00  0.00     0.039 C 
ATOM     10  G   UNL     1      -9.335 -22.085  23.123  1.00  0.00     0.000 G0
ENDBRANCH   6   7
ENDBRANCH   5   6
ENDBRANCH   3   5
ENDBRANCH   1   3
BRANCH   1  11
ATOM     11  C   UNL     1     -11.846 -21.087  20.711  1.00  0.00     0.087 C 
BRANCH  11  12
ATOM     12  C   UNL     1     -10.624 -22.045  20.817  1.00  0.00     0.066 C 
BRANCH  12  13
ATOM     13  C   UNL     1      -9.594 -21.464  21.772  1.00  0.00     0.140 C 
ATOM     14  O   UNL     1      -8.939 -20.487  21.434  1.00  0.00    -0.299 OA
BRANCH  13  15
ATOM     15  C   UNL     1      -9.331 -22.079  23.121  1.00  0.00     0.106 CG0
ATOM     16  G   UNL     1     -10.257 -21.538  24.194  1.00  0.00     0.000 G0
ENDBRANCH  13  15
ENDBRANCH  12  13
BRANCH  12  17
ATOM     17  C   UNL     1      -9.974 -22.431  19.446  1.00  0.00    -0.006 C 
ATOM     18  C   UNL     1      -8.490 -22.813  19.581  1.00  0.00     0.008 C 
ATOM     19  C   UNL     1     -10.099 -21.273  18.437  1.00  0.00     0.008 C 
ENDBRANCH  12  17
ENDBRANCH  11  12
ENDBRANCH   1  11
TORSDOF 1
ENDMDL
