MODEL 1
REMARK VINA RESULT:    13.094      0.000      0.000
REMARK INTER + INTRA:          14.242
REMARK INTER:                  14.242
REMARK INTRA:                   0.000
REMARK UNBOUND:                 0.000
REMARK SMILES Cc1cc(O)c2c(c1)C(=O)c1cc(O)cc(O)c1C2=O
REMARK SMILES IDX 1 1 2 2 8 3 7 4 6 5 4 6 3 7 19 8 20 9 18 10 11 11 9 12 10 13
REMARK SMILES IDX 12 14 13 15 15 16 16 17 5 18 17 20 14 22
REMARK H PARENT 5 19 17 21 14 23
REMARK Flexibility Score: inf
ROOT
ATOM      1  C   UNL     1      -2.168  -4.345 -11.487  1.00  0.00     0.044 C 
ATOM      2  C   UNL     1      -1.303  -3.346 -10.778  1.00  0.00    -0.047 A 
ATOM      3  C   UNL     1      -1.870  -2.432  -9.883  1.00  0.00     0.016 A 
ATOM      4  C   UNL     1      -1.065  -1.511  -9.192  1.00  0.00     0.038 A 
ATOM      5  C   UNL     1       0.332  -1.504  -9.401  1.00  0.00     0.076 A 
ATOM      6  C   UNL     1       0.910  -2.488 -10.244  1.00  0.00     0.127 A 
ATOM      7  C   UNL     1       0.086  -3.380 -10.936  1.00  0.00     0.050 A 
ATOM      8  C   UNL     1       1.131  -0.423  -8.769  1.00  0.00     0.201 C 
ATOM      9  O   UNL     1       2.185  -0.016  -9.324  1.00  0.00    -0.288 OA
ATOM     10  C   UNL     1       0.590   0.302  -7.590  1.00  0.00     0.076 A 
ATOM     11  C   UNL     1      -0.808   0.291  -7.383  1.00  0.00     0.041 A 
ATOM     12  C   UNL     1      -1.675  -0.552  -8.241  1.00  0.00     0.194 C 
ATOM     13  O   UNL     1      -2.931  -0.469  -8.144  1.00  0.00    -0.289 OA
ATOM     14  C   UNL     1      -1.369   1.075  -6.361  1.00  0.00     0.059 A 
ATOM     15  C   UNL     1      -0.555   1.856  -5.536  1.00  0.00     0.120 A 
ATOM     16  C   UNL     1       0.829   1.837  -5.711  1.00  0.00     0.093 A 
ATOM     17  C   UNL     1       1.414   1.049  -6.708  1.00  0.00     0.131 A 
ENDROOT
BRANCH   6  18
ATOM     18  O   UNL     1       2.292  -2.636 -10.392  1.00  0.00    -0.507 OA
ATOM     19  H   UNL     1       2.969  -2.199  -9.784  1.00  0.00     0.293 HD
ENDBRANCH   6  18
BRANCH  17  20
ATOM     20  O   UNL     1       2.809   1.012  -6.763  1.00  0.00    -0.507 OA
ATOM     21  H   UNL     1       3.329   0.743  -7.586  1.00  0.00     0.293 HD
ENDBRANCH  17  20
BRANCH  15  22
ATOM     22  O   UNL     1      -1.109   2.643  -4.530  1.00  0.00    -0.508 OA
ATOM     23  H   UNL     1      -1.968   3.160  -4.674  1.00  0.00     0.293 HD
ENDBRANCH  15  22
TORSDOF 3
ENDMDL
MODEL 2
REMARK VINA RESULT:    13.782      1.584      5.777
REMARK INTER + INTRA:          14.991
REMARK INTER:                  14.991
REMARK INTRA:                   0.000
REMARK UNBOUND:                 0.000
REMARK SMILES Cc1cc(O)c2c(c1)C(=O)c1cc(O)cc(O)c1C2=O
REMARK SMILES IDX 1 1 2 2 8 3 7 4 6 5 4 6 3 7 19 8 20 9 18 10 11 11 9 12 10 13
REMARK SMILES IDX 12 14 13 15 15 16 16 17 5 18 17 20 14 22
REMARK H PARENT 5 19 17 21 14 23
REMARK Flexibility Score: inf
ROOT
ATOM      1  C   UNL     1      -1.968   4.308  -3.882  1.00  0.00     0.044 C 
ATOM      2  C   UNL     1      -1.143   3.288  -4.609  1.00  0.00    -0.047 A 
ATOM      3  C   UNL     1      -1.748   2.398  -5.503  1.00  0.00     0.016 A 
ATOM      4  C   UNL     1      -0.980   1.459  -6.210  1.00  0.00     0.038 A 
ATOM      5  C   UNL     1       0.419   1.408  -6.018  1.00  0.00     0.076 A 
ATOM      6  C   UNL     1       1.037   2.367  -5.176  1.00  0.00     0.127 A 
ATOM      7  C   UNL     1       0.249   3.279  -4.467  1.00  0.00     0.050 A 
ATOM      8  C   UNL     1       1.177   0.307  -6.667  1.00  0.00     0.201 C 
ATOM      9  O   UNL     1       2.225  -0.135  -6.127  1.00  0.00    -0.288 OA
ATOM     10  C   UNL     1       0.601  -0.392  -7.845  1.00  0.00     0.076 A 
ATOM     11  C   UNL     1      -0.799  -0.337  -8.035  1.00  0.00     0.041 A 
ATOM     12  C   UNL     1      -1.629   0.525  -7.160  1.00  0.00     0.194 C 
ATOM     13  O   UNL     1      -2.888   0.481  -7.242  1.00  0.00    -0.289 OA
ATOM     14  C   UNL     1      -1.396  -1.097  -9.055  1.00  0.00     0.059 A 
ATOM     15  C   UNL     1      -0.616  -1.895  -9.895  1.00  0.00     0.120 A 
ATOM     16  C   UNL     1       0.770  -1.920  -9.737  1.00  0.00     0.093 A 
ATOM     17  C   UNL     1       1.391  -1.157  -8.742  1.00  0.00     0.131 A 
ENDROOT
BRANCH   6  18
ATOM     18  O   UNL     1       2.424   2.473  -5.043  1.00  0.00    -0.507 OA
ATOM     19  H   UNL     1       2.909   3.351  -4.922  1.00  0.00     0.293 HD
ENDBRANCH   6  18
BRANCH  17  20
ATOM     20  O   UNL     1       2.787  -1.162  -8.704  1.00  0.00    -0.507 OA
ATOM     21  H   UNL     1       3.362  -0.505  -9.211  1.00  0.00     0.293 HD
ENDBRANCH  17  20
BRANCH  15  22
ATOM     22  O   UNL     1      -1.206  -2.658 -10.900  1.00  0.00    -0.508 OA
ATOM     23  H   UNL     1      -2.082  -3.144 -10.751  1.00  0.00     0.293 HD
ENDBRANCH  15  22
TORSDOF 3
ENDMDL
