MODEL 1
REMARK VINA RESULT:    -4.747      0.000      0.000
REMARK INTER + INTRA:          -5.346
REMARK INTER:                  -5.302
REMARK INTRA:                  -0.044
REMARK UNBOUND:                -0.044
REMARK SMILES O=C([O-])c1ccc(O)c(O)c1
REMARK SMILES IDX 4 1 11 2 5 3 9 4 6 5 7 6 2 7 1 8 3 9 10 10 8 12
REMARK H PARENT 10 11 8 13
REMARK Flexibility Score: inf
ROOT
ATOM      1  C   UNL     1      20.371  -0.586 -19.979  1.00  0.00     0.001 A 
ATOM      2  C   UNL     1      20.722   0.762 -19.785  1.00  0.00     0.060 A 
ATOM      3  C   UNL     1      20.606  -1.178 -21.232  1.00  0.00     0.014 A 
ATOM      4  C   UNL     1      21.298   1.506 -20.826  1.00  0.00     0.158 A 
ATOM      5  C   UNL     1      21.179  -0.438 -22.269  1.00  0.00     0.051 A 
ATOM      6  C   UNL     1      21.527   0.905 -22.070  1.00  0.00     0.157 A 
ENDROOT
BRANCH   1   7
ATOM      7  C   UNL     1      19.763  -1.374 -18.883  1.00  0.00     0.072 C 
ATOM      8  O   UNL     1      19.293  -2.521 -19.105  1.00  0.00    -0.545 OA
ATOM      9  O   UNL     1      19.703  -0.858 -17.594  1.00  0.00    -0.545 OA
ENDBRANCH   1   7
BRANCH   4  10
ATOM     10  O   UNL     1      21.644   2.841 -20.631  1.00  0.00    -0.504 OA
ATOM     11  H   UNL     1      22.262   3.125 -19.878  1.00  0.00     0.293 HD
ENDBRANCH   4  10
BRANCH   6  12
ATOM     12  O   UNL     1      22.099   1.646 -23.101  1.00  0.00    -0.504 OA
ATOM     13  H   UNL     1      21.533   2.193 -23.739  1.00  0.00     0.293 HD
ENDBRANCH   6  12
TORSDOF 3
ENDMDL
MODEL 2
REMARK VINA RESULT:    -4.706      1.281      4.284
REMARK INTER + INTRA:          -5.300
REMARK INTER:                  -5.264
REMARK INTRA:                  -0.037
REMARK UNBOUND:                -0.044
REMARK SMILES O=C([O-])c1ccc(O)c(O)c1
REMARK SMILES IDX 4 1 11 2 5 3 9 4 6 5 7 6 2 7 1 8 3 9 10 10 8 12
REMARK H PARENT 10 11 8 13
REMARK Flexibility Score: inf
ROOT
ATOM      1  C   UNL     1      20.873   0.410 -20.775  1.00  0.00     0.001 A 
ATOM      2  C   UNL     1      21.419   0.623 -19.496  1.00  0.00     0.060 A 
ATOM      3  C   UNL     1      19.682  -0.328 -20.893  1.00  0.00     0.014 A 
ATOM      4  C   UNL     1      20.786   0.106 -18.356  1.00  0.00     0.158 A 
ATOM      5  C   UNL     1      19.051  -0.842 -19.758  1.00  0.00     0.051 A 
ATOM      6  C   UNL     1      19.600  -0.627 -18.487  1.00  0.00     0.157 A 
ENDROOT
BRANCH   1   7
ATOM      7  C   UNL     1      21.538   0.953 -21.980  1.00  0.00     0.072 C 
ATOM      8  O   UNL     1      21.528   2.191 -22.214  1.00  0.00    -0.545 OA
ATOM      9  O   UNL     1      22.183   0.103 -22.872  1.00  0.00    -0.545 OA
ENDBRANCH   1   7
BRANCH   4  10
ATOM     10  O   UNL     1      21.329   0.318 -17.090  1.00  0.00    -0.504 OA
ATOM     11  H   UNL     1      21.816  -0.418 -16.591  1.00  0.00     0.293 HD
ENDBRANCH   4  10
BRANCH   6  12
ATOM     12  O   UNL     1      18.974  -1.138 -17.352  1.00  0.00    -0.504 OA
ATOM     13  H   UNL     1      17.996  -0.955 -17.158  1.00  0.00     0.293 HD
ENDBRANCH   6  12
TORSDOF 3
ENDMDL
MODEL 3
REMARK VINA RESULT:    -4.582     17.466     19.021
REMARK INTER + INTRA:          -5.162
REMARK INTER:                  -5.123
REMARK INTRA:                  -0.040
REMARK UNBOUND:                -0.044
REMARK SMILES O=C([O-])c1ccc(O)c(O)c1
REMARK SMILES IDX 4 1 11 2 5 3 9 4 6 5 7 6 2 7 1 8 3 9 10 10 8 12
REMARK H PARENT 10 11 8 13
REMARK Flexibility Score: inf
ROOT
ATOM      1  C   UNL     1       9.362  -7.006  -8.078  1.00  0.00     0.001 A 
ATOM      2  C   UNL     1      10.172  -6.116  -7.352  1.00  0.00     0.060 A 
ATOM      3  C   UNL     1       8.039  -7.224  -7.656  1.00  0.00     0.014 A 
ATOM      4  C   UNL     1       9.669  -5.455  -6.221  1.00  0.00     0.158 A 
ATOM      5  C   UNL     1       7.538  -6.566  -6.531  1.00  0.00     0.051 A 
ATOM      6  C   UNL     1       8.350  -5.680  -5.810  1.00  0.00     0.157 A 
ENDROOT
BRANCH   1   7
ATOM      7  C   UNL     1       9.889  -7.705  -9.271  1.00  0.00     0.072 C 
ATOM      8  O   UNL     1      11.013  -8.273  -9.236  1.00  0.00    -0.545 OA
ATOM      9  O   UNL     1       9.151  -7.746 -10.448  1.00  0.00    -0.545 OA
ENDBRANCH   1   7
BRANCH   4  10
ATOM     10  O   UNL     1      10.475  -4.574  -5.502  1.00  0.00    -0.504 OA
ATOM     11  H   UNL     1      10.279  -4.344  -4.534  1.00  0.00     0.293 HD
ENDBRANCH   4  10
BRANCH   6  12
ATOM     12  O   UNL     1       7.853  -5.022  -4.687  1.00  0.00    -0.504 OA
ATOM     13  H   UNL     1       8.169  -4.092  -4.435  1.00  0.00     0.293 HD
ENDBRANCH   6  12
TORSDOF 3
ENDMDL
MODEL 4
REMARK VINA RESULT:    -4.575      1.046      2.091
REMARK INTER + INTRA:          -5.154
REMARK INTER:                  -5.110
REMARK INTRA:                  -0.044
REMARK UNBOUND:                -0.044
REMARK SMILES O=C([O-])c1ccc(O)c(O)c1
REMARK SMILES IDX 4 1 11 2 5 3 9 4 6 5 7 6 2 7 1 8 3 9 10 10 8 12
REMARK H PARENT 10 11 8 13
REMARK Flexibility Score: inf
ROOT
ATOM      1  C   UNL     1      20.168  -0.503 -19.512  1.00  0.00     0.001 A 
ATOM      2  C   UNL     1      20.173  -1.098 -20.786  1.00  0.00     0.060 A 
ATOM      3  C   UNL     1      20.817   0.731 -19.334  1.00  0.00     0.014 A 
ATOM      4  C   UNL     1      20.817  -0.471 -21.863  1.00  0.00     0.158 A 
ATOM      5  C   UNL     1      21.458   1.356 -20.406  1.00  0.00     0.051 A 
ATOM      6  C   UNL     1      21.460   0.758 -21.673  1.00  0.00     0.157 A 
ENDROOT
BRANCH   1   7
ATOM      7  C   UNL     1      19.490  -1.161 -18.373  1.00  0.00     0.072 C 
ATOM      8  O   UNL     1      18.948  -2.289 -18.516  1.00  0.00    -0.545 OA
ATOM      9  O   UNL     1      19.443  -0.544 -17.129  1.00  0.00    -0.545 OA
ENDBRANCH   1   7
BRANCH   4  10
ATOM     10  O   UNL     1      20.820  -1.063 -23.125  1.00  0.00    -0.504 OA
ATOM     11  H   UNL     1      21.150  -2.012 -23.265  1.00  0.00     0.293 HD
ENDBRANCH   4  10
BRANCH   6  12
ATOM     12  O   UNL     1      22.098   1.378 -22.746  1.00  0.00    -0.504 OA
ATOM     13  H   UNL     1      21.745   1.296 -23.692  1.00  0.00     0.293 HD
ENDBRANCH   6  12
TORSDOF 3
ENDMDL
MODEL 5
REMARK VINA RESULT:    -4.470     17.643     18.874
REMARK INTER + INTRA:          -5.037
REMARK INTER:                  -4.999
REMARK INTRA:                  -0.038
REMARK UNBOUND:                -0.044
REMARK SMILES O=C([O-])c1ccc(O)c(O)c1
REMARK SMILES IDX 4 1 11 2 5 3 9 4 6 5 7 6 2 7 1 8 3 9 10 10 8 12
REMARK H PARENT 10 11 8 13
REMARK Flexibility Score: inf
ROOT
ATOM      1  C   UNL     1       8.475  -7.219  -8.806  1.00  0.00     0.001 A 
ATOM      2  C   UNL     1       7.730  -6.753  -7.708  1.00  0.00     0.060 A 
ATOM      3  C   UNL     1       9.833  -6.870  -8.906  1.00  0.00     0.014 A 
ATOM      4  C   UNL     1       8.331  -5.950  -6.728  1.00  0.00     0.158 A 
ATOM      5  C   UNL     1      10.432  -6.071  -7.929  1.00  0.00     0.051 A 
ATOM      6  C   UNL     1       9.684  -5.608  -6.838  1.00  0.00     0.157 A 
ENDROOT
BRANCH   1   7
ATOM      7  C   UNL     1       7.844  -8.066  -9.842  1.00  0.00     0.072 C 
ATOM      8  O   UNL     1       7.261  -9.138  -9.526  1.00  0.00    -0.545 OA
ATOM      9  O   UNL     1       7.885  -7.691 -11.180  1.00  0.00    -0.545 OA
ENDBRANCH   1   7
BRANCH   4  10
ATOM     10  O   UNL     1       7.590  -5.489  -5.641  1.00  0.00    -0.504 OA
ATOM     11  H   UNL     1       8.017  -4.949  -4.897  1.00  0.00     0.293 HD
ENDBRANCH   4  10
BRANCH   6  12
ATOM     12  O   UNL     1      10.278  -4.812  -5.862  1.00  0.00    -0.504 OA
ATOM     13  H   UNL     1      11.095  -4.246  -6.064  1.00  0.00     0.293 HD
ENDBRANCH   6  12
TORSDOF 3
ENDMDL
MODEL 6
REMARK VINA RESULT:    -4.443     16.808     18.104
REMARK INTER + INTRA:          -5.007
REMARK INTER:                  -4.969
REMARK INTRA:                  -0.038
REMARK UNBOUND:                -0.044
REMARK SMILES O=C([O-])c1ccc(O)c(O)c1
REMARK SMILES IDX 4 1 11 2 5 3 9 4 6 5 7 6 2 7 1 8 3 9 10 10 8 12
REMARK H PARENT 10 11 8 13
REMARK Flexibility Score: inf
ROOT
ATOM      1  C   UNL     1       8.485  -7.206  -9.482  1.00  0.00     0.001 A 
ATOM      2  C   UNL     1       9.871  -6.974  -9.525  1.00  0.00     0.060 A 
ATOM      3  C   UNL     1       7.748  -6.730  -8.383  1.00  0.00     0.014 A 
ATOM      4  C   UNL     1      10.511  -6.279  -8.487  1.00  0.00     0.158 A 
ATOM      5  C   UNL     1       8.385  -6.038  -7.350  1.00  0.00     0.051 A 
ATOM      6  C   UNL     1       9.766  -5.810  -7.398  1.00  0.00     0.157 A 
ENDROOT
BRANCH   1   7
ATOM      7  C   UNL     1       7.808  -7.939 -10.574  1.00  0.00     0.072 C 
ATOM      8  O   UNL     1       7.167  -8.997 -10.334  1.00  0.00    -0.545 OA
ATOM      9  O   UNL     1       7.867  -7.469 -11.881  1.00  0.00    -0.545 OA
ENDBRANCH   1   7
BRANCH   4  10
ATOM     10  O   UNL     1      11.885  -6.051  -8.533  1.00  0.00    -0.504 OA
ATOM     11  H   UNL     1      12.377  -5.949  -9.413  1.00  0.00     0.293 HD
ENDBRANCH   4  10
BRANCH   6  12
ATOM     12  O   UNL     1      10.404  -5.120  -6.370  1.00  0.00    -0.504 OA
ATOM     13  H   UNL     1      11.415  -5.069  -6.312  1.00  0.00     0.293 HD
ENDBRANCH   6  12
TORSDOF 3
ENDMDL
MODEL 7
REMARK VINA RESULT:    -4.430      1.494      4.317
REMARK INTER + INTRA:          -4.992
REMARK INTER:                  -4.948
REMARK INTRA:                  -0.044
REMARK UNBOUND:                -0.044
REMARK SMILES O=C([O-])c1ccc(O)c(O)c1
REMARK SMILES IDX 4 1 11 2 5 3 9 4 6 5 7 6 2 7 1 8 3 9 10 10 8 12
REMARK H PARENT 10 11 8 13
REMARK Flexibility Score: inf
ROOT
ATOM      1  C   UNL     1      20.381  -0.335 -20.167  1.00  0.00     0.001 A 
ATOM      2  C   UNL     1      20.068   0.526 -19.101  1.00  0.00     0.060 A 
ATOM      3  C   UNL     1      20.048  -1.697 -20.065  1.00  0.00     0.014 A 
ATOM      4  C   UNL     1      19.433   0.034 -17.950  1.00  0.00     0.158 A 
ATOM      5  C   UNL     1      19.416  -2.187 -18.919  1.00  0.00     0.051 A 
ATOM      6  C   UNL     1      19.106  -1.324 -17.860  1.00  0.00     0.157 A 
ENDROOT
BRANCH   1   7
ATOM      7  C   UNL     1      21.051   0.180 -21.382  1.00  0.00     0.072 C 
ATOM      8  O   UNL     1      21.299  -0.587 -22.350  1.00  0.00    -0.545 OA
ATOM      9  O   UNL     1      21.416   1.518 -21.472  1.00  0.00    -0.545 OA
ENDBRANCH   1   7
BRANCH   4  10
ATOM     10  O   UNL     1      19.124   0.890 -16.895  1.00  0.00    -0.504 OA
ATOM     11  H   UNL     1      18.256   0.803 -16.377  1.00  0.00     0.293 HD
ENDBRANCH   4  10
BRANCH   6  12
ATOM     12  O   UNL     1      18.475  -1.809 -16.716  1.00  0.00    -0.504 OA
ATOM     13  H   UNL     1      18.168  -1.188 -15.976  1.00  0.00     0.293 HD
ENDBRANCH   6  12
TORSDOF 3
ENDMDL
MODEL 8
REMARK VINA RESULT:    -4.313      1.801      2.278
REMARK INTER + INTRA:          -4.862
REMARK INTER:                  -4.825
REMARK INTRA:                  -0.037
REMARK UNBOUND:                -0.044
REMARK SMILES O=C([O-])c1ccc(O)c(O)c1
REMARK SMILES IDX 4 1 11 2 5 3 9 4 6 5 7 6 2 7 1 8 3 9 10 10 8 12
REMARK H PARENT 10 11 8 13
REMARK Flexibility Score: inf
ROOT
ATOM      1  C   UNL     1      19.234  -0.727 -18.143  1.00  0.00     0.001 A 
ATOM      2  C   UNL     1      20.426  -0.009 -17.946  1.00  0.00     0.060 A 
ATOM      3  C   UNL     1      18.757  -0.910 -19.453  1.00  0.00     0.014 A 
ATOM      4  C   UNL     1      21.130   0.518 -19.039  1.00  0.00     0.158 A 
ATOM      5  C   UNL     1      19.458  -0.386 -20.541  1.00  0.00     0.051 A 
ATOM      6  C   UNL     1      20.646   0.329 -20.339  1.00  0.00     0.157 A 
ENDROOT
BRANCH   1   7
ATOM      7  C   UNL     1      18.488  -1.284 -16.993  1.00  0.00     0.072 C 
ATOM      8  O   UNL     1      18.448  -2.528 -16.798  1.00  0.00    -0.545 OA
ATOM      9  O   UNL     1      17.821  -0.442 -16.111  1.00  0.00    -0.545 OA
ENDBRANCH   1   7
BRANCH   4  10
ATOM     10  O   UNL     1      22.312   1.230 -18.840  1.00  0.00    -0.504 OA
ATOM     11  H   UNL     1      22.363   2.230 -18.996  1.00  0.00     0.293 HD
ENDBRANCH   4  10
BRANCH   6  12
ATOM     12  O   UNL     1      21.348   0.853 -21.422  1.00  0.00    -0.504 OA
ATOM     13  H   UNL     1      21.130   1.766 -21.804  1.00  0.00     0.293 HD
ENDBRANCH   6  12
TORSDOF 3
ENDMDL
MODEL 9
REMARK VINA RESULT:    -4.289     18.206     20.031
REMARK INTER + INTRA:          -4.834
REMARK INTER:                  -4.795
REMARK INTRA:                  -0.039
REMARK UNBOUND:                -0.044
REMARK SMILES O=C([O-])c1ccc(O)c(O)c1
REMARK SMILES IDX 4 1 11 2 5 3 9 4 6 5 7 6 2 7 1 8 3 9 10 10 8 12
REMARK H PARENT 10 11 8 13
REMARK Flexibility Score: inf
ROOT
ATOM      1  C   UNL     1       5.037   5.275  -8.843  1.00  0.00     0.001 A 
ATOM      2  C   UNL     1       6.208   4.916  -9.534  1.00  0.00     0.060 A 
ATOM      3  C   UNL     1       4.635   4.506  -7.738  1.00  0.00     0.014 A 
ATOM      4  C   UNL     1       6.963   3.805  -9.128  1.00  0.00     0.158 A 
ATOM      5  C   UNL     1       5.386   3.401  -7.333  1.00  0.00     0.051 A 
ATOM      6  C   UNL     1       6.551   3.046  -8.026  1.00  0.00     0.157 A 
ENDROOT
BRANCH   1   7
ATOM      7  C   UNL     1       4.238   6.446  -9.269  1.00  0.00     0.072 C 
ATOM      8  O   UNL     1       3.877   7.314  -8.430  1.00  0.00    -0.545 OA
ATOM      9  O   UNL     1       3.875   6.605 -10.601  1.00  0.00    -0.545 OA
ENDBRANCH   1   7
BRANCH   4  10
ATOM     10  O   UNL     1       8.122   3.451  -9.816  1.00  0.00    -0.504 OA
ATOM     11  H   UNL     1       8.103   2.788 -10.584  1.00  0.00     0.293 HD
ENDBRANCH   4  10
BRANCH   6  12
ATOM     12  O   UNL     1       7.304   1.945  -7.625  1.00  0.00    -0.504 OA
ATOM     13  H   UNL     1       6.881   1.034  -7.490  1.00  0.00     0.293 HD
ENDBRANCH   6  12
TORSDOF 3
ENDMDL
