MODEL 1
REMARK VINA RESULT:    51.007      0.000      0.000
REMARK INTER + INTRA:          67.955
REMARK INTER:                  68.898
REMARK INTRA:                  -0.943
REMARK UNBOUND:                -0.943
REMARK SMILES CC[C@H](CC[C@@H](C)[C@H]1CC[C@H]2[C@H]3CC(=O)C4=CC(=O)CC[C@@]4(C)[C@@H]3CC[C@@]12C)C(C)C
REMARK SMILES IDX 4 1 3 2 2 3 1 4 29 5 30 6 31 7 5 8 6 9 7 10 8 11 9 12 27 13
REMARK SMILES IDX 10 14 11 15 26 16 28 17 12 18 25 19 24 20 13 21 22 22 14 23
REMARK SMILES IDX 16 24 21 25 23 26 15 27 17 28 20 29 18 30 19 31
REMARK H PARENT
REMARK Flexibility Score: inf
ROOT
ATOM      1  C   UNL     1      18.223  16.235 -12.797  1.00  0.00     0.004 C 
ENDROOT
BRANCH   1   2
ATOM      2  C   UNL     1      17.458  15.075 -13.498  1.00  0.00    -0.009 C 
BRANCH   2   3
ATOM      3  C   UNL     1      18.389  13.830 -13.562  1.00  0.00     0.000 C 
ATOM      4  C   UNL     1      19.751  14.025 -12.897  1.00  0.00     0.004 C 
ENDBRANCH   2   3
BRANCH   2   5
ATOM      5  C   UNL     1      16.056  14.823 -12.832  1.00  0.00    -0.014 C 
ATOM      6  C   UNL     1      14.900  15.475 -13.609  1.00  0.00     0.007 C 
ATOM      7  C   UNL     1      15.754  13.344 -12.544  1.00  0.00     0.007 C 
ENDBRANCH   2   5
ENDBRANCH   1   2
BRANCH   1   8
ATOM      8  C   UNL     1      17.623  17.635 -13.078  1.00  0.00     0.004 C 
BRANCH   8   9
ATOM      9  C   UNL     1      17.882  18.683 -11.943  1.00  0.00    -0.011 C 
ATOM     10  C   UNL     1      17.981  17.934 -10.600  1.00  0.00     0.008 C 
BRANCH   9  11
ATOM     11  C   UNL     1      19.170  19.542 -12.231  1.00  0.00    -0.002 C 
ATOM     12  C   UNL     1      19.794  19.208 -13.596  1.00  0.00     0.005 C 
ATOM     13  C   UNL     1      19.051  21.104 -12.232  1.00  0.00    -0.026 C 
ATOM     14  C   UNL     1      20.499  20.462 -14.100  1.00  0.00     0.005 C 
ATOM     15  C   UNL     1      20.320  21.525 -13.013  1.00  0.00    -0.001 C 
ATOM     16  C   UNL     1      17.776  21.575 -12.990  1.00  0.00     0.007 C 
ATOM     17  C   UNL     1      19.108  21.696 -10.797  1.00  0.00     0.012 C 
ATOM     18  C   UNL     1      20.331  23.005 -13.519  1.00  0.00     0.004 C 
ATOM     19  C   UNL     1      17.804  23.063 -13.339  1.00  0.00     0.005 C 
ATOM     20  C   UNL     1      19.013  23.419 -14.238  1.00  0.00     0.003 C 
ATOM     21  C   UNL     1      21.565  23.268 -14.401  1.00  0.00     0.085 C 
ATOM     22  C   UNL     1      19.008  24.936 -14.705  1.00  0.00    -0.000 C 
ATOM     23  C   UNL     1      21.583  24.668 -14.911  1.00  0.00     0.159 C 
ATOM     24  C   UNL     1      20.332  25.286 -15.395  1.00  0.00     0.005 C 
ATOM     25  C   UNL     1      17.832  25.155 -15.711  1.00  0.00     0.020 C 
ATOM     26  C   UNL     1      18.842  25.904 -13.502  1.00  0.00     0.017 C 
ATOM     27  O   UNL     1      22.683  25.279 -15.006  1.00  0.00    -0.295 OA
ATOM     28  C   UNL     1      20.397  26.225 -16.360  1.00  0.00     0.055 C 
ATOM     29  C   UNL     1      17.838  26.546 -16.356  1.00  0.00     0.081 C 
ATOM     30  C   UNL     1      19.195  26.883 -16.889  1.00  0.00     0.156 C 
ATOM     31  O   UNL     1      19.313  27.771 -17.775  1.00  0.00    -0.295 OA
ENDBRANCH   9  11
ENDBRANCH   8   9
ENDBRANCH   1   8
TORSDOF 6
ENDMDL
MODEL 2
REMARK VINA RESULT:    53.403      2.677      3.790
REMARK INTER + INTRA:          71.192
REMARK INTER:                  71.240
REMARK INTRA:                  -0.048
REMARK UNBOUND:                -0.943
REMARK SMILES CC[C@H](CC[C@@H](C)[C@H]1CC[C@H]2[C@H]3CC(=O)C4=CC(=O)CC[C@@]4(C)[C@@H]3CC[C@@]12C)C(C)C
REMARK SMILES IDX 4 1 3 2 2 3 1 4 29 5 30 6 31 7 5 8 6 9 7 10 8 11 9 12 27 13
REMARK SMILES IDX 10 14 11 15 26 16 28 17 12 18 25 19 24 20 13 21 22 22 14 23
REMARK SMILES IDX 16 24 21 25 23 26 15 27 17 28 20 29 18 30 19 31
REMARK H PARENT
REMARK Flexibility Score: inf
ROOT
ATOM      1  C   UNL     1      18.246  15.825 -13.574  1.00  0.00     0.004 C 
ENDROOT
BRANCH   1   2
ATOM      2  C   UNL     1      17.543  14.437 -13.628  1.00  0.00    -0.009 C 
BRANCH   2   3
ATOM      3  C   UNL     1      18.578  13.339 -13.253  1.00  0.00     0.000 C 
ATOM      4  C   UNL     1      19.961  13.873 -12.882  1.00  0.00     0.004 C 
ENDBRANCH   2   3
BRANCH   2   5
ATOM      5  C   UNL     1      16.222  14.427 -12.775  1.00  0.00    -0.014 C 
ATOM      6  C   UNL     1      15.119  15.318 -13.369  1.00  0.00     0.007 C 
ATOM      7  C   UNL     1      15.682  13.020 -12.471  1.00  0.00     0.007 C 
ENDBRANCH   2   5
ENDBRANCH   1   2
BRANCH   1   8
ATOM      8  C   UNL     1      17.314  16.977 -13.121  1.00  0.00     0.004 C 
BRANCH   8   9
ATOM      9  C   UNL     1      17.994  18.012 -12.161  1.00  0.00    -0.011 C 
ATOM     10  C   UNL     1      19.235  17.351 -11.530  1.00  0.00     0.008 C 
BRANCH   9  11
ATOM     11  C   UNL     1      18.361  19.346 -12.914  1.00  0.00    -0.002 C 
ATOM     12  C   UNL     1      17.150  19.944 -13.651  1.00  0.00     0.005 C 
ATOM     13  C   UNL     1      18.941  20.544 -12.088  1.00  0.00    -0.026 C 
ATOM     14  C   UNL     1      17.347  21.455 -13.709  1.00  0.00     0.005 C 
ATOM     15  C   UNL     1      18.692  21.742 -13.037  1.00  0.00    -0.001 C 
ATOM     16  C   UNL     1      18.161  20.745 -10.756  1.00  0.00     0.007 C 
ATOM     17  C   UNL     1      20.466  20.394 -11.835  1.00  0.00     0.012 C 
ATOM     18  C   UNL     1      18.820  23.153 -12.374  1.00  0.00     0.004 C 
ATOM     19  C   UNL     1      18.436  22.099 -10.103  1.00  0.00     0.005 C 
ATOM     20  C   UNL     1      18.043  23.275 -11.031  1.00  0.00     0.003 C 
ATOM     21  C   UNL     1      18.411  24.257 -13.367  1.00  0.00     0.085 C 
ATOM     22  C   UNL     1      18.216  24.691 -10.337  1.00  0.00    -0.000 C 
ATOM     23  C   UNL     1      18.505  25.610 -12.749  1.00  0.00     0.159 C 
ATOM     24  C   UNL     1      18.032  25.815 -11.364  1.00  0.00     0.005 C 
ATOM     25  C   UNL     1      17.139  24.843  -9.214  1.00  0.00     0.020 C 
ATOM     26  C   UNL     1      19.630  24.856  -9.717  1.00  0.00     0.017 C 
ATOM     27  O   UNL     1      18.904  26.583 -13.444  1.00  0.00    -0.295 OA
ATOM     28  C   UNL     1      17.551  27.023 -11.010  1.00  0.00     0.055 C 
ATOM     29  C   UNL     1      17.105  26.244  -8.592  1.00  0.00     0.081 C 
ATOM     30  C   UNL     1      17.065  27.300  -9.651  1.00  0.00     0.156 C 
ATOM     31  O   UNL     1      16.646  28.453  -9.366  1.00  0.00    -0.295 OA
ENDBRANCH   9  11
ENDBRANCH   8   9
ENDBRANCH   1   8
TORSDOF 6
ENDMDL
MODEL 3
REMARK VINA RESULT:    53.661     10.526     14.174
REMARK INTER + INTRA:          71.540
REMARK INTER:                  71.528
REMARK INTRA:                   0.012
REMARK UNBOUND:                -0.943
REMARK SMILES CC[C@H](CC[C@@H](C)[C@H]1CC[C@H]2[C@H]3CC(=O)C4=CC(=O)CC[C@@]4(C)[C@@H]3CC[C@@]12C)C(C)C
REMARK SMILES IDX 4 1 3 2 2 3 1 4 29 5 30 6 31 7 5 8 6 9 7 10 8 11 9 12 27 13
REMARK SMILES IDX 10 14 11 15 26 16 28 17 12 18 25 19 24 20 13 21 22 22 14 23
REMARK SMILES IDX 16 24 21 25 23 26 15 27 17 28 20 29 18 30 19 31
REMARK H PARENT
REMARK Flexibility Score: inf
ROOT
ATOM      1  C   UNL     1       9.563  14.996   0.305  1.00  0.00     0.004 C 
ENDROOT
BRANCH   1   2
ATOM      2  C   UNL     1      10.044  15.329   1.747  1.00  0.00    -0.009 C 
BRANCH   2   3
ATOM      3  C   UNL     1      11.534  14.905   1.887  1.00  0.00     0.000 C 
ATOM      4  C   UNL     1      11.747  13.410   2.122  1.00  0.00     0.004 C 
ENDBRANCH   2   3
BRANCH   2   5
ATOM      5  C   UNL     1       9.739  16.825   2.125  1.00  0.00    -0.014 C 
ATOM      6  C   UNL     1      10.989  17.718   2.080  1.00  0.00     0.007 C 
ATOM      7  C   UNL     1       8.590  17.454   1.321  1.00  0.00     0.007 C 
ENDBRANCH   2   5
ENDBRANCH   1   2
BRANCH   1   8
ATOM      8  C   UNL     1      10.005  13.596  -0.190  1.00  0.00     0.004 C 
BRANCH   8   9
ATOM      9  C   UNL     1      10.433  13.554  -1.697  1.00  0.00    -0.011 C 
ATOM     10  C   UNL     1       9.291  12.915  -2.511  1.00  0.00     0.008 C 
BRANCH   9  11
ATOM     11  C   UNL     1      10.805  14.986  -2.234  1.00  0.00    -0.002 C 
ATOM     12  C   UNL     1      12.171  15.462  -1.711  1.00  0.00     0.005 C 
ATOM     13  C   UNL     1      10.882  15.216  -3.781  1.00  0.00    -0.026 C 
ATOM     14  C   UNL     1      12.760  16.405  -2.754  1.00  0.00     0.005 C 
ATOM     15  C   UNL     1      11.723  16.513  -3.875  1.00  0.00    -0.001 C 
ATOM     16  C   UNL     1      11.622  14.046  -4.492  1.00  0.00     0.007 C 
ATOM     17  C   UNL     1       9.481  15.463  -4.406  1.00  0.00     0.012 C 
ATOM     18  C   UNL     1      12.303  16.829  -5.293  1.00  0.00     0.004 C 
ATOM     19  C   UNL     1      12.046  14.388  -5.921  1.00  0.00     0.005 C 
ATOM     20  C   UNL     1      13.001  15.607  -5.959  1.00  0.00     0.003 C 
ATOM     21  C   UNL     1      13.236  18.053  -5.236  1.00  0.00     0.085 C 
ATOM     22  C   UNL     1      13.543  15.918  -7.417  1.00  0.00    -0.000 C 
ATOM     23  C   UNL     1      13.818  18.359  -6.574  1.00  0.00     0.159 C 
ATOM     24  C   UNL     1      14.292  17.256  -7.434  1.00  0.00     0.005 C 
ATOM     25  C   UNL     1      14.521  14.778  -7.850  1.00  0.00     0.020 C 
ATOM     26  C   UNL     1      12.387  16.021  -8.448  1.00  0.00     0.017 C 
ATOM     27  O   UNL     1      13.978  19.561  -6.919  1.00  0.00    -0.295 OA
ATOM     28  C   UNL     1      15.305  17.487  -8.293  1.00  0.00     0.055 C 
ATOM     29  C   UNL     1      15.236  15.065  -9.176  1.00  0.00     0.081 C 
ATOM     30  C   UNL     1      15.828  16.438  -9.180  1.00  0.00     0.156 C 
ATOM     31  O   UNL     1      16.762  16.713  -9.980  1.00  0.00    -0.295 OA
ENDBRANCH   9  11
ENDBRANCH   8   9
ENDBRANCH   1   8
TORSDOF 6
ENDMDL
