MODEL 1
REMARK VINA RESULT:    -4.706      0.000      0.000
REMARK INTER + INTRA:         -13.712
REMARK INTER:                 -10.209
REMARK INTRA:                  -3.503
REMARK UNBOUND:                -3.503
REMARK SMILES CCCCCCCCCCCCCCCCCCCCCC(=O)[O-]
REMARK SMILES IDX 12 1 11 2 10 3 9 4 8 5 7 6 6 7 5 8 4 9 3 10 2 11 1 12 13 13
REMARK SMILES IDX 14 14 15 15 16 16 17 17 18 18 19 19 20 20 21 21 22 22 23 23
REMARK SMILES IDX 24 24
REMARK H PARENT
REMARK Flexibility Score: inf
ROOT
ATOM      1  C   UNL     1       7.281 -13.007  -1.298  1.00  0.00     0.000 C 
ENDROOT
BRANCH   1   2
ATOM      2  C   UNL     1       8.371 -12.404  -0.397  1.00  0.00     0.000 C 
BRANCH   2   3
ATOM      3  C   UNL     1       8.426 -10.868  -0.476  1.00  0.00     0.000 C 
BRANCH   3   4
ATOM      4  C   UNL     1       7.631 -10.280  -1.662  1.00  0.00    -0.000 C 
BRANCH   4   5
ATOM      5  C   UNL     1       6.462  -9.399  -1.195  1.00  0.00    -0.000 C 
BRANCH   5   6
ATOM      6  C   UNL     1       5.403  -9.260  -2.299  1.00  0.00    -0.000 C 
BRANCH   6   7
ATOM      7  C   UNL     1       4.309 -10.338  -2.213  1.00  0.00    -0.000 C 
BRANCH   7   8
ATOM      8  C   UNL     1       4.138 -10.895  -0.788  1.00  0.00    -0.000 C 
BRANCH   8   9
ATOM      9  C   UNL     1       3.509 -12.298  -0.777  1.00  0.00    -0.000 C 
BRANCH   9  10
ATOM     10  C   UNL     1       2.507 -12.508  -1.925  1.00  0.00    -0.000 C 
BRANCH  10  11
ATOM     11  C   UNL     1       2.487 -13.959  -2.430  1.00  0.00    -0.003 C 
ATOM     12  C   UNL     1       3.341 -14.894  -1.573  1.00  0.00     0.004 C 
ENDBRANCH  10  11
ENDBRANCH   9  10
ENDBRANCH   8   9
ENDBRANCH   7   8
ENDBRANCH   6   7
ENDBRANCH   5   6
ENDBRANCH   4   5
ENDBRANCH   3   4
ENDBRANCH   2   3
ENDBRANCH   1   2
BRANCH   1  13
ATOM     13  C   UNL     1       7.862 -13.804  -2.477  1.00  0.00     0.000 C 
BRANCH  13  14
ATOM     14  C   UNL     1       7.253 -13.394  -3.829  1.00  0.00     0.000 C 
BRANCH  14  15
ATOM     15  C   UNL     1       5.759 -13.048  -3.721  1.00  0.00     0.000 C 
BRANCH  15  16
ATOM     16  C   UNL     1       5.060 -13.012  -5.089  1.00  0.00     0.000 C 
BRANCH  16  17
ATOM     17  C   UNL     1       5.114 -11.605  -5.697  1.00  0.00     0.000 C 
BRANCH  17  18
ATOM     18  C   UNL     1       3.706 -11.003  -5.814  1.00  0.00     0.000 C 
BRANCH  18  19
ATOM     19  C   UNL     1       2.597 -12.063  -5.727  1.00  0.00     0.000 C 
BRANCH  19  20
ATOM     20  C   UNL     1       1.354 -11.689  -6.553  1.00  0.00     0.006 C 
BRANCH  20  21
ATOM     21  C   UNL     1       1.460 -10.281  -7.153  1.00  0.00     0.053 C 
BRANCH  21  22
ATOM     22  C   UNL     1       0.288  -9.426  -6.775  1.00  0.00     0.041 C 
ATOM     23  O   UNL     1      -0.592  -9.142  -7.629  1.00  0.00    -0.550 OA
ATOM     24  O   UNL     1       0.158  -8.959  -5.472  1.00  0.00    -0.550 OA
ENDBRANCH  21  22
ENDBRANCH  20  21
ENDBRANCH  19  20
ENDBRANCH  18  19
ENDBRANCH  17  18
ENDBRANCH  16  17
ENDBRANCH  15  16
ENDBRANCH  14  15
ENDBRANCH  13  14
ENDBRANCH   1  13
TORSDOF 20
ENDMDL
MODEL 2
REMARK VINA RESULT:    -4.697      2.801      3.256
REMARK INTER + INTRA:         -13.691
REMARK INTER:                 -10.238
REMARK INTRA:                  -3.453
REMARK UNBOUND:                -3.503
REMARK SMILES CCCCCCCCCCCCCCCCCCCCCC(=O)[O-]
REMARK SMILES IDX 12 1 11 2 10 3 9 4 8 5 7 6 6 7 5 8 4 9 3 10 2 11 1 12 13 13
REMARK SMILES IDX 14 14 15 15 16 16 17 17 18 18 19 19 20 20 21 21 22 22 23 23
REMARK SMILES IDX 24 24
REMARK H PARENT
REMARK Flexibility Score: inf
ROOT
ATOM      1  C   UNL     1       7.543 -13.312  -1.483  1.00  0.00     0.000 C 
ENDROOT
BRANCH   1   2
ATOM      2  C   UNL     1       8.534 -12.675  -0.497  1.00  0.00     0.000 C 
BRANCH   2   3
ATOM      3  C   UNL     1       8.649 -11.150  -0.669  1.00  0.00     0.000 C 
BRANCH   3   4
ATOM      4  C   UNL     1       8.070 -10.348   0.516  1.00  0.00    -0.000 C 
BRANCH   4   5
ATOM      5  C   UNL     1       6.984  -9.357   0.070  1.00  0.00    -0.000 C 
BRANCH   5   6
ATOM      6  C   UNL     1       6.787  -9.407  -1.453  1.00  0.00    -0.000 C 
BRANCH   6   7
ATOM      7  C   UNL     1       5.363  -9.828  -1.856  1.00  0.00    -0.000 C 
BRANCH   7   8
ATOM      8  C   UNL     1       4.729 -10.807  -0.851  1.00  0.00    -0.000 C 
BRANCH   8   9
ATOM      9  C   UNL     1       3.892 -11.897  -1.542  1.00  0.00    -0.000 C 
BRANCH   9  10
ATOM     10  C   UNL     1       4.014 -13.266  -0.849  1.00  0.00    -0.000 C 
BRANCH  10  11
ATOM     11  C   UNL     1       3.779 -14.436  -1.816  1.00  0.00    -0.003 C 
ATOM     12  C   UNL     1       2.790 -15.466  -1.267  1.00  0.00     0.004 C 
ENDBRANCH  10  11
ENDBRANCH   9  10
ENDBRANCH   8   9
ENDBRANCH   7   8
ENDBRANCH   6   7
ENDBRANCH   5   6
ENDBRANCH   4   5
ENDBRANCH   3   4
ENDBRANCH   2   3
ENDBRANCH   1   2
BRANCH   1  13
ATOM     13  C   UNL     1       7.549 -12.623  -2.857  1.00  0.00     0.000 C 
BRANCH  13  14
ATOM     14  C   UNL     1       6.710 -13.376  -3.904  1.00  0.00     0.000 C 
BRANCH  14  15
ATOM     15  C   UNL     1       5.721 -12.456  -4.640  1.00  0.00     0.000 C 
BRANCH  15  16
ATOM     16  C   UNL     1       4.581 -13.234  -5.314  1.00  0.00     0.000 C 
BRANCH  16  17
ATOM     17  C   UNL     1       3.285 -12.414  -5.318  1.00  0.00     0.000 C 
BRANCH  17  18
ATOM     18  C   UNL     1       2.056 -13.330  -5.425  1.00  0.00     0.000 C 
BRANCH  18  19
ATOM     19  C   UNL     1       2.382 -14.799  -5.116  1.00  0.00     0.000 C 
BRANCH  19  20
ATOM     20  C   UNL     1       2.012 -15.743  -6.274  1.00  0.00     0.006 C 
BRANCH  20  21
ATOM     21  C   UNL     1       0.768 -15.268  -7.034  1.00  0.00     0.053 C 
BRANCH  21  22
ATOM     22  C   UNL     1      -0.382 -16.215  -6.867  1.00  0.00     0.041 C 
ATOM     23  O   UNL     1      -0.178 -17.406  -6.514  1.00  0.00    -0.550 OA
ATOM     24  O   UNL     1      -1.683 -15.775  -7.082  1.00  0.00    -0.550 OA
ENDBRANCH  21  22
ENDBRANCH  20  21
ENDBRANCH  19  20
ENDBRANCH  18  19
ENDBRANCH  17  18
ENDBRANCH  16  17
ENDBRANCH  15  16
ENDBRANCH  14  15
ENDBRANCH  13  14
ENDBRANCH   1  13
TORSDOF 20
ENDMDL
MODEL 3
REMARK VINA RESULT:    -4.691      1.809      3.079
REMARK INTER + INTRA:         -13.679
REMARK INTER:                 -10.136
REMARK INTRA:                  -3.543
REMARK UNBOUND:                -3.503
REMARK SMILES CCCCCCCCCCCCCCCCCCCCCC(=O)[O-]
REMARK SMILES IDX 12 1 11 2 10 3 9 4 8 5 7 6 6 7 5 8 4 9 3 10 2 11 1 12 13 13
REMARK SMILES IDX 14 14 15 15 16 16 17 17 18 18 19 19 20 20 21 21 22 22 23 23
REMARK SMILES IDX 24 24
REMARK H PARENT
REMARK Flexibility Score: inf
ROOT
ATOM      1  C   UNL     1       8.152 -10.732  -0.490  1.00  0.00     0.000 C 
ENDROOT
BRANCH   1   2
ATOM      2  C   UNL     1       7.387 -10.210  -1.717  1.00  0.00     0.000 C 
BRANCH   2   3
ATOM      3  C   UNL     1       6.076  -9.496  -1.342  1.00  0.00     0.000 C 
BRANCH   3   4
ATOM      4  C   UNL     1       5.037  -9.471  -2.485  1.00  0.00    -0.000 C 
BRANCH   4   5
ATOM      5  C   UNL     1       3.908 -10.489  -2.263  1.00  0.00    -0.000 C 
BRANCH   5   6
ATOM      6  C   UNL     1       3.768 -10.840  -0.774  1.00  0.00    -0.000 C 
BRANCH   6   7
ATOM      7  C   UNL     1       3.809 -12.355  -0.513  1.00  0.00    -0.000 C 
BRANCH   7   8
ATOM      8  C   UNL     1       3.013 -13.158  -1.558  1.00  0.00    -0.000 C 
BRANCH   8   9
ATOM      9  C   UNL     1       3.529 -14.598  -1.710  1.00  0.00    -0.000 C 
BRANCH   9  10
ATOM     10  C   UNL     1       2.808 -15.588  -0.779  1.00  0.00    -0.000 C 
BRANCH  10  11
ATOM     11  C   UNL     1       1.684 -16.355  -1.493  1.00  0.00    -0.003 C 
ATOM     12  C   UNL     1       2.077 -16.800  -2.902  1.00  0.00     0.004 C 
ENDBRANCH  10  11
ENDBRANCH   9  10
ENDBRANCH   8   9
ENDBRANCH   7   8
ENDBRANCH   6   7
ENDBRANCH   5   6
ENDBRANCH   4   5
ENDBRANCH   3   4
ENDBRANCH   2   3
ENDBRANCH   1   2
BRANCH   1  13
ATOM     13  C   UNL     1       8.354 -12.255  -0.523  1.00  0.00     0.000 C 
BRANCH  13  14
ATOM     14  C   UNL     1       7.225 -12.988  -1.269  1.00  0.00     0.000 C 
BRANCH  14  15
ATOM     15  C   UNL     1       7.745 -13.832  -2.444  1.00  0.00     0.000 C 
BRANCH  15  16
ATOM     16  C   UNL     1       7.317 -13.273  -3.808  1.00  0.00     0.000 C 
BRANCH  16  17
ATOM     17  C   UNL     1       5.794 -13.113  -3.883  1.00  0.00     0.000 C 
BRANCH  17  18
ATOM     18  C   UNL     1       5.381 -12.374  -5.165  1.00  0.00     0.000 C 
BRANCH  18  19
ATOM     19  C   UNL     1       3.861 -12.384  -5.394  1.00  0.00     0.000 C 
BRANCH  19  20
ATOM     20  C   UNL     1       3.267 -13.803  -5.356  1.00  0.00     0.006 C 
BRANCH  20  21
ATOM     21  C   UNL     1       1.763 -13.793  -5.056  1.00  0.00     0.053 C 
BRANCH  21  22
ATOM     22  C   UNL     1       0.944 -13.783  -6.312  1.00  0.00     0.041 C 
ATOM     23  O   UNL     1       0.434 -14.848  -6.746  1.00  0.00    -0.550 OA
ATOM     24  O   UNL     1       0.728 -12.590  -6.991  1.00  0.00    -0.550 OA
ENDBRANCH  21  22
ENDBRANCH  20  21
ENDBRANCH  19  20
ENDBRANCH  18  19
ENDBRANCH  17  18
ENDBRANCH  16  17
ENDBRANCH  15  16
ENDBRANCH  14  15
ENDBRANCH  13  14
ENDBRANCH   1  13
TORSDOF 20
ENDMDL
MODEL 4
REMARK VINA RESULT:    -4.666      2.473      3.939
REMARK INTER + INTRA:         -13.624
REMARK INTER:                 -10.409
REMARK INTRA:                  -3.215
REMARK UNBOUND:                -3.503
REMARK SMILES CCCCCCCCCCCCCCCCCCCCCC(=O)[O-]
REMARK SMILES IDX 12 1 11 2 10 3 9 4 8 5 7 6 6 7 5 8 4 9 3 10 2 11 1 12 13 13
REMARK SMILES IDX 14 14 15 15 16 16 17 17 18 18 19 19 20 20 21 21 22 22 23 23
REMARK SMILES IDX 24 24
REMARK H PARENT
REMARK Flexibility Score: inf
ROOT
ATOM      1  C   UNL     1       5.534 -12.095  -4.697  1.00  0.00     0.000 C 
ENDROOT
BRANCH   1   2
ATOM      2  C   UNL     1       6.360 -13.312  -4.253  1.00  0.00     0.000 C 
BRANCH   2   3
ATOM      3  C   UNL     1       7.542 -12.931  -3.344  1.00  0.00     0.000 C 
BRANCH   3   4
ATOM      4  C   UNL     1       7.583 -13.721  -2.018  1.00  0.00    -0.000 C 
BRANCH   4   5
ATOM      5  C   UNL     1       7.922 -12.823  -0.818  1.00  0.00    -0.000 C 
BRANCH   5   6
ATOM      6  C   UNL     1       7.935 -11.341  -1.227  1.00  0.00    -0.000 C 
BRANCH   6   7
ATOM      7  C   UNL     1       6.838 -10.522  -0.528  1.00  0.00    -0.000 C 
BRANCH   7   8
ATOM      8  C   UNL     1       5.610 -10.287  -1.427  1.00  0.00    -0.000 C 
BRANCH   8   9
ATOM      9  C   UNL     1       4.332 -10.922  -0.855  1.00  0.00    -0.000 C 
BRANCH   9  10
ATOM     10  C   UNL     1       3.810 -12.083  -1.718  1.00  0.00    -0.000 C 
BRANCH  10  11
ATOM     11  C   UNL     1       4.176 -13.458  -1.138  1.00  0.00    -0.003 C 
ATOM     12  C   UNL     1       3.483 -14.610  -1.868  1.00  0.00     0.004 C 
ENDBRANCH  10  11
ENDBRANCH   9  10
ENDBRANCH   8   9
ENDBRANCH   7   8
ENDBRANCH   6   7
ENDBRANCH   5   6
ENDBRANCH   4   5
ENDBRANCH   3   4
ENDBRANCH   2   3
ENDBRANCH   1   2
BRANCH   1  13
ATOM     13  C   UNL     1       4.541 -12.432  -5.821  1.00  0.00     0.000 C 
BRANCH  13  14
ATOM     14  C   UNL     1       3.246 -13.076  -5.295  1.00  0.00     0.000 C 
BRANCH  14  15
ATOM     15  C   UNL     1       1.984 -12.358  -5.800  1.00  0.00     0.000 C 
BRANCH  15  16
ATOM     16  C   UNL     1       2.181 -10.840  -5.933  1.00  0.00     0.000 C 
BRANCH  16  17
ATOM     17  C   UNL     1       1.718 -10.345  -7.308  1.00  0.00     0.000 C 
BRANCH  17  18
ATOM     18  C   UNL     1       2.524  -9.113  -7.748  1.00  0.00     0.000 C 
BRANCH  18  19
ATOM     19  C   UNL     1       4.030  -9.396  -7.857  1.00  0.00     0.000 C 
BRANCH  19  20
ATOM     20  C   UNL     1       4.877  -8.431  -7.008  1.00  0.00     0.006 C 
BRANCH  20  21
ATOM     21  C   UNL     1       5.049  -7.065  -7.683  1.00  0.00     0.053 C 
BRANCH  21  22
ATOM     22  C   UNL     1       4.591  -5.945  -6.798  1.00  0.00     0.041 C 
ATOM     23  O   UNL     1       5.380  -5.012  -6.496  1.00  0.00    -0.550 OA
ATOM     24  O   UNL     1       3.285  -5.923  -6.324  1.00  0.00    -0.550 OA
ENDBRANCH  21  22
ENDBRANCH  20  21
ENDBRANCH  19  20
ENDBRANCH  18  19
ENDBRANCH  17  18
ENDBRANCH  16  17
ENDBRANCH  15  16
ENDBRANCH  14  15
ENDBRANCH  13  14
ENDBRANCH   1  13
TORSDOF 20
ENDMDL
MODEL 5
REMARK VINA RESULT:    -4.652      1.760      2.253
REMARK INTER + INTRA:         -13.594
REMARK INTER:                 -10.538
REMARK INTRA:                  -3.056
REMARK UNBOUND:                -3.503
REMARK SMILES CCCCCCCCCCCCCCCCCCCCCC(=O)[O-]
REMARK SMILES IDX 12 1 11 2 10 3 9 4 8 5 7 6 6 7 5 8 4 9 3 10 2 11 1 12 13 13
REMARK SMILES IDX 14 14 15 15 16 16 17 17 18 18 19 19 20 20 21 21 22 22 23 23
REMARK SMILES IDX 24 24
REMARK H PARENT
REMARK Flexibility Score: inf
ROOT
ATOM      1  C   UNL     1       8.653 -12.613  -0.370  1.00  0.00     0.000 C 
ENDROOT
BRANCH   1   2
ATOM      2  C   UNL     1       8.861 -11.106  -0.151  1.00  0.00     0.000 C 
BRANCH   2   3
ATOM      3  C   UNL     1       7.875 -10.245  -0.961  1.00  0.00     0.000 C 
BRANCH   3   4
ATOM      4  C   UNL     1       7.195  -9.136  -0.129  1.00  0.00    -0.000 C 
BRANCH   4   5
ATOM      5  C   UNL     1       5.662  -9.242  -0.166  1.00  0.00    -0.000 C 
BRANCH   5   6
ATOM      6  C   UNL     1       5.190  -9.943  -1.449  1.00  0.00    -0.000 C 
BRANCH   6   7
ATOM      7  C   UNL     1       3.854 -10.683  -1.267  1.00  0.00    -0.000 C 
BRANCH   7   8
ATOM      8  C   UNL     1       4.035 -12.094  -0.677  1.00  0.00    -0.000 C 
BRANCH   8   9
ATOM      9  C   UNL     1       3.085 -13.123  -1.312  1.00  0.00    -0.000 C 
BRANCH   9  10
ATOM     10  C   UNL     1       3.590 -14.568  -1.161  1.00  0.00    -0.000 C 
BRANCH  10  11
ATOM     11  C   UNL     1       2.610 -15.597  -1.746  1.00  0.00    -0.003 C 
ATOM     12  C   UNL     1       2.512 -15.520  -3.270  1.00  0.00     0.004 C 
ENDBRANCH  10  11
ENDBRANCH   9  10
ENDBRANCH   8   9
ENDBRANCH   7   8
ENDBRANCH   6   7
ENDBRANCH   5   6
ENDBRANCH   4   5
ENDBRANCH   3   4
ENDBRANCH   2   3
ENDBRANCH   1   2
BRANCH   1  13
ATOM     13  C   UNL     1       7.411 -12.921  -1.221  1.00  0.00     0.000 C 
BRANCH  13  14
ATOM     14  C   UNL     1       7.744 -13.728  -2.489  1.00  0.00     0.000 C 
BRANCH  14  15
ATOM     15  C   UNL     1       7.145 -13.103  -3.759  1.00  0.00     0.000 C 
BRANCH  15  16
ATOM     16  C   UNL     1       5.650 -13.417  -3.924  1.00  0.00     0.000 C 
BRANCH  16  17
ATOM     17  C   UNL     1       5.046 -12.622  -5.088  1.00  0.00     0.000 C 
BRANCH  17  18
ATOM     18  C   UNL     1       4.991 -11.123  -4.760  1.00  0.00     0.000 C 
BRANCH  18  19
ATOM     19  C   UNL     1       3.630 -10.491  -5.093  1.00  0.00     0.000 C 
BRANCH  19  20
ATOM     20  C   UNL     1       3.284 -10.587  -6.589  1.00  0.00     0.006 C 
BRANCH  20  21
ATOM     21  C   UNL     1       4.316  -9.872  -7.469  1.00  0.00     0.053 C 
BRANCH  21  22
ATOM     22  C   UNL     1       4.222  -8.382  -7.339  1.00  0.00     0.041 C 
ATOM     23  O   UNL     1       3.219  -7.767  -7.786  1.00  0.00    -0.550 OA
ATOM     24  O   UNL     1       5.236  -7.674  -6.704  1.00  0.00    -0.550 OA
ENDBRANCH  21  22
ENDBRANCH  20  21
ENDBRANCH  19  20
ENDBRANCH  18  19
ENDBRANCH  17  18
ENDBRANCH  16  17
ENDBRANCH  15  16
ENDBRANCH  14  15
ENDBRANCH  13  14
ENDBRANCH   1  13
TORSDOF 20
ENDMDL
MODEL 6
REMARK VINA RESULT:    -4.630      3.947      7.814
REMARK INTER + INTRA:         -13.546
REMARK INTER:                 -10.220
REMARK INTRA:                  -3.325
REMARK UNBOUND:                -3.503
REMARK SMILES CCCCCCCCCCCCCCCCCCCCCC(=O)[O-]
REMARK SMILES IDX 12 1 11 2 10 3 9 4 8 5 7 6 6 7 5 8 4 9 3 10 2 11 1 12 13 13
REMARK SMILES IDX 14 14 15 15 16 16 17 17 18 18 19 19 20 20 21 21 22 22 23 23
REMARK SMILES IDX 24 24
REMARK H PARENT
REMARK Flexibility Score: inf
ROOT
ATOM      1  C   UNL     1       0.961 -12.056  -6.855  1.00  0.00     0.000 C 
ENDROOT
BRANCH   1   2
ATOM      2  C   UNL     1       1.368 -12.750  -5.546  1.00  0.00     0.000 C 
BRANCH   2   3
ATOM      3  C   UNL     1       2.138 -14.062  -5.781  1.00  0.00     0.000 C 
BRANCH   3   4
ATOM      4  C   UNL     1       1.896 -15.126  -4.689  1.00  0.00    -0.000 C 
BRANCH   4   5
ATOM      5  C   UNL     1       1.649 -16.522  -5.285  1.00  0.00    -0.000 C 
BRANCH   5   6
ATOM      6  C   UNL     1       2.038 -16.561  -6.771  1.00  0.00    -0.000 C 
BRANCH   6   7
ATOM      7  C   UNL     1       0.867 -16.965  -7.683  1.00  0.00    -0.000 C 
BRANCH   7   8
ATOM      8  C   UNL     1       0.632 -15.959  -8.824  1.00  0.00    -0.000 C 
BRANCH   8   9
ATOM      9  C   UNL     1      -0.460 -14.930  -8.486  1.00  0.00    -0.000 C 
BRANCH   9  10
ATOM     10  C   UNL     1      -1.529 -15.492  -7.533  1.00  0.00    -0.000 C 
BRANCH  10  11
ATOM     11  C   UNL     1      -2.065 -14.431  -6.560  1.00  0.00    -0.003 C 
ATOM     12  C   UNL     1      -1.731 -14.744  -5.101  1.00  0.00     0.004 C 
ENDBRANCH  10  11
ENDBRANCH   9  10
ENDBRANCH   8   9
ENDBRANCH   7   8
ENDBRANCH   6   7
ENDBRANCH   5   6
ENDBRANCH   4   5
ENDBRANCH   3   4
ENDBRANCH   2   3
ENDBRANCH   1   2
BRANCH   1  13
ATOM     13  C   UNL     1       1.650 -10.694  -7.040  1.00  0.00     0.000 C 
BRANCH  13  14
ATOM     14  C   UNL     1       2.766 -10.448  -6.009  1.00  0.00     0.000 C 
BRANCH  14  15
ATOM     15  C   UNL     1       4.166 -10.447  -6.646  1.00  0.00     0.000 C 
BRANCH  15  16
ATOM     16  C   UNL     1       5.080 -11.536  -6.065  1.00  0.00     0.000 C 
BRANCH  16  17
ATOM     17  C   UNL     1       4.862 -11.688  -4.554  1.00  0.00     0.000 C 
BRANCH  17  18
ATOM     18  C   UNL     1       5.362 -13.054  -4.061  1.00  0.00     0.000 C 
BRANCH  18  19
ATOM     19  C   UNL     1       6.882 -13.219  -4.209  1.00  0.00     0.000 C 
BRANCH  19  20
ATOM     20  C   UNL     1       7.557 -13.680  -2.905  1.00  0.00     0.006 C 
BRANCH  20  21
ATOM     21  C   UNL     1       6.958 -12.995  -1.670  1.00  0.00     0.053 C 
BRANCH  21  22
ATOM     22  C   UNL     1       7.817 -11.865  -1.188  1.00  0.00     0.041 C 
ATOM     23  O   UNL     1       8.577 -12.022  -0.198  1.00  0.00    -0.550 OA
ATOM     24  O   UNL     1       7.791 -10.642  -1.849  1.00  0.00    -0.550 OA
ENDBRANCH  21  22
ENDBRANCH  20  21
ENDBRANCH  19  20
ENDBRANCH  18  19
ENDBRANCH  17  18
ENDBRANCH  16  17
ENDBRANCH  15  16
ENDBRANCH  14  15
ENDBRANCH  13  14
ENDBRANCH   1  13
TORSDOF 20
ENDMDL
MODEL 7
REMARK VINA RESULT:    -4.584      1.802      3.551
REMARK INTER + INTRA:         -13.447
REMARK INTER:                  -9.573
REMARK INTRA:                  -3.874
REMARK UNBOUND:                -3.503
REMARK SMILES CCCCCCCCCCCCCCCCCCCCCC(=O)[O-]
REMARK SMILES IDX 12 1 11 2 10 3 9 4 8 5 7 6 6 7 5 8 4 9 3 10 2 11 1 12 13 13
REMARK SMILES IDX 14 14 15 15 16 16 17 17 18 18 19 19 20 20 21 21 22 22 23 23
REMARK SMILES IDX 24 24
REMARK H PARENT
REMARK Flexibility Score: inf
ROOT
ATOM      1  C   UNL     1       7.457  -9.749   0.194  1.00  0.00     0.000 C 
ENDROOT
BRANCH   1   2
ATOM      2  C   UNL     1       7.158  -9.392  -1.271  1.00  0.00     0.000 C 
BRANCH   2   3
ATOM      3  C   UNL     1       5.657  -9.461  -1.607  1.00  0.00     0.000 C 
BRANCH   3   4
ATOM      4  C   UNL     1       4.937 -10.671  -0.975  1.00  0.00    -0.000 C 
BRANCH   4   5
ATOM      5  C   UNL     1       3.472 -10.776  -1.429  1.00  0.00    -0.000 C 
BRANCH   5   6
ATOM      6  C   UNL     1       2.999 -12.238  -1.429  1.00  0.00    -0.000 C 
BRANCH   6   7
ATOM      7  C   UNL     1       4.077 -13.211  -0.922  1.00  0.00    -0.000 C 
BRANCH   7   8
ATOM      8  C   UNL     1       4.150 -14.501  -1.760  1.00  0.00    -0.000 C 
BRANCH   8   9
ATOM      9  C   UNL     1       3.024 -14.588  -2.804  1.00  0.00    -0.000 C 
BRANCH   9  10
ATOM     10  C   UNL     1       2.317 -15.954  -2.801  1.00  0.00    -0.000 C 
BRANCH  10  11
ATOM     11  C   UNL     1       2.036 -16.467  -1.380  1.00  0.00    -0.003 C 
ATOM     12  C   UNL     1       0.765 -15.868  -0.777  1.00  0.00     0.004 C 
ENDBRANCH  10  11
ENDBRANCH   9  10
ENDBRANCH   8   9
ENDBRANCH   7   8
ENDBRANCH   6   7
ENDBRANCH   5   6
ENDBRANCH   4   5
ENDBRANCH   3   4
ENDBRANCH   2   3
ENDBRANCH   1   2
BRANCH   1  13
ATOM     13  C   UNL     1       8.490 -10.879   0.328  1.00  0.00     0.000 C 
BRANCH  13  14
ATOM     14  C   UNL     1       8.630 -11.712  -0.959  1.00  0.00     0.000 C 
BRANCH  14  15
ATOM     15  C   UNL     1       7.845 -13.033  -0.895  1.00  0.00     0.000 C 
BRANCH  15  16
ATOM     16  C   UNL     1       7.658 -13.677  -2.277  1.00  0.00     0.000 C 
BRANCH  16  17
ATOM     17  C   UNL     1       7.428 -12.609  -3.353  1.00  0.00     0.000 C 
BRANCH  17  18
ATOM     18  C   UNL     1       6.299 -13.026  -4.308  1.00  0.00     0.000 C 
BRANCH  18  19
ATOM     19  C   UNL     1       5.244 -11.924  -4.498  1.00  0.00     0.000 C 
BRANCH  19  20
ATOM     20  C   UNL     1       4.117 -12.343  -5.458  1.00  0.00     0.006 C 
BRANCH  20  21
ATOM     21  C   UNL     1       3.208 -11.166  -5.832  1.00  0.00     0.053 C 
BRANCH  21  22
ATOM     22  C   UNL     1       3.998  -9.950  -6.210  1.00  0.00     0.041 C 
ATOM     23  O   UNL     1       3.979  -8.927  -5.478  1.00  0.00    -0.550 OA
ATOM     24  O   UNL     1       4.774  -9.956  -7.364  1.00  0.00    -0.550 OA
ENDBRANCH  21  22
ENDBRANCH  20  21
ENDBRANCH  19  20
ENDBRANCH  18  19
ENDBRANCH  17  18
ENDBRANCH  16  17
ENDBRANCH  15  16
ENDBRANCH  14  15
ENDBRANCH  13  14
ENDBRANCH   1  13
TORSDOF 20
ENDMDL
MODEL 8
REMARK VINA RESULT:    -4.554      3.825      7.084
REMARK INTER + INTRA:         -13.382
REMARK INTER:                  -9.950
REMARK INTRA:                  -3.432
REMARK UNBOUND:                -3.503
REMARK SMILES CCCCCCCCCCCCCCCCCCCCCC(=O)[O-]
REMARK SMILES IDX 12 1 11 2 10 3 9 4 8 5 7 6 6 7 5 8 4 9 3 10 2 11 1 12 13 13
REMARK SMILES IDX 14 14 15 15 16 16 17 17 18 18 19 19 20 20 21 21 22 22 23 23
REMARK SMILES IDX 24 24
REMARK H PARENT
REMARK Flexibility Score: inf
ROOT
ATOM      1  C   UNL     1       2.629  -6.442  -4.724  1.00  0.00     0.000 C 
ENDROOT
BRANCH   1   2
ATOM      2  C   UNL     1       3.112  -5.690  -5.974  1.00  0.00     0.000 C 
BRANCH   2   3
ATOM      3  C   UNL     1       4.608  -5.910  -6.261  1.00  0.00     0.000 C 
BRANCH   3   4
ATOM      4  C   UNL     1       4.884  -6.582  -7.624  1.00  0.00    -0.000 C 
BRANCH   4   5
ATOM      5  C   UNL     1       4.689  -8.106  -7.568  1.00  0.00    -0.000 C 
BRANCH   5   6
ATOM      6  C   UNL     1       3.796  -8.588  -8.721  1.00  0.00    -0.000 C 
BRANCH   6   7
ATOM      7  C   UNL     1       2.568  -9.376  -8.234  1.00  0.00    -0.000 C 
BRANCH   7   8
ATOM      8  C   UNL     1       1.584  -8.503  -7.434  1.00  0.00    -0.000 C 
BRANCH   8   9
ATOM      9  C   UNL     1       0.203  -9.161  -7.283  1.00  0.00    -0.000 C 
BRANCH   9  10
ATOM     10  C   UNL     1       0.135 -10.127  -6.087  1.00  0.00    -0.000 C 
BRANCH  10  11
ATOM     11  C   UNL     1      -0.275 -11.548  -6.501  1.00  0.00    -0.003 C 
ATOM     12  C   UNL     1       0.927 -12.455  -6.767  1.00  0.00     0.004 C 
ENDBRANCH  10  11
ENDBRANCH   9  10
ENDBRANCH   8   9
ENDBRANCH   7   8
ENDBRANCH   6   7
ENDBRANCH   5   6
ENDBRANCH   4   5
ENDBRANCH   3   4
ENDBRANCH   2   3
ENDBRANCH   1   2
BRANCH   1  13
ATOM     13  C   UNL     1       3.766  -7.191  -4.009  1.00  0.00     0.000 C 
BRANCH  13  14
ATOM     14  C   UNL     1       3.388  -8.638  -3.646  1.00  0.00     0.000 C 
BRANCH  14  15
ATOM     15  C   UNL     1       4.368  -9.668  -4.234  1.00  0.00     0.000 C 
BRANCH  15  16
ATOM     16  C   UNL     1       3.651 -10.842  -4.917  1.00  0.00     0.000 C 
BRANCH  16  17
ATOM     17  C   UNL     1       4.580 -11.549  -5.911  1.00  0.00     0.000 C 
BRANCH  17  18
ATOM     18  C   UNL     1       4.674 -13.051  -5.603  1.00  0.00     0.000 C 
BRANCH  18  19
ATOM     19  C   UNL     1       5.159 -13.335  -4.173  1.00  0.00     0.000 C 
BRANCH  19  20
ATOM     20  C   UNL     1       6.646 -12.990  -3.973  1.00  0.00     0.006 C 
BRANCH  20  21
ATOM     21  C   UNL     1       6.885 -12.179  -2.694  1.00  0.00     0.053 C 
BRANCH  21  22
ATOM     22  C   UNL     1       7.619 -12.976  -1.658  1.00  0.00     0.041 C 
ATOM     23  O   UNL     1       7.898 -14.185  -1.867  1.00  0.00    -0.550 OA
ATOM     24  O   UNL     1       8.012 -12.374  -0.468  1.00  0.00    -0.550 OA
ENDBRANCH  21  22
ENDBRANCH  20  21
ENDBRANCH  19  20
ENDBRANCH  18  19
ENDBRANCH  17  18
ENDBRANCH  16  17
ENDBRANCH  15  16
ENDBRANCH  14  15
ENDBRANCH  13  14
ENDBRANCH   1  13
TORSDOF 20
ENDMDL
MODEL 9
REMARK VINA RESULT:    -4.458      2.223      3.508
REMARK INTER + INTRA:         -13.172
REMARK INTER:                  -9.869
REMARK INTRA:                  -3.304
REMARK UNBOUND:                -3.503
REMARK SMILES CCCCCCCCCCCCCCCCCCCCCC(=O)[O-]
REMARK SMILES IDX 12 1 11 2 10 3 9 4 8 5 7 6 6 7 5 8 4 9 3 10 2 11 1 12 13 13
REMARK SMILES IDX 14 14 15 15 16 16 17 17 18 18 19 19 20 20 21 21 22 22 23 23
REMARK SMILES IDX 24 24
REMARK H PARENT
REMARK Flexibility Score: inf
ROOT
ATOM      1  C   UNL     1       8.371 -12.372  -0.502  1.00  0.00     0.000 C 
ENDROOT
BRANCH   1   2
ATOM      2  C   UNL     1       8.155 -10.856  -0.384  1.00  0.00     0.000 C 
BRANCH   2   3
ATOM      3  C   UNL     1       7.659 -10.221  -1.695  1.00  0.00     0.000 C 
BRANCH   3   4
ATOM      4  C   UNL     1       6.466  -9.258  -1.505  1.00  0.00    -0.000 C 
BRANCH   4   5
ATOM      5  C   UNL     1       5.225  -9.713  -2.288  1.00  0.00    -0.000 C 
BRANCH   5   6
ATOM      6  C   UNL     1       4.269 -10.512  -1.388  1.00  0.00    -0.000 C 
BRANCH   6   7
ATOM      7  C   UNL     1       2.976 -10.923  -2.111  1.00  0.00    -0.000 C 
BRANCH   7   8
ATOM      8  C   UNL     1       2.646 -10.005  -3.302  1.00  0.00    -0.000 C 
BRANCH   8   9
ATOM      9  C   UNL     1       1.519 -10.569  -4.184  1.00  0.00    -0.000 C 
BRANCH   9  10
ATOM     10  C   UNL     1       1.085  -9.590  -5.289  1.00  0.00    -0.000 C 
BRANCH  10  11
ATOM     11  C   UNL     1      -0.443  -9.496  -5.424  1.00  0.00    -0.003 C 
ATOM     12  C   UNL     1      -1.049 -10.710  -6.128  1.00  0.00     0.004 C 
ENDBRANCH  10  11
ENDBRANCH   9  10
ENDBRANCH   8   9
ENDBRANCH   7   8
ENDBRANCH   6   7
ENDBRANCH   5   6
ENDBRANCH   4   5
ENDBRANCH   3   4
ENDBRANCH   2   3
ENDBRANCH   1   2
BRANCH   1  13
ATOM     13  C   UNL     1       7.240 -13.073  -1.272  1.00  0.00     0.000 C 
BRANCH  13  14
ATOM     14  C   UNL     1       7.726 -13.722  -2.580  1.00  0.00     0.000 C 
BRANCH  14  15
ATOM     15  C   UNL     1       6.899 -13.281  -3.799  1.00  0.00     0.000 C 
BRANCH  15  16
ATOM     16  C   UNL     1       5.386 -13.380  -3.554  1.00  0.00     0.000 C 
BRANCH  16  17
ATOM     17  C   UNL     1       4.598 -12.872  -4.767  1.00  0.00     0.000 C 
BRANCH  17  18
ATOM     18  C   UNL     1       5.362 -11.749  -5.488  1.00  0.00     0.000 C 
BRANCH  18  19
ATOM     19  C   UNL     1       4.501 -11.021  -6.531  1.00  0.00     0.000 C 
BRANCH  19  20
ATOM     20  C   UNL     1       4.572  -9.490  -6.392  1.00  0.00     0.006 C 
BRANCH  20  21
ATOM     21  C   UNL     1       3.929  -8.769  -7.584  1.00  0.00     0.053 C 
BRANCH  21  22
ATOM     22  C   UNL     1       4.561  -7.433  -7.834  1.00  0.00     0.041 C 
ATOM     23  O   UNL     1       5.160  -7.206  -8.917  1.00  0.00    -0.550 OA
ATOM     24  O   UNL     1       4.469  -6.431  -6.875  1.00  0.00    -0.550 OA
ENDBRANCH  21  22
ENDBRANCH  20  21
ENDBRANCH  19  20
ENDBRANCH  18  19
ENDBRANCH  17  18
ENDBRANCH  16  17
ENDBRANCH  15  16
ENDBRANCH  14  15
ENDBRANCH  13  14
ENDBRANCH   1  13
TORSDOF 20
ENDMDL
