MODEL 1
REMARK VINA RESULT:    -5.481      0.000      0.000
REMARK INTER + INTRA:          -7.050
REMARK INTER:                  -6.763
REMARK INTRA:                  -0.287
REMARK UNBOUND:                -0.287
REMARK SMILES CCOC(=O)c1ccc(O)c(O)c1
REMARK SMILES IDX 4 1 5 2 3 3 2 4 1 5 6 6 13 7 7 8 11 9 8 10 9 11 12 12 10 14
REMARK H PARENT 12 13 10 15
REMARK Flexibility Score: inf
ROOT
ATOM      1  C   UNL     1     -34.501  -4.229 -17.836  1.00  0.00     0.338 C 
ATOM      2  O   UNL     1     -35.198  -5.142 -18.359  1.00  0.00    -0.246 OA
ENDROOT
BRANCH   1   3
ATOM      3  O   UNL     1     -34.753  -3.819 -16.520  1.00  0.00    -0.462 OA
BRANCH   3   4
ATOM      4  C   UNL     1     -36.002  -3.284 -16.088  1.00  0.00     0.230 C 
ATOM      5  C   UNL     1     -36.300  -1.969 -16.800  1.00  0.00     0.049 C 
ENDBRANCH   3   4
ENDBRANCH   1   3
BRANCH   1   6
ATOM      6  C   UNL     1     -33.421  -3.583 -18.615  1.00  0.00     0.064 A 
ATOM      7  C   UNL     1     -33.660  -3.143 -19.929  1.00  0.00     0.065 A 
ATOM      8  C   UNL     1     -32.144  -3.398 -18.054  1.00  0.00     0.020 A 
ATOM      9  C   UNL     1     -32.641  -2.528 -20.670  1.00  0.00     0.158 A 
ATOM     10  C   UNL     1     -31.129  -2.786 -18.795  1.00  0.00     0.051 A 
ATOM     11  C   UNL     1     -31.373  -2.350 -20.103  1.00  0.00     0.157 A 
BRANCH   9  12
ATOM     12  O   UNL     1     -32.881  -2.093 -21.972  1.00  0.00    -0.504 OA
ATOM     13  H   UNL     1     -32.705  -1.135 -22.253  1.00  0.00     0.293 HD
ENDBRANCH   9  12
BRANCH  11  14
ATOM     14  O   UNL     1     -30.363  -1.739 -20.844  1.00  0.00    -0.504 OA
ATOM     15  H   UNL     1     -29.394  -1.776 -20.549  1.00  0.00     0.293 HD
ENDBRANCH  11  14
ENDBRANCH   1   6
TORSDOF 5
ENDMDL
MODEL 2
REMARK VINA RESULT:    -5.393      2.710      4.517
REMARK INTER + INTRA:          -6.941
REMARK INTER:                  -6.871
REMARK INTRA:                  -0.071
REMARK UNBOUND:                -0.287
REMARK SMILES CCOC(=O)c1ccc(O)c(O)c1
REMARK SMILES IDX 4 1 5 2 3 3 2 4 1 5 6 6 13 7 7 8 11 9 8 10 9 11 12 12 10 14
REMARK H PARENT 12 13 10 15
REMARK Flexibility Score: inf
ROOT
ATOM      1  C   UNL     1     -30.137  -3.780 -17.497  1.00  0.00     0.338 C 
ATOM      2  O   UNL     1     -30.724  -3.884 -16.385  1.00  0.00    -0.246 OA
ENDROOT
BRANCH   1   3
ATOM      3  O   UNL     1     -28.782  -4.118 -17.610  1.00  0.00    -0.462 OA
BRANCH   3   4
ATOM      4  C   UNL     1     -28.320  -5.435 -17.901  1.00  0.00     0.230 C 
ATOM      5  C   UNL     1     -29.088  -6.467 -17.083  1.00  0.00     0.049 C 
ENDBRANCH   3   4
ENDBRANCH   1   3
BRANCH   1   6
ATOM      6  C   UNL     1     -30.876  -3.293 -18.683  1.00  0.00     0.064 A 
ATOM      7  C   UNL     1     -30.179  -2.782 -19.793  1.00  0.00     0.065 A 
ATOM      8  C   UNL     1     -32.281  -3.334 -18.719  1.00  0.00     0.020 A 
ATOM      9  C   UNL     1     -30.875  -2.320 -20.919  1.00  0.00     0.158 A 
ATOM     10  C   UNL     1     -32.974  -2.873 -19.843  1.00  0.00     0.051 A 
ATOM     11  C   UNL     1     -32.274  -2.365 -20.945  1.00  0.00     0.157 A 
BRANCH   9  12
ATOM     12  O   UNL     1     -30.182  -1.815 -22.017  1.00  0.00    -0.504 OA
ATOM     13  H   UNL     1     -29.252  -1.421 -21.924  1.00  0.00     0.293 HD
ENDBRANCH   9  12
BRANCH  11  14
ATOM     14  O   UNL     1     -32.961  -1.905 -22.066  1.00  0.00    -0.504 OA
ATOM     15  H   UNL     1     -33.586  -2.508 -22.589  1.00  0.00     0.293 HD
ENDBRANCH  11  14
ENDBRANCH   1   6
TORSDOF 5
ENDMDL
MODEL 3
REMARK VINA RESULT:    -4.970      4.007      7.097
REMARK INTER + INTRA:          -6.419
REMARK INTER:                  -6.172
REMARK INTRA:                  -0.247
REMARK UNBOUND:                -0.287
REMARK SMILES CCOC(=O)c1ccc(O)c(O)c1
REMARK SMILES IDX 4 1 5 2 3 3 2 4 1 5 6 6 13 7 7 8 11 9 8 10 9 11 12 12 10 14
REMARK H PARENT 12 13 10 15
REMARK Flexibility Score: inf
ROOT
ATOM      1  C   UNL     1     -37.690  -5.746 -16.881  1.00  0.00     0.338 C 
ATOM      2  O   UNL     1     -38.891  -5.399 -16.711  1.00  0.00    -0.246 OA
ENDROOT
BRANCH   1   3
ATOM      3  O   UNL     1     -37.018  -5.397 -18.060  1.00  0.00    -0.462 OA
BRANCH   3   4
ATOM      4  C   UNL     1     -35.598  -5.339 -18.169  1.00  0.00     0.230 C 
ATOM      5  C   UNL     1     -35.086  -3.947 -17.814  1.00  0.00     0.049 C 
ENDBRANCH   3   4
ENDBRANCH   1   3
BRANCH   1   6
ATOM      6  C   UNL     1     -36.990  -6.530 -15.839  1.00  0.00     0.064 A 
ATOM      7  C   UNL     1     -36.419  -5.883 -14.728  1.00  0.00     0.065 A 
ATOM      8  C   UNL     1     -36.886  -7.928 -15.942  1.00  0.00     0.020 A 
ATOM      9  C   UNL     1     -35.757  -6.621 -13.737  1.00  0.00     0.158 A 
ATOM     10  C   UNL     1     -36.224  -8.663 -14.954  1.00  0.00     0.051 A 
ATOM     11  C   UNL     1     -35.658  -8.013 -13.850  1.00  0.00     0.157 A 
BRANCH   9  12
ATOM     12  O   UNL     1     -35.192  -5.977 -12.637  1.00  0.00    -0.504 OA
ATOM     13  H   UNL     1     -35.540  -6.128 -11.697  1.00  0.00     0.293 HD
ENDBRANCH   9  12
BRANCH  11  14
ATOM     14  O   UNL     1     -34.998  -8.743 -12.863  1.00  0.00    -0.504 OA
ATOM     15  H   UNL     1     -34.328  -9.466 -13.098  1.00  0.00     0.293 HD
ENDBRANCH  11  14
ENDBRANCH   1   6
TORSDOF 5
ENDMDL
MODEL 4
REMARK VINA RESULT:    -4.942      1.846      5.002
REMARK INTER + INTRA:          -6.385
REMARK INTER:                  -6.236
REMARK INTRA:                  -0.149
REMARK UNBOUND:                -0.287
REMARK SMILES CCOC(=O)c1ccc(O)c(O)c1
REMARK SMILES IDX 4 1 5 2 3 3 2 4 1 5 6 6 13 7 7 8 11 9 8 10 9 11 12 12 10 14
REMARK H PARENT 12 13 10 15
REMARK Flexibility Score: inf
ROOT
ATOM      1  C   UNL     1     -31.917  -2.953 -19.002  1.00  0.00     0.338 C 
ATOM      2  O   UNL     1     -31.216  -2.861 -17.956  1.00  0.00    -0.246 OA
ENDROOT
BRANCH   1   3
ATOM      3  O   UNL     1     -31.438  -2.444 -20.216  1.00  0.00    -0.462 OA
BRANCH   3   4
ATOM      4  C   UNL     1     -30.058  -2.426 -20.572  1.00  0.00     0.230 C 
ATOM      5  C   UNL     1     -29.847  -1.659 -21.873  1.00  0.00     0.049 C 
ENDBRANCH   3   4
ENDBRANCH   1   3
BRANCH   1   6
ATOM      6  C   UNL     1     -33.251  -3.592 -18.946  1.00  0.00     0.064 A 
ATOM      7  C   UNL     1     -33.818  -4.153 -20.105  1.00  0.00     0.065 A 
ATOM      8  C   UNL     1     -33.969  -3.649 -17.738  1.00  0.00     0.020 A 
ATOM      9  C   UNL     1     -35.080  -4.761 -20.057  1.00  0.00     0.158 A 
ATOM     10  C   UNL     1     -35.228  -4.255 -17.692  1.00  0.00     0.051 A 
ATOM     11  C   UNL     1     -35.787  -4.812 -18.850  1.00  0.00     0.157 A 
BRANCH   9  12
ATOM     12  O   UNL     1     -35.639  -5.315 -21.207  1.00  0.00    -0.504 OA
ATOM     13  H   UNL     1     -36.338  -4.821 -21.750  1.00  0.00     0.293 HD
ENDBRANCH   9  12
BRANCH  11  14
ATOM     14  O   UNL     1     -37.042  -5.416 -18.807  1.00  0.00    -0.504 OA
ATOM     15  H   UNL     1     -37.149  -6.420 -18.888  1.00  0.00     0.293 HD
ENDBRANCH  11  14
ENDBRANCH   1   6
TORSDOF 5
ENDMDL
MODEL 5
REMARK VINA RESULT:    -4.925      4.202      6.123
REMARK INTER + INTRA:          -6.364
REMARK INTER:                  -6.067
REMARK INTRA:                  -0.297
REMARK UNBOUND:                -0.287
REMARK SMILES CCOC(=O)c1ccc(O)c(O)c1
REMARK SMILES IDX 4 1 5 2 3 3 2 4 1 5 6 6 13 7 7 8 11 9 8 10 9 11 12 12 10 14
REMARK H PARENT 12 13 10 15
REMARK Flexibility Score: inf
ROOT
ATOM      1  C   UNL     1     -37.030  -8.025 -14.479  1.00  0.00     0.338 C 
ATOM      2  O   UNL     1     -36.314  -8.727 -13.714  1.00  0.00    -0.246 OA
ENDROOT
BRANCH   1   3
ATOM      3  O   UNL     1     -38.316  -8.456 -14.830  1.00  0.00    -0.462 OA
BRANCH   3   4
ATOM      4  C   UNL     1     -39.375  -8.622 -13.890  1.00  0.00     0.230 C 
ATOM      5  C   UNL     1     -39.833  -7.271 -13.351  1.00  0.00     0.049 C 
ENDBRANCH   3   4
ENDBRANCH   1   3
BRANCH   1   6
ATOM      6  C   UNL     1     -36.510  -6.747 -15.016  1.00  0.00     0.064 A 
ATOM      7  C   UNL     1     -36.138  -6.645 -16.368  1.00  0.00     0.065 A 
ATOM      8  C   UNL     1     -36.383  -5.619 -14.186  1.00  0.00     0.020 A 
ATOM      9  C   UNL     1     -35.646  -5.437 -16.882  1.00  0.00     0.158 A 
ATOM     10  C   UNL     1     -35.891  -4.415 -14.699  1.00  0.00     0.051 A 
ATOM     11  C   UNL     1     -35.522  -4.320 -16.047  1.00  0.00     0.157 A 
BRANCH   9  12
ATOM     12  O   UNL     1     -35.277  -5.339 -18.222  1.00  0.00    -0.504 OA
ATOM     13  H   UNL     1     -35.902  -5.624 -18.968  1.00  0.00     0.293 HD
ENDBRANCH   9  12
BRANCH  11  14
ATOM     14  O   UNL     1     -35.032  -3.121 -16.561  1.00  0.00    -0.504 OA
ATOM     15  H   UNL     1     -35.572  -2.566 -17.215  1.00  0.00     0.293 HD
ENDBRANCH  11  14
ENDBRANCH   1   6
TORSDOF 5
ENDMDL
MODEL 6
REMARK VINA RESULT:    -4.923      2.065      3.229
REMARK INTER + INTRA:          -6.362
REMARK INTER:                  -6.065
REMARK INTRA:                  -0.297
REMARK UNBOUND:                -0.287
REMARK SMILES CCOC(=O)c1ccc(O)c(O)c1
REMARK SMILES IDX 4 1 5 2 3 3 2 4 1 5 6 6 13 7 7 8 11 9 8 10 9 11 12 12 10 14
REMARK H PARENT 12 13 10 15
REMARK Flexibility Score: inf
ROOT
ATOM      1  C   UNL     1     -35.858  -4.101 -16.615  1.00  0.00     0.338 C 
ATOM      2  O   UNL     1     -36.710  -3.189 -16.431  1.00  0.00    -0.246 OA
ENDROOT
BRANCH   1   3
ATOM      3  O   UNL     1     -35.593  -5.030 -15.600  1.00  0.00    -0.462 OA
BRANCH   3   4
ATOM      4  C   UNL     1     -36.459  -6.115 -15.280  1.00  0.00     0.230 C 
ATOM      5  C   UNL     1     -36.167  -7.318 -16.170  1.00  0.00     0.049 C 
ENDBRANCH   3   4
ENDBRANCH   1   3
BRANCH   1   6
ATOM      6  C   UNL     1     -35.130  -4.188 -17.900  1.00  0.00     0.064 A 
ATOM      7  C   UNL     1     -33.867  -3.585 -18.042  1.00  0.00     0.065 A 
ATOM      8  C   UNL     1     -35.686  -4.872 -18.996  1.00  0.00     0.020 A 
ATOM      9  C   UNL     1     -33.172  -3.665 -19.258  1.00  0.00     0.158 A 
ATOM     10  C   UNL     1     -34.993  -4.951 -20.207  1.00  0.00     0.051 A 
ATOM     11  C   UNL     1     -33.736  -4.349 -20.342  1.00  0.00     0.157 A 
BRANCH   9  12
ATOM     12  O   UNL     1     -31.921  -3.067 -19.395  1.00  0.00    -0.504 OA
ATOM     13  H   UNL     1     -31.819  -2.128 -19.763  1.00  0.00     0.293 HD
ENDBRANCH   9  12
BRANCH  11  14
ATOM     14  O   UNL     1     -33.042  -4.425 -21.548  1.00  0.00    -0.504 OA
ATOM     15  H   UNL     1     -32.596  -3.612 -21.955  1.00  0.00     0.293 HD
ENDBRANCH  11  14
ENDBRANCH   1   6
TORSDOF 5
ENDMDL
MODEL 7
REMARK VINA RESULT:    -4.907      2.465      3.307
REMARK INTER + INTRA:          -6.341
REMARK INTER:                  -6.069
REMARK INTRA:                  -0.272
REMARK UNBOUND:                -0.287
REMARK SMILES CCOC(=O)c1ccc(O)c(O)c1
REMARK SMILES IDX 4 1 5 2 3 3 2 4 1 5 6 6 13 7 7 8 11 9 8 10 9 11 12 12 10 14
REMARK H PARENT 12 13 10 15
REMARK Flexibility Score: inf
ROOT
ATOM      1  C   UNL     1     -36.510  -4.974 -17.236  1.00  0.00     0.338 C 
ATOM      2  O   UNL     1     -37.753  -4.886 -17.433  1.00  0.00    -0.246 OA
ENDROOT
BRANCH   1   3
ATOM      3  O   UNL     1     -36.019  -5.258 -15.955  1.00  0.00    -0.462 OA
BRANCH   3   4
ATOM      4  C   UNL     1     -36.425  -6.389 -15.189  1.00  0.00     0.230 C 
ATOM      5  C   UNL     1     -36.197  -7.678 -15.971  1.00  0.00     0.049 C 
ENDBRANCH   3   4
ENDBRANCH   1   3
BRANCH   1   6
ATOM      6  C   UNL     1     -35.566  -4.768 -18.358  1.00  0.00     0.064 A 
ATOM      7  C   UNL     1     -35.817  -5.352 -19.612  1.00  0.00     0.065 A 
ATOM      8  C   UNL     1     -34.409  -3.988 -18.187  1.00  0.00     0.020 A 
ATOM      9  C   UNL     1     -34.928  -5.159 -20.679  1.00  0.00     0.158 A 
ATOM     10  C   UNL     1     -33.522  -3.796 -19.251  1.00  0.00     0.051 A 
ATOM     11  C   UNL     1     -33.778  -4.380 -20.498  1.00  0.00     0.157 A 
BRANCH   9  12
ATOM     12  O   UNL     1     -35.179  -5.738 -21.921  1.00  0.00    -0.504 OA
ATOM     13  H   UNL     1     -35.987  -6.330 -22.077  1.00  0.00     0.293 HD
ENDBRANCH   9  12
BRANCH  11  14
ATOM     14  O   UNL     1     -32.896  -4.191 -21.560  1.00  0.00    -0.504 OA
ATOM     15  H   UNL     1     -32.504  -3.280 -21.768  1.00  0.00     0.293 HD
ENDBRANCH  11  14
ENDBRANCH   1   6
TORSDOF 5
ENDMDL
MODEL 8
REMARK VINA RESULT:    -4.856      3.146      4.642
REMARK INTER + INTRA:          -6.279
REMARK INTER:                  -5.988
REMARK INTRA:                  -0.291
REMARK UNBOUND:                -0.287
REMARK SMILES CCOC(=O)c1ccc(O)c(O)c1
REMARK SMILES IDX 4 1 5 2 3 3 2 4 1 5 6 6 13 7 7 8 11 9 8 10 9 11 12 12 10 14
REMARK H PARENT 12 13 10 15
REMARK Flexibility Score: inf
ROOT
ATOM      1  C   UNL     1     -36.098  -6.120 -15.430  1.00  0.00     0.338 C 
ATOM      2  O   UNL     1     -36.407  -5.570 -14.336  1.00  0.00    -0.246 OA
ENDROOT
BRANCH   1   3
ATOM      3  O   UNL     1     -35.921  -7.508 -15.493  1.00  0.00    -0.462 OA
BRANCH   3   4
ATOM      4  C   UNL     1     -36.882  -8.447 -15.017  1.00  0.00     0.230 C 
ATOM      5  C   UNL     1     -38.136  -8.420 -15.883  1.00  0.00     0.049 C 
ENDBRANCH   3   4
ENDBRANCH   1   3
BRANCH   1   6
ATOM      6  C   UNL     1     -35.914  -5.298 -16.646  1.00  0.00     0.064 A 
ATOM      7  C   UNL     1     -36.537  -5.666 -17.853  1.00  0.00     0.065 A 
ATOM      8  C   UNL     1     -35.118  -4.139 -16.616  1.00  0.00     0.020 A 
ATOM      9  C   UNL     1     -36.368  -4.890 -19.008  1.00  0.00     0.158 A 
ATOM     10  C   UNL     1     -34.949  -3.366 -17.768  1.00  0.00     0.051 A 
ATOM     11  C   UNL     1     -35.572  -3.738 -18.966  1.00  0.00     0.157 A 
BRANCH   9  12
ATOM     12  O   UNL     1     -36.986  -5.257 -20.201  1.00  0.00    -0.504 OA
ATOM     13  H   UNL     1     -37.954  -5.558 -20.228  1.00  0.00     0.293 HD
ENDBRANCH   9  12
BRANCH  11  14
ATOM     14  O   UNL     1     -35.406  -2.970 -20.117  1.00  0.00    -0.504 OA
ATOM     15  H   UNL     1     -34.496  -2.618 -20.392  1.00  0.00     0.293 HD
ENDBRANCH  11  14
ENDBRANCH   1   6
TORSDOF 5
ENDMDL
MODEL 9
REMARK VINA RESULT:    -4.761      4.138      6.244
REMARK INTER + INTRA:          -6.161
REMARK INTER:                  -5.877
REMARK INTRA:                  -0.284
REMARK UNBOUND:                -0.287
REMARK SMILES CCOC(=O)c1ccc(O)c(O)c1
REMARK SMILES IDX 4 1 5 2 3 3 2 4 1 5 6 6 13 7 7 8 11 9 8 10 9 11 12 12 10 14
REMARK H PARENT 12 13 10 15
REMARK Flexibility Score: inf
ROOT
ATOM      1  C   UNL     1     -36.833  -8.179 -15.621  1.00  0.00     0.338 C 
ATOM      2  O   UNL     1     -35.992  -9.047 -15.262  1.00  0.00    -0.246 OA
ENDROOT
BRANCH   1   3
ATOM      3  O   UNL     1     -38.173  -8.538 -15.820  1.00  0.00    -0.462 OA
BRANCH   3   4
ATOM      4  C   UNL     1     -39.021  -9.021 -14.781  1.00  0.00     0.230 C 
ATOM      5  C   UNL     1     -39.356  -7.906 -13.797  1.00  0.00     0.049 C 
ENDBRANCH   3   4
ENDBRANCH   1   3
BRANCH   1   6
ATOM      6  C   UNL     1     -36.405  -6.779 -15.843  1.00  0.00     0.064 A 
ATOM      7  C   UNL     1     -36.389  -5.865 -14.774  1.00  0.00     0.065 A 
ATOM      8  C   UNL     1     -36.008  -6.344 -17.120  1.00  0.00     0.020 A 
ATOM      9  C   UNL     1     -35.983  -4.538 -14.978  1.00  0.00     0.158 A 
ATOM     10  C   UNL     1     -35.603  -5.021 -17.322  1.00  0.00     0.051 A 
ATOM     11  C   UNL     1     -35.590  -4.115 -16.254  1.00  0.00     0.157 A 
BRANCH   9  12
ATOM     12  O   UNL     1     -35.968  -3.635 -13.917  1.00  0.00    -0.504 OA
ATOM     13  H   UNL     1     -35.114  -3.173 -13.625  1.00  0.00     0.293 HD
ENDBRANCH   9  12
BRANCH  11  14
ATOM     14  O   UNL     1     -35.187  -2.796 -16.452  1.00  0.00    -0.504 OA
ATOM     15  H   UNL     1     -34.453  -2.377 -15.894  1.00  0.00     0.293 HD
ENDBRANCH  11  14
ENDBRANCH   1   6
TORSDOF 5
ENDMDL
