MODEL 1
REMARK VINA RESULT:    -3.819      0.000      0.000
REMARK INTER + INTRA:          -5.798
REMARK INTER:                  -5.828
REMARK INTRA:                   0.029
REMARK UNBOUND:                 0.029
REMARK SMILES CC1=CCC[C@H](C)C(=O)C[C@H](C(C)C)C(=O)C1
REMARK SMILES IDX 8 1 9 2 6 3 7 4 5 5 4 6 3 7 2 8 1 9 10 11 11 12 15 13 16 14
REMARK SMILES IDX 17 15 12 17 13 18 14 19
REMARK H PARENT
REMARK Flexibility Score: 70.00
ROOT
ATOM      1  C   UNL     1       9.032  34.900 -11.132  1.00  0.00     0.136 C 
ATOM      2  O   UNL     1       7.867  35.269 -11.125  1.00  0.00    -0.299 OA
ENDROOT
BRANCH   1   3
ATOM      3  C   UNL     1       9.995  35.544 -12.113  1.00  0.00     0.053 C 
ATOM      4  C   UNL     1      11.448  35.370 -11.654  1.00  0.00     0.016 C 
BRANCH   3   5
ATOM      5  C   UNL     1       9.794  35.001 -13.540  1.00  0.00     0.015 C 
BRANCH   5   6
ATOM      6  C   UNL     1      10.886  33.987 -13.928  1.00  0.00     0.028 C 
BRANCH   6   7
ATOM      7  C   UNL     1      10.306  32.610 -14.117  1.00  0.00    -0.028 C 
ATOM      8  C   UNL     1      10.468  31.582 -13.251  1.00  0.00    -0.070 CG0
ATOM      9  C   UNL     1       9.857  30.250 -13.609  1.00  0.00     0.039 C 
ATOM     10  G   UNL     1      11.228  31.715 -11.940  1.00  0.00     0.000 G0
ENDBRANCH   6   7
ENDBRANCH   5   6
ENDBRANCH   3   5
ENDBRANCH   1   3
BRANCH   1  11
ATOM     11  C   UNL     1       9.463  33.842 -10.139  1.00  0.00     0.087 C 
BRANCH  11  12
ATOM     12  C   UNL     1       9.063  32.412 -10.593  1.00  0.00     0.066 C 
BRANCH  12  13
ATOM     13  C   UNL     1      10.316  31.559 -10.726  1.00  0.00     0.140 C 
ATOM     14  O   UNL     1      10.542  30.690  -9.895  1.00  0.00    -0.299 OA
BRANCH  13  15
ATOM     15  C   UNL     1      11.221  31.689 -11.927  1.00  0.00     0.106 CG0
ATOM     16  G   UNL     1      10.459  31.561 -13.237  1.00  0.00     0.000 G0
ENDBRANCH  13  15
ENDBRANCH  12  13
BRANCH  12  17
ATOM     17  C   UNL     1       8.042  31.736  -9.619  1.00  0.00    -0.006 C 
ATOM     18  C   UNL     1       7.447  30.451 -10.228  1.00  0.00     0.008 C 
ATOM     19  C   UNL     1       6.882  32.680  -9.244  1.00  0.00     0.008 C 
ENDBRANCH  12  17
ENDBRANCH  11  12
ENDBRANCH   1  11
TORSDOF 1
ENDMDL
MODEL 2
REMARK VINA RESULT:    -3.599     15.300     16.771
REMARK INTER + INTRA:          -5.463
REMARK INTER:                  -5.555
REMARK INTRA:                   0.092
REMARK UNBOUND:                 0.029
REMARK SMILES CC1=CCC[C@H](C)C(=O)C[C@H](C(C)C)C(=O)C1
REMARK SMILES IDX 8 1 9 2 6 3 7 4 5 5 4 6 3 7 2 8 1 9 10 11 11 12 15 13 16 14
REMARK SMILES IDX 17 15 12 17 13 18 14 19
REMARK H PARENT
REMARK Flexibility Score: 70.00
ROOT
ATOM      1  C   UNL     1       2.095  31.967 -26.073  1.00  0.00     0.136 C 
ATOM      2  O   UNL     1       2.643  32.873 -25.462  1.00  0.00    -0.299 OA
ENDROOT
BRANCH   1   3
ATOM      3  C   UNL     1       1.784  32.163 -27.546  1.00  0.00     0.053 C 
ATOM      4  C   UNL     1       2.403  31.046 -28.394  1.00  0.00     0.016 C 
BRANCH   3   5
ATOM      5  C   UNL     1       0.268  32.274 -27.793  1.00  0.00     0.015 C 
BRANCH   5   6
ATOM      6  C   UNL     1      -0.471  32.859 -26.575  1.00  0.00     0.028 C 
BRANCH   6   7
ATOM      7  C   UNL     1      -1.765  32.131 -26.323  1.00  0.00    -0.028 C 
ATOM      8  C   UNL     1      -2.121  31.587 -25.135  1.00  0.00    -0.070 CG0
ATOM      9  C   UNL     1      -3.435  30.851 -25.058  1.00  0.00     0.039 C 
ATOM     10  G   UNL     1      -1.262  31.693 -23.884  1.00  0.00     0.000 G0
ENDBRANCH   6   7
ENDBRANCH   5   6
ENDBRANCH   3   5
ENDBRANCH   1   3
BRANCH   1  11
ATOM     11  C   UNL     1       1.784  30.681 -25.337  1.00  0.00     0.087 C 
BRANCH  11  12
ATOM     12  C   UNL     1       1.275  30.938 -23.893  1.00  0.00     0.066 C 
BRANCH  12  13
ATOM     13  C   UNL     1      -0.205  30.594 -23.813  1.00  0.00     0.140 C 
ATOM     14  O   UNL     1      -0.541  29.437 -23.601  1.00  0.00    -0.299 OA
BRANCH  13  15
ATOM     15  C   UNL     1      -1.258  31.672 -23.877  1.00  0.00     0.106 CG0
ATOM     16  G   UNL     1      -2.119  31.562 -25.125  1.00  0.00     0.000 G0
ENDBRANCH  13  15
ENDBRANCH  12  13
BRANCH  12  17
ATOM     17  C   UNL     1       2.082  30.134 -22.820  1.00  0.00    -0.006 C 
ATOM     18  C   UNL     1       3.007  31.058 -22.001  1.00  0.00     0.008 C 
ATOM     19  C   UNL     1       2.942  29.021 -23.451  1.00  0.00     0.008 C 
ENDBRANCH  12  17
ENDBRANCH  11  12
ENDBRANCH   1  11
TORSDOF 1
ENDMDL
MODEL 3
REMARK VINA RESULT:    -3.512      3.571      5.343
REMARK INTER + INTRA:          -5.331
REMARK INTER:                  -5.057
REMARK INTRA:                  -0.274
REMARK UNBOUND:                 0.029
REMARK SMILES CC1=CCC[C@H](C)C(=O)C[C@H](C(C)C)C(=O)C1
REMARK SMILES IDX 8 1 9 2 6 3 7 4 5 5 4 6 3 7 2 8 1 9 10 11 11 12 15 13 16 14
REMARK SMILES IDX 17 15 12 17 13 18 14 19
REMARK H PARENT
REMARK Flexibility Score: 70.00
ROOT
ATOM      1  C   UNL     1       7.639  30.375  -9.592  1.00  0.00     0.136 C 
ATOM      2  O   UNL     1       8.334  29.576  -8.982  1.00  0.00    -0.299 OA
ENDROOT
BRANCH   1   3
ATOM      3  C   UNL     1       8.227  31.082 -10.799  1.00  0.00     0.053 C 
ATOM      4  C   UNL     1       8.968  32.358 -10.385  1.00  0.00     0.016 C 
BRANCH   3   5
ATOM      5  C   UNL     1       9.142  30.146 -11.611  1.00  0.00     0.015 C 
BRANCH   5   6
ATOM      6  C   UNL     1       8.353  29.339 -12.660  1.00  0.00     0.028 C 
BRANCH   6   7
ATOM      7  C   UNL     1       8.116  27.927 -12.193  1.00  0.00    -0.028 C 
ATOM      8  C   UNL     1       6.913  27.436 -11.812  1.00  0.00    -0.070 CG0
ATOM      9  C   UNL     1       6.852  26.008 -11.330  1.00  0.00     0.039 C 
ATOM     10  G   UNL     1       5.631  28.253 -11.858  1.00  0.00     0.000 G0
ENDBRANCH   6   7
ENDBRANCH   5   6
ENDBRANCH   3   5
ENDBRANCH   1   3
BRANCH   1  11
ATOM     11  C   UNL     1       6.213  30.594  -9.131  1.00  0.00     0.087 C 
BRANCH  11  12
ATOM     12  C   UNL     1       5.179  30.275 -10.245  1.00  0.00     0.066 C 
BRANCH  12  13
ATOM     13  C   UNL     1       5.191  28.779 -10.527  1.00  0.00     0.140 C 
ATOM     14  O   UNL     1       4.756  28.006  -9.684  1.00  0.00    -0.299 OA
BRANCH  13  15
ATOM     15  C   UNL     1       5.624  28.246 -11.870  1.00  0.00     0.106 CG0
ATOM     16  G   UNL     1       6.913  27.444 -11.783  1.00  0.00     0.000 G0
ENDBRANCH  13  15
ENDBRANCH  12  13
BRANCH  12  17
ATOM     17  C   UNL     1       3.735  30.751  -9.878  1.00  0.00    -0.006 C 
ATOM     18  C   UNL     1       2.837  30.845 -11.128  1.00  0.00     0.008 C 
ATOM     19  C   UNL     1       3.734  32.123  -9.174  1.00  0.00     0.008 C 
ENDBRANCH  12  17
ENDBRANCH  11  12
ENDBRANCH   1  11
TORSDOF 1
ENDMDL
MODEL 4
REMARK VINA RESULT:    -3.500      1.928      4.397
REMARK INTER + INTRA:          -5.312
REMARK INTER:                  -5.122
REMARK INTRA:                  -0.190
REMARK UNBOUND:                 0.029
REMARK SMILES CC1=CCC[C@H](C)C(=O)C[C@H](C(C)C)C(=O)C1
REMARK SMILES IDX 8 1 9 2 6 3 7 4 5 5 4 6 3 7 2 8 1 9 10 11 11 12 15 13 16 14
REMARK SMILES IDX 17 15 12 17 13 18 14 19
REMARK H PARENT
REMARK Flexibility Score: 70.00
ROOT
ATOM      1  C   UNL     1      11.242  32.439 -13.737  1.00  0.00     0.136 C 
ATOM      2  O   UNL     1      11.297  33.031 -14.805  1.00  0.00    -0.299 OA
ENDROOT
BRANCH   1   3
ATOM      3  C   UNL     1      11.223  30.921 -13.745  1.00  0.00     0.053 C 
ATOM      4  C   UNL     1      12.348  30.349 -12.875  1.00  0.00     0.016 C 
BRANCH   3   5
ATOM      5  C   UNL     1       9.851  30.371 -13.311  1.00  0.00     0.015 C 
BRANCH   5   6
ATOM      6  C   UNL     1       9.909  29.713 -11.920  1.00  0.00     0.028 C 
BRANCH   6   7
ATOM      7  C   UNL     1       8.711  30.090 -11.090  1.00  0.00    -0.028 C 
ATOM      8  C   UNL     1       8.648  31.173 -10.279  1.00  0.00    -0.070 CG0
ATOM      9  C   UNL     1       7.387  31.386  -9.479  1.00  0.00     0.039 C 
ATOM     10  G   UNL     1       9.782  32.177 -10.148  1.00  0.00     0.000 G0
ENDBRANCH   6   7
ENDBRANCH   5   6
ENDBRANCH   3   5
ENDBRANCH   1   3
BRANCH   1  11
ATOM     11  C   UNL     1      11.230  33.248 -12.458  1.00  0.00     0.087 C 
BRANCH  11  12
ATOM     12  C   UNL     1       9.838  33.873 -12.170  1.00  0.00     0.066 C 
BRANCH  12  13
ATOM     13  C   UNL     1       9.415  33.525 -10.750  1.00  0.00     0.140 C 
ATOM     14  O   UNL     1       8.695  34.297 -10.133  1.00  0.00    -0.299 OA
BRANCH  13  15
ATOM     15  C   UNL     1       9.775  32.195 -10.137  1.00  0.00     0.106 CG0
ATOM     16  G   UNL     1       8.645  31.184 -10.253  1.00  0.00     0.000 G0
ENDBRANCH  13  15
ENDBRANCH  12  13
BRANCH  12  17
ATOM     17  C   UNL     1       9.819  35.423 -12.383  1.00  0.00    -0.006 C 
ATOM     18  C   UNL     1       9.173  35.799 -13.732  1.00  0.00     0.008 C 
ATOM     19  C   UNL     1      11.233  36.035 -12.333  1.00  0.00     0.008 C 
ENDBRANCH  12  17
ENDBRANCH  11  12
ENDBRANCH   1  11
TORSDOF 1
ENDMDL
MODEL 5
REMARK VINA RESULT:    -3.422     14.003     16.239
REMARK INTER + INTRA:          -5.193
REMARK INTER:                  -4.867
REMARK INTRA:                  -0.326
REMARK UNBOUND:                 0.029
REMARK SMILES CC1=CCC[C@H](C)C(=O)C[C@H](C(C)C)C(=O)C1
REMARK SMILES IDX 8 1 9 2 6 3 7 4 5 5 4 6 3 7 2 8 1 9 10 11 11 12 15 13 16 14
REMARK SMILES IDX 17 15 12 17 13 18 14 19
REMARK H PARENT
REMARK Flexibility Score: 70.00
ROOT
ATOM      1  C   UNL     1      -3.264  22.225 -11.903  1.00  0.00     0.136 C 
ATOM      2  O   UNL     1      -3.153  21.048 -11.593  1.00  0.00    -0.299 OA
ENDROOT
BRANCH   1   3
ATOM      3  C   UNL     1      -2.418  23.254 -11.176  1.00  0.00     0.053 C 
ATOM      4  C   UNL     1      -2.525  23.083  -9.656  1.00  0.00     0.016 C 
BRANCH   3   5
ATOM      5  C   UNL     1      -0.950  23.207 -11.639  1.00  0.00     0.015 C 
BRANCH   5   6
ATOM      6  C   UNL     1      -0.738  23.973 -12.958  1.00  0.00     0.028 C 
BRANCH   6   7
ATOM      7  C   UNL     1      -1.251  25.385 -12.855  1.00  0.00    -0.028 C 
ATOM      8  C   UNL     1      -2.261  25.892 -13.600  1.00  0.00    -0.070 CG0
ATOM      9  C   UNL     1      -2.626  27.343 -13.405  1.00  0.00     0.039 C 
ATOM     10  G   UNL     1      -3.040  25.066 -14.612  1.00  0.00     0.000 G0
ENDBRANCH   6   7
ENDBRANCH   5   6
ENDBRANCH   3   5
ENDBRANCH   1   3
BRANCH   1  11
ATOM     11  C   UNL     1      -4.215  22.593 -13.022  1.00  0.00     0.087 C 
BRANCH  11  12
ATOM     12  C   UNL     1      -4.757  24.041 -12.880  1.00  0.00     0.066 C 
BRANCH  12  13
ATOM     13  C   UNL     1      -4.473  24.811 -14.162  1.00  0.00     0.140 C 
ATOM     14  O   UNL     1      -5.404  25.303 -14.785  1.00  0.00    -0.299 OA
BRANCH  13  15
ATOM     15  C   UNL     1      -3.058  25.074 -14.613  1.00  0.00     0.106 CG0
ATOM     16  G   UNL     1      -2.272  25.885 -13.594  1.00  0.00     0.000 G0
ENDBRANCH  13  15
ENDBRANCH  12  13
BRANCH  12  17
ATOM     17  C   UNL     1      -6.285  24.081 -12.545  1.00  0.00    -0.006 C 
ATOM     18  C   UNL     1      -6.553  24.827 -11.222  1.00  0.00     0.008 C 
ATOM     19  C   UNL     1      -6.895  22.669 -12.439  1.00  0.00     0.008 C 
ENDBRANCH  12  17
ENDBRANCH  11  12
ENDBRANCH   1  11
TORSDOF 1
ENDMDL
MODEL 6
REMARK VINA RESULT:    -3.414      3.387      6.020
REMARK INTER + INTRA:          -5.182
REMARK INTER:                  -5.274
REMARK INTRA:                   0.092
REMARK UNBOUND:                 0.029
REMARK SMILES CC1=CCC[C@H](C)C(=O)C[C@H](C(C)C)C(=O)C1
REMARK SMILES IDX 8 1 9 2 6 3 7 4 5 5 4 6 3 7 2 8 1 9 10 11 11 12 15 13 16 14
REMARK SMILES IDX 17 15 12 17 13 18 14 19
REMARK H PARENT
REMARK Flexibility Score: 70.00
ROOT
ATOM      1  C   UNL     1      12.565  35.164 -16.004  1.00  0.00     0.136 C 
ATOM      2  O   UNL     1      12.842  35.650 -17.090  1.00  0.00    -0.299 OA
ENDROOT
BRANCH   1   3
ATOM      3  C   UNL     1      11.977  33.765 -15.959  1.00  0.00     0.053 C 
ATOM      4  C   UNL     1      12.797  32.793 -16.815  1.00  0.00     0.016 C 
BRANCH   3   5
ATOM      5  C   UNL     1      11.844  33.256 -14.511  1.00  0.00     0.015 C 
BRANCH   5   6
ATOM      6  C   UNL     1      10.372  33.109 -14.086  1.00  0.00     0.028 C 
BRANCH   6   7
ATOM      7  C   UNL     1      10.222  33.230 -12.592  1.00  0.00    -0.028 C 
ATOM      8  C   UNL     1      10.040  34.397 -11.931  1.00  0.00    -0.070 CG0
ATOM      9  C   UNL     1       9.951  34.352 -10.426  1.00  0.00     0.039 C 
ATOM     10  G   UNL     1       9.915  35.739 -12.636  1.00  0.00     0.000 G0
ENDBRANCH   6   7
ENDBRANCH   5   6
ENDBRANCH   3   5
ENDBRANCH   1   3
BRANCH   1  11
ATOM     11  C   UNL     1      12.853  35.969 -14.755  1.00  0.00     0.087 C 
BRANCH  11  12
ATOM     12  C   UNL     1      11.633  36.819 -14.307  1.00  0.00     0.066 C 
BRANCH  12  13
ATOM     13  C   UNL     1      11.233  36.418 -12.895  1.00  0.00     0.140 C 
ATOM     14  O   UNL     1      11.960  36.717 -11.958  1.00  0.00    -0.299 OA
BRANCH  13  15
ATOM     15  C   UNL     1       9.902  35.761 -12.622  1.00  0.00     0.106 CG0
ATOM     16  G   UNL     1      10.058  34.412 -11.936  1.00  0.00     0.000 G0
ENDBRANCH  13  15
ENDBRANCH  12  13
BRANCH  12  17
ATOM     17  C   UNL     1      11.911  38.357 -14.381  1.00  0.00    -0.006 C 
ATOM     18  C   UNL     1      10.750  39.170 -13.776  1.00  0.00     0.008 C 
ATOM     19  C   UNL     1      12.141  38.838 -15.828  1.00  0.00     0.008 C 
ENDBRANCH  12  17
ENDBRANCH  11  12
ENDBRANCH   1  11
TORSDOF 1
ENDMDL
MODEL 7
REMARK VINA RESULT:    -3.359     14.166     16.404
REMARK INTER + INTRA:          -5.097
REMARK INTER:                  -5.422
REMARK INTRA:                   0.325
REMARK UNBOUND:                 0.029
REMARK SMILES CC1=CCC[C@H](C)C(=O)C[C@H](C(C)C)C(=O)C1
REMARK SMILES IDX 8 1 9 2 6 3 7 4 5 5 4 6 3 7 2 8 1 9 10 11 11 12 15 13 16 14
REMARK SMILES IDX 17 15 12 17 13 18 14 19
REMARK H PARENT
REMARK Flexibility Score: 70.00
ROOT
ATOM      1  C   UNL     1      -3.932  26.119 -16.536  1.00  0.00     0.136 C 
ATOM      2  O   UNL     1      -3.559  26.152 -17.699  1.00  0.00    -0.299 OA
ENDROOT
BRANCH   1   3
ATOM      3  C   UNL     1      -5.285  26.712 -16.186  1.00  0.00     0.053 C 
ATOM      4  C   UNL     1      -5.623  27.895 -17.101  1.00  0.00     0.016 C 
BRANCH   3   5
ATOM      5  C   UNL     1      -6.396  25.645 -16.224  1.00  0.00     0.015 C 
BRANCH   5   6
ATOM      6  C   UNL     1      -5.937  24.317 -15.594  1.00  0.00     0.028 C 
BRANCH   6   7
ATOM      7  C   UNL     1      -6.442  24.182 -14.182  1.00  0.00    -0.028 C 
ATOM      8  C   UNL     1      -5.652  24.161 -13.082  1.00  0.00    -0.070 CG0
ATOM      9  C   UNL     1      -6.313  23.977 -11.739  1.00  0.00     0.039 C 
ATOM     10  G   UNL     1      -4.142  24.323 -13.144  1.00  0.00     0.000 G0
ENDBRANCH   6   7
ENDBRANCH   5   6
ENDBRANCH   3   5
ENDBRANCH   1   3
BRANCH   1  11
ATOM     11  C   UNL     1      -3.040  25.459 -15.507  1.00  0.00     0.087 C 
BRANCH  11  12
ATOM     12  C   UNL     1      -2.860  26.334 -14.236  1.00  0.00     0.066 C 
BRANCH  12  13
ATOM     13  C   UNL     1      -3.702  25.758 -13.107  1.00  0.00     0.140 C 
ATOM     14  O   UNL     1      -4.114  26.501 -12.227  1.00  0.00    -0.299 OA
BRANCH  13  15
ATOM     15  C   UNL     1      -4.131  24.312 -13.118  1.00  0.00     0.106 CG0
ATOM     16  G   UNL     1      -5.644  24.161 -13.087  1.00  0.00     0.000 G0
ENDBRANCH  13  15
ENDBRANCH  12  13
BRANCH  12  17
ATOM     17  C   UNL     1      -1.363  26.454 -13.797  1.00  0.00    -0.006 C 
ATOM     18  C   UNL     1      -1.038  27.870 -13.282  1.00  0.00     0.008 C 
ATOM     19  C   UNL     1      -0.390  26.119 -14.945  1.00  0.00     0.008 C 
ENDBRANCH  12  17
ENDBRANCH  11  12
ENDBRANCH   1  11
TORSDOF 1
ENDMDL
MODEL 8
REMARK VINA RESULT:    -3.261     13.293     15.647
REMARK INTER + INTRA:          -4.948
REMARK INTER:                  -4.713
REMARK INTRA:                  -0.235
REMARK UNBOUND:                 0.029
REMARK SMILES CC1=CCC[C@H](C)C(=O)C[C@H](C(C)C)C(=O)C1
REMARK SMILES IDX 8 1 9 2 6 3 7 4 5 5 4 6 3 7 2 8 1 9 10 11 11 12 15 13 16 14
REMARK SMILES IDX 17 15 12 17 13 18 14 19
REMARK H PARENT
REMARK Flexibility Score: 70.00
ROOT
ATOM      1  C   UNL     1      -0.471  24.376 -12.832  1.00  0.00     0.136 C 
ATOM      2  O   UNL     1       0.645  24.377 -12.334  1.00  0.00    -0.299 OA
ENDROOT
BRANCH   1   3
ATOM      3  C   UNL     1      -0.904  25.577 -13.654  1.00  0.00     0.053 C 
ATOM      4  C   UNL     1       0.276  26.164 -14.438  1.00  0.00     0.016 C 
BRANCH   3   5
ATOM      5  C   UNL     1      -2.075  25.226 -14.592  1.00  0.00     0.015 C 
BRANCH   5   6
ATOM      6  C   UNL     1      -3.405  25.825 -14.098  1.00  0.00     0.028 C 
BRANCH   6   7
ATOM      7  C   UNL     1      -4.559  24.903 -14.391  1.00  0.00    -0.028 C 
ATOM      8  C   UNL     1      -5.134  24.080 -13.483  1.00  0.00    -0.070 CG0
ATOM      9  C   UNL     1      -6.256  23.185 -13.949  1.00  0.00     0.039 C 
ATOM     10  G   UNL     1      -4.706  24.026 -12.025  1.00  0.00     0.000 G0
ENDBRANCH   6   7
ENDBRANCH   5   6
ENDBRANCH   3   5
ENDBRANCH   1   3
BRANCH   1  11
ATOM     11  C   UNL     1      -1.354  23.163 -12.632  1.00  0.00     0.087 C 
BRANCH  11  12
ATOM     12  C   UNL     1      -2.255  23.291 -11.374  1.00  0.00     0.066 C 
BRANCH  12  13
ATOM     13  C   UNL     1      -3.687  22.934 -11.742  1.00  0.00     0.140 C 
ATOM     14  O   UNL     1      -4.034  21.761 -11.729  1.00  0.00    -0.299 OA
BRANCH  13  15
ATOM     15  C   UNL     1      -4.711  24.008 -12.011  1.00  0.00     0.106 CG0
ATOM     16  G   UNL     1      -5.117  24.062 -13.475  1.00  0.00     0.000 G0
ENDBRANCH  13  15
ENDBRANCH  12  13
BRANCH  12  17
ATOM     17  C   UNL     1      -1.757  22.403 -10.185  1.00  0.00    -0.006 C 
ATOM     18  C   UNL     1      -1.090  23.254  -9.086  1.00  0.00     0.008 C 
ATOM     19  C   UNL     1      -0.753  21.326 -10.643  1.00  0.00     0.008 C 
ENDBRANCH  12  17
ENDBRANCH  11  12
ENDBRANCH   1  11
TORSDOF 1
ENDMDL
MODEL 9
REMARK VINA RESULT:    -3.154      1.934      2.457
REMARK INTER + INTRA:          -4.783
REMARK INTER:                  -5.480
REMARK INTRA:                   0.697
REMARK UNBOUND:                 0.029
REMARK SMILES CC1=CCC[C@H](C)C(=O)C[C@H](C(C)C)C(=O)C1
REMARK SMILES IDX 8 1 9 2 6 3 7 4 5 5 4 6 3 7 2 8 1 9 10 11 11 12 15 13 16 14
REMARK SMILES IDX 17 15 12 17 13 18 14 19
REMARK H PARENT
REMARK Flexibility Score: 70.00
ROOT
ATOM      1  C   UNL     1       9.919  35.649 -12.523  1.00  0.00     0.136 C 
ATOM      2  O   UNL     1       8.754  35.697 -12.890  1.00  0.00    -0.299 OA
ENDROOT
BRANCH   1   3
ATOM      3  C   UNL     1      10.939  36.539 -13.211  1.00  0.00     0.053 C 
ATOM      4  C   UNL     1      12.045  36.965 -12.239  1.00  0.00     0.016 C 
BRANCH   3   5
ATOM      5  C   UNL     1      11.528  35.859 -14.461  1.00  0.00     0.015 C 
BRANCH   5   6
ATOM      6  C   UNL     1      12.783  35.031 -14.127  1.00  0.00     0.028 C 
BRANCH   6   7
ATOM      7  C   UNL     1      12.753  33.695 -14.820  1.00  0.00    -0.028 C 
ATOM      8  C   UNL     1      12.344  32.540 -14.244  1.00  0.00    -0.070 CG0
ATOM      9  C   UNL     1      12.416  31.275 -15.063  1.00  0.00     0.039 C 
ATOM     10  G   UNL     1      11.812  32.466 -12.822  1.00  0.00     0.000 G0
ENDBRANCH   6   7
ENDBRANCH   5   6
ENDBRANCH   3   5
ENDBRANCH   1   3
BRANCH   1  11
ATOM     11  C   UNL     1      10.280  34.729 -11.377  1.00  0.00     0.087 C 
BRANCH  11  12
ATOM     12  C   UNL     1       9.669  33.311 -11.545  1.00  0.00     0.066 C 
BRANCH  12  13
ATOM     13  C   UNL     1      10.321  32.621 -12.734  1.00  0.00     0.140 C 
ATOM     14  O   UNL     1       9.629  32.284 -13.685  1.00  0.00    -0.299 OA
BRANCH  13  15
ATOM     15  C   UNL     1      11.818  32.450 -12.807  1.00  0.00     0.106 CG0
ATOM     16  G   UNL     1      12.338  32.548 -14.233  1.00  0.00     0.000 G0
ENDBRANCH  13  15
ENDBRANCH  12  13
BRANCH  12  17
ATOM     17  C   UNL     1       9.816  32.437 -10.256  1.00  0.00    -0.006 C 
ATOM     18  C   UNL     1      11.292  32.298  -9.833  1.00  0.00     0.008 C 
ATOM     19  C   UNL     1       9.229  31.023 -10.440  1.00  0.00     0.008 C 
ENDBRANCH  12  17
ENDBRANCH  11  12
ENDBRANCH   1  11
TORSDOF 1
ENDMDL
