MODEL 1
REMARK VINA RESULT:    -4.111      0.000      0.000
REMARK INTER + INTRA:          -6.545
REMARK INTER:                  -6.034
REMARK INTRA:                  -0.511
REMARK UNBOUND:                -0.511
REMARK SMILES O=C([O-])CCCCCCCC(=O)[O-]
REMARK SMILES IDX 7 1 6 2 5 3 4 4 2 5 1 6 3 7 8 8 9 9 10 10 11 11 12 12 13 13
REMARK H PARENT
REMARK Flexibility Score: inf
ROOT
ATOM      1  C   UNL     1       3.916   5.178  29.573  1.00  0.00     0.000 C 
ENDROOT
BRANCH   1   2
ATOM      2  C   UNL     1       4.622   4.140  28.686  1.00  0.00     0.000 C 
BRANCH   2   3
ATOM      3  C   UNL     1       3.657   3.564  27.642  1.00  0.00     0.006 C 
BRANCH   3   4
ATOM      4  C   UNL     1       2.980   4.681  26.843  1.00  0.00     0.053 C 
BRANCH   4   5
ATOM      5  C   UNL     1       3.927   5.253  25.837  1.00  0.00     0.041 C 
ATOM      6  O   UNL     1       4.369   6.424  25.977  1.00  0.00    -0.550 OA
ATOM      7  O   UNL     1       4.284   4.512  24.718  1.00  0.00    -0.550 OA
ENDBRANCH   4   5
ENDBRANCH   3   4
ENDBRANCH   2   3
ENDBRANCH   1   2
BRANCH   1   8
ATOM      8  C   UNL     1       3.330   4.562  30.853  1.00  0.00     0.000 C 
BRANCH   8   9
ATOM      9  C   UNL     1       1.796   4.640  30.900  1.00  0.00     0.006 C 
BRANCH   9  10
ATOM     10  C   UNL     1       1.325   5.414  32.135  1.00  0.00     0.053 C 
BRANCH  10  11
ATOM     11  C   UNL     1       1.085   6.850  31.792  1.00  0.00     0.041 C 
ATOM     12  O   UNL     1       0.228   7.160  30.924  1.00  0.00    -0.550 OA
ATOM     13  O   UNL     1       1.775   7.850  32.467  1.00  0.00    -0.550 OA
ENDBRANCH  10  11
ENDBRANCH   9  10
ENDBRANCH   8   9
ENDBRANCH   1   8
TORSDOF 8
ENDMDL
MODEL 2
REMARK VINA RESULT:    -4.110      1.057      5.783
REMARK INTER + INTRA:          -6.543
REMARK INTER:                  -6.037
REMARK INTRA:                  -0.505
REMARK UNBOUND:                -0.511
REMARK SMILES O=C([O-])CCCCCCCC(=O)[O-]
REMARK SMILES IDX 7 1 6 2 5 3 4 4 2 5 1 6 3 7 8 8 9 9 10 10 11 11 12 12 13 13
REMARK H PARENT
REMARK Flexibility Score: inf
ROOT
ATOM      1  C   UNL     1       1.446   4.379  29.168  1.00  0.00     0.000 C 
ENDROOT
BRANCH   1   2
ATOM      2  C   UNL     1       2.049   3.985  30.526  1.00  0.00     0.000 C 
BRANCH   2   3
ATOM      3  C   UNL     1       2.447   5.229  31.331  1.00  0.00     0.006 C 
BRANCH   3   4
ATOM      4  C   UNL     1       1.249   5.793  32.100  1.00  0.00     0.053 C 
BRANCH   4   5
ATOM      5  C   UNL     1       1.092   7.255  31.828  1.00  0.00     0.041 C 
ATOM      6  O   UNL     1       1.941   8.075  32.266  1.00  0.00    -0.550 OA
ATOM      7  O   UNL     1      -0.017   7.718  31.133  1.00  0.00    -0.550 OA
ENDBRANCH   4   5
ENDBRANCH   3   4
ENDBRANCH   2   3
ENDBRANCH   1   2
BRANCH   1   8
ATOM      8  C   UNL     1       1.965   3.505  28.015  1.00  0.00     0.000 C 
BRANCH   8   9
ATOM      9  C   UNL     1       3.487   3.612  27.829  1.00  0.00     0.006 C 
BRANCH   9  10
ATOM     10  C   UNL     1       3.889   5.030  27.413  1.00  0.00     0.053 C 
BRANCH  10  11
ATOM     11  C   UNL     1       3.510   5.285  25.989  1.00  0.00     0.041 C 
ATOM     12  O   UNL     1       2.685   6.193  25.706  1.00  0.00    -0.550 OA
ATOM     13  O   UNL     1       4.105   4.552  24.970  1.00  0.00    -0.550 OA
ENDBRANCH  10  11
ENDBRANCH   9  10
ENDBRANCH   8   9
ENDBRANCH   1   8
TORSDOF 8
ENDMDL
MODEL 3
REMARK VINA RESULT:    -4.053      0.800      5.654
REMARK INTER + INTRA:          -6.459
REMARK INTER:                  -5.889
REMARK INTRA:                  -0.570
REMARK UNBOUND:                -0.511
REMARK SMILES O=C([O-])CCCCCCCC(=O)[O-]
REMARK SMILES IDX 7 1 6 2 5 3 4 4 2 5 1 6 3 7 8 8 9 9 10 10 11 11 12 12 13 13
REMARK H PARENT
REMARK Flexibility Score: inf
ROOT
ATOM      1  C   UNL     1       3.950   5.283  29.428  1.00  0.00     0.000 C 
ENDROOT
BRANCH   1   2
ATOM      2  C   UNL     1       3.540   4.919  30.863  1.00  0.00     0.000 C 
BRANCH   2   3
ATOM      3  C   UNL     1       2.059   4.527  30.928  1.00  0.00     0.006 C 
BRANCH   3   4
ATOM      4  C   UNL     1       1.338   5.285  32.046  1.00  0.00     0.053 C 
BRANCH   4   5
ATOM      5  C   UNL     1       1.269   6.745  31.729  1.00  0.00     0.041 C 
ATOM      6  O   UNL     1       1.613   7.597  32.590  1.00  0.00    -0.550 OA
ATOM      7  O   UNL     1       0.780   7.168  30.500  1.00  0.00    -0.550 OA
ENDBRANCH   4   5
ENDBRANCH   3   4
ENDBRANCH   2   3
ENDBRANCH   1   2
BRANCH   1   8
ATOM      8  C   UNL     1       4.697   4.143  28.718  1.00  0.00     0.000 C 
BRANCH   8   9
ATOM      9  C   UNL     1       3.855   3.477  27.618  1.00  0.00     0.006 C 
BRANCH   9  10
ATOM     10  C   UNL     1       2.760   4.424  27.118  1.00  0.00     0.053 C 
BRANCH  10  11
ATOM     11  C   UNL     1       3.031   4.838  25.706  1.00  0.00     0.041 C 
ATOM     12  O   UNL     1       4.205   5.099  25.337  1.00  0.00    -0.550 OA
ATOM     13  O   UNL     1       1.991   4.888  24.785  1.00  0.00    -0.550 OA
ENDBRANCH  10  11
ENDBRANCH   9  10
ENDBRANCH   8   9
ENDBRANCH   1   8
TORSDOF 8
ENDMDL
MODEL 4
REMARK VINA RESULT:    -4.048     10.297     11.480
REMARK INTER + INTRA:          -6.451
REMARK INTER:                  -5.608
REMARK INTRA:                  -0.843
REMARK UNBOUND:                -0.511
REMARK SMILES O=C([O-])CCCCCCCC(=O)[O-]
REMARK SMILES IDX 7 1 6 2 5 3 4 4 2 5 1 6 3 7 8 8 9 9 10 10 11 11 12 12 13 13
REMARK H PARENT
REMARK Flexibility Score: inf
ROOT
ATOM      1  C   UNL     1      -4.109   3.399  21.513  1.00  0.00     0.000 C 
ENDROOT
BRANCH   1   2
ATOM      2  C   UNL     1      -4.091   4.753  20.786  1.00  0.00     0.000 C 
BRANCH   2   3
ATOM      3  C   UNL     1      -5.516   5.240  20.499  1.00  0.00     0.006 C 
BRANCH   3   4
ATOM      4  C   UNL     1      -6.498   4.067  20.442  1.00  0.00     0.053 C 
BRANCH   4   5
ATOM      5  C   UNL     1      -7.842   4.483  20.949  1.00  0.00     0.041 C 
ATOM      6  O   UNL     1      -8.720   3.617  21.203  1.00  0.00    -0.550 OA
ATOM      7  O   UNL     1      -8.144   5.831  21.095  1.00  0.00    -0.550 OA
ENDBRANCH   4   5
ENDBRANCH   3   4
ENDBRANCH   2   3
ENDBRANCH   1   2
BRANCH   1   8
ATOM      8  C   UNL     1      -3.639   3.505  22.972  1.00  0.00     0.000 C 
BRANCH   8   9
ATOM      9  C   UNL     1      -4.434   2.593  23.919  1.00  0.00     0.006 C 
BRANCH   9  10
ATOM     10  C   UNL     1      -5.899   3.034  24.004  1.00  0.00     0.053 C 
BRANCH  10  11
ATOM     11  C   UNL     1      -6.003   4.380  24.648  1.00  0.00     0.041 C 
ATOM     12  O   UNL     1      -6.555   5.333  24.038  1.00  0.00    -0.550 OA
ATOM     13  O   UNL     1      -5.533   4.570  25.942  1.00  0.00    -0.550 OA
ENDBRANCH  10  11
ENDBRANCH   9  10
ENDBRANCH   8   9
ENDBRANCH   1   8
TORSDOF 8
ENDMDL
MODEL 5
REMARK VINA RESULT:    -4.016      1.453      2.176
REMARK INTER + INTRA:          -6.405
REMARK INTER:                  -5.932
REMARK INTRA:                  -0.473
REMARK UNBOUND:                -0.511
REMARK SMILES O=C([O-])CCCCCCCC(=O)[O-]
REMARK SMILES IDX 7 1 6 2 5 3 4 4 2 5 1 6 3 7 8 8 9 9 10 10 11 11 12 12 13 13
REMARK H PARENT
REMARK Flexibility Score: inf
ROOT
ATOM      1  C   UNL     1       2.112   4.166  30.671  1.00  0.00     0.000 C 
ENDROOT
BRANCH   1   2
ATOM      2  C   UNL     1       1.499   4.207  29.263  1.00  0.00     0.000 C 
BRANCH   2   3
ATOM      3  C   UNL     1       2.354   3.411  28.268  1.00  0.00     0.006 C 
BRANCH   3   4
ATOM      4  C   UNL     1       3.801   3.913  28.264  1.00  0.00     0.053 C 
BRANCH   4   5
ATOM      5  C   UNL     1       3.908   5.197  27.505  1.00  0.00     0.041 C 
ATOM      6  O   UNL     1       3.817   5.200  26.250  1.00  0.00    -0.550 OA
ATOM      7  O   UNL     1       4.158   6.385  28.180  1.00  0.00    -0.550 OA
ENDBRANCH   4   5
ENDBRANCH   3   4
ENDBRANCH   2   3
ENDBRANCH   1   2
BRANCH   1   8
ATOM      8  C   UNL     1       2.386   5.567  31.238  1.00  0.00     0.000 C 
BRANCH   8   9
ATOM      9  C   UNL     1       1.181   6.145  31.998  1.00  0.00     0.006 C 
BRANCH   9  10
ATOM     10  C   UNL     1       1.539   7.479  32.659  1.00  0.00     0.053 C 
BRANCH  10  11
ATOM     11  C   UNL     1       1.305   8.613  31.711  1.00  0.00     0.041 C 
ATOM     12  O   UNL     1       0.179   8.762  31.169  1.00  0.00    -0.550 OA
ATOM     13  O   UNL     1       2.317   9.532  31.464  1.00  0.00    -0.550 OA
ENDBRANCH  10  11
ENDBRANCH   9  10
ENDBRANCH   8   9
ENDBRANCH   1   8
TORSDOF 8
ENDMDL
MODEL 6
REMARK VINA RESULT:    -4.007      3.251      4.521
REMARK INTER + INTRA:          -6.392
REMARK INTER:                  -5.842
REMARK INTRA:                  -0.551
REMARK UNBOUND:                -0.511
REMARK SMILES O=C([O-])CCCCCCCC(=O)[O-]
REMARK SMILES IDX 7 1 6 2 5 3 4 4 2 5 1 6 3 7 8 8 9 9 10 10 11 11 12 12 13 13
REMARK H PARENT
REMARK Flexibility Score: inf
ROOT
ATOM      1  C   UNL     1       0.414   6.438  30.698  1.00  0.00     0.000 C 
ENDROOT
BRANCH   1   2
ATOM      2  C   UNL     1       0.109   5.689  29.391  1.00  0.00     0.000 C 
BRANCH   2   3
ATOM      3  C   UNL     1      -1.387   5.751  29.059  1.00  0.00     0.006 C 
BRANCH   3   4
ATOM      4  C   UNL     1      -1.824   4.522  28.257  1.00  0.00     0.053 C 
BRANCH   4   5
ATOM      5  C   UNL     1      -1.150   4.500  26.922  1.00  0.00     0.041 C 
ATOM      6  O   UNL     1      -1.371   5.416  26.087  1.00  0.00    -0.550 OA
ATOM      7  O   UNL     1      -0.317   3.443  26.581  1.00  0.00    -0.550 OA
ENDBRANCH   4   5
ENDBRANCH   3   4
ENDBRANCH   2   3
ENDBRANCH   1   2
BRANCH   1   8
ATOM      8  C   UNL     1       1.278   5.614  31.665  1.00  0.00     0.000 C 
BRANCH   8   9
ATOM      9  C   UNL     1       1.997   4.447  30.970  1.00  0.00     0.006 C 
BRANCH   9  10
ATOM     10  C   UNL     1       3.496   4.731  30.835  1.00  0.00     0.053 C 
BRANCH  10  11
ATOM     11  C   UNL     1       3.851   5.004  29.408  1.00  0.00     0.041 C 
ATOM     12  O   UNL     1       3.596   6.124  28.895  1.00  0.00    -0.550 OA
ATOM     13  O   UNL     1       4.507   4.035  28.658  1.00  0.00    -0.550 OA
ENDBRANCH  10  11
ENDBRANCH   9  10
ENDBRANCH   8   9
ENDBRANCH   1   8
TORSDOF 8
ENDMDL
MODEL 7
REMARK VINA RESULT:    -4.003      1.995      2.248
REMARK INTER + INTRA:          -6.385
REMARK INTER:                  -5.776
REMARK INTRA:                  -0.609
REMARK UNBOUND:                -0.511
REMARK SMILES O=C([O-])CCCCCCCC(=O)[O-]
REMARK SMILES IDX 7 1 6 2 5 3 4 4 2 5 1 6 3 7 8 8 9 9 10 10 11 11 12 12 13 13
REMARK H PARENT
REMARK Flexibility Score: inf
ROOT
ATOM      1  C   UNL     1       4.046   5.097  29.026  1.00  0.00     0.000 C 
ENDROOT
BRANCH   1   2
ATOM      2  C   UNL     1       4.337   3.763  28.322  1.00  0.00     0.000 C 
BRANCH   2   3
ATOM      3  C   UNL     1       3.488   3.616  27.053  1.00  0.00     0.006 C 
BRANCH   3   4
ATOM      4  C   UNL     1       2.083   3.105  27.387  1.00  0.00     0.053 C 
BRANCH   4   5
ATOM      5  C   UNL     1       1.066   3.753  26.503  1.00  0.00     0.041 C 
ATOM      6  O   UNL     1       1.324   4.848  25.938  1.00  0.00    -0.550 OA
ATOM      7  O   UNL     1      -0.186   3.173  26.341  1.00  0.00    -0.550 OA
ENDBRANCH   4   5
ENDBRANCH   3   4
ENDBRANCH   2   3
ENDBRANCH   1   2
BRANCH   1   8
ATOM      8  C   UNL     1       3.834   4.934  30.539  1.00  0.00     0.000 C 
BRANCH   8   9
ATOM      9  C   UNL     1       2.480   4.293  30.882  1.00  0.00     0.006 C 
BRANCH   9  10
ATOM     10  C   UNL     1       1.583   5.279  31.637  1.00  0.00     0.053 C 
BRANCH  10  11
ATOM     11  C   UNL     1       0.636   5.953  30.695  1.00  0.00     0.041 C 
ATOM     12  O   UNL     1       0.356   5.421  29.589  1.00  0.00    -0.550 OA
ATOM     13  O   UNL     1       0.026   7.147  31.059  1.00  0.00    -0.550 OA
ENDBRANCH  10  11
ENDBRANCH   9  10
ENDBRANCH   8   9
ENDBRANCH   1   8
TORSDOF 8
ENDMDL
MODEL 8
REMARK VINA RESULT:    -4.001      1.648      5.515
REMARK INTER + INTRA:          -6.383
REMARK INTER:                  -5.853
REMARK INTRA:                  -0.530
REMARK UNBOUND:                -0.511
REMARK SMILES O=C([O-])CCCCCCCC(=O)[O-]
REMARK SMILES IDX 7 1 6 2 5 3 4 4 2 5 1 6 3 7 8 8 9 9 10 10 11 11 12 12 13 13
REMARK H PARENT
REMARK Flexibility Score: inf
ROOT
ATOM      1  C   UNL     1       3.287   5.458  29.283  1.00  0.00     0.000 C 
ENDROOT
BRANCH   1   2
ATOM      2  C   UNL     1       3.249   5.464  30.819  1.00  0.00     0.000 C 
BRANCH   2   3
ATOM      3  C   UNL     1       1.926   4.887  31.337  1.00  0.00     0.006 C 
BRANCH   3   4
ATOM      4  C   UNL     1       1.283   5.822  32.365  1.00  0.00     0.053 C 
BRANCH   4   5
ATOM      5  C   UNL     1       0.956   7.142  31.741  1.00  0.00     0.041 C 
ATOM      6  O   UNL     1       1.423   8.205  32.227  1.00  0.00    -0.550 OA
ATOM      7  O   UNL     1       0.096   7.202  30.652  1.00  0.00    -0.550 OA
ENDBRANCH   4   5
ENDBRANCH   3   4
ENDBRANCH   2   3
ENDBRANCH   1   2
BRANCH   1   8
ATOM      8  C   UNL     1       4.331   4.480  28.720  1.00  0.00     0.000 C 
BRANCH   8   9
ATOM      9  C   UNL     1       3.702   3.371  27.862  1.00  0.00     0.006 C 
BRANCH   9  10
ATOM     10  C   UNL     1       2.179   3.350  28.024  1.00  0.00     0.053 C 
BRANCH  10  11
ATOM     11  C   UNL     1       1.510   3.488  26.693  1.00  0.00     0.041 C 
ATOM     12  O   UNL     1       0.495   2.794  26.420  1.00  0.00    -0.550 OA
ATOM     13  O   UNL     1       1.978   4.416  25.772  1.00  0.00    -0.550 OA
ENDBRANCH  10  11
ENDBRANCH   9  10
ENDBRANCH   8   9
ENDBRANCH   1   8
TORSDOF 8
ENDMDL
MODEL 9
REMARK VINA RESULT:    -3.991      2.637      3.784
REMARK INTER + INTRA:          -6.368
REMARK INTER:                  -5.704
REMARK INTRA:                  -0.664
REMARK UNBOUND:                -0.511
REMARK SMILES O=C([O-])CCCCCCCC(=O)[O-]
REMARK SMILES IDX 7 1 6 2 5 3 4 4 2 5 1 6 3 7 8 8 9 9 10 10 11 11 12 12 13 13
REMARK H PARENT
REMARK Flexibility Score: inf
ROOT
ATOM      1  C   UNL     1       1.542   5.365  31.845  1.00  0.00     0.000 C 
ENDROOT
BRANCH   1   2
ATOM      2  C   UNL     1       2.291   4.551  30.779  1.00  0.00     0.000 C 
BRANCH   2   3
ATOM      3  C   UNL     1       3.795   4.849  30.818  1.00  0.00     0.006 C 
BRANCH   3   4
ATOM      4  C   UNL     1       4.252   5.541  29.530  1.00  0.00     0.053 C 
BRANCH   4   5
ATOM      5  C   UNL     1       3.933   4.694  28.339  1.00  0.00     0.041 C 
ATOM      6  O   UNL     1       4.509   3.586  28.178  1.00  0.00    -0.550 OA
ATOM      7  O   UNL     1       3.037   5.150  27.381  1.00  0.00    -0.550 OA
ENDBRANCH   4   5
ENDBRANCH   3   4
ENDBRANCH   2   3
ENDBRANCH   1   2
BRANCH   1   8
ATOM      8  C   UNL     1       0.690   6.492  31.239  1.00  0.00     0.000 C 
BRANCH   8   9
ATOM      9  C   UNL     1       0.461   6.315  29.730  1.00  0.00     0.006 C 
BRANCH   9  10
ATOM     10  C   UNL     1      -1.009   6.005  29.432  1.00  0.00     0.053 C 
BRANCH  10  11
ATOM     11  C   UNL     1      -1.118   4.930  28.397  1.00  0.00     0.041 C 
ATOM     12  O   UNL     1      -0.103   4.264  28.067  1.00  0.00    -0.550 OA
ATOM     13  O   UNL     1      -2.352   4.632  27.833  1.00  0.00    -0.550 OA
ENDBRANCH  10  11
ENDBRANCH   9  10
ENDBRANCH   8   9
ENDBRANCH   1   8
TORSDOF 8
ENDMDL
