MODEL 1
REMARK VINA RESULT:    -3.613      0.000      0.000
REMARK INTER + INTRA:          -4.354
REMARK INTER:                  -4.352
REMARK INTRA:                  -0.002
REMARK UNBOUND:                -0.002
REMARK SMILES OCC(O)CO
REMARK SMILES IDX 3 1 5 2 6 3 2 5 1 6 4 8
REMARK H PARENT 6 4 1 7 4 9
REMARK Flexibility Score: inf
ROOT
ATOM      1  C   UNL     1      11.297  40.879 108.999  1.00  0.00     0.165 C 
ENDROOT
BRANCH   1   2
ATOM      2  C   UNL     1       9.960  40.119 109.057  1.00  0.00     0.190 C 
BRANCH   2   3
ATOM      3  O   UNL     1      10.098  38.932 109.790  1.00  0.00    -0.394 OA
ATOM      4  H   UNL     1      10.665  39.156 110.573  1.00  0.00     0.210 HD
ENDBRANCH   2   3
ENDBRANCH   1   2
BRANCH   1   5
ATOM      5  C   UNL     1      11.673  41.302 107.570  1.00  0.00     0.190 C 
BRANCH   5   6
ATOM      6  O   UNL     1      13.054  41.165 107.375  1.00  0.00    -0.394 OA
ATOM      7  H   UNL     1      13.349  40.447 107.995  1.00  0.00     0.210 HD
ENDBRANCH   5   6
ENDBRANCH   1   5
BRANCH   1   8
ATOM      8  O   UNL     1      12.326  40.118 109.579  1.00  0.00    -0.388 OA
ATOM      9  H   UNL     1      12.810  40.701 110.221  1.00  0.00     0.211 HD
ENDBRANCH   1   8
TORSDOF 5
ENDMDL
MODEL 2
REMARK VINA RESULT:    -3.568      0.423      3.065
REMARK INTER + INTRA:          -4.301
REMARK INTER:                  -4.298
REMARK INTRA:                  -0.003
REMARK UNBOUND:                -0.002
REMARK SMILES OCC(O)CO
REMARK SMILES IDX 3 1 5 2 6 3 2 5 1 6 4 8
REMARK H PARENT 6 4 1 7 4 9
REMARK Flexibility Score: inf
ROOT
ATOM      1  C   UNL     1      11.516  40.350 108.755  1.00  0.00     0.165 C 
ENDROOT
BRANCH   1   2
ATOM      2  C   UNL     1      11.826  41.341 107.620  1.00  0.00     0.190 C 
BRANCH   2   3
ATOM      3  O   UNL     1      13.160  41.220 107.207  1.00  0.00    -0.394 OA
ATOM      4  H   UNL     1      13.204  40.396 106.656  1.00  0.00     0.210 HD
ENDBRANCH   2   3
ENDBRANCH   1   2
BRANCH   1   5
ATOM      5  C   UNL     1      10.040  40.384 109.181  1.00  0.00     0.190 C 
BRANCH   5   6
ATOM      6  O   UNL     1       9.710  39.207 109.868  1.00  0.00    -0.394 OA
ATOM      7  H   UNL     1       9.077  38.715 109.282  1.00  0.00     0.210 HD
ENDBRANCH   5   6
ENDBRANCH   1   5
BRANCH   1   8
ATOM      8  O   UNL     1      12.357  40.580 109.858  1.00  0.00    -0.388 OA
ATOM      9  H   UNL     1      12.303  41.546 110.084  1.00  0.00     0.211 HD
ENDBRANCH   1   8
TORSDOF 5
ENDMDL
MODEL 3
REMARK VINA RESULT:    -3.525     13.951     14.770
REMARK INTER + INTRA:          -4.249
REMARK INTER:                  -4.028
REMARK INTRA:                  -0.220
REMARK UNBOUND:                -0.002
REMARK SMILES OCC(O)CO
REMARK SMILES IDX 3 1 5 2 6 3 2 5 1 6 4 8
REMARK H PARENT 6 4 1 7 4 9
REMARK Flexibility Score: inf
ROOT
ATOM      1  C   UNL     1      22.568  33.825 100.776  1.00  0.00     0.165 C 
ENDROOT
BRANCH   1   2
ATOM      2  C   UNL     1      21.309  33.375 101.537  1.00  0.00     0.190 C 
BRANCH   2   3
ATOM      3  O   UNL     1      21.519  33.434 102.922  1.00  0.00    -0.394 OA
ATOM      4  H   UNL     1      22.075  34.241 103.081  1.00  0.00     0.210 HD
ENDBRANCH   2   3
ENDBRANCH   1   2
BRANCH   1   5
ATOM      5  C   UNL     1      23.791  33.976 101.694  1.00  0.00     0.190 C 
BRANCH   5   6
ATOM      6  O   UNL     1      23.726  35.192 102.387  1.00  0.00    -0.394 OA
ATOM      7  H   UNL     1      24.395  35.128 103.118  1.00  0.00     0.210 HD
ENDBRANCH   5   6
ENDBRANCH   1   5
BRANCH   1   8
ATOM      8  O   UNL     1      22.323  35.019 100.075  1.00  0.00    -0.388 OA
ATOM      9  H   UNL     1      21.361  35.032  99.825  1.00  0.00     0.211 HD
ENDBRANCH   1   8
TORSDOF 5
ENDMDL
MODEL 4
REMARK VINA RESULT:    -3.492     14.759     15.288
REMARK INTER + INTRA:          -4.209
REMARK INTER:                  -4.207
REMARK INTRA:                  -0.003
REMARK UNBOUND:                -0.002
REMARK SMILES OCC(O)CO
REMARK SMILES IDX 3 1 5 2 6 3 2 5 1 6 4 8
REMARK H PARENT 6 4 1 7 4 9
REMARK Flexibility Score: inf
ROOT
ATOM      1  C   UNL     1      22.169  34.036 101.072  1.00  0.00     0.165 C 
ENDROOT
BRANCH   1   2
ATOM      2  C   UNL     1      23.414  34.023 101.977  1.00  0.00     0.190 C 
BRANCH   2   3
ATOM      3  O   UNL     1      23.673  35.304 102.482  1.00  0.00    -0.394 OA
ATOM      4  H   UNL     1      24.546  35.244 102.950  1.00  0.00     0.210 HD
ENDBRANCH   2   3
ENDBRANCH   1   2
BRANCH   1   5
ATOM      5  C   UNL     1      21.719  32.624 100.667  1.00  0.00     0.190 C 
BRANCH   5   6
ATOM      6  O   UNL     1      21.442  32.583  99.293  1.00  0.00    -0.394 OA
ATOM      7  H   UNL     1      21.132  33.494  99.048  1.00  0.00     0.210 HD
ENDBRANCH   5   6
ENDBRANCH   1   5
BRANCH   1   8
ATOM      8  O   UNL     1      22.392  34.833  99.936  1.00  0.00    -0.388 OA
ATOM      9  H   UNL     1      23.349  34.744  99.685  1.00  0.00     0.211 HD
ENDBRANCH   1   8
TORSDOF 5
ENDMDL
MODEL 5
REMARK VINA RESULT:    -3.426      1.366      1.935
REMARK INTER + INTRA:          -4.130
REMARK INTER:                  -3.906
REMARK INTRA:                  -0.224
REMARK UNBOUND:                -0.002
REMARK SMILES OCC(O)CO
REMARK SMILES IDX 3 1 5 2 6 3 2 5 1 6 4 8
REMARK H PARENT 6 4 1 7 4 9
REMARK Flexibility Score: inf
ROOT
ATOM      1  C   UNL     1      10.611  40.567 108.204  1.00  0.00     0.165 C 
ENDROOT
BRANCH   1   2
ATOM      2  C   UNL     1       9.529  40.077 109.182  1.00  0.00     0.190 C 
BRANCH   2   3
ATOM      3  O   UNL     1       9.931  38.892 109.812  1.00  0.00    -0.394 OA
ATOM      4  H   UNL     1      10.168  38.260 109.085  1.00  0.00     0.210 HD
ENDBRANCH   2   3
ENDBRANCH   1   2
BRANCH   1   5
ATOM      5  C   UNL     1      11.741  41.334 108.909  1.00  0.00     0.190 C 
BRANCH   5   6
ATOM      6  O   UNL     1      12.412  40.489 109.803  1.00  0.00    -0.394 OA
ATOM      7  H   UNL     1      12.710  39.706 109.270  1.00  0.00     0.210 HD
ENDBRANCH   5   6
ENDBRANCH   1   5
BRANCH   1   8
ATOM      8  O   UNL     1      10.041  41.349 107.184  1.00  0.00    -0.388 OA
ATOM      9  H   UNL     1      10.365  40.997 106.314  1.00  0.00     0.211 HD
ENDBRANCH   1   8
TORSDOF 5
ENDMDL
MODEL 6
REMARK VINA RESULT:    -3.417     13.938     14.930
REMARK INTER + INTRA:          -4.119
REMARK INTER:                  -3.901
REMARK INTRA:                  -0.219
REMARK UNBOUND:                -0.002
REMARK SMILES OCC(O)CO
REMARK SMILES IDX 3 1 5 2 6 3 2 5 1 6 4 8
REMARK H PARENT 6 4 1 7 4 9
REMARK Flexibility Score: inf
ROOT
ATOM      1  C   UNL     1      23.306  33.935 102.116  1.00  0.00     0.165 C 
ENDROOT
BRANCH   1   2
ATOM      2  C   UNL     1      23.188  33.760 100.592  1.00  0.00     0.190 C 
BRANCH   2   3
ATOM      3  O   UNL     1      22.483  34.830 100.024  1.00  0.00    -0.394 OA
ATOM      4  H   UNL     1      21.587  34.475  99.787  1.00  0.00     0.210 HD
ENDBRANCH   2   3
ENDBRANCH   1   2
BRANCH   1   5
ATOM      5  C   UNL     1      22.037  33.493 102.862  1.00  0.00     0.190 C 
BRANCH   5   6
ATOM      6  O   UNL     1      20.961  33.403 101.969  1.00  0.00    -0.394 OA
ATOM      7  H   UNL     1      21.336  33.582 101.067  1.00  0.00     0.210 HD
ENDBRANCH   5   6
ENDBRANCH   1   5
BRANCH   1   8
ATOM      8  O   UNL     1      23.636  35.263 102.439  1.00  0.00    -0.388 OA
ATOM      9  H   UNL     1      23.082  35.860 101.870  1.00  0.00     0.211 HD
ENDBRANCH   1   8
TORSDOF 5
ENDMDL
MODEL 7
REMARK VINA RESULT:    -3.308      1.360      2.964
REMARK INTER + INTRA:          -3.987
REMARK INTER:                  -3.766
REMARK INTRA:                  -0.221
REMARK UNBOUND:                -0.002
REMARK SMILES OCC(O)CO
REMARK SMILES IDX 3 1 5 2 6 3 2 5 1 6 4 8
REMARK H PARENT 6 4 1 7 4 9
REMARK Flexibility Score: inf
ROOT
ATOM      1  C   UNL     1      10.574  41.418 108.523  1.00  0.00     0.165 C 
ENDROOT
BRANCH   1   2
ATOM      2  C   UNL     1      12.009  41.592 109.051  1.00  0.00     0.190 C 
BRANCH   2   3
ATOM      3  O   UNL     1      12.400  40.474 109.800  1.00  0.00    -0.394 OA
ATOM      4  H   UNL     1      13.386  40.413 109.708  1.00  0.00     0.210 HD
ENDBRANCH   2   3
ENDBRANCH   1   2
BRANCH   1   5
ATOM      5  C   UNL     1      10.108  39.954 108.551  1.00  0.00     0.190 C 
BRANCH   5   6
ATOM      6  O   UNL     1       9.653  39.618 109.833  1.00  0.00    -0.394 OA
ATOM      7  H   UNL     1       9.098  40.383 110.137  1.00  0.00     0.210 HD
ENDBRANCH   5   6
ENDBRANCH   1   5
BRANCH   1   8
ATOM      8  O   UNL     1      10.454  41.954 107.228  1.00  0.00    -0.388 OA
ATOM      9  H   UNL     1      10.783  42.891 107.256  1.00  0.00     0.211 HD
ENDBRANCH   1   8
TORSDOF 5
ENDMDL
MODEL 8
REMARK VINA RESULT:    -3.278      7.674      8.395
REMARK INTER + INTRA:          -3.951
REMARK INTER:                  -3.948
REMARK INTRA:                  -0.002
REMARK UNBOUND:                -0.002
REMARK SMILES OCC(O)CO
REMARK SMILES IDX 3 1 5 2 6 3 2 5 1 6 4 8
REMARK H PARENT 6 4 1 7 4 9
REMARK Flexibility Score: inf
ROOT
ATOM      1  C   UNL     1      12.962  32.383 107.690  1.00  0.00     0.165 C 
ENDROOT
BRANCH   1   2
ATOM      2  C   UNL     1      13.541  33.215 106.533  1.00  0.00     0.190 C 
BRANCH   2   3
ATOM      3  O   UNL     1      14.819  33.692 106.856  1.00  0.00    -0.394 OA
ATOM      4  H   UNL     1      15.335  32.905 107.169  1.00  0.00     0.210 HD
ENDBRANCH   2   3
ENDBRANCH   1   2
BRANCH   1   5
ATOM      5  C   UNL     1      11.696  33.012 108.294  1.00  0.00     0.190 C 
BRANCH   5   6
ATOM      6  O   UNL     1      11.337  32.338 109.469  1.00  0.00    -0.394 OA
ATOM      7  H   UNL     1      10.608  31.712 109.215  1.00  0.00     0.210 HD
ENDBRANCH   5   6
ENDBRANCH   1   5
BRANCH   1   8
ATOM      8  O   UNL     1      13.934  32.172 108.684  1.00  0.00    -0.388 OA
ATOM      9  H   UNL     1      14.782  32.584 108.371  1.00  0.00     0.211 HD
ENDBRANCH   1   8
TORSDOF 5
ENDMDL
MODEL 9
REMARK VINA RESULT:    -3.226      2.460      2.885
REMARK INTER + INTRA:          -3.888
REMARK INTER:                  -3.886
REMARK INTRA:                  -0.003
REMARK UNBOUND:                -0.002
REMARK SMILES OCC(O)CO
REMARK SMILES IDX 3 1 5 2 6 3 2 5 1 6 4 8
REMARK H PARENT 6 4 1 7 4 9
REMARK Flexibility Score: inf
ROOT
ATOM      1  C   UNL     1      10.749  42.033 108.466  1.00  0.00     0.165 C 
ENDROOT
BRANCH   1   2
ATOM      2  C   UNL     1      10.722  40.596 109.014  1.00  0.00     0.190 C 
BRANCH   2   3
ATOM      3  O   UNL     1      11.982  40.229 109.507  1.00  0.00    -0.394 OA
ATOM      4  H   UNL     1      12.283  39.465 108.950  1.00  0.00     0.210 HD
ENDBRANCH   2   3
ENDBRANCH   1   2
BRANCH   1   5
ATOM      5  C   UNL     1       9.452  42.803 108.762  1.00  0.00     0.190 C 
BRANCH   5   6
ATOM      6  O   UNL     1       9.505  44.076 108.179  1.00  0.00    -0.394 OA
ATOM      7  H   UNL     1       9.821  43.940 107.248  1.00  0.00     0.210 HD
ENDBRANCH   5   6
ENDBRANCH   1   5
BRANCH   1   8
ATOM      8  O   UNL     1      11.024  42.033 107.087  1.00  0.00    -0.388 OA
ATOM      9  H   UNL     1      11.933  41.653 106.958  1.00  0.00     0.211 HD
ENDBRANCH   1   8
TORSDOF 5
ENDMDL
