MODEL 1
REMARK VINA RESULT:    -4.116      0.000      0.000
REMARK INTER + INTRA:          -6.567
REMARK INTER:                  -6.041
REMARK INTRA:                  -0.526
REMARK UNBOUND:                -0.526
REMARK SMILES O=C([O-])CCCCCCCC(=O)[O-]
REMARK SMILES IDX 7 1 6 2 5 3 4 4 2 5 1 6 3 7 8 8 9 9 10 10 11 11 12 12 13 13
REMARK H PARENT
REMARK Flexibility Score: inf
ROOT
ATOM      1  C   UNL     1      -7.277 -22.675  46.842  1.00  0.00     0.000 C 
ENDROOT
BRANCH   1   2
ATOM      2  C   UNL     1      -7.957 -21.297  46.929  1.00  0.00     0.000 C 
BRANCH   2   3
ATOM      3  C   UNL     1      -9.448 -21.396  47.287  1.00  0.00     0.006 C 
BRANCH   3   4
ATOM      4  C   UNL     1      -9.832 -22.779  47.830  1.00  0.00     0.053 C 
BRANCH   4   5
ATOM      5  C   UNL     1     -11.271 -22.798  48.238  1.00  0.00     0.041 C 
ATOM      6  O   UNL     1     -12.021 -21.824  47.963  1.00  0.00    -0.550 OA
ATOM      7  O   UNL     1     -11.773 -23.869  48.967  1.00  0.00    -0.550 OA
ENDBRANCH   4   5
ENDBRANCH   3   4
ENDBRANCH   2   3
ENDBRANCH   1   2
BRANCH   1   8
ATOM      8  C   UNL     1      -5.978 -22.744  47.660  1.00  0.00     0.000 C 
BRANCH   8   9
ATOM      9  C   UNL     1      -6.093 -23.684  48.874  1.00  0.00     0.006 C 
BRANCH   9  10
ATOM     10  C   UNL     1      -6.502 -25.106  48.468  1.00  0.00     0.053 C 
BRANCH  10  11
ATOM     11  C   UNL     1      -5.332 -25.903  47.977  1.00  0.00     0.041 C 
ATOM     12  O   UNL     1      -5.504 -26.830  47.144  1.00  0.00    -0.550 OA
ATOM     13  O   UNL     1      -4.049 -25.596  48.411  1.00  0.00    -0.550 OA
ENDBRANCH  10  11
ENDBRANCH   9  10
ENDBRANCH   8   9
ENDBRANCH   1   8
TORSDOF 8
ENDMDL
MODEL 2
REMARK VINA RESULT:    -3.960      1.275      5.488
REMARK INTER + INTRA:          -6.338
REMARK INTER:                  -5.815
REMARK INTRA:                  -0.522
REMARK UNBOUND:                -0.526
REMARK SMILES O=C([O-])CCCCCCCC(=O)[O-]
REMARK SMILES IDX 7 1 6 2 5 3 4 4 2 5 1 6 3 7 8 8 9 9 10 10 11 11 12 12 13 13
REMARK H PARENT
REMARK Flexibility Score: inf
ROOT
ATOM      1  C   UNL     1      -5.260 -22.353  46.901  1.00  0.00     0.000 C 
ENDROOT
BRANCH   1   2
ATOM      2  C   UNL     1      -4.083 -23.198  47.419  1.00  0.00     0.000 C 
BRANCH   2   3
ATOM      3  C   UNL     1      -4.426 -23.959  48.710  1.00  0.00     0.006 C 
BRANCH   3   4
ATOM      4  C   UNL     1      -4.247 -25.476  48.564  1.00  0.00     0.053 C 
BRANCH   4   5
ATOM      5  C   UNL     1      -5.537 -26.117  48.157  1.00  0.00     0.041 C 
ATOM      6  O   UNL     1      -5.590 -26.834  47.123  1.00  0.00    -0.550 OA
ATOM      7  O   UNL     1      -6.692 -25.882  48.892  1.00  0.00    -0.550 OA
ENDBRANCH   4   5
ENDBRANCH   3   4
ENDBRANCH   2   3
ENDBRANCH   1   2
BRANCH   1   8
ATOM      8  C   UNL     1      -6.524 -22.512  47.761  1.00  0.00     0.000 C 
BRANCH   8   9
ATOM      9  C   UNL     1      -7.780 -22.793  46.918  1.00  0.00     0.006 C 
BRANCH   9  10
ATOM     10  C   UNL     1      -8.937 -21.848  47.270  1.00  0.00     0.053 C 
BRANCH  10  11
ATOM     11  C   UNL     1     -10.186 -22.601  47.614  1.00  0.00     0.041 C 
ATOM     12  O   UNL     1     -11.254 -22.374  46.988  1.00  0.00    -0.550 OA
ATOM     13  O   UNL     1     -10.161 -23.578  48.600  1.00  0.00    -0.550 OA
ENDBRANCH  10  11
ENDBRANCH   9  10
ENDBRANCH   8   9
ENDBRANCH   1   8
TORSDOF 8
ENDMDL
MODEL 3
REMARK VINA RESULT:    -3.798     10.499     12.599
REMARK INTER + INTRA:          -6.101
REMARK INTER:                  -5.412
REMARK INTRA:                  -0.689
REMARK UNBOUND:                -0.526
REMARK SMILES O=C([O-])CCCCCCCC(=O)[O-]
REMARK SMILES IDX 7 1 6 2 5 3 4 4 2 5 1 6 3 7 8 8 9 9 10 10 11 11 12 12 13 13
REMARK H PARENT
REMARK Flexibility Score: inf
ROOT
ATOM      1  C   UNL     1      -5.213 -35.256  44.232  1.00  0.00     0.000 C 
ENDROOT
BRANCH   1   2
ATOM      2  C   UNL     1      -6.333 -34.295  44.668  1.00  0.00     0.000 C 
BRANCH   2   3
ATOM      3  C   UNL     1      -6.822 -34.569  46.098  1.00  0.00     0.006 C 
BRANCH   3   4
ATOM      4  C   UNL     1      -6.465 -33.436  47.070  1.00  0.00     0.053 C 
BRANCH   4   5
ATOM      5  C   UNL     1      -5.232 -33.781  47.843  1.00  0.00     0.041 C 
ATOM      6  O   UNL     1      -5.056 -34.953  48.266  1.00  0.00    -0.550 OA
ATOM      7  O   UNL     1      -4.299 -32.795  48.139  1.00  0.00    -0.550 OA
ENDBRANCH   4   5
ENDBRANCH   3   4
ENDBRANCH   2   3
ENDBRANCH   1   2
BRANCH   1   8
ATOM      8  C   UNL     1      -5.070 -36.461  45.174  1.00  0.00     0.000 C 
BRANCH   8   9
ATOM      9  C   UNL     1      -3.602 -36.864  45.400  1.00  0.00     0.006 C 
BRANCH   9  10
ATOM     10  C   UNL     1      -2.715 -35.657  45.731  1.00  0.00     0.053 C 
BRANCH  10  11
ATOM     11  C   UNL     1      -1.270 -35.932  45.444  1.00  0.00     0.041 C 
ATOM     12  O   UNL     1      -0.376 -35.467  46.198  1.00  0.00    -0.550 OA
ATOM     13  O   UNL     1      -0.915 -36.732  44.367  1.00  0.00    -0.550 OA
ENDBRANCH  10  11
ENDBRANCH   9  10
ENDBRANCH   8   9
ENDBRANCH   1   8
TORSDOF 8
ENDMDL
MODEL 4
REMARK VINA RESULT:    -3.783     10.324     13.732
REMARK INTER + INTRA:          -6.078
REMARK INTER:                  -5.572
REMARK INTRA:                  -0.506
REMARK UNBOUND:                -0.526
REMARK SMILES O=C([O-])CCCCCCCC(=O)[O-]
REMARK SMILES IDX 7 1 6 2 5 3 4 4 2 5 1 6 3 7 8 8 9 9 10 10 11 11 12 12 13 13
REMARK H PARENT
REMARK Flexibility Score: inf
ROOT
ATOM      1  C   UNL     1      -5.041 -36.384  45.242  1.00  0.00     0.000 C 
ENDROOT
BRANCH   1   2
ATOM      2  C   UNL     1      -3.535 -36.669  45.374  1.00  0.00     0.000 C 
BRANCH   2   3
ATOM      3  C   UNL     1      -2.729 -35.418  45.756  1.00  0.00     0.006 C 
BRANCH   3   4
ATOM      4  C   UNL     1      -1.284 -35.747  46.154  1.00  0.00     0.053 C 
BRANCH   4   5
ATOM      5  C   UNL     1      -0.403 -35.778  44.946  1.00  0.00     0.041 C 
ATOM      6  O   UNL     1      -0.256 -36.846  44.296  1.00  0.00    -0.550 OA
ATOM      7  O   UNL     1       0.296 -34.639  44.565  1.00  0.00    -0.550 OA
ENDBRANCH   4   5
ENDBRANCH   3   4
ENDBRANCH   2   3
ENDBRANCH   1   2
BRANCH   1   8
ATOM      8  C   UNL     1      -5.342 -35.251  44.248  1.00  0.00     0.000 C 
BRANCH   8   9
ATOM      9  C   UNL     1      -6.356 -34.234  44.801  1.00  0.00     0.006 C 
BRANCH   9  10
ATOM     10  C   UNL     1      -6.770 -34.554  46.243  1.00  0.00     0.053 C 
BRANCH  10  11
ATOM     11  C   UNL     1      -6.220 -33.557  47.216  1.00  0.00     0.041 C 
ATOM     12  O   UNL     1      -6.845 -32.490  47.449  1.00  0.00    -0.550 OA
ATOM     13  O   UNL     1      -5.036 -33.822  47.890  1.00  0.00    -0.550 OA
ENDBRANCH  10  11
ENDBRANCH   9  10
ENDBRANCH   8   9
ENDBRANCH   1   8
TORSDOF 8
ENDMDL
MODEL 5
REMARK VINA RESULT:    -3.773     10.472     13.007
REMARK INTER + INTRA:          -6.064
REMARK INTER:                  -5.256
REMARK INTRA:                  -0.808
REMARK UNBOUND:                -0.526
REMARK SMILES O=C([O-])CCCCCCCC(=O)[O-]
REMARK SMILES IDX 7 1 6 2 5 3 4 4 2 5 1 6 3 7 8 8 9 9 10 10 11 11 12 12 13 13
REMARK H PARENT
REMARK Flexibility Score: inf
ROOT
ATOM      1  C   UNL     1      -5.182 -35.597  44.247  1.00  0.00     0.000 C 
ENDROOT
BRANCH   1   2
ATOM      2  C   UNL     1      -5.113 -36.645  45.372  1.00  0.00     0.000 C 
BRANCH   2   3
ATOM      3  C   UNL     1      -3.677 -37.113  45.655  1.00  0.00     0.006 C 
BRANCH   3   4
ATOM      4  C   UNL     1      -2.624 -36.117  45.153  1.00  0.00     0.053 C 
BRANCH   4   5
ATOM      5  C   UNL     1      -2.259 -35.152  46.237  1.00  0.00     0.041 C 
ATOM      6  O   UNL     1      -2.176 -33.921  45.988  1.00  0.00    -0.550 OA
ATOM      7  O   UNL     1      -1.960 -35.619  47.511  1.00  0.00    -0.550 OA
ENDBRANCH   4   5
ENDBRANCH   3   4
ENDBRANCH   2   3
ENDBRANCH   1   2
BRANCH   1   8
ATOM      8  C   UNL     1      -6.096 -34.414  44.599  1.00  0.00     0.000 C 
BRANCH   8   9
ATOM      9  C   UNL     1      -6.782 -34.583  45.966  1.00  0.00     0.006 C 
BRANCH   9  10
ATOM     10  C   UNL     1      -6.477 -33.418  46.915  1.00  0.00     0.053 C 
BRANCH  10  11
ATOM     11  C   UNL     1      -5.321 -33.723  47.818  1.00  0.00     0.041 C 
ATOM     12  O   UNL     1      -4.524 -32.810  48.157  1.00  0.00    -0.550 OA
ATOM     13  O   UNL     1      -5.145 -35.009  48.313  1.00  0.00    -0.550 OA
ENDBRANCH  10  11
ENDBRANCH   9  10
ENDBRANCH   8   9
ENDBRANCH   1   8
TORSDOF 8
ENDMDL
MODEL 6
REMARK VINA RESULT:    -3.637     10.855     12.091
REMARK INTER + INTRA:          -5.864
REMARK INTER:                  -5.223
REMARK INTRA:                  -0.640
REMARK UNBOUND:                -0.526
REMARK SMILES O=C([O-])CCCCCCCC(=O)[O-]
REMARK SMILES IDX 7 1 6 2 5 3 4 4 2 5 1 6 3 7 8 8 9 9 10 10 11 11 12 12 13 13
REMARK H PARENT
REMARK Flexibility Score: inf
ROOT
ATOM      1  C   UNL     1      -4.742 -34.907  48.119  1.00  0.00     0.000 C 
ENDROOT
BRANCH   1   2
ATOM      2  C   UNL     1      -5.194 -33.499  47.692  1.00  0.00     0.000 C 
BRANCH   2   3
ATOM      3  C   UNL     1      -6.502 -33.517  46.887  1.00  0.00     0.006 C 
BRANCH   3   4
ATOM      4  C   UNL     1      -6.670 -34.802  46.065  1.00  0.00     0.053 C 
BRANCH   4   5
ATOM      5  C   UNL     1      -5.986 -34.667  44.741  1.00  0.00     0.041 C 
ATOM      6  O   UNL     1      -6.327 -33.756  43.942  1.00  0.00    -0.550 OA
ATOM      7  O   UNL     1      -5.006 -35.579  44.368  1.00  0.00    -0.550 OA
ENDBRANCH   4   5
ENDBRANCH   3   4
ENDBRANCH   2   3
ENDBRANCH   1   2
BRANCH   1   8
ATOM      8  C   UNL     1      -3.325 -35.245  47.629  1.00  0.00     0.000 C 
BRANCH   8   9
ATOM      9  C   UNL     1      -2.506 -33.991  47.278  1.00  0.00     0.006 C 
BRANCH   9  10
ATOM     10  C   UNL     1      -1.978 -34.030  45.838  1.00  0.00     0.053 C 
BRANCH  10  11
ATOM     11  C   UNL     1      -0.583 -34.572  45.770  1.00  0.00     0.041 C 
ATOM     12  O   UNL     1      -0.259 -35.369  44.852  1.00  0.00    -0.550 OA
ATOM     13  O   UNL     1       0.366 -34.169  46.700  1.00  0.00    -0.550 OA
ENDBRANCH  10  11
ENDBRANCH   9  10
ENDBRANCH   8   9
ENDBRANCH   1   8
TORSDOF 8
ENDMDL
MODEL 7
REMARK VINA RESULT:    -3.613     10.863     13.127
REMARK INTER + INTRA:          -5.829
REMARK INTER:                  -5.126
REMARK INTRA:                  -0.704
REMARK UNBOUND:                -0.526
REMARK SMILES O=C([O-])CCCCCCCC(=O)[O-]
REMARK SMILES IDX 7 1 6 2 5 3 4 4 2 5 1 6 3 7 8 8 9 9 10 10 11 11 12 12 13 13
REMARK H PARENT
REMARK Flexibility Score: inf
ROOT
ATOM      1  C   UNL     1      -4.719 -34.868  48.211  1.00  0.00     0.000 C 
ENDROOT
BRANCH   1   2
ATOM      2  C   UNL     1      -3.328 -35.343  47.755  1.00  0.00     0.000 C 
BRANCH   2   3
ATOM      3  C   UNL     1      -2.730 -34.448  46.658  1.00  0.00     0.006 C 
BRANCH   3   4
ATOM      4  C   UNL     1      -1.838 -35.228  45.684  1.00  0.00     0.053 C 
BRANCH   4   5
ATOM      5  C   UNL     1      -0.458 -34.650  45.663  1.00  0.00     0.041 C 
ATOM      6  O   UNL     1       0.204 -34.628  44.592  1.00  0.00    -0.550 OA
ATOM      7  O   UNL     1       0.117 -34.181  46.837  1.00  0.00    -0.550 OA
ENDBRANCH   4   5
ENDBRANCH   3   4
ENDBRANCH   2   3
ENDBRANCH   1   2
BRANCH   1   8
ATOM      8  C   UNL     1      -5.119 -33.524  47.585  1.00  0.00     0.000 C 
BRANCH   8   9
ATOM      9  C   UNL     1      -6.517 -33.563  46.942  1.00  0.00     0.006 C 
BRANCH   9  10
ATOM     10  C   UNL     1      -6.732 -34.829  46.102  1.00  0.00     0.053 C 
BRANCH  10  11
ATOM     11  C   UNL     1      -6.049 -34.737  44.772  1.00  0.00     0.041 C 
ATOM     12  O   UNL     1      -5.250 -35.638  44.408  1.00  0.00    -0.550 OA
ATOM     13  O   UNL     1      -6.323 -33.675  43.920  1.00  0.00    -0.550 OA
ENDBRANCH  10  11
ENDBRANCH   9  10
ENDBRANCH   8   9
ENDBRANCH   1   8
TORSDOF 8
ENDMDL
MODEL 8
REMARK VINA RESULT:    -3.605     11.330     13.666
REMARK INTER + INTRA:          -5.817
REMARK INTER:                  -5.206
REMARK INTRA:                  -0.610
REMARK UNBOUND:                -0.526
REMARK SMILES O=C([O-])CCCCCCCC(=O)[O-]
REMARK SMILES IDX 7 1 6 2 5 3 4 4 2 5 1 6 3 7 8 8 9 9 10 10 11 11 12 12 13 13
REMARK H PARENT
REMARK Flexibility Score: inf
ROOT
ATOM      1  C   UNL     1      -3.251 -35.015  47.732  1.00  0.00     0.000 C 
ENDROOT
BRANCH   1   2
ATOM      2  C   UNL     1      -2.661 -33.776  47.033  1.00  0.00     0.000 C 
BRANCH   2   3
ATOM      3  C   UNL     1      -1.940 -34.126  45.722  1.00  0.00     0.006 C 
BRANCH   3   4
ATOM      4  C   UNL     1      -0.414 -34.145  45.878  1.00  0.00     0.053 C 
BRANCH   4   5
ATOM      5  C   UNL     1       0.211 -34.967  44.795  1.00  0.00     0.041 C 
ATOM      6  O   UNL     1       1.213 -34.533  44.169  1.00  0.00    -0.550 OA
ATOM      7  O   UNL     1      -0.344 -36.191  44.444  1.00  0.00    -0.550 OA
ENDBRANCH   4   5
ENDBRANCH   3   4
ENDBRANCH   2   3
ENDBRANCH   1   2
BRANCH   1   8
ATOM      8  C   UNL     1      -3.614 -36.133  46.742  1.00  0.00     0.000 C 
BRANCH   8   9
ATOM      9  C   UNL     1      -5.095 -36.096  46.326  1.00  0.00     0.006 C 
BRANCH   9  10
ATOM     10  C   UNL     1      -5.282 -35.558  44.902  1.00  0.00     0.053 C 
BRANCH  10  11
ATOM     11  C   UNL     1      -6.040 -34.266  44.890  1.00  0.00     0.041 C 
ATOM     12  O   UNL     1      -6.371 -33.737  43.797  1.00  0.00    -0.550 OA
ATOM     13  O   UNL     1      -6.410 -33.665  46.085  1.00  0.00    -0.550 OA
ENDBRANCH  10  11
ENDBRANCH   9  10
ENDBRANCH   8   9
ENDBRANCH   1   8
TORSDOF 8
ENDMDL
MODEL 9
REMARK VINA RESULT:    -3.595     11.837     14.284
REMARK INTER + INTRA:          -5.802
REMARK INTER:                  -5.288
REMARK INTRA:                  -0.514
REMARK UNBOUND:                -0.526
REMARK SMILES O=C([O-])CCCCCCCC(=O)[O-]
REMARK SMILES IDX 7 1 6 2 5 3 4 4 2 5 1 6 3 7 8 8 9 9 10 10 11 11 12 12 13 13
REMARK H PARENT
REMARK Flexibility Score: inf
ROOT
ATOM      1  C   UNL     1      -1.862 -34.200  46.149  1.00  0.00     0.000 C 
ENDROOT
BRANCH   1   2
ATOM      2  C   UNL     1      -1.237 -35.603  46.047  1.00  0.00     0.000 C 
BRANCH   2   3
ATOM      3  C   UNL     1      -0.268 -35.732  44.862  1.00  0.00     0.006 C 
BRANCH   3   4
ATOM      4  C   UNL     1       0.624 -34.495  44.693  1.00  0.00     0.053 C 
BRANCH   4   5
ATOM      5  C   UNL     1       1.787 -34.558  45.631  1.00  0.00     0.041 C 
ATOM      6  O   UNL     1       1.934 -33.677  46.518  1.00  0.00    -0.550 OA
ATOM      7  O   UNL     1       2.738 -35.562  45.494  1.00  0.00    -0.550 OA
ENDBRANCH   4   5
ENDBRANCH   3   4
ENDBRANCH   2   3
ENDBRANCH   1   2
BRANCH   1   8
ATOM      8  C   UNL     1      -3.396 -34.232  46.069  1.00  0.00     0.000 C 
BRANCH   8   9
ATOM      9  C   UNL     1      -3.947 -35.648  45.826  1.00  0.00     0.006 C 
BRANCH   9  10
ATOM     10  C   UNL     1      -4.932 -35.693  44.651  1.00  0.00     0.053 C 
BRANCH  10  11
ATOM     11  C   UNL     1      -6.062 -34.727  44.834  1.00  0.00     0.041 C 
ATOM     12  O   UNL     1      -6.281 -33.839  43.969  1.00  0.00    -0.550 OA
ATOM     13  O   UNL     1      -6.894 -34.831  45.940  1.00  0.00    -0.550 OA
ENDBRANCH  10  11
ENDBRANCH   9  10
ENDBRANCH   8   9
ENDBRANCH   1   8
TORSDOF 8
ENDMDL
