MODEL 1
REMARK VINA RESULT:    -3.615      0.000      0.000
REMARK INTER + INTRA:          -3.317
REMARK INTER:                  -5.517
REMARK INTRA:                   2.200
REMARK UNBOUND:                 2.200
REMARK SMILES CC1=CCC[C@H](C)C(=O)C[C@H](C(C)C)C(=O)C1
REMARK SMILES IDX 8 1 9 2 6 3 7 4 5 5 4 6 3 7 2 8 1 9 10 11 11 12 15 13 16 14
REMARK SMILES IDX 17 15 12 17 13 18 14 19
REMARK H PARENT
REMARK Flexibility Score: 70.00
ROOT
ATOM      1  C   UNL     1      15.478  14.542  27.787  1.00  0.00     0.136 C 
ATOM      2  O   UNL     1      16.678  14.321  27.879  1.00  0.00    -0.299 OA
ENDROOT
BRANCH   1   3
ATOM      3  C   UNL     1      14.553  13.359  27.529  1.00  0.00     0.053 C 
ATOM      4  C   UNL     1      15.125  11.988  27.927  1.00  0.00     0.016 C 
BRANCH   3   5
ATOM      5  C   UNL     1      13.139  13.593  28.123  1.00  0.00     0.015 C 
BRANCH   5   6
ATOM      6  C   UNL     1      11.995  12.826  27.435  1.00  0.00     0.028 C 
BRANCH   6   7
ATOM      7  C   UNL     1      11.457  13.566  26.235  1.00  0.00    -0.028 C 
ATOM      8  C   UNL     1      11.643  14.881  25.974  1.00  0.00    -0.070 CG0
ATOM      9  C   UNL     1      11.037  15.443  24.713  1.00  0.00     0.039 C 
ATOM     10  G   UNL     1      12.379  15.820  26.910  1.00  0.00     0.000 G0
ENDBRANCH   6   7
ENDBRANCH   5   6
ENDBRANCH   3   5
ENDBRANCH   1   3
BRANCH   1  11
ATOM     11  C   UNL     1      15.014  15.972  27.971  1.00  0.00     0.087 C 
BRANCH  11  12
ATOM     12  C   UNL     1      14.865  16.713  26.610  1.00  0.00     0.066 C 
BRANCH  12  13
ATOM     13  C   UNL     1      13.409  16.657  26.172  1.00  0.00     0.140 C 
ATOM     14  O   UNL     1      13.065  17.242  25.155  1.00  0.00    -0.299 OA
BRANCH  13  15
ATOM     15  C   UNL     1      12.390  15.834  26.917  1.00  0.00     0.106 CG0
ATOM     16  G   UNL     1      11.652  14.908  25.969  1.00  0.00     0.000 G0
ENDBRANCH  13  15
ENDBRANCH  12  13
BRANCH  12  17
ATOM     17  C   UNL     1      15.372  18.192  26.684  1.00  0.00    -0.006 C 
ATOM     18  C   UNL     1      16.061  18.491  28.031  1.00  0.00     0.008 C 
ATOM     19  C   UNL     1      16.368  18.519  25.553  1.00  0.00     0.008 C 
ENDBRANCH  12  17
ENDBRANCH  11  12
ENDBRANCH   1  11
TORSDOF 1
ENDMDL
MODEL 2
REMARK VINA RESULT:    -3.333      1.706      3.585
REMARK INTER + INTRA:          -2.887
REMARK INTER:                  -3.784
REMARK INTRA:                   0.897
REMARK UNBOUND:                 2.200
REMARK SMILES CC1=CCC[C@H](C)C(=O)C[C@H](C(C)C)C(=O)C1
REMARK SMILES IDX 8 1 9 2 6 3 7 4 5 5 4 6 3 7 2 8 1 9 10 11 11 12 15 13 16 14
REMARK SMILES IDX 17 15 12 17 13 18 14 19
REMARK H PARENT
REMARK Flexibility Score: 70.00
ROOT
ATOM      1  C   UNL     1      12.398  16.832  27.077  1.00  0.00     0.136 C 
ATOM      2  O   UNL     1      12.493  17.456  28.125  1.00  0.00    -0.299 OA
ENDROOT
BRANCH   1   3
ATOM      3  C   UNL     1      11.495  15.603  27.059  1.00  0.00     0.053 C 
ATOM      4  C   UNL     1      11.240  15.004  25.667  1.00  0.00     0.016 C 
BRANCH   3   5
ATOM      5  C   UNL     1      11.966  14.530  28.075  1.00  0.00     0.015 C 
BRANCH   5   6
ATOM      6  C   UNL     1      12.608  13.272  27.461  1.00  0.00     0.028 C 
BRANCH   6   7
ATOM      7  C   UNL     1      14.046  13.104  27.886  1.00  0.00    -0.028 C 
ATOM      8  C   UNL     1      15.094  13.821  27.417  1.00  0.00    -0.070 CG0
ATOM      9  C   UNL     1      16.462  13.519  27.973  1.00  0.00     0.039 C 
ATOM     10  G   UNL     1      14.965  14.867  26.327  1.00  0.00     0.000 G0
ENDBRANCH   6   7
ENDBRANCH   5   6
ENDBRANCH   3   5
ENDBRANCH   1   3
BRANCH   1  11
ATOM     11  C   UNL     1      13.160  17.356  25.878  1.00  0.00     0.087 C 
BRANCH  11  12
ATOM     12  C   UNL     1      14.678  17.518  26.181  1.00  0.00     0.066 C 
BRANCH  12  13
ATOM     13  C   UNL     1      15.175  16.277  26.907  1.00  0.00     0.140 C 
ATOM     14  O   UNL     1      15.670  16.390  28.019  1.00  0.00    -0.299 OA
BRANCH  13  15
ATOM     15  C   UNL     1      15.003  14.898  26.325  1.00  0.00     0.106 CG0
ATOM     16  G   UNL     1      15.066  13.844  27.415  1.00  0.00     0.000 G0
ENDBRANCH  13  15
ENDBRANCH  12  13
BRANCH  12  17
ATOM     17  C   UNL     1      15.515  17.784  24.886  1.00  0.00    -0.006 C 
ATOM     18  C   UNL     1      14.608  18.030  23.663  1.00  0.00     0.008 C 
ATOM     19  C   UNL     1      16.452  18.998  25.040  1.00  0.00     0.008 C 
ENDBRANCH  12  17
ENDBRANCH  11  12
ENDBRANCH   1  11
TORSDOF 1
ENDMDL
MODEL 3
REMARK VINA RESULT:    -2.764      1.731      4.264
REMARK INTER + INTRA:          -2.018
REMARK INTER:                  -3.401
REMARK INTRA:                   1.383
REMARK UNBOUND:                 2.200
REMARK SMILES CC1=CCC[C@H](C)C(=O)C[C@H](C(C)C)C(=O)C1
REMARK SMILES IDX 8 1 9 2 6 3 7 4 5 5 4 6 3 7 2 8 1 9 10 11 11 12 15 13 16 14
REMARK SMILES IDX 17 15 12 17 13 18 14 19
REMARK H PARENT
REMARK Flexibility Score: 70.00
ROOT
ATOM      1  C   UNL     1      14.875  14.533  27.308  1.00  0.00     0.136 C 
ATOM      2  O   UNL     1      15.120  13.386  27.656  1.00  0.00    -0.299 OA
ENDROOT
BRANCH   1   3
ATOM      3  C   UNL     1      15.552  15.668  28.069  1.00  0.00     0.053 C 
ATOM      4  C   UNL     1      17.055  15.830  27.790  1.00  0.00     0.016 C 
BRANCH   3   5
ATOM      5  C   UNL     1      14.785  17.006  27.909  1.00  0.00     0.015 C 
BRANCH   5   6
ATOM      6  C   UNL     1      15.600  18.172  27.319  1.00  0.00     0.028 C 
BRANCH   6   7
ATOM      7  C   UNL     1      15.619  18.146  25.811  1.00  0.00    -0.028 C 
ATOM      8  C   UNL     1      14.527  18.130  25.011  1.00  0.00    -0.070 CG0
ATOM      9  C   UNL     1      14.743  18.120  23.519  1.00  0.00     0.039 C 
ATOM     10  G   UNL     1      13.107  18.067  25.541  1.00  0.00     0.000 G0
ENDBRANCH   6   7
ENDBRANCH   5   6
ENDBRANCH   3   5
ENDBRANCH   1   3
BRANCH   1  11
ATOM     11  C   UNL     1      13.943  14.723  26.130  1.00  0.00     0.087 C 
BRANCH  11  12
ATOM     12  C   UNL     1      12.726  15.624  26.491  1.00  0.00     0.066 C 
BRANCH  12  13
ATOM     13  C   UNL     1      12.544  16.671  25.403  1.00  0.00     0.140 C 
ATOM     14  O   UNL     1      11.870  16.403  24.419  1.00  0.00    -0.299 OA
BRANCH  13  15
ATOM     15  C   UNL     1      13.108  18.062  25.540  1.00  0.00     0.106 CG0
ATOM     16  G   UNL     1      14.516  18.127  24.982  1.00  0.00     0.000 G0
ENDBRANCH  13  15
ENDBRANCH  12  13
BRANCH  12  17
ATOM     17  C   UNL     1      11.416  14.793  26.697  1.00  0.00    -0.006 C 
ATOM     18  C   UNL     1      11.311  13.635  25.683  1.00  0.00     0.008 C 
ATOM     19  C   UNL     1      11.324  14.197  28.116  1.00  0.00     0.008 C 
ENDBRANCH  12  17
ENDBRANCH  11  12
ENDBRANCH   1  11
TORSDOF 1
ENDMDL
MODEL 4
REMARK VINA RESULT:    -2.207      2.608      4.931
REMARK INTER + INTRA:          -1.168
REMARK INTER:                  -2.120
REMARK INTRA:                   0.952
REMARK UNBOUND:                 2.200
REMARK SMILES CC1=CCC[C@H](C)C(=O)C[C@H](C(C)C)C(=O)C1
REMARK SMILES IDX 8 1 9 2 6 3 7 4 5 5 4 6 3 7 2 8 1 9 10 11 11 12 15 13 16 14
REMARK SMILES IDX 17 15 12 17 13 18 14 19
REMARK H PARENT
REMARK Flexibility Score: 70.00
ROOT
ATOM      1  C   UNL     1      13.319  16.758  24.750  1.00  0.00     0.136 C 
ATOM      2  O   UNL     1      12.234  17.235  24.449  1.00  0.00    -0.299 OA
ENDROOT
BRANCH   1   3
ATOM      3  C   UNL     1      13.372  15.796  25.931  1.00  0.00     0.053 C 
ATOM      4  C   UNL     1      12.695  14.436  25.693  1.00  0.00     0.016 C 
BRANCH   3   5
ATOM      5  C   UNL     1      14.814  15.638  26.481  1.00  0.00     0.015 C 
BRANCH   5   6
ATOM      6  C   UNL     1      15.018  16.076  27.943  1.00  0.00     0.028 C 
BRANCH   6   7
ATOM      7  C   UNL     1      16.285  16.876  28.124  1.00  0.00    -0.028 C 
ATOM      8  C   UNL     1      16.512  18.113  27.623  1.00  0.00    -0.070 CG0
ATOM      9  C   UNL     1      17.839  18.764  27.922  1.00  0.00     0.039 C 
ATOM     10  G   UNL     1      15.524  18.847  26.737  1.00  0.00     0.000 G0
ENDBRANCH   6   7
ENDBRANCH   5   6
ENDBRANCH   3   5
ENDBRANCH   1   3
BRANCH   1  11
ATOM     11  C   UNL     1      14.512  17.140  23.898  1.00  0.00     0.087 C 
BRANCH  11  12
ATOM     12  C   UNL     1      14.951  18.614  24.142  1.00  0.00     0.066 C 
BRANCH  12  13
ATOM     13  C   UNL     1      15.967  18.648  25.273  1.00  0.00     0.140 C 
ATOM     14  O   UNL     1      17.160  18.579  25.010  1.00  0.00    -0.299 OA
BRANCH  13  15
ATOM     15  C   UNL     1      15.549  18.842  26.708  1.00  0.00     0.106 CG0
ATOM     16  G   UNL     1      16.497  18.118  27.645  1.00  0.00     0.000 G0
ENDBRANCH  13  15
ENDBRANCH  12  13
BRANCH  12  17
ATOM     17  C   UNL     1      15.526  19.280  22.849  1.00  0.00    -0.006 C 
ATOM     18  C   UNL     1      14.680  18.937  21.606  1.00  0.00     0.008 C 
ATOM     19  C   UNL     1      15.598  20.816  22.971  1.00  0.00     0.008 C 
ENDBRANCH  12  17
ENDBRANCH  11  12
ENDBRANCH   1  11
TORSDOF 1
ENDMDL
MODEL 5
REMARK VINA RESULT:    -2.107      1.736      4.393
REMARK INTER + INTRA:          -1.016
REMARK INTER:                  -2.904
REMARK INTRA:                   1.888
REMARK UNBOUND:                 2.200
REMARK SMILES CC1=CCC[C@H](C)C(=O)C[C@H](C(C)C)C(=O)C1
REMARK SMILES IDX 8 1 9 2 6 3 7 4 5 5 4 6 3 7 2 8 1 9 10 11 11 12 15 13 16 14
REMARK SMILES IDX 17 15 12 17 13 18 14 19
REMARK H PARENT
REMARK Flexibility Score: 70.00
ROOT
ATOM      1  C   UNL     1      15.002  17.805  27.585  1.00  0.00     0.136 C 
ATOM      2  O   UNL     1      13.827  18.134  27.679  1.00  0.00    -0.299 OA
ENDROOT
BRANCH   1   3
ATOM      3  C   UNL     1      15.983  18.823  27.014  1.00  0.00     0.053 C 
ATOM      4  C   UNL     1      17.465  18.524  27.291  1.00  0.00     0.016 C 
BRANCH   3   5
ATOM      5  C   UNL     1      15.717  19.098  25.510  1.00  0.00     0.015 C 
BRANCH   5   6
ATOM      6  C   UNL     1      15.294  17.874  24.678  1.00  0.00     0.028 C 
BRANCH   6   7
ATOM      7  C   UNL     1      13.797  17.686  24.666  1.00  0.00    -0.028 C 
ATOM      8  C   UNL     1      13.153  16.501  24.779  1.00  0.00    -0.070 CG0
ATOM      9  C   UNL     1      11.645  16.511  24.760  1.00  0.00     0.039 C 
ATOM     10  G   UNL     1      13.871  15.168  24.867  1.00  0.00     0.000 G0
ENDBRANCH   6   7
ENDBRANCH   5   6
ENDBRANCH   3   5
ENDBRANCH   1   3
BRANCH   1  11
ATOM     11  C   UNL     1      15.384  16.425  28.075  1.00  0.00     0.087 C 
BRANCH  11  12
ATOM     12  C   UNL     1      14.526  15.312  27.406  1.00  0.00     0.066 C 
BRANCH  12  13
ATOM     13  C   UNL     1      14.906  15.210  25.936  1.00  0.00     0.140 C 
ATOM     14  O   UNL     1      16.084  15.092  25.628  1.00  0.00    -0.299 OA
BRANCH  13  15
ATOM     15  C   UNL     1      13.864  15.172  24.849  1.00  0.00     0.106 CG0
ATOM     16  G   UNL     1      13.126  16.495  24.768  1.00  0.00     0.000 G0
ENDBRANCH  13  15
ENDBRANCH  12  13
BRANCH  12  17
ATOM     17  C   UNL     1      14.684  13.931  28.125  1.00  0.00    -0.006 C 
ATOM     18  C   UNL     1      13.424  13.056  27.959  1.00  0.00     0.008 C 
ATOM     19  C   UNL     1      15.893  13.136  27.594  1.00  0.00     0.008 C 
ENDBRANCH  12  17
ENDBRANCH  11  12
ENDBRANCH   1  11
TORSDOF 1
ENDMDL
MODEL 6
REMARK VINA RESULT:    -1.685      1.821      3.401
REMARK INTER + INTRA:          -0.372
REMARK INTER:                  -2.554
REMARK INTRA:                   2.181
REMARK UNBOUND:                 2.200
REMARK SMILES CC1=CCC[C@H](C)C(=O)C[C@H](C(C)C)C(=O)C1
REMARK SMILES IDX 8 1 9 2 6 3 7 4 5 5 4 6 3 7 2 8 1 9 10 11 11 12 15 13 16 14
REMARK SMILES IDX 17 15 12 17 13 18 14 19
REMARK H PARENT
REMARK Flexibility Score: 70.00
ROOT
ATOM      1  C   UNL     1      14.892  16.541  25.030  1.00  0.00     0.136 C 
ATOM      2  O   UNL     1      15.214  17.564  24.441  1.00  0.00    -0.299 OA
ENDROOT
BRANCH   1   3
ATOM      3  C   UNL     1      15.834  16.011  26.104  1.00  0.00     0.053 C 
ATOM      4  C   UNL     1      15.977  16.909  27.344  1.00  0.00     0.016 C 
BRANCH   3   5
ATOM      5  C   UNL     1      15.505  14.543  26.485  1.00  0.00     0.015 C 
BRANCH   5   6
ATOM      6  C   UNL     1      14.788  14.354  27.834  1.00  0.00     0.028 C 
BRANCH   6   7
ATOM      7  C   UNL     1      13.807  13.208  27.800  1.00  0.00    -0.028 C 
ATOM      8  C   UNL     1      12.467  13.324  27.641  1.00  0.00    -0.070 CG0
ATOM      9  C   UNL     1      11.646  12.060  27.618  1.00  0.00     0.039 C 
ATOM     10  G   UNL     1      11.754  14.659  27.543  1.00  0.00     0.000 G0
ENDBRANCH   6   7
ENDBRANCH   5   6
ENDBRANCH   3   5
ENDBRANCH   1   3
BRANCH   1  11
ATOM     11  C   UNL     1      13.566  15.910  24.661  1.00  0.00     0.087 C 
BRANCH  11  12
ATOM     12  C   UNL     1      12.419  16.375  25.606  1.00  0.00     0.066 C 
BRANCH  12  13
ATOM     13  C   UNL     1      11.666  15.153  26.110  1.00  0.00     0.140 C 
ATOM     14  O   UNL     1      11.001  14.492  25.324  1.00  0.00    -0.299 OA
BRANCH  13  15
ATOM     15  C   UNL     1      11.777  14.688  27.538  1.00  0.00     0.106 CG0
ATOM     16  G   UNL     1      12.423  13.317  27.608  1.00  0.00     0.000 G0
ENDBRANCH  13  15
ENDBRANCH  12  13
BRANCH  12  17
ATOM     17  C   UNL     1      12.948  17.240  26.797  1.00  0.00    -0.006 C 
ATOM     18  C   UNL     1      12.753  18.747  26.537  1.00  0.00     0.008 C 
ATOM     19  C   UNL     1      12.248  16.887  28.125  1.00  0.00     0.008 C 
ENDBRANCH  12  17
ENDBRANCH  11  12
ENDBRANCH   1  11
TORSDOF 1
ENDMDL
MODEL 7
REMARK VINA RESULT:    -1.502      2.024      3.994
REMARK INTER + INTRA:          -0.093
REMARK INTER:                  -0.957
REMARK INTRA:                   0.865
REMARK UNBOUND:                 2.200
REMARK SMILES CC1=CCC[C@H](C)C(=O)C[C@H](C(C)C)C(=O)C1
REMARK SMILES IDX 8 1 9 2 6 3 7 4 5 5 4 6 3 7 2 8 1 9 10 11 11 12 15 13 16 14
REMARK SMILES IDX 17 15 12 17 13 18 14 19
REMARK H PARENT
REMARK Flexibility Score: 70.00
ROOT
ATOM      1  C   UNL     1      12.871  16.732  25.449  1.00  0.00     0.136 C 
ATOM      2  O   UNL     1      12.087  17.669  25.375  1.00  0.00    -0.299 OA
ENDROOT
BRANCH   1   3
ATOM      3  C   UNL     1      12.314  15.366  25.831  1.00  0.00     0.053 C 
ATOM      4  C   UNL     1      11.227  14.821  24.890  1.00  0.00     0.016 C 
BRANCH   3   5
ATOM      5  C   UNL     1      13.444  14.331  26.073  1.00  0.00     0.015 C 
BRANCH   5   6
ATOM      6  C   UNL     1      13.916  14.194  27.532  1.00  0.00     0.028 C 
BRANCH   6   7
ATOM      7  C   UNL     1      15.355  14.615  27.705  1.00  0.00    -0.028 C 
ATOM      8  C   UNL     1      15.783  15.878  27.935  1.00  0.00    -0.070 CG0
ATOM      9  C   UNL     1      17.265  16.105  28.096  1.00  0.00     0.039 C 
ATOM     10  G   UNL     1      14.854  17.076  27.982  1.00  0.00     0.000 G0
ENDBRANCH   6   7
ENDBRANCH   5   6
ENDBRANCH   3   5
ENDBRANCH   1   3
BRANCH   1  11
ATOM     11  C   UNL     1      14.323  17.008  25.120  1.00  0.00     0.087 C 
BRANCH  11  12
ATOM     12  C   UNL     1      14.792  18.386  25.671  1.00  0.00     0.066 C 
BRANCH  12  13
ATOM     13  C   UNL     1      15.378  18.192  27.061  1.00  0.00     0.140 C 
ATOM     14  O   UNL     1      16.235  18.966  27.465  1.00  0.00    -0.299 OA
BRANCH  13  15
ATOM     15  C   UNL     1      14.877  17.115  27.988  1.00  0.00     0.106 CG0
ATOM     16  G   UNL     1      15.798  15.910  27.959  1.00  0.00     0.000 G0
ENDBRANCH  13  15
ENDBRANCH  12  13
BRANCH  12  17
ATOM     17  C   UNL     1      15.820  19.085  24.720  1.00  0.00    -0.006 C 
ATOM     18  C   UNL     1      17.224  18.457  24.840  1.00  0.00     0.008 C 
ATOM     19  C   UNL     1      15.385  19.011  23.243  1.00  0.00     0.008 C 
ENDBRANCH  12  17
ENDBRANCH  11  12
ENDBRANCH   1  11
TORSDOF 1
ENDMDL
MODEL 8
REMARK VINA RESULT:    -1.384      1.882      2.838
REMARK INTER + INTRA:           0.088
REMARK INTER:                  -2.668
REMARK INTRA:                   2.756
REMARK UNBOUND:                 2.200
REMARK SMILES CC1=CCC[C@H](C)C(=O)C[C@H](C(C)C)C(=O)C1
REMARK SMILES IDX 8 1 9 2 6 3 7 4 5 5 4 6 3 7 2 8 1 9 10 11 11 12 15 13 16 14
REMARK SMILES IDX 17 15 12 17 13 18 14 19
REMARK H PARENT
REMARK Flexibility Score: 70.00
ROOT
ATOM      1  C   UNL     1      15.843  17.997  27.233  1.00  0.00     0.136 C 
ATOM      2  O   UNL     1      16.505  18.627  28.047  1.00  0.00    -0.299 OA
ENDROOT
BRANCH   1   3
ATOM      3  C   UNL     1      15.833  16.477  27.346  1.00  0.00     0.053 C 
ATOM      4  C   UNL     1      17.015  15.876  28.125  1.00  0.00     0.016 C 
BRANCH   3   5
ATOM      5  C   UNL     1      14.469  15.947  27.861  1.00  0.00     0.015 C 
BRANCH   5   6
ATOM      6  C   UNL     1      14.106  14.516  27.423  1.00  0.00     0.028 C 
BRANCH   6   7
ATOM      7  C   UNL     1      12.860  14.481  26.573  1.00  0.00    -0.028 C 
ATOM      8  C   UNL     1      12.364  15.521  25.862  1.00  0.00    -0.070 CG0
ATOM      9  C   UNL     1      11.110  15.291  25.056  1.00  0.00     0.039 C 
ATOM     10  G   UNL     1      12.973  16.909  25.881  1.00  0.00     0.000 G0
ENDBRANCH   6   7
ENDBRANCH   5   6
ENDBRANCH   3   5
ENDBRANCH   1   3
BRANCH   1  11
ATOM     11  C   UNL     1      15.064  18.788  26.203  1.00  0.00     0.087 C 
BRANCH  11  12
ATOM     12  C   UNL     1      15.092  18.106  24.804  1.00  0.00     0.066 C 
BRANCH  12  13
ATOM     13  C   UNL     1      13.962  17.091  24.724  1.00  0.00     0.140 C 
ATOM     14  O   UNL     1      13.890  16.349  23.755  1.00  0.00    -0.299 OA
BRANCH  13  15
ATOM     15  C   UNL     1      12.971  16.920  25.845  1.00  0.00     0.106 CG0
ATOM     16  G   UNL     1      12.363  15.531  25.817  1.00  0.00     0.000 G0
ENDBRANCH  13  15
ENDBRANCH  12  13
BRANCH  12  17
ATOM     17  C   UNL     1      14.998  19.145  23.638  1.00  0.00    -0.006 C 
ATOM     18  C   UNL     1      16.153  20.166  23.689  1.00  0.00     0.008 C 
ATOM     19  C   UNL     1      15.018  18.466  22.254  1.00  0.00     0.008 C 
ENDBRANCH  12  17
ENDBRANCH  11  12
ENDBRANCH   1  11
TORSDOF 1
ENDMDL
MODEL 9
REMARK VINA RESULT:    -1.174      2.070      2.955
REMARK INTER + INTRA:           0.408
REMARK INTER:                  -4.221
REMARK INTRA:                   4.629
REMARK UNBOUND:                 2.200
REMARK SMILES CC1=CCC[C@H](C)C(=O)C[C@H](C(C)C)C(=O)C1
REMARK SMILES IDX 8 1 9 2 6 3 7 4 5 5 4 6 3 7 2 8 1 9 10 11 11 12 15 13 16 14
REMARK SMILES IDX 17 15 12 17 13 18 14 19
REMARK H PARENT
REMARK Flexibility Score: 70.00
ROOT
ATOM      1  C   UNL     1      15.221  17.621  27.638  1.00  0.00     0.136 C 
ATOM      2  O   UNL     1      15.902  18.582  27.970  1.00  0.00    -0.299 OA
ENDROOT
BRANCH   1   3
ATOM      3  C   UNL     1      13.767  17.587  28.095  1.00  0.00     0.053 C 
ATOM      4  C   UNL     1      12.835  18.573  27.372  1.00  0.00     0.016 C 
BRANCH   3   5
ATOM      5  C   UNL     1      13.198  16.144  28.094  1.00  0.00     0.015 C 
BRANCH   5   6
ATOM      6  C   UNL     1      11.662  16.037  28.117  1.00  0.00     0.028 C 
BRANCH   6   7
ATOM      7  C   UNL     1      11.151  14.992  27.156  1.00  0.00    -0.028 C 
ATOM      8  C   UNL     1      11.554  14.839  25.873  1.00  0.00    -0.070 CG0
ATOM      9  C   UNL     1      10.938  13.724  25.066  1.00  0.00     0.039 C 
ATOM     10  G   UNL     1      12.549  15.763  25.197  1.00  0.00     0.000 G0
ENDBRANCH   6   7
ENDBRANCH   5   6
ENDBRANCH   3   5
ENDBRANCH   1   3
BRANCH   1  11
ATOM     11  C   UNL     1      15.876  16.566  26.771  1.00  0.00     0.087 C 
BRANCH  11  12
ATOM     12  C   UNL     1      15.124  16.375  25.421  1.00  0.00     0.066 C 
BRANCH  12  13
ATOM     13  C   UNL     1      13.963  15.415  25.632  1.00  0.00     0.140 C 
ATOM     14  O   UNL     1      14.152  14.368  26.235  1.00  0.00    -0.299 OA
BRANCH  13  15
ATOM     15  C   UNL     1      12.564  15.754  25.185  1.00  0.00     0.106 CG0
ATOM     16  G   UNL     1      11.550  14.858  25.870  1.00  0.00     0.000 G0
ENDBRANCH  13  15
ENDBRANCH  12  13
BRANCH  12  17
ATOM     17  C   UNL     1      14.629  17.733  24.822  1.00  0.00    -0.006 C 
ATOM     18  C   UNL     1      15.664  18.858  25.031  1.00  0.00     0.008 C 
ATOM     19  C   UNL     1      14.333  17.627  23.313  1.00  0.00     0.008 C 
ENDBRANCH  12  17
ENDBRANCH  11  12
ENDBRANCH   1  11
TORSDOF 1
ENDMDL
