MODEL 1
REMARK VINA RESULT:    -4.109      0.000      0.000
REMARK INTER + INTRA:          -8.981
REMARK INTER:                  -6.271
REMARK INTRA:                  -2.710
REMARK UNBOUND:                -2.710
REMARK SMILES CC(=O)CCC=C(C)CCC=C(C)CCC=C(C)C
REMARK SMILES IDX 10 1 11 2 12 3 13 4 14 5 15 6 16 7 18 8 17 9 19 10 9 11 7 12
REMARK SMILES IDX 6 13 8 14 5 15 4 16 2 17 3 18 1 19
REMARK H PARENT
REMARK Flexibility Score: inf
ROOT
ATOM      1  C   UNL     1     158.205 163.812 199.809  1.00  0.00     0.032 C 
ENDROOT
BRANCH   1   2
ATOM      2  C   UNL     1     158.568 165.045 199.016  1.00  0.00    -0.028 C 
ATOM      3  C   UNL     1     157.714 165.759 198.246  1.00  0.00    -0.077 C 
ATOM      4  C   UNL     1     158.241 166.992 197.559  1.00  0.00     0.039 C 
BRANCH   3   5
ATOM      5  C   UNL     1     156.273 165.350 197.995  1.00  0.00     0.034 C 
BRANCH   5   6
ATOM      6  C   UNL     1     156.000 165.108 196.503  1.00  0.00     0.032 C 
BRANCH   6   7
ATOM      7  C   UNL     1     155.852 163.639 196.183  1.00  0.00    -0.028 C 
ATOM      8  C   UNL     1     156.538 161.408 195.417  1.00  0.00     0.039 C 
ATOM      9  C   UNL     1     156.853 162.846 195.742  1.00  0.00    -0.080 C 
ATOM     10  C   UNL     1     158.264 163.356 195.571  1.00  0.00     0.039 C 
ENDBRANCH   6   7
ENDBRANCH   5   6
ENDBRANCH   3   5
ENDBRANCH   1   2
BRANCH   1  11
ATOM     11  C   UNL     1     158.892 162.554 199.256  1.00  0.00     0.034 C 
BRANCH  11  12
ATOM     12  C   UNL     1     157.895 161.451 198.963  1.00  0.00    -0.077 C 
ATOM     13  C   UNL     1     156.587 161.654 199.228  1.00  0.00    -0.028 C 
ATOM     14  C   UNL     1     158.388 160.147 198.383  1.00  0.00     0.039 C 
BRANCH  13  15
ATOM     15  C   UNL     1     155.520 160.617 198.964  1.00  0.00     0.035 C 
BRANCH  15  16
ATOM     16  C   UNL     1     155.064 159.918 200.250  1.00  0.00     0.079 C 
BRANCH  16  17
ATOM     17  C   UNL     1     153.569 160.000 200.431  1.00  0.00     0.130 C 
ATOM     18  O   UNL     1     153.107 160.172 201.550  1.00  0.00    -0.300 OA
ATOM     19  C   UNL     1     152.632 159.864 199.267  1.00  0.00     0.087 C 
ENDBRANCH  16  17
ENDBRANCH  15  16
ENDBRANCH  13  15
ENDBRANCH  11  12
ENDBRANCH   1  11
TORSDOF 9
ENDMDL
MODEL 2
REMARK VINA RESULT:    -4.038      2.955      7.231
REMARK INTER + INTRA:          -8.873
REMARK INTER:                  -6.261
REMARK INTRA:                  -2.612
REMARK UNBOUND:                -2.710
REMARK SMILES CC(=O)CCC=C(C)CCC=C(C)CCC=C(C)C
REMARK SMILES IDX 10 1 11 2 12 3 13 4 14 5 15 6 16 7 18 8 17 9 19 10 9 11 7 12
REMARK SMILES IDX 6 13 8 14 5 15 4 16 2 17 3 18 1 19
REMARK H PARENT
REMARK Flexibility Score: inf
ROOT
ATOM      1  C   UNL     1     151.654 160.539 201.852  1.00  0.00     0.032 C 
ENDROOT
BRANCH   1   2
ATOM      2  C   UNL     1     150.190 160.406 201.503  1.00  0.00    -0.028 C 
ATOM      3  C   UNL     1     149.694 160.256 200.253  1.00  0.00    -0.077 C 
ATOM      4  C   UNL     1     148.205 160.094 200.095  1.00  0.00     0.039 C 
BRANCH   3   5
ATOM      5  C   UNL     1     150.554 160.302 199.001  1.00  0.00     0.034 C 
BRANCH   5   6
ATOM      6  C   UNL     1     150.558 158.956 198.261  1.00  0.00     0.032 C 
BRANCH   6   7
ATOM      7  C   UNL     1     151.959 158.473 197.970  1.00  0.00    -0.028 C 
ATOM      8  C   UNL     1     153.959 157.063 198.185  1.00  0.00     0.039 C 
ATOM      9  C   UNL     1     152.531 157.390 198.541  1.00  0.00    -0.080 C 
ATOM     10  C   UNL     1     151.785 156.508 199.513  1.00  0.00     0.039 C 
ENDBRANCH   6   7
ENDBRANCH   5   6
ENDBRANCH   3   5
ENDBRANCH   1   2
BRANCH   1  11
ATOM     11  C   UNL     1     152.339 159.168 201.966  1.00  0.00     0.034 C 
BRANCH  11  12
ATOM     12  C   UNL     1     153.749 159.197 201.414  1.00  0.00    -0.077 C 
ATOM     13  C   UNL     1     154.073 160.108 200.471  1.00  0.00    -0.028 C 
ATOM     14  C   UNL     1     154.764 158.205 201.930  1.00  0.00     0.039 C 
BRANCH  13  15
ATOM     15  C   UNL     1     155.454 160.218 199.867  1.00  0.00     0.035 C 
BRANCH  15  16
ATOM     16  C   UNL     1     155.420 160.818 198.456  1.00  0.00     0.079 C 
BRANCH  16  17
ATOM     17  C   UNL     1     156.442 161.915 198.292  1.00  0.00     0.130 C 
ATOM     18  O   UNL     1     156.547 162.482 197.214  1.00  0.00    -0.300 OA
ATOM     19  C   UNL     1     157.343 162.320 199.421  1.00  0.00     0.087 C 
ENDBRANCH  16  17
ENDBRANCH  15  16
ENDBRANCH  13  15
ENDBRANCH  11  12
ENDBRANCH   1  11
TORSDOF 9
ENDMDL
MODEL 3
REMARK VINA RESULT:    -4.013      2.766      7.066
REMARK INTER + INTRA:          -8.834
REMARK INTER:                  -7.287
REMARK INTRA:                  -1.547
REMARK UNBOUND:                -2.710
REMARK SMILES CC(=O)CCC=C(C)CCC=C(C)CCC=C(C)C
REMARK SMILES IDX 10 1 11 2 12 3 13 4 14 5 15 6 16 7 18 8 17 9 19 10 9 11 7 12
REMARK SMILES IDX 6 13 8 14 5 15 4 16 2 17 3 18 1 19
REMARK H PARENT
REMARK Flexibility Score: inf
ROOT
ATOM      1  C   UNL     1     153.844 159.871 199.790  1.00  0.00     0.032 C 
ENDROOT
BRANCH   1   2
ATOM      2  C   UNL     1     153.033 160.154 201.033  1.00  0.00    -0.028 C 
ATOM      3  C   UNL     1     151.701 160.389 201.060  1.00  0.00    -0.077 C 
ATOM      4  C   UNL     1     151.047 160.610 202.400  1.00  0.00     0.039 C 
BRANCH   3   5
ATOM      5  C   UNL     1     150.845 160.499 199.810  1.00  0.00     0.034 C 
BRANCH   5   6
ATOM      6  C   UNL     1     149.986 159.244 199.594  1.00  0.00     0.032 C 
BRANCH   6   7
ATOM      7  C   UNL     1     150.656 158.249 198.676  1.00  0.00    -0.028 C 
ATOM      8  C   UNL     1     152.007 156.294 198.056  1.00  0.00     0.039 C 
ATOM      9  C   UNL     1     151.352 157.169 199.094  1.00  0.00    -0.080 C 
ATOM     10  C   UNL     1     151.485 156.817 200.556  1.00  0.00     0.039 C 
ENDBRANCH   6   7
ENDBRANCH   5   6
ENDBRANCH   3   5
ENDBRANCH   1   2
BRANCH   1  11
ATOM     11  C   UNL     1     155.352 159.985 200.055  1.00  0.00     0.034 C 
BRANCH  11  12
ATOM     12  C   UNL     1     155.999 161.036 199.177  1.00  0.00    -0.077 C 
ATOM     13  C   UNL     1     157.009 161.783 199.673  1.00  0.00    -0.028 C 
ATOM     14  C   UNL     1     155.500 161.227 197.764  1.00  0.00     0.039 C 
BRANCH  13  15
ATOM     15  C   UNL     1     157.720 162.849 198.871  1.00  0.00     0.035 C 
BRANCH  15  16
ATOM     16  C   UNL     1     157.725 164.204 199.590  1.00  0.00     0.079 C 
BRANCH  16  17
ATOM     17  C   UNL     1     157.284 165.321 198.678  1.00  0.00     0.130 C 
ATOM     18  O   UNL     1     157.931 166.358 198.642  1.00  0.00    -0.300 OA
ATOM     19  C   UNL     1     156.060 165.193 197.820  1.00  0.00     0.087 C 
ENDBRANCH  16  17
ENDBRANCH  15  16
ENDBRANCH  13  15
ENDBRANCH  11  12
ENDBRANCH   1  11
TORSDOF 9
ENDMDL
MODEL 4
REMARK VINA RESULT:    -3.893      1.265      2.960
REMARK INTER + INTRA:          -8.651
REMARK INTER:                  -5.863
REMARK INTRA:                  -2.788
REMARK UNBOUND:                -2.710
REMARK SMILES CC(=O)CCC=C(C)CCC=C(C)CCC=C(C)C
REMARK SMILES IDX 10 1 11 2 12 3 13 4 14 5 15 6 16 7 18 8 17 9 19 10 9 11 7 12
REMARK SMILES IDX 6 13 8 14 5 15 4 16 2 17 3 18 1 19
REMARK H PARENT
REMARK Flexibility Score: inf
ROOT
ATOM      1  C   UNL     1     156.046 164.834 197.151  1.00  0.00     0.032 C 
ENDROOT
BRANCH   1   2
ATOM      2  C   UNL     1     157.071 165.763 197.757  1.00  0.00    -0.028 C 
ATOM      3  C   UNL     1     157.792 165.508 198.874  1.00  0.00    -0.077 C 
ATOM      4  C   UNL     1     158.806 166.534 199.312  1.00  0.00     0.039 C 
BRANCH   3   5
ATOM      5  C   UNL     1     157.590 164.275 199.738  1.00  0.00     0.034 C 
BRANCH   5   6
ATOM      6  C   UNL     1     158.918 163.562 200.033  1.00  0.00     0.032 C 
BRANCH   6   7
ATOM      7  C   UNL     1     159.025 162.240 199.310  1.00  0.00    -0.028 C 
ATOM      8  C   UNL     1     159.566 160.701 197.473  1.00  0.00     0.039 C 
ATOM      9  C   UNL     1     159.579 162.078 198.088  1.00  0.00    -0.080 C 
ATOM     10  C   UNL     1     160.206 163.226 197.333  1.00  0.00     0.039 C 
ENDBRANCH   6   7
ENDBRANCH   5   6
ENDBRANCH   3   5
ENDBRANCH   1   2
BRANCH   1  11
ATOM     11  C   UNL     1     156.660 163.940 196.063  1.00  0.00     0.034 C 
BRANCH  11  12
ATOM     12  C   UNL     1     156.409 162.470 196.335  1.00  0.00    -0.077 C 
ATOM     13  C   UNL     1     155.917 162.094 197.535  1.00  0.00    -0.028 C 
ATOM     14  C   UNL     1     156.715 161.457 195.257  1.00  0.00     0.039 C 
BRANCH  13  15
ATOM     15  C   UNL     1     155.629 160.655 197.895  1.00  0.00     0.035 C 
BRANCH  15  16
ATOM     16  C   UNL     1     155.485 160.457 199.409  1.00  0.00     0.079 C 
BRANCH  16  17
ATOM     17  C   UNL     1     154.078 160.070 199.791  1.00  0.00     0.130 C 
ATOM     18  O   UNL     1     153.210 160.035 198.931  1.00  0.00    -0.300 OA
ATOM     19  C   UNL     1     153.716 159.738 201.208  1.00  0.00     0.087 C 
ENDBRANCH  16  17
ENDBRANCH  15  16
ENDBRANCH  13  15
ENDBRANCH  11  12
ENDBRANCH   1  11
TORSDOF 9
ENDMDL
MODEL 5
REMARK VINA RESULT:    -3.830      3.031      7.488
REMARK INTER + INTRA:          -8.555
REMARK INTER:                  -7.610
REMARK INTRA:                  -0.945
REMARK UNBOUND:                -2.710
REMARK SMILES CC(=O)CCC=C(C)CCC=C(C)CCC=C(C)C
REMARK SMILES IDX 10 1 11 2 12 3 13 4 14 5 15 6 16 7 18 8 17 9 19 10 9 11 7 12
REMARK SMILES IDX 6 13 8 14 5 15 4 16 2 17 3 18 1 19
REMARK H PARENT
REMARK Flexibility Score: inf
ROOT
ATOM      1  C   UNL     1     154.440 160.080 199.399  1.00  0.00     0.032 C 
ENDROOT
BRANCH   1   2
ATOM      2  C   UNL     1     153.929 158.962 200.277  1.00  0.00    -0.028 C 
ATOM      3  C   UNL     1     153.004 159.097 201.255  1.00  0.00    -0.077 C 
ATOM      4  C   UNL     1     152.578 157.861 202.004  1.00  0.00     0.039 C 
BRANCH   3   5
ATOM      5  C   UNL     1     152.419 160.435 201.675  1.00  0.00     0.034 C 
BRANCH   5   6
ATOM      6  C   UNL     1     150.892 160.468 201.507  1.00  0.00     0.032 C 
BRANCH   6   7
ATOM      7  C   UNL     1     150.478 160.334 200.061  1.00  0.00    -0.028 C 
ATOM      8  C   UNL     1     148.946 160.053 198.161  1.00  0.00     0.039 C 
ATOM      9  C   UNL     1     149.199 160.233 199.636  1.00  0.00    -0.080 C 
ATOM     10  C   UNL     1     148.030 160.297 200.590  1.00  0.00     0.039 C 
ENDBRANCH   6   7
ENDBRANCH   5   6
ENDBRANCH   3   5
ENDBRANCH   1   2
BRANCH   1  11
ATOM     11  C   UNL     1     155.883 160.470 199.754  1.00  0.00     0.034 C 
BRANCH  11  12
ATOM     12  C   UNL     1     156.404 161.573 198.856  1.00  0.00    -0.077 C 
ATOM     13  C   UNL     1     157.287 162.468 199.350  1.00  0.00    -0.028 C 
ATOM     14  C   UNL     1     155.925 161.649 197.425  1.00  0.00     0.039 C 
BRANCH  13  15
ATOM     15  C   UNL     1     157.867 163.596 198.530  1.00  0.00     0.035 C 
BRANCH  15  16
ATOM     16  C   UNL     1     157.119 164.916 198.755  1.00  0.00     0.079 C 
BRANCH  16  17
ATOM     17  C   UNL     1     158.054 166.099 198.730  1.00  0.00     0.130 C 
ATOM     18  O   UNL     1     158.061 166.840 197.758  1.00  0.00    -0.300 OA
ATOM     19  C   UNL     1     158.988 166.382 199.870  1.00  0.00     0.087 C 
ENDBRANCH  16  17
ENDBRANCH  15  16
ENDBRANCH  13  15
ENDBRANCH  11  12
ENDBRANCH   1  11
TORSDOF 9
ENDMDL
MODEL 6
REMARK VINA RESULT:    -3.794      2.934      7.271
REMARK INTER + INTRA:          -8.501
REMARK INTER:                  -7.497
REMARK INTRA:                  -1.004
REMARK UNBOUND:                -2.710
REMARK SMILES CC(=O)CCC=C(C)CCC=C(C)CCC=C(C)C
REMARK SMILES IDX 10 1 11 2 12 3 13 4 14 5 15 6 16 7 18 8 17 9 19 10 9 11 7 12
REMARK SMILES IDX 6 13 8 14 5 15 4 16 2 17 3 18 1 19
REMARK H PARENT
REMARK Flexibility Score: inf
ROOT
ATOM      1  C   UNL     1     155.703 160.915 198.132  1.00  0.00     0.032 C 
ENDROOT
BRANCH   1   2
ATOM      2  C   UNL     1     155.646 160.366 199.539  1.00  0.00    -0.028 C 
ATOM      3  C   UNL     1     154.565 159.784 200.107  1.00  0.00    -0.077 C 
ATOM      4  C   UNL     1     154.701 159.252 201.510  1.00  0.00     0.039 C 
BRANCH   3   5
ATOM      5  C   UNL     1     153.210 159.692 199.427  1.00  0.00     0.034 C 
BRANCH   5   6
ATOM      6  C   UNL     1     152.145 159.088 200.355  1.00  0.00     0.032 C 
BRANCH   6   7
ATOM      7  C   UNL     1     150.747 159.500 199.958  1.00  0.00    -0.028 C 
ATOM      8  C   UNL     1     148.474 160.383 200.259  1.00  0.00     0.039 C 
ATOM      9  C   UNL     1     149.851 160.074 200.790  1.00  0.00    -0.080 C 
ATOM     10  C   UNL     1     150.190 160.412 202.222  1.00  0.00     0.039 C 
ENDBRANCH   6   7
ENDBRANCH   5   6
ENDBRANCH   3   5
ENDBRANCH   1   2
BRANCH   1  11
ATOM     11  C   UNL     1     157.071 161.538 197.819  1.00  0.00     0.034 C 
BRANCH  11  12
ATOM     12  C   UNL     1     157.213 162.919 198.428  1.00  0.00    -0.077 C 
ATOM     13  C   UNL     1     156.556 163.959 197.870  1.00  0.00    -0.028 C 
ATOM     14  C   UNL     1     158.087 163.102 199.646  1.00  0.00     0.039 C 
BRANCH  13  15
ATOM     15  C   UNL     1     156.630 165.368 198.410  1.00  0.00     0.035 C 
BRANCH  15  16
ATOM     16  C   UNL     1     157.657 166.222 197.656  1.00  0.00     0.079 C 
BRANCH  16  17
ATOM     17  C   UNL     1     158.936 166.379 198.438  1.00  0.00     0.130 C 
ATOM     18  O   UNL     1     160.003 166.108 197.907  1.00  0.00    -0.300 OA
ATOM     19  C   UNL     1     158.928 166.852 199.862  1.00  0.00     0.087 C 
ENDBRANCH  16  17
ENDBRANCH  15  16
ENDBRANCH  13  15
ENDBRANCH  11  12
ENDBRANCH   1  11
TORSDOF 9
ENDMDL
MODEL 7
REMARK VINA RESULT:    -3.705      3.159      4.751
REMARK INTER + INTRA:          -8.365
REMARK INTER:                  -5.232
REMARK INTRA:                  -3.133
REMARK UNBOUND:                -2.710
REMARK SMILES CC(=O)CCC=C(C)CCC=C(C)CCC=C(C)C
REMARK SMILES IDX 10 1 11 2 12 3 13 4 14 5 15 6 16 7 18 8 17 9 19 10 9 11 7 12
REMARK SMILES IDX 6 13 8 14 5 15 4 16 2 17 3 18 1 19
REMARK H PARENT
REMARK Flexibility Score: inf
ROOT
ATOM      1  C   UNL     1     160.353 164.687 196.745  1.00  0.00     0.032 C 
ENDROOT
BRANCH   1   2
ATOM      2  C   UNL     1     160.113 165.519 197.984  1.00  0.00    -0.028 C 
ATOM      3  C   UNL     1     158.926 166.061 198.342  1.00  0.00    -0.077 C 
ATOM      4  C   UNL     1     158.860 166.827 199.638  1.00  0.00     0.039 C 
BRANCH   3   5
ATOM      5  C   UNL     1     157.677 165.987 197.480  1.00  0.00     0.034 C 
BRANCH   5   6
ATOM      6  C   UNL     1     156.509 165.323 198.224  1.00  0.00     0.032 C 
BRANCH   6   7
ATOM      7  C   UNL     1     156.306 163.889 197.796  1.00  0.00    -0.028 C 
ATOM      8  C   UNL     1     156.573 161.448 197.858  1.00  0.00     0.039 C 
ATOM      9  C   UNL     1     156.822 162.818 198.436  1.00  0.00    -0.080 C 
ATOM     10  C   UNL     1     157.631 162.955 199.705  1.00  0.00     0.039 C 
ENDBRANCH   6   7
ENDBRANCH   5   6
ENDBRANCH   3   5
ENDBRANCH   1   2
BRANCH   1  11
ATOM     11  C   UNL     1     160.307 163.182 197.052  1.00  0.00     0.034 C 
BRANCH  11  12
ATOM     12  C   UNL     1     159.534 162.417 195.997  1.00  0.00    -0.077 C 
ATOM     13  C   UNL     1     158.710 163.088 195.163  1.00  0.00    -0.028 C 
ATOM     14  C   UNL     1     159.701 160.919 195.901  1.00  0.00     0.039 C 
BRANCH  13  15
ATOM     15  C   UNL     1     157.904 162.413 194.077  1.00  0.00     0.035 C 
BRANCH  15  16
ATOM     16  C   UNL     1     156.403 162.693 194.214  1.00  0.00     0.079 C 
BRANCH  16  17
ATOM     17  C   UNL     1     156.036 164.049 193.664  1.00  0.00     0.130 C 
ATOM     18  O   UNL     1     156.366 164.345 192.525  1.00  0.00    -0.300 OA
ATOM     19  C   UNL     1     155.282 165.049 194.489  1.00  0.00     0.087 C 
ENDBRANCH  16  17
ENDBRANCH  15  16
ENDBRANCH  13  15
ENDBRANCH  11  12
ENDBRANCH   1  11
TORSDOF 9
ENDMDL
MODEL 8
REMARK VINA RESULT:    -3.688      3.077      7.608
REMARK INTER + INTRA:          -8.338
REMARK INTER:                  -5.553
REMARK INTRA:                  -2.785
REMARK UNBOUND:                -2.710
REMARK SMILES CC(=O)CCC=C(C)CCC=C(C)CCC=C(C)C
REMARK SMILES IDX 10 1 11 2 12 3 13 4 14 5 15 6 16 7 18 8 17 9 19 10 9 11 7 12
REMARK SMILES IDX 6 13 8 14 5 15 4 16 2 17 3 18 1 19
REMARK H PARENT
REMARK Flexibility Score: inf
ROOT
ATOM      1  C   UNL     1     151.083 158.334 197.765  1.00  0.00     0.032 C 
ENDROOT
BRANCH   1   2
ATOM      2  C   UNL     1     149.845 158.719 198.541  1.00  0.00    -0.028 C 
ATOM      3  C   UNL     1     149.765 159.737 199.429  1.00  0.00    -0.077 C 
ATOM      4  C   UNL     1     148.433 160.005 200.081  1.00  0.00     0.039 C 
BRANCH   3   5
ATOM      5  C   UNL     1     150.958 160.581 199.844  1.00  0.00     0.034 C 
BRANCH   5   6
ATOM      6  C   UNL     1     151.295 160.401 201.332  1.00  0.00     0.032 C 
BRANCH   6   7
ATOM      7  C   UNL     1     152.679 159.833 201.536  1.00  0.00    -0.028 C 
ATOM      8  C   UNL     1     154.375 158.151 202.112  1.00  0.00     0.039 C 
ATOM      9  C   UNL     1     152.939 158.557 201.898  1.00  0.00    -0.080 C 
ATOM     10  C   UNL     1     151.840 157.538 202.088  1.00  0.00     0.039 C 
ENDBRANCH   6   7
ENDBRANCH   5   6
ENDBRANCH   3   5
ENDBRANCH   1   2
BRANCH   1  11
ATOM     11  C   UNL     1     151.842 157.180 198.436  1.00  0.00     0.034 C 
BRANCH  11  12
ATOM     12  C   UNL     1     153.332 157.449 198.500  1.00  0.00    -0.077 C 
ATOM     13  C   UNL     1     153.791 158.696 198.255  1.00  0.00    -0.028 C 
ATOM     14  C   UNL     1     154.273 156.316 198.834  1.00  0.00     0.039 C 
BRANCH  13  15
ATOM     15  C   UNL     1     155.256 159.061 198.302  1.00  0.00     0.035 C 
BRANCH  15  16
ATOM     16  C   UNL     1     155.560 160.088 199.399  1.00  0.00     0.079 C 
BRANCH  16  17
ATOM     17  C   UNL     1     156.256 161.307 198.847  1.00  0.00     0.130 C 
ATOM     18  O   UNL     1     157.036 161.927 199.555  1.00  0.00    -0.300 OA
ATOM     19  C   UNL     1     156.005 161.783 197.447  1.00  0.00     0.087 C 
ENDBRANCH  16  17
ENDBRANCH  15  16
ENDBRANCH  13  15
ENDBRANCH  11  12
ENDBRANCH   1  11
TORSDOF 9
ENDMDL
MODEL 9
REMARK VINA RESULT:    -3.630      2.169      4.516
REMARK INTER + INTRA:          -8.250
REMARK INTER:                  -7.181
REMARK INTRA:                  -1.069
REMARK UNBOUND:                -2.710
REMARK SMILES CC(=O)CCC=C(C)CCC=C(C)CCC=C(C)C
REMARK SMILES IDX 10 1 11 2 12 3 13 4 14 5 15 6 16 7 18 8 17 9 19 10 9 11 7 12
REMARK SMILES IDX 6 13 8 14 5 15 4 16 2 17 3 18 1 19
REMARK H PARENT
REMARK Flexibility Score: inf
ROOT
ATOM      1  C   UNL     1     155.547 160.879 198.831  1.00  0.00     0.032 C 
ENDROOT
BRANCH   1   2
ATOM      2  C   UNL     1     156.993 160.887 198.391  1.00  0.00    -0.028 C 
ATOM      3  C   UNL     1     157.928 161.778 198.794  1.00  0.00    -0.077 C 
ATOM      4  C   UNL     1     159.336 161.607 198.286  1.00  0.00     0.039 C 
BRANCH   3   5
ATOM      5  C   UNL     1     157.618 162.971 199.682  1.00  0.00     0.034 C 
BRANCH   5   6
ATOM      6  C   UNL     1     158.847 163.873 199.876  1.00  0.00     0.032 C 
BRANCH   6   7
ATOM      7  C   UNL     1     158.584 165.293 199.433  1.00  0.00    -0.028 C 
ATOM      8  C   UNL     1     158.778 167.301 198.031  1.00  0.00     0.039 C 
ATOM      9  C   UNL     1     159.091 165.853 198.313  1.00  0.00    -0.080 C 
ATOM     10  C   UNL     1     159.951 165.074 197.346  1.00  0.00     0.039 C 
ENDBRANCH   6   7
ENDBRANCH   5   6
ENDBRANCH   3   5
ENDBRANCH   1   2
BRANCH   1  11
ATOM     11  C   UNL     1     155.344 160.047 200.106  1.00  0.00     0.034 C 
BRANCH  11  12
ATOM     12  C   UNL     1     153.936 159.497 200.200  1.00  0.00    -0.077 C 
ATOM     13  C   UNL     1     153.167 159.823 201.262  1.00  0.00    -0.028 C 
ATOM     14  C   UNL     1     153.421 158.595 199.104  1.00  0.00     0.039 C 
BRANCH  13  15
ATOM     15  C   UNL     1     151.750 159.329 201.438  1.00  0.00     0.035 C 
BRANCH  15  16
ATOM     16  C   UNL     1     150.725 160.463 201.318  1.00  0.00     0.079 C 
BRANCH  16  17
ATOM     17  C   UNL     1     149.905 160.344 200.058  1.00  0.00     0.130 C 
ATOM     18  O   UNL     1     150.452 160.455 198.971  1.00  0.00    -0.300 OA
ATOM     19  C   UNL     1     148.425 160.101 200.109  1.00  0.00     0.087 C 
ENDBRANCH  16  17
ENDBRANCH  15  16
ENDBRANCH  13  15
ENDBRANCH  11  12
ENDBRANCH   1  11
TORSDOF 9
ENDMDL
