MODEL 1
REMARK VINA RESULT:    -4.693      0.000      0.000
REMARK INTER + INTRA:          -9.732
REMARK INTER:                  -8.260
REMARK INTRA:                  -1.472
REMARK UNBOUND:                -1.472
REMARK SMILES CCCCCCCCCCCCCCC(=O)[O-]
REMARK SMILES IDX 9 1 10 2 11 3 12 4 13 5 14 6 15 7 16 8 17 9 8 10 7 11 6 12
REMARK SMILES IDX 5 13 4 14 3 15 2 16 1 17
REMARK H PARENT
REMARK Flexibility Score: inf
ROOT
ATOM      1  C   UNL     1      -9.509  -6.757  -5.495  1.00  0.00     0.000 C 
ENDROOT
BRANCH   1   2
ATOM      2  C   UNL     1     -10.484  -7.932  -5.660  1.00  0.00     0.000 C 
BRANCH   2   3
ATOM      3  C   UNL     1      -9.876  -9.277  -5.230  1.00  0.00     0.000 C 
BRANCH   3   4
ATOM      4  C   UNL     1      -8.369  -9.177  -4.936  1.00  0.00     0.000 C 
BRANCH   4   5
ATOM      5  C   UNL     1      -7.588 -10.427  -5.386  1.00  0.00     0.006 C 
BRANCH   5   6
ATOM      6  C   UNL     1      -6.285 -10.112  -6.139  1.00  0.00     0.053 C 
BRANCH   6   7
ATOM      7  C   UNL     1      -5.727 -11.304  -6.853  1.00  0.00     0.041 C 
ATOM      8  O   UNL     1      -6.484 -12.050  -7.528  1.00  0.00    -0.550 OA
ATOM      9  O   UNL     1      -4.370 -11.589  -6.778  1.00  0.00    -0.550 OA
ENDBRANCH   6   7
ENDBRANCH   5   6
ENDBRANCH   4   5
ENDBRANCH   3   4
ENDBRANCH   2   3
ENDBRANCH   1   2
BRANCH   1  10
ATOM     10  C   UNL     1      -9.239  -6.076  -6.845  1.00  0.00     0.000 C 
BRANCH  10  11
ATOM     11  C   UNL     1     -10.311  -6.396  -7.900  1.00  0.00    -0.000 C 
BRANCH  11  12
ATOM     12  C   UNL     1     -10.572  -5.216  -8.852  1.00  0.00    -0.000 C 
BRANCH  12  13
ATOM     13  C   UNL     1     -10.730  -3.877  -8.112  1.00  0.00    -0.000 C 
BRANCH  13  14
ATOM     14  C   UNL     1     -12.110  -3.648  -7.463  1.00  0.00    -0.000 C 
BRANCH  14  15
ATOM     15  C   UNL     1     -12.143  -3.945  -5.950  1.00  0.00    -0.000 C 
BRANCH  15  16
ATOM     16  C   UNL     1     -12.960  -5.205  -5.623  1.00  0.00    -0.003 C 
ATOM     17  C   UNL     1     -13.095  -5.398  -4.115  1.00  0.00     0.004 C 
ENDBRANCH  15  16
ENDBRANCH  14  15
ENDBRANCH  13  14
ENDBRANCH  12  13
ENDBRANCH  11  12
ENDBRANCH  10  11
ENDBRANCH   1  10
TORSDOF 13
ENDMDL
MODEL 2
REMARK VINA RESULT:    -4.685      0.981      2.728
REMARK INTER + INTRA:          -9.717
REMARK INTER:                  -8.377
REMARK INTRA:                  -1.340
REMARK UNBOUND:                -1.472
REMARK SMILES CCCCCCCCCCCCCCC(=O)[O-]
REMARK SMILES IDX 9 1 10 2 11 3 12 4 13 5 14 6 15 7 16 8 17 9 8 10 7 11 6 12
REMARK SMILES IDX 5 13 4 14 3 15 2 16 1 17
REMARK H PARENT
REMARK Flexibility Score: inf
ROOT
ATOM      1  C   UNL     1     -10.889  -8.029  -5.912  1.00  0.00     0.000 C 
ENDROOT
BRANCH   1   2
ATOM      2  C   UNL     1      -9.609  -7.266  -5.538  1.00  0.00     0.000 C 
BRANCH   2   3
ATOM      3  C   UNL     1      -8.634  -8.111  -4.702  1.00  0.00     0.000 C 
BRANCH   3   4
ATOM      4  C   UNL     1      -8.636  -9.593  -5.111  1.00  0.00     0.000 C 
BRANCH   4   5
ATOM      5  C   UNL     1      -7.237 -10.236  -5.034  1.00  0.00     0.006 C 
BRANCH   5   6
ATOM      6  C   UNL     1      -6.434 -10.144  -6.343  1.00  0.00     0.053 C 
BRANCH   6   7
ATOM      7  C   UNL     1      -6.196 -11.482  -6.971  1.00  0.00     0.041 C 
ATOM      8  O   UNL     1      -7.169 -12.203  -7.315  1.00  0.00    -0.550 OA
ATOM      9  O   UNL     1      -4.898 -11.932  -7.182  1.00  0.00    -0.550 OA
ENDBRANCH   6   7
ENDBRANCH   5   6
ENDBRANCH   4   5
ENDBRANCH   3   4
ENDBRANCH   2   3
ENDBRANCH   1   2
BRANCH   1  10
ATOM     10  C   UNL     1     -12.137  -7.193  -5.594  1.00  0.00     0.000 C 
BRANCH  10  11
ATOM     11  C   UNL     1     -11.803  -5.859  -4.906  1.00  0.00    -0.000 C 
BRANCH  11  12
ATOM     12  C   UNL     1     -12.721  -4.713  -5.365  1.00  0.00    -0.000 C 
BRANCH  12  13
ATOM     13  C   UNL     1     -12.559  -4.382  -6.859  1.00  0.00    -0.000 C 
BRANCH  13  14
ATOM     14  C   UNL     1     -11.197  -3.774  -7.249  1.00  0.00    -0.000 C 
BRANCH  14  15
ATOM     15  C   UNL     1     -10.307  -4.722  -8.079  1.00  0.00    -0.000 C 
BRANCH  15  16
ATOM     16  C   UNL     1     -11.082  -5.392  -9.224  1.00  0.00    -0.003 C 
ATOM     17  C   UNL     1     -11.039  -4.542 -10.490  1.00  0.00     0.004 C 
ENDBRANCH  15  16
ENDBRANCH  14  15
ENDBRANCH  13  14
ENDBRANCH  12  13
ENDBRANCH  11  12
ENDBRANCH  10  11
ENDBRANCH   1  10
TORSDOF 13
ENDMDL
MODEL 3
REMARK VINA RESULT:    -4.597      1.220      3.021
REMARK INTER + INTRA:          -9.563
REMARK INTER:                  -8.590
REMARK INTRA:                  -0.973
REMARK UNBOUND:                -1.472
REMARK SMILES CCCCCCCCCCCCCCC(=O)[O-]
REMARK SMILES IDX 9 1 10 2 11 3 12 4 13 5 14 6 15 7 16 8 17 9 8 10 7 11 6 12
REMARK SMILES IDX 5 13 4 14 3 15 2 16 1 17
REMARK H PARENT
REMARK Flexibility Score: inf
ROOT
ATOM      1  C   UNL     1     -11.122  -7.308  -6.019  1.00  0.00     0.000 C 
ENDROOT
BRANCH   1   2
ATOM      2  C   UNL     1      -9.889  -6.894  -5.202  1.00  0.00     0.000 C 
BRANCH   2   3
ATOM      3  C   UNL     1      -8.823  -7.999  -5.132  1.00  0.00     0.000 C 
BRANCH   3   4
ATOM      4  C   UNL     1      -9.434  -9.401  -4.970  1.00  0.00     0.000 C 
BRANCH   4   5
ATOM      5  C   UNL     1      -8.437 -10.530  -5.297  1.00  0.00     0.006 C 
BRANCH   5   6
ATOM      6  C   UNL     1      -6.962 -10.095  -5.248  1.00  0.00     0.053 C 
BRANCH   6   7
ATOM      7  C   UNL     1      -6.130 -10.752  -6.305  1.00  0.00     0.041 C 
ATOM      8  O   UNL     1      -4.904 -10.482  -6.406  1.00  0.00    -0.550 OA
ATOM      9  O   UNL     1      -6.707 -11.667  -7.176  1.00  0.00    -0.550 OA
ENDBRANCH   6   7
ENDBRANCH   5   6
ENDBRANCH   4   5
ENDBRANCH   3   4
ENDBRANCH   2   3
ENDBRANCH   1   2
BRANCH   1  10
ATOM     10  C   UNL     1     -12.396  -6.664  -5.451  1.00  0.00     0.000 C 
BRANCH  10  11
ATOM     11  C   UNL     1     -12.254  -5.148  -5.238  1.00  0.00    -0.000 C 
BRANCH  11  12
ATOM     12  C   UNL     1     -12.418  -4.350  -6.543  1.00  0.00    -0.000 C 
BRANCH  12  13
ATOM     13  C   UNL     1     -11.090  -3.767  -7.056  1.00  0.00    -0.000 C 
BRANCH  13  14
ATOM     14  C   UNL     1     -10.634  -4.294  -8.432  1.00  0.00    -0.000 C 
BRANCH  14  15
ATOM     15  C   UNL     1     -11.356  -3.631  -9.623  1.00  0.00    -0.000 C 
BRANCH  15  16
ATOM     16  C   UNL     1     -11.167  -4.420 -10.928  1.00  0.00    -0.003 C 
ATOM     17  C   UNL     1     -11.653  -5.858 -10.778  1.00  0.00     0.004 C 
ENDBRANCH  15  16
ENDBRANCH  14  15
ENDBRANCH  13  14
ENDBRANCH  12  13
ENDBRANCH  11  12
ENDBRANCH  10  11
ENDBRANCH   1  10
TORSDOF 13
ENDMDL
MODEL 4
REMARK VINA RESULT:    -4.530      1.673      3.639
REMARK INTER + INTRA:          -9.446
REMARK INTER:                  -8.688
REMARK INTRA:                  -0.757
REMARK UNBOUND:                -1.472
REMARK SMILES CCCCCCCCCCCCCCC(=O)[O-]
REMARK SMILES IDX 9 1 10 2 11 3 12 4 13 5 14 6 15 7 16 8 17 9 8 10 7 11 6 12
REMARK SMILES IDX 5 13 4 14 3 15 2 16 1 17
REMARK H PARENT
REMARK Flexibility Score: inf
ROOT
ATOM      1  C   UNL     1      -8.574 -10.559  -5.467  1.00  0.00     0.000 C 
ENDROOT
BRANCH   1   2
ATOM      2  C   UNL     1      -7.139 -10.137  -5.115  1.00  0.00     0.000 C 
BRANCH   2   3
ATOM      3  C   UNL     1      -6.220 -10.067  -6.346  1.00  0.00     0.000 C 
BRANCH   3   4
ATOM      4  C   UNL     1      -5.957 -11.449  -6.966  1.00  0.00     0.000 C 
BRANCH   4   5
ATOM      5  C   UNL     1      -4.462 -11.826  -6.976  1.00  0.00     0.006 C 
BRANCH   5   6
ATOM      6  C   UNL     1      -3.640 -11.148  -5.866  1.00  0.00     0.053 C 
BRANCH   6   7
ATOM      7  C   UNL     1      -2.625 -12.065  -5.257  1.00  0.00     0.041 C 
ATOM      8  O   UNL     1      -2.030 -11.738  -4.196  1.00  0.00    -0.550 OA
ATOM      9  O   UNL     1      -2.338 -13.284  -5.858  1.00  0.00    -0.550 OA
ENDBRANCH   6   7
ENDBRANCH   5   6
ENDBRANCH   4   5
ENDBRANCH   3   4
ENDBRANCH   2   3
ENDBRANCH   1   2
BRANCH   1  10
ATOM     10  C   UNL     1      -9.571  -9.443  -5.122  1.00  0.00     0.000 C 
BRANCH  10  11
ATOM     11  C   UNL     1      -8.899  -8.071  -4.956  1.00  0.00    -0.000 C 
BRANCH  11  12
ATOM     12  C   UNL     1      -9.827  -6.908  -5.347  1.00  0.00    -0.000 C 
BRANCH  12  13
ATOM     13  C   UNL     1      -9.345  -6.157  -6.600  1.00  0.00    -0.000 C 
BRANCH  13  14
ATOM     14  C   UNL     1     -10.335  -6.158  -7.783  1.00  0.00    -0.000 C 
BRANCH  14  15
ATOM     15  C   UNL     1     -10.579  -4.761  -8.390  1.00  0.00    -0.000 C 
BRANCH  15  16
ATOM     16  C   UNL     1     -11.073  -3.750  -7.344  1.00  0.00    -0.003 C 
ATOM     17  C   UNL     1     -12.403  -4.189  -6.739  1.00  0.00     0.004 C 
ENDBRANCH  15  16
ENDBRANCH  14  15
ENDBRANCH  13  14
ENDBRANCH  12  13
ENDBRANCH  11  12
ENDBRANCH  10  11
ENDBRANCH   1  10
TORSDOF 13
ENDMDL
MODEL 5
REMARK VINA RESULT:    -4.509      3.520      7.681
REMARK INTER + INTRA:          -9.408
REMARK INTER:                  -8.518
REMARK INTRA:                  -0.890
REMARK UNBOUND:                -1.472
REMARK SMILES CCCCCCCCCCCCCCC(=O)[O-]
REMARK SMILES IDX 9 1 10 2 11 3 12 4 13 5 14 6 15 7 16 8 17 9 8 10 7 11 6 12
REMARK SMILES IDX 5 13 4 14 3 15 2 16 1 17
REMARK H PARENT
REMARK Flexibility Score: inf
ROOT
ATOM      1  C   UNL     1      -9.396  -6.130  -6.585  1.00  0.00     0.000 C 
ENDROOT
BRANCH   1   2
ATOM      2  C   UNL     1     -10.005  -6.222  -7.992  1.00  0.00     0.000 C 
BRANCH   2   3
ATOM      3  C   UNL     1     -10.849  -4.991  -8.358  1.00  0.00     0.000 C 
BRANCH   3   4
ATOM      4  C   UNL     1     -10.977  -3.995  -7.193  1.00  0.00     0.000 C 
BRANCH   4   5
ATOM      5  C   UNL     1     -12.424  -3.858  -6.679  1.00  0.00     0.006 C 
BRANCH   5   6
ATOM      6  C   UNL     1     -12.932  -5.087  -5.907  1.00  0.00     0.053 C 
BRANCH   6   7
ATOM      7  C   UNL     1     -12.582  -5.041  -4.452  1.00  0.00     0.041 C 
ATOM      8  O   UNL     1     -13.407  -5.439  -3.588  1.00  0.00    -0.550 OA
ATOM      9  O   UNL     1     -11.341  -4.564  -4.049  1.00  0.00    -0.550 OA
ENDBRANCH   6   7
ENDBRANCH   5   6
ENDBRANCH   4   5
ENDBRANCH   3   4
ENDBRANCH   2   3
ENDBRANCH   1   2
BRANCH   1  10
ATOM     10  C   UNL     1      -9.935  -7.249  -5.681  1.00  0.00     0.000 C 
BRANCH  10  11
ATOM     11  C   UNL     1      -8.825  -8.158  -5.130  1.00  0.00    -0.000 C 
BRANCH  11  12
ATOM     12  C   UNL     1      -9.232  -9.642  -5.114  1.00  0.00    -0.000 C 
BRANCH  12  13
ATOM     13  C   UNL     1      -8.022 -10.591  -5.069  1.00  0.00    -0.000 C 
BRANCH  13  14
ATOM     14  C   UNL     1      -7.894 -11.544  -6.274  1.00  0.00    -0.000 C 
BRANCH  14  15
ATOM     15  C   UNL     1      -6.553 -11.418  -7.027  1.00  0.00    -0.000 C 
BRANCH  15  16
ATOM     16  C   UNL     1      -5.569 -10.482  -6.309  1.00  0.00    -0.003 C 
ATOM     17  C   UNL     1      -4.157 -11.058  -6.314  1.00  0.00     0.004 C 
ENDBRANCH  15  16
ENDBRANCH  14  15
ENDBRANCH  13  14
ENDBRANCH  12  13
ENDBRANCH  11  12
ENDBRANCH  10  11
ENDBRANCH   1  10
TORSDOF 13
ENDMDL
MODEL 6
REMARK VINA RESULT:    -4.445      2.697      4.799
REMARK INTER + INTRA:          -9.296
REMARK INTER:                  -8.888
REMARK INTRA:                  -0.409
REMARK UNBOUND:                -1.472
REMARK SMILES CCCCCCCCCCCCCCC(=O)[O-]
REMARK SMILES IDX 9 1 10 2 11 3 12 4 13 5 14 6 15 7 16 8 17 9 8 10 7 11 6 12
REMARK SMILES IDX 5 13 4 14 3 15 2 16 1 17
REMARK H PARENT
REMARK Flexibility Score: inf
ROOT
ATOM      1  C   UNL     1      -6.888 -10.259  -5.178  1.00  0.00     0.000 C 
ENDROOT
BRANCH   1   2
ATOM      2  C   UNL     1      -6.210 -10.251  -6.556  1.00  0.00     0.000 C 
BRANCH   2   3
ATOM      3  C   UNL     1      -5.076 -11.283  -6.668  1.00  0.00     0.000 C 
BRANCH   3   4
ATOM      4  C   UNL     1      -3.790 -10.828  -5.956  1.00  0.00     0.000 C 
BRANCH   4   5
ATOM      5  C   UNL     1      -3.098 -11.969  -5.185  1.00  0.00     0.006 C 
BRANCH   5   6
ATOM      6  C   UNL     1      -1.660 -11.644  -4.746  1.00  0.00     0.053 C 
BRANCH   6   7
ATOM      7  C   UNL     1      -0.690 -12.729  -5.095  1.00  0.00     0.041 C 
ATOM      8  O   UNL     1      -0.934 -13.516  -6.048  1.00  0.00    -0.550 OA
ATOM      9  O   UNL     1       0.488 -12.870  -4.372  1.00  0.00    -0.550 OA
ENDBRANCH   6   7
ENDBRANCH   5   6
ENDBRANCH   4   5
ENDBRANCH   3   4
ENDBRANCH   2   3
ENDBRANCH   1   2
BRANCH   1  10
ATOM     10  C   UNL     1      -8.353  -9.812  -5.286  1.00  0.00     0.000 C 
BRANCH  10  11
ATOM     11  C   UNL     1      -8.586  -8.392  -4.747  1.00  0.00    -0.000 C 
BRANCH  11  12
ATOM     12  C   UNL     1      -9.733  -7.666  -5.472  1.00  0.00    -0.000 C 
BRANCH  12  13
ATOM     13  C   UNL     1      -9.257  -6.429  -6.252  1.00  0.00    -0.000 C 
BRANCH  13  14
ATOM     14  C   UNL     1     -10.376  -5.613  -6.930  1.00  0.00    -0.000 C 
BRANCH  14  15
ATOM     15  C   UNL     1     -10.423  -5.775  -8.463  1.00  0.00    -0.000 C 
BRANCH  15  16
ATOM     16  C   UNL     1     -10.701  -4.444  -9.179  1.00  0.00    -0.003 C 
ATOM     17  C   UNL     1     -11.148  -4.676 -10.619  1.00  0.00     0.004 C 
ENDBRANCH  15  16
ENDBRANCH  14  15
ENDBRANCH  13  14
ENDBRANCH  12  13
ENDBRANCH  11  12
ENDBRANCH  10  11
ENDBRANCH   1  10
TORSDOF 13
ENDMDL
MODEL 7
REMARK VINA RESULT:    -4.419      3.942      8.603
REMARK INTER + INTRA:          -9.250
REMARK INTER:                  -8.798
REMARK INTRA:                  -0.452
REMARK UNBOUND:                -1.472
REMARK SMILES CCCCCCCCCCCCCCC(=O)[O-]
REMARK SMILES IDX 9 1 10 2 11 3 12 4 13 5 14 6 15 7 16 8 17 9 8 10 7 11 6 12
REMARK SMILES IDX 5 13 4 14 3 15 2 16 1 17
REMARK H PARENT
REMARK Flexibility Score: inf
ROOT
ATOM      1  C   UNL     1      -8.504  -8.857  -4.711  1.00  0.00     0.000 C 
ENDROOT
BRANCH   1   2
ATOM      2  C   UNL     1      -9.788  -8.291  -5.335  1.00  0.00     0.000 C 
BRANCH   2   3
ATOM      3  C   UNL     1      -9.807  -6.754  -5.366  1.00  0.00     0.000 C 
BRANCH   3   4
ATOM      4  C   UNL     1      -9.239  -6.182  -6.676  1.00  0.00     0.000 C 
BRANCH   4   5
ATOM      5  C   UNL     1     -10.317  -5.983  -7.759  1.00  0.00     0.006 C 
BRANCH   5   6
ATOM      6  C   UNL     1     -10.630  -4.509  -8.067  1.00  0.00     0.053 C 
BRANCH   6   7
ATOM      7  C   UNL     1     -11.059  -4.293  -9.485  1.00  0.00     0.041 C 
ATOM      8  O   UNL     1     -11.095  -3.130  -9.967  1.00  0.00    -0.550 OA
ATOM      9  O   UNL     1     -11.415  -5.377 -10.277  1.00  0.00    -0.550 OA
ENDBRANCH   6   7
ENDBRANCH   5   6
ENDBRANCH   4   5
ENDBRANCH   3   4
ENDBRANCH   2   3
ENDBRANCH   1   2
BRANCH   1  10
ATOM     10  C   UNL     1      -8.037 -10.111  -5.465  1.00  0.00     0.000 C 
BRANCH  10  11
ATOM     11  C   UNL     1      -6.550 -10.427  -5.235  1.00  0.00    -0.000 C 
BRANCH  11  12
ATOM     12  C   UNL     1      -5.725 -10.359  -6.532  1.00  0.00    -0.000 C 
BRANCH  12  13
ATOM     13  C   UNL     1      -4.604 -11.412  -6.580  1.00  0.00    -0.000 C 
BRANCH  13  14
ATOM     14  C   UNL     1      -3.366 -11.089  -5.721  1.00  0.00    -0.000 C 
BRANCH  14  15
ATOM     15  C   UNL     1      -2.681 -12.334  -5.121  1.00  0.00    -0.000 C 
BRANCH  15  16
ATOM     16  C   UNL     1      -2.489 -12.216  -3.601  1.00  0.00    -0.003 C 
ATOM     17  C   UNL     1      -2.228 -13.581  -2.972  1.00  0.00     0.004 C 
ENDBRANCH  15  16
ENDBRANCH  14  15
ENDBRANCH  13  14
ENDBRANCH  12  13
ENDBRANCH  11  12
ENDBRANCH  10  11
ENDBRANCH   1  10
TORSDOF 13
ENDMDL
MODEL 8
REMARK VINA RESULT:    -4.289      3.026      6.952
REMARK INTER + INTRA:          -9.020
REMARK INTER:                  -7.791
REMARK INTRA:                  -1.229
REMARK UNBOUND:                -1.472
REMARK SMILES CCCCCCCCCCCCCCC(=O)[O-]
REMARK SMILES IDX 9 1 10 2 11 3 12 4 13 5 14 6 15 7 16 8 17 9 8 10 7 11 6 12
REMARK SMILES IDX 5 13 4 14 3 15 2 16 1 17
REMARK H PARENT
REMARK Flexibility Score: inf
ROOT
ATOM      1  C   UNL     1     -10.366  -7.198  -5.501  1.00  0.00     0.000 C 
ENDROOT
BRANCH   1   2
ATOM      2  C   UNL     1     -10.727  -5.720  -5.286  1.00  0.00     0.000 C 
BRANCH   2   3
ATOM      3  C   UNL     1     -12.229  -5.443  -5.457  1.00  0.00     0.000 C 
BRANCH   3   4
ATOM      4  C   UNL     1     -12.518  -4.405  -6.554  1.00  0.00     0.000 C 
BRANCH   4   5
ATOM      5  C   UNL     1     -11.235  -3.855  -7.209  1.00  0.00     0.006 C 
BRANCH   5   6
ATOM      6  C   UNL     1     -11.279  -3.833  -8.747  1.00  0.00     0.053 C 
BRANCH   6   7
ATOM      7  C   UNL     1     -10.978  -5.169  -9.352  1.00  0.00     0.041 C 
ATOM      8  O   UNL     1     -10.165  -5.951  -8.793  1.00  0.00    -0.550 OA
ATOM      9  O   UNL     1     -11.599  -5.554 -10.534  1.00  0.00    -0.550 OA
ENDBRANCH   6   7
ENDBRANCH   5   6
ENDBRANCH   4   5
ENDBRANCH   3   4
ENDBRANCH   2   3
ENDBRANCH   1   2
BRANCH   1  10
ATOM     10  C   UNL     1     -11.470  -7.922  -6.285  1.00  0.00     0.000 C 
BRANCH  10  11
ATOM     11  C   UNL     1     -11.915  -9.233  -5.618  1.00  0.00    -0.000 C 
BRANCH  11  12
ATOM     12  C   UNL     1     -11.310 -10.475  -6.297  1.00  0.00    -0.000 C 
BRANCH  12  13
ATOM     13  C   UNL     1     -10.566 -11.391  -5.309  1.00  0.00    -0.000 C 
BRANCH  13  14
ATOM     14  C   UNL     1      -9.041 -11.472  -5.517  1.00  0.00    -0.000 C 
BRANCH  14  15
ATOM     15  C   UNL     1      -8.294 -10.170  -5.159  1.00  0.00    -0.000 C 
BRANCH  15  16
ATOM     16  C   UNL     1      -6.772 -10.372  -5.099  1.00  0.00    -0.003 C 
ATOM     17  C   UNL     1      -6.146 -10.267  -6.486  1.00  0.00     0.004 C 
ENDBRANCH  15  16
ENDBRANCH  14  15
ENDBRANCH  13  14
ENDBRANCH  12  13
ENDBRANCH  11  12
ENDBRANCH  10  11
ENDBRANCH   1  10
TORSDOF 13
ENDMDL
MODEL 9
REMARK VINA RESULT:    -4.254      3.554      7.197
REMARK INTER + INTRA:          -8.960
REMARK INTER:                  -7.801
REMARK INTRA:                  -1.159
REMARK UNBOUND:                -1.472
REMARK SMILES CCCCCCCCCCCCCCC(=O)[O-]
REMARK SMILES IDX 9 1 10 2 11 3 12 4 13 5 14 6 15 7 16 8 17 9 8 10 7 11 6 12
REMARK SMILES IDX 5 13 4 14 3 15 2 16 1 17
REMARK H PARENT
REMARK Flexibility Score: inf
ROOT
ATOM      1  C   UNL     1      -9.261  -5.876  -6.614  1.00  0.00     0.000 C 
ENDROOT
BRANCH   1   2
ATOM      2  C   UNL     1     -10.381  -6.060  -7.648  1.00  0.00     0.000 C 
BRANCH   2   3
ATOM      3  C   UNL     1     -10.753  -4.751  -8.364  1.00  0.00     0.000 C 
BRANCH   3   4
ATOM      4  C   UNL     1     -11.464  -3.752  -7.436  1.00  0.00     0.000 C 
BRANCH   4   5
ATOM      5  C   UNL     1     -12.596  -4.400  -6.614  1.00  0.00     0.006 C 
BRANCH   5   6
ATOM      6  C   UNL     1     -12.308  -4.473  -5.104  1.00  0.00     0.053 C 
BRANCH   6   7
ATOM      7  C   UNL     1     -12.985  -5.633  -4.442  1.00  0.00     0.041 C 
ATOM      8  O   UNL     1     -13.546  -5.487  -3.325  1.00  0.00    -0.550 OA
ATOM      9  O   UNL     1     -13.001  -6.876  -5.062  1.00  0.00    -0.550 OA
ENDBRANCH   6   7
ENDBRANCH   5   6
ENDBRANCH   4   5
ENDBRANCH   3   4
ENDBRANCH   2   3
ENDBRANCH   1   2
BRANCH   1  10
ATOM     10  C   UNL     1      -9.468  -6.807  -5.411  1.00  0.00     0.000 C 
BRANCH  10  11
ATOM     11  C   UNL     1      -9.212  -8.285  -5.748  1.00  0.00    -0.000 C 
BRANCH  11  12
ATOM     12  C   UNL     1      -8.515  -9.039  -4.602  1.00  0.00    -0.000 C 
BRANCH  12  13
ATOM     13  C   UNL     1      -7.348  -9.915  -5.088  1.00  0.00    -0.000 C 
BRANCH  13  14
ATOM     14  C   UNL     1      -7.757 -11.131  -5.944  1.00  0.00    -0.000 C 
BRANCH  14  15
ATOM     15  C   UNL     1      -8.995 -11.880  -5.410  1.00  0.00    -0.000 C 
BRANCH  15  16
ATOM     16  C   UNL     1      -9.962 -12.280  -6.535  1.00  0.00    -0.003 C 
ATOM     17  C   UNL     1     -11.194 -11.380  -6.549  1.00  0.00     0.004 C 
ENDBRANCH  15  16
ENDBRANCH  14  15
ENDBRANCH  13  14
ENDBRANCH  12  13
ENDBRANCH  11  12
ENDBRANCH  10  11
ENDBRANCH   1  10
TORSDOF 13
ENDMDL
