MODEL 1
REMARK VINA RESULT:    -3.529      0.000      0.000
REMARK INTER + INTRA:         -14.882
REMARK INTER:                  -9.304
REMARK INTRA:                  -5.577
REMARK UNBOUND:                -5.577
REMARK SMILES CCCCCCCCCCCCCCCCCCCCCCCCCCCCCC(=O)[O-]
REMARK SMILES IDX 16 1 17 2 18 3 19 4 20 5 21 6 22 7 23 8 24 9 25 10 26 11
REMARK SMILES IDX 27 12 28 13 29 14 30 15 31 16 32 17 15 18 14 19 13 20 12 21
REMARK SMILES IDX 11 22 10 23 9 24 8 25 7 26 6 27 5 28 4 29 3 30 2 31 1 32
REMARK H PARENT
REMARK Flexibility Score: inf
ROOT
ATOM      1  C   UNL     1      14.722   0.751  37.924  1.00  0.00     0.000 C 
ENDROOT
BRANCH   1   2
ATOM      2  C   UNL     1      14.386   2.242  38.108  1.00  0.00     0.000 C 
BRANCH   2   3
ATOM      3  C   UNL     1      15.623   3.107  38.392  1.00  0.00     0.000 C 
BRANCH   3   4
ATOM      4  C   UNL     1      15.705   3.479  39.877  1.00  0.00     0.000 C 
BRANCH   4   5
ATOM      5  C   UNL     1      17.094   3.149  40.447  1.00  0.00     0.000 C 
BRANCH   5   6
ATOM      6  C   UNL     1      17.304   1.641  40.652  1.00  0.00     0.000 C 
BRANCH   6   7
ATOM      7  C   UNL     1      18.641   1.144  40.075  1.00  0.00     0.000 C 
BRANCH   7   8
ATOM      8  C   UNL     1      19.828   2.022  40.528  1.00  0.00     0.000 C 
BRANCH   8   9
ATOM      9  C   UNL     1      20.632   1.416  41.691  1.00  0.00     0.000 C 
BRANCH   9  10
ATOM     10  C   UNL     1      20.486   2.212  42.999  1.00  0.00     0.000 C 
BRANCH  10  11
ATOM     11  C   UNL     1      19.276   1.747  43.837  1.00  0.00     0.000 C 
BRANCH  11  12
ATOM     12  C   UNL     1      18.396   2.903  44.344  1.00  0.00     0.000 C 
BRANCH  12  13
ATOM     13  C   UNL     1      16.894   2.570  44.314  1.00  0.00     0.006 C 
BRANCH  13  14
ATOM     14  C   UNL     1      16.632   1.103  43.945  1.00  0.00     0.053 C 
BRANCH  14  15
ATOM     15  C   UNL     1      15.484   0.532  44.721  1.00  0.00     0.041 C 
ATOM     16  O   UNL     1      15.153  -0.672  44.564  1.00  0.00    -0.550 OA
ATOM     17  O   UNL     1      14.811   1.315  45.650  1.00  0.00    -0.550 OA
ENDBRANCH  14  15
ENDBRANCH  13  14
ENDBRANCH  12  13
ENDBRANCH  11  12
ENDBRANCH  10  11
ENDBRANCH   9  10
ENDBRANCH   8   9
ENDBRANCH   7   8
ENDBRANCH   6   7
ENDBRANCH   5   6
ENDBRANCH   4   5
ENDBRANCH   3   4
ENDBRANCH   2   3
ENDBRANCH   1   2
BRANCH   1  18
ATOM     18  C   UNL     1      16.168   0.453  37.483  1.00  0.00     0.000 C 
BRANCH  18  19
ATOM     19  C   UNL     1      16.244  -0.336  36.163  1.00  0.00     0.000 C 
BRANCH  19  20
ATOM     20  C   UNL     1      14.913  -0.328  35.395  1.00  0.00     0.000 C 
BRANCH  20  21
ATOM     21  C   UNL     1      15.051   0.235  33.973  1.00  0.00     0.000 C 
BRANCH  21  22
ATOM     22  C   UNL     1      16.424  -0.113  33.379  1.00  0.00     0.000 C 
BRANCH  22  23
ATOM     23  C   UNL     1      17.247   1.129  32.992  1.00  0.00     0.000 C 
BRANCH  23  24
ATOM     24  C   UNL     1      16.673   2.474  33.478  1.00  0.00    -0.000 C 
BRANCH  24  25
ATOM     25  C   UNL     1      17.509   3.199  34.548  1.00  0.00    -0.000 C 
BRANCH  25  26
ATOM     26  C   UNL     1      18.613   2.324  35.181  1.00  0.00    -0.000 C 
BRANCH  26  27
ATOM     27  C   UNL     1      18.877   2.681  36.654  1.00  0.00    -0.000 C 
BRANCH  27  28
ATOM     28  C   UNL     1      19.566   4.045  36.818  1.00  0.00    -0.000 C 
BRANCH  28  29
ATOM     29  C   UNL     1      18.964   4.880  37.963  1.00  0.00    -0.000 C 
BRANCH  29  30
ATOM     30  C   UNL     1      18.584   6.301  37.520  1.00  0.00    -0.000 C 
BRANCH  30  31
ATOM     31  C   UNL     1      17.084   6.588  37.680  1.00  0.00    -0.003 C 
ATOM     32  C   UNL     1      16.302   6.123  36.456  1.00  0.00     0.004 C 
ENDBRANCH  30  31
ENDBRANCH  29  30
ENDBRANCH  28  29
ENDBRANCH  27  28
ENDBRANCH  26  27
ENDBRANCH  25  26
ENDBRANCH  24  25
ENDBRANCH  23  24
ENDBRANCH  22  23
ENDBRANCH  21  22
ENDBRANCH  20  21
ENDBRANCH  19  20
ENDBRANCH  18  19
ENDBRANCH   1  18
TORSDOF 28
ENDMDL
MODEL 2
REMARK VINA RESULT:    -3.514      2.095      5.723
REMARK INTER + INTRA:         -14.843
REMARK INTER:                  -8.044
REMARK INTRA:                  -6.800
REMARK UNBOUND:                -5.577
REMARK SMILES CCCCCCCCCCCCCCCCCCCCCCCCCCCCCC(=O)[O-]
REMARK SMILES IDX 16 1 17 2 18 3 19 4 20 5 21 6 22 7 23 8 24 9 25 10 26 11
REMARK SMILES IDX 27 12 28 13 29 14 30 15 31 16 32 17 15 18 14 19 13 20 12 21
REMARK SMILES IDX 11 22 10 23 9 24 8 25 7 26 6 27 5 28 4 29 3 30 2 31 1 32
REMARK H PARENT
REMARK Flexibility Score: inf
ROOT
ATOM      1  C   UNL     1      15.550   1.030  34.584  1.00  0.00     0.000 C 
ENDROOT
BRANCH   1   2
ATOM      2  C   UNL     1      16.031  -0.380  34.197  1.00  0.00     0.000 C 
BRANCH   2   3
ATOM      3  C   UNL     1      17.233  -0.364  33.241  1.00  0.00     0.000 C 
BRANCH   3   4
ATOM      4  C   UNL     1      18.425  -1.116  33.843  1.00  0.00     0.000 C 
BRANCH   4   5
ATOM      5  C   UNL     1      19.428  -0.137  34.473  1.00  0.00     0.000 C 
BRANCH   5   6
ATOM      6  C   UNL     1      19.223   0.023  35.987  1.00  0.00     0.000 C 
BRANCH   6   7
ATOM      7  C   UNL     1      18.848  -1.299  36.679  1.00  0.00     0.000 C 
BRANCH   7   8
ATOM      8  C   UNL     1      17.706  -1.112  37.703  1.00  0.00     0.000 C 
BRANCH   8   9
ATOM      9  C   UNL     1      17.276   0.354  37.883  1.00  0.00     0.000 C 
BRANCH   9  10
ATOM     10  C   UNL     1      15.771   0.509  38.157  1.00  0.00     0.000 C 
BRANCH  10  11
ATOM     11  C   UNL     1      15.469   1.648  39.153  1.00  0.00     0.000 C 
BRANCH  11  12
ATOM     12  C   UNL     1      16.713   2.164  39.897  1.00  0.00     0.000 C 
BRANCH  12  13
ATOM     13  C   UNL     1      16.391   3.290  40.894  1.00  0.00     0.006 C 
BRANCH  13  14
ATOM     14  C   UNL     1      17.627   3.733  41.690  1.00  0.00     0.053 C 
BRANCH  14  15
ATOM     15  C   UNL     1      17.894   2.825  42.852  1.00  0.00     0.041 C 
ATOM     16  O   UNL     1      16.946   2.201  43.397  1.00  0.00    -0.550 OA
ATOM     17  O   UNL     1      19.194   2.631  43.301  1.00  0.00    -0.550 OA
ENDBRANCH  14  15
ENDBRANCH  13  14
ENDBRANCH  12  13
ENDBRANCH  11  12
ENDBRANCH  10  11
ENDBRANCH   9  10
ENDBRANCH   8   9
ENDBRANCH   7   8
ENDBRANCH   6   7
ENDBRANCH   5   6
ENDBRANCH   4   5
ENDBRANCH   3   4
ENDBRANCH   2   3
ENDBRANCH   1   2
BRANCH   1  18
ATOM     18  C   UNL     1      16.484   2.181  34.165  1.00  0.00     0.000 C 
BRANCH  18  19
ATOM     19  C   UNL     1      16.948   3.043  35.354  1.00  0.00     0.000 C 
BRANCH  19  20
ATOM     20  C   UNL     1      15.771   3.621  36.156  1.00  0.00     0.000 C 
BRANCH  20  21
ATOM     21  C   UNL     1      16.207   4.714  37.144  1.00  0.00     0.000 C 
BRANCH  21  22
ATOM     22  C   UNL     1      17.695   5.051  36.963  1.00  0.00     0.000 C 
BRANCH  22  23
ATOM     23  C   UNL     1      18.396   5.415  38.286  1.00  0.00     0.000 C 
BRANCH  23  24
ATOM     24  C   UNL     1      19.636   4.565  38.626  1.00  0.00    -0.000 C 
BRANCH  24  25
ATOM     25  C   UNL     1      19.679   3.173  37.971  1.00  0.00    -0.000 C 
BRANCH  25  26
ATOM     26  C   UNL     1      21.098   2.573  37.865  1.00  0.00    -0.000 C 
BRANCH  26  27
ATOM     27  C   UNL     1      21.430   1.630  39.034  1.00  0.00    -0.000 C 
BRANCH  27  28
ATOM     28  C   UNL     1      20.197   1.294  39.890  1.00  0.00    -0.000 C 
BRANCH  28  29
ATOM     29  C   UNL     1      20.296  -0.092  40.554  1.00  0.00    -0.000 C 
BRANCH  29  30
ATOM     30  C   UNL     1      19.084  -0.406  41.444  1.00  0.00    -0.000 C 
BRANCH  30  31
ATOM     31  C   UNL     1      19.490  -0.884  42.846  1.00  0.00    -0.003 C 
ATOM     32  C   UNL     1      20.260  -2.199  42.776  1.00  0.00     0.004 C 
ENDBRANCH  30  31
ENDBRANCH  29  30
ENDBRANCH  28  29
ENDBRANCH  27  28
ENDBRANCH  26  27
ENDBRANCH  25  26
ENDBRANCH  24  25
ENDBRANCH  23  24
ENDBRANCH  22  23
ENDBRANCH  21  22
ENDBRANCH  20  21
ENDBRANCH  19  20
ENDBRANCH  18  19
ENDBRANCH   1  18
TORSDOF 28
ENDMDL
MODEL 3
REMARK VINA RESULT:    -3.498      2.184      4.097
REMARK INTER + INTRA:         -14.802
REMARK INTER:                  -8.690
REMARK INTRA:                  -6.111
REMARK UNBOUND:                -5.577
REMARK SMILES CCCCCCCCCCCCCCCCCCCCCCCCCCCCCC(=O)[O-]
REMARK SMILES IDX 16 1 17 2 18 3 19 4 20 5 21 6 22 7 23 8 24 9 25 10 26 11
REMARK SMILES IDX 27 12 28 13 29 14 30 15 31 16 32 17 15 18 14 19 13 20 12 21
REMARK SMILES IDX 11 22 10 23 9 24 8 25 7 26 6 27 5 28 4 29 3 30 2 31 1 32
REMARK H PARENT
REMARK Flexibility Score: inf
ROOT
ATOM      1  C   UNL     1      18.135   1.637  34.323  1.00  0.00     0.000 C 
ENDROOT
BRANCH   1   2
ATOM      2  C   UNL     1      18.383   1.976  35.805  1.00  0.00     0.000 C 
BRANCH   2   3
ATOM      3  C   UNL     1      19.069   0.837  36.575  1.00  0.00     0.000 C 
BRANCH   3   4
ATOM      4  C   UNL     1      18.341   0.548  37.893  1.00  0.00     0.000 C 
BRANCH   4   5
ATOM      5  C   UNL     1      17.715  -0.855  37.875  1.00  0.00     0.000 C 
BRANCH   5   6
ATOM      6  C   UNL     1      18.600  -1.887  37.159  1.00  0.00     0.000 C 
BRANCH   6   7
ATOM      7  C   UNL     1      19.542  -2.631  38.122  1.00  0.00     0.000 C 
BRANCH   7   8
ATOM      8  C   UNL     1      19.008  -2.627  39.572  1.00  0.00     0.000 C 
BRANCH   8   9
ATOM      9  C   UNL     1      20.080  -2.284  40.620  1.00  0.00     0.000 C 
BRANCH   9  10
ATOM     10  C   UNL     1      21.081  -1.224  40.130  1.00  0.00     0.000 C 
BRANCH  10  11
ATOM     11  C   UNL     1      20.662   0.207  40.528  1.00  0.00     0.000 C 
BRANCH  11  12
ATOM     12  C   UNL     1      19.738   0.261  41.757  1.00  0.00     0.000 C 
BRANCH  12  13
ATOM     13  C   UNL     1      18.579   1.259  41.593  1.00  0.00     0.006 C 
BRANCH  13  14
ATOM     14  C   UNL     1      18.799   2.544  42.402  1.00  0.00     0.053 C 
BRANCH  14  15
ATOM     15  C   UNL     1      18.779   2.282  43.878  1.00  0.00     0.041 C 
ATOM     16  O   UNL     1      17.737   1.834  44.425  1.00  0.00    -0.550 OA
ATOM     17  O   UNL     1      19.923   2.486  44.638  1.00  0.00    -0.550 OA
ENDBRANCH  14  15
ENDBRANCH  13  14
ENDBRANCH  12  13
ENDBRANCH  11  12
ENDBRANCH  10  11
ENDBRANCH   9  10
ENDBRANCH   8   9
ENDBRANCH   7   8
ENDBRANCH   6   7
ENDBRANCH   5   6
ENDBRANCH   4   5
ENDBRANCH   3   4
ENDBRANCH   2   3
ENDBRANCH   1   2
BRANCH   1  18
ATOM     18  C   UNL     1      18.417   0.175  33.927  1.00  0.00     0.000 C 
BRANCH  18  19
ATOM     19  C   UNL     1      17.168  -0.558  33.402  1.00  0.00     0.000 C 
BRANCH  19  20
ATOM     20  C   UNL     1      15.947   0.368  33.288  1.00  0.00     0.000 C 
BRANCH  20  21
ATOM     21  C   UNL     1      14.722  -0.170  34.042  1.00  0.00     0.000 C 
BRANCH  21  22
ATOM     22  C   UNL     1      15.047  -0.387  35.528  1.00  0.00     0.000 C 
BRANCH  22  23
ATOM     23  C   UNL     1      14.919   0.898  36.367  1.00  0.00     0.000 C 
BRANCH  23  24
ATOM     24  C   UNL     1      14.280   0.713  37.757  1.00  0.00    -0.000 C 
BRANCH  24  25
ATOM     25  C   UNL     1      15.007   1.419  38.915  1.00  0.00    -0.000 C 
BRANCH  25  26
ATOM     26  C   UNL     1      15.456   2.860  38.589  1.00  0.00    -0.000 C 
BRANCH  26  27
ATOM     27  C   UNL     1      16.385   3.448  39.666  1.00  0.00    -0.000 C 
BRANCH  27  28
ATOM     28  C   UNL     1      16.980   4.805  39.257  1.00  0.00    -0.000 C 
BRANCH  28  29
ATOM     29  C   UNL     1      18.202   4.662  38.332  1.00  0.00    -0.000 C 
BRANCH  29  30
ATOM     30  C   UNL     1      19.369   3.924  39.006  1.00  0.00    -0.000 C 
BRANCH  30  31
ATOM     31  C   UNL     1      20.584   3.770  38.080  1.00  0.00    -0.003 C 
ATOM     32  C   UNL     1      20.945   5.099  37.423  1.00  0.00     0.004 C 
ENDBRANCH  30  31
ENDBRANCH  29  30
ENDBRANCH  28  29
ENDBRANCH  27  28
ENDBRANCH  26  27
ENDBRANCH  25  26
ENDBRANCH  24  25
ENDBRANCH  23  24
ENDBRANCH  22  23
ENDBRANCH  21  22
ENDBRANCH  20  21
ENDBRANCH  19  20
ENDBRANCH  18  19
ENDBRANCH   1  18
TORSDOF 28
ENDMDL
MODEL 4
REMARK VINA RESULT:    -3.487      3.388      7.264
REMARK INTER + INTRA:         -14.772
REMARK INTER:                  -8.676
REMARK INTRA:                  -6.096
REMARK UNBOUND:                -5.577
REMARK SMILES CCCCCCCCCCCCCCCCCCCCCCCCCCCCCC(=O)[O-]
REMARK SMILES IDX 16 1 17 2 18 3 19 4 20 5 21 6 22 7 23 8 24 9 25 10 26 11
REMARK SMILES IDX 27 12 28 13 29 14 30 15 31 16 32 17 15 18 14 19 13 20 12 21
REMARK SMILES IDX 11 22 10 23 9 24 8 25 7 26 6 27 5 28 4 29 3 30 2 31 1 32
REMARK H PARENT
REMARK Flexibility Score: inf
ROOT
ATOM      1  C   UNL     1      16.211   4.092  42.990  1.00  0.00     0.000 C 
ENDROOT
BRANCH   1   2
ATOM      2  C   UNL     1      15.852   5.089  41.872  1.00  0.00     0.000 C 
BRANCH   2   3
ATOM      3  C   UNL     1      16.744   6.339  41.872  1.00  0.00     0.000 C 
BRANCH   3   4
ATOM      4  C   UNL     1      17.348   6.584  40.485  1.00  0.00     0.000 C 
BRANCH   4   5
ATOM      5  C   UNL     1      18.677   5.828  40.326  1.00  0.00     0.000 C 
BRANCH   5   6
ATOM      6  C   UNL     1      18.921   5.363  38.882  1.00  0.00     0.000 C 
BRANCH   6   7
ATOM      7  C   UNL     1      17.631   5.324  38.045  1.00  0.00     0.000 C 
BRANCH   7   8
ATOM      8  C   UNL     1      17.205   3.879  37.704  1.00  0.00     0.000 C 
BRANCH   8   9
ATOM      9  C   UNL     1      16.834   3.041  38.940  1.00  0.00     0.000 C 
BRANCH   9  10
ATOM     10  C   UNL     1      15.339   2.684  38.994  1.00  0.00     0.000 C 
BRANCH  10  11
ATOM     11  C   UNL     1      15.092   1.167  38.849  1.00  0.00     0.000 C 
BRANCH  11  12
ATOM     12  C   UNL     1      14.318   0.787  37.575  1.00  0.00     0.000 C 
BRANCH  12  13
ATOM     13  C   UNL     1      15.138   0.995  36.290  1.00  0.00     0.006 C 
BRANCH  13  14
ATOM     14  C   UNL     1      15.024  -0.196  35.329  1.00  0.00     0.053 C 
BRANCH  14  15
ATOM     15  C   UNL     1      15.899  -0.024  34.124  1.00  0.00     0.041 C 
ATOM     16  O   UNL     1      15.558   0.764  33.204  1.00  0.00    -0.550 OA
ATOM     17  O   UNL     1      17.112  -0.695  34.041  1.00  0.00    -0.550 OA
ENDBRANCH  14  15
ENDBRANCH  13  14
ENDBRANCH  12  13
ENDBRANCH  11  12
ENDBRANCH  10  11
ENDBRANCH   9  10
ENDBRANCH   8   9
ENDBRANCH   7   8
ENDBRANCH   6   7
ENDBRANCH   5   6
ENDBRANCH   4   5
ENDBRANCH   3   4
ENDBRANCH   2   3
ENDBRANCH   1   2
BRANCH   1  18
ATOM     18  C   UNL     1      17.709   3.760  43.118  1.00  0.00     0.000 C 
BRANCH  18  19
ATOM     19  C   UNL     1      18.136   2.561  42.251  1.00  0.00     0.000 C 
BRANCH  19  20
ATOM     20  C   UNL     1      19.616   2.627  41.843  1.00  0.00     0.000 C 
BRANCH  20  21
ATOM     21  C   UNL     1      20.453   1.498  42.463  1.00  0.00     0.000 C 
BRANCH  21  22
ATOM     22  C   UNL     1      19.548   0.440  43.111  1.00  0.00     0.000 C 
BRANCH  22  23
ATOM     23  C   UNL     1      19.641  -0.936  42.426  1.00  0.00     0.000 C 
BRANCH  23  24
ATOM     24  C   UNL     1      20.268  -0.926  41.018  1.00  0.00    -0.000 C 
BRANCH  24  25
ATOM     25  C   UNL     1      19.358  -1.443  39.889  1.00  0.00    -0.000 C 
BRANCH  25  26
ATOM     26  C   UNL     1      18.445  -0.360  39.273  1.00  0.00    -0.000 C 
BRANCH  26  27
ATOM     27  C   UNL     1      18.220  -0.566  37.765  1.00  0.00    -0.000 C 
BRANCH  27  28
ATOM     28  C   UNL     1      18.711   0.625  36.926  1.00  0.00    -0.000 C 
BRANCH  28  29
ATOM     29  C   UNL     1      20.224   0.571  36.648  1.00  0.00    -0.000 C 
BRANCH  29  30
ATOM     30  C   UNL     1      20.943   1.870  37.042  1.00  0.00    -0.000 C 
BRANCH  30  31
ATOM     31  C   UNL     1      21.001   2.074  38.564  1.00  0.00    -0.003 C 
ATOM     32  C   UNL     1      22.291   1.502  39.144  1.00  0.00     0.004 C 
ENDBRANCH  30  31
ENDBRANCH  29  30
ENDBRANCH  28  29
ENDBRANCH  27  28
ENDBRANCH  26  27
ENDBRANCH  25  26
ENDBRANCH  24  25
ENDBRANCH  23  24
ENDBRANCH  22  23
ENDBRANCH  21  22
ENDBRANCH  20  21
ENDBRANCH  19  20
ENDBRANCH  18  19
ENDBRANCH   1  18
TORSDOF 28
ENDMDL
MODEL 5
REMARK VINA RESULT:    -3.475      2.139      4.386
REMARK INTER + INTRA:         -14.742
REMARK INTER:                  -8.187
REMARK INTRA:                  -6.555
REMARK UNBOUND:                -5.577
REMARK SMILES CCCCCCCCCCCCCCCCCCCCCCCCCCCCCC(=O)[O-]
REMARK SMILES IDX 16 1 17 2 18 3 19 4 20 5 21 6 22 7 23 8 24 9 25 10 26 11
REMARK SMILES IDX 27 12 28 13 29 14 30 15 31 16 32 17 15 18 14 19 13 20 12 21
REMARK SMILES IDX 11 22 10 23 9 24 8 25 7 26 6 27 5 28 4 29 3 30 2 31 1 32
REMARK H PARENT
REMARK Flexibility Score: inf
ROOT
ATOM      1  C   UNL     1      15.812   1.956  39.449  1.00  0.00     0.000 C 
ENDROOT
BRANCH   1   2
ATOM      2  C   UNL     1      16.502   2.862  40.484  1.00  0.00     0.000 C 
BRANCH   2   3
ATOM      3  C   UNL     1      17.142   4.111  39.858  1.00  0.00     0.000 C 
BRANCH   3   4
ATOM      4  C   UNL     1      18.670   3.990  39.827  1.00  0.00     0.000 C 
BRANCH   4   5
ATOM      5  C   UNL     1      19.156   3.562  38.434  1.00  0.00     0.000 C 
BRANCH   5   6
ATOM      6  C   UNL     1      19.834   2.184  38.443  1.00  0.00     0.000 C 
BRANCH   6   7
ATOM      7  C   UNL     1      19.032   1.122  37.671  1.00  0.00     0.000 C 
BRANCH   7   8
ATOM      8  C   UNL     1      18.617  -0.060  38.575  1.00  0.00     0.000 C 
BRANCH   8   9
ATOM      9  C   UNL     1      19.565  -0.285  39.766  1.00  0.00     0.000 C 
BRANCH   9  10
ATOM     10  C   UNL     1      18.877  -0.085  41.126  1.00  0.00     0.000 C 
BRANCH  10  11
ATOM     11  C   UNL     1      19.890   0.130  42.270  1.00  0.00     0.000 C 
BRANCH  11  12
ATOM     12  C   UNL     1      20.357   1.589  42.416  1.00  0.00     0.000 C 
BRANCH  12  13
ATOM     13  C   UNL     1      19.282   2.504  43.028  1.00  0.00     0.006 C 
BRANCH  13  14
ATOM     14  C   UNL     1      18.965   2.135  44.483  1.00  0.00     0.053 C 
BRANCH  14  15
ATOM     15  C   UNL     1      17.508   1.843  44.678  1.00  0.00     0.041 C 
ATOM     16  O   UNL     1      16.831   1.353  43.735  1.00  0.00    -0.550 OA
ATOM     17  O   UNL     1      16.910   2.066  45.911  1.00  0.00    -0.550 OA
ENDBRANCH  14  15
ENDBRANCH  13  14
ENDBRANCH  12  13
ENDBRANCH  11  12
ENDBRANCH  10  11
ENDBRANCH   9  10
ENDBRANCH   8   9
ENDBRANCH   7   8
ENDBRANCH   6   7
ENDBRANCH   5   6
ENDBRANCH   4   5
ENDBRANCH   3   4
ENDBRANCH   2   3
ENDBRANCH   1   2
BRANCH   1  18
ATOM     18  C   UNL     1      15.137   2.693  38.277  1.00  0.00     0.000 C 
BRANCH  18  19
ATOM     19  C   UNL     1      15.713   2.298  36.905  1.00  0.00     0.000 C 
BRANCH  19  20
ATOM     20  C   UNL     1      16.001   3.517  36.014  1.00  0.00     0.000 C 
BRANCH  20  21
ATOM     21  C   UNL     1      15.095   4.714  36.337  1.00  0.00     0.000 C 
BRANCH  21  22
ATOM     22  C   UNL     1      15.882   6.031  36.261  1.00  0.00     0.000 C 
BRANCH  22  23
ATOM     23  C   UNL     1      17.406   5.820  36.194  1.00  0.00     0.000 C 
BRANCH  23  24
ATOM     24  C   UNL     1      18.240   6.775  37.070  1.00  0.00    -0.000 C 
BRANCH  24  25
ATOM     25  C   UNL     1      17.458   7.503  38.179  1.00  0.00    -0.000 C 
BRANCH  25  26
ATOM     26  C   UNL     1      18.253   7.689  39.489  1.00  0.00    -0.000 C 
BRANCH  26  27
ATOM     27  C   UNL     1      17.372   7.537  40.741  1.00  0.00    -0.000 C 
BRANCH  27  28
ATOM     28  C   UNL     1      18.196   7.313  42.019  1.00  0.00    -0.000 C 
BRANCH  28  29
ATOM     29  C   UNL     1      17.325   6.918  43.226  1.00  0.00    -0.000 C 
BRANCH  29  30
ATOM     30  C   UNL     1      17.210   5.396  43.397  1.00  0.00    -0.000 C 
BRANCH  30  31
ATOM     31  C   UNL     1      15.756   4.929  43.563  1.00  0.00    -0.003 C 
ATOM     32  C   UNL     1      14.800   5.822  42.779  1.00  0.00     0.004 C 
ENDBRANCH  30  31
ENDBRANCH  29  30
ENDBRANCH  28  29
ENDBRANCH  27  28
ENDBRANCH  26  27
ENDBRANCH  25  26
ENDBRANCH  24  25
ENDBRANCH  23  24
ENDBRANCH  22  23
ENDBRANCH  21  22
ENDBRANCH  20  21
ENDBRANCH  19  20
ENDBRANCH  18  19
ENDBRANCH   1  18
TORSDOF 28
ENDMDL
MODEL 6
REMARK VINA RESULT:    -3.469      4.886      8.387
REMARK INTER + INTRA:         -14.725
REMARK INTER:                  -9.250
REMARK INTRA:                  -5.475
REMARK UNBOUND:                -5.577
REMARK SMILES CCCCCCCCCCCCCCCCCCCCCCCCCCCCCC(=O)[O-]
REMARK SMILES IDX 16 1 17 2 18 3 19 4 20 5 21 6 22 7 23 8 24 9 25 10 26 11
REMARK SMILES IDX 27 12 28 13 29 14 30 15 31 16 32 17 15 18 14 19 13 20 12 21
REMARK SMILES IDX 11 22 10 23 9 24 8 25 7 26 6 27 5 28 4 29 3 30 2 31 1 32
REMARK H PARENT
REMARK Flexibility Score: inf
ROOT
ATOM      1  C   UNL     1      20.742  -0.999  40.301  1.00  0.00     0.000 C 
ENDROOT
BRANCH   1   2
ATOM      2  C   UNL     1      19.688  -1.348  41.367  1.00  0.00     0.000 C 
BRANCH   2   3
ATOM      3  C   UNL     1      20.305  -1.758  42.712  1.00  0.00     0.000 C 
BRANCH   3   4
ATOM      4  C   UNL     1      19.692  -0.957  43.866  1.00  0.00     0.000 C 
BRANCH   4   5
ATOM      5  C   UNL     1      18.381  -0.286  43.429  1.00  0.00     0.000 C 
BRANCH   5   6
ATOM      6  C   UNL     1      18.370   1.225  43.710  1.00  0.00     0.000 C 
BRANCH   6   7
ATOM      7  C   UNL     1      19.782   1.836  43.727  1.00  0.00     0.000 C 
BRANCH   7   8
ATOM      8  C   UNL     1      20.250   2.253  42.316  1.00  0.00     0.000 C 
BRANCH   8   9
ATOM      9  C   UNL     1      19.136   2.880  41.460  1.00  0.00     0.000 C 
BRANCH   9  10
ATOM     10  C   UNL     1      19.008   2.230  40.072  1.00  0.00     0.000 C 
BRANCH  10  11
ATOM     11  C   UNL     1      17.707   1.413  39.924  1.00  0.00     0.000 C 
BRANCH  11  12
ATOM     12  C   UNL     1      16.454   2.149  40.431  1.00  0.00     0.000 C 
BRANCH  12  13
ATOM     13  C   UNL     1      15.611   2.750  39.294  1.00  0.00     0.006 C 
BRANCH  13  14
ATOM     14  C   UNL     1      14.750   1.694  38.588  1.00  0.00     0.053 C 
BRANCH  14  15
ATOM     15  C   UNL     1      15.157   1.511  37.157  1.00  0.00     0.041 C 
ATOM     16  O   UNL     1      15.535   2.501  36.477  1.00  0.00    -0.550 OA
ATOM     17  O   UNL     1      15.164   0.244  36.590  1.00  0.00    -0.550 OA
ENDBRANCH  14  15
ENDBRANCH  13  14
ENDBRANCH  12  13
ENDBRANCH  11  12
ENDBRANCH  10  11
ENDBRANCH   9  10
ENDBRANCH   8   9
ENDBRANCH   7   8
ENDBRANCH   6   7
ENDBRANCH   5   6
ENDBRANCH   4   5
ENDBRANCH   3   4
ENDBRANCH   2   3
ENDBRANCH   1   2
BRANCH   1  18
ATOM     18  C   UNL     1      20.517  -1.640  38.919  1.00  0.00     0.000 C 
BRANCH  18  19
ATOM     19  C   UNL     1      19.043  -1.610  38.475  1.00  0.00     0.000 C 
BRANCH  19  20
ATOM     20  C   UNL     1      18.369  -2.987  38.579  1.00  0.00     0.000 C 
BRANCH  20  21
ATOM     21  C   UNL     1      19.126  -4.078  37.808  1.00  0.00     0.000 C 
BRANCH  21  22
ATOM     22  C   UNL     1      19.376  -5.304  38.699  1.00  0.00     0.000 C 
BRANCH  22  23
ATOM     23  C   UNL     1      20.734  -5.257  39.424  1.00  0.00     0.000 C 
BRANCH  23  24
ATOM     24  C   UNL     1      20.661  -4.968  40.935  1.00  0.00    -0.000 C 
BRANCH  24  25
ATOM     25  C   UNL     1      19.260  -5.092  41.562  1.00  0.00    -0.000 C 
BRANCH  25  26
ATOM     26  C   UNL     1      19.106  -6.292  42.521  1.00  0.00    -0.000 C 
BRANCH  26  27
ATOM     27  C   UNL     1      18.529  -5.885  43.889  1.00  0.00    -0.000 C 
BRANCH  27  28
ATOM     28  C   UNL     1      19.247  -4.667  44.494  1.00  0.00    -0.000 C 
BRANCH  28  29
ATOM     29  C   UNL     1      20.463  -5.061  45.352  1.00  0.00    -0.000 C 
BRANCH  29  30
ATOM     30  C   UNL     1      21.718  -4.247  45.005  1.00  0.00    -0.000 C 
BRANCH  30  31
ATOM     31  C   UNL     1      22.712  -5.036  44.139  1.00  0.00    -0.003 C 
ATOM     32  C   UNL     1      23.476  -4.108  43.198  1.00  0.00     0.004 C 
ENDBRANCH  30  31
ENDBRANCH  29  30
ENDBRANCH  28  29
ENDBRANCH  27  28
ENDBRANCH  26  27
ENDBRANCH  25  26
ENDBRANCH  24  25
ENDBRANCH  23  24
ENDBRANCH  22  23
ENDBRANCH  21  22
ENDBRANCH  20  21
ENDBRANCH  19  20
ENDBRANCH  18  19
ENDBRANCH   1  18
TORSDOF 28
ENDMDL
MODEL 7
REMARK VINA RESULT:    -3.467      2.242      4.441
REMARK INTER + INTRA:         -14.720
REMARK INTER:                  -8.667
REMARK INTRA:                  -6.053
REMARK UNBOUND:                -5.577
REMARK SMILES CCCCCCCCCCCCCCCCCCCCCCCCCCCCCC(=O)[O-]
REMARK SMILES IDX 16 1 17 2 18 3 19 4 20 5 21 6 22 7 23 8 24 9 25 10 26 11
REMARK SMILES IDX 27 12 28 13 29 14 30 15 31 16 32 17 15 18 14 19 13 20 12 21
REMARK SMILES IDX 11 22 10 23 9 24 8 25 7 26 6 27 5 28 4 29 3 30 2 31 1 32
REMARK H PARENT
REMARK Flexibility Score: inf
ROOT
ATOM      1  C   UNL     1      14.687   0.386  36.045  1.00  0.00     0.000 C 
ENDROOT
BRANCH   1   2
ATOM      2  C   UNL     1      15.257   0.974  37.349  1.00  0.00     0.000 C 
BRANCH   2   3
ATOM      3  C   UNL     1      15.071   2.496  37.454  1.00  0.00     0.000 C 
BRANCH   3   4
ATOM      4  C   UNL     1      15.447   3.000  38.852  1.00  0.00     0.000 C 
BRANCH   4   5
ATOM      5  C   UNL     1      15.876   1.835  39.757  1.00  0.00     0.000 C 
BRANCH   5   6
ATOM      6  C   UNL     1      16.330   2.305  41.147  1.00  0.00     0.000 C 
BRANCH   6   7
ATOM      7  C   UNL     1      16.825   3.762  41.150  1.00  0.00     0.000 C 
BRANCH   7   8
ATOM      8  C   UNL     1      18.367   3.849  41.145  1.00  0.00     0.000 C 
BRANCH   8   9
ATOM      9  C   UNL     1      18.987   3.680  39.747  1.00  0.00     0.000 C 
BRANCH   9  10
ATOM     10  C   UNL     1      20.047   2.568  39.692  1.00  0.00     0.000 C 
BRANCH  10  11
ATOM     11  C   UNL     1      19.528   1.233  40.267  1.00  0.00     0.000 C 
BRANCH  11  12
ATOM     12  C   UNL     1      20.166   0.852  41.614  1.00  0.00     0.000 C 
BRANCH  12  13
ATOM     13  C   UNL     1      19.209   0.067  42.529  1.00  0.00     0.006 C 
BRANCH  13  14
ATOM     14  C   UNL     1      19.559   0.233  44.014  1.00  0.00     0.053 C 
BRANCH  14  15
ATOM     15  C   UNL     1      19.090   1.551  44.551  1.00  0.00     0.041 C 
ATOM     16  O   UNL     1      17.960   2.000  44.224  1.00  0.00    -0.550 OA
ATOM     17  O   UNL     1      19.878   2.259  45.448  1.00  0.00    -0.550 OA
ENDBRANCH  14  15
ENDBRANCH  13  14
ENDBRANCH  12  13
ENDBRANCH  11  12
ENDBRANCH  10  11
ENDBRANCH   9  10
ENDBRANCH   8   9
ENDBRANCH   7   8
ENDBRANCH   6   7
ENDBRANCH   5   6
ENDBRANCH   4   5
ENDBRANCH   3   4
ENDBRANCH   2   3
ENDBRANCH   1   2
BRANCH   1  18
ATOM     18  C   UNL     1      15.682  -0.436  35.205  1.00  0.00     0.000 C 
BRANCH  18  19
ATOM     19  C   UNL     1      15.554  -0.171  33.693  1.00  0.00     0.000 C 
BRANCH  19  20
ATOM     20  C   UNL     1      16.717   0.670  33.142  1.00  0.00     0.000 C 
BRANCH  20  21
ATOM     21  C   UNL     1      16.404   2.174  33.126  1.00  0.00     0.000 C 
BRANCH  21  22
ATOM     22  C   UNL     1      17.117   2.893  34.281  1.00  0.00     0.000 C 
BRANCH  22  23
ATOM     23  C   UNL     1      18.398   2.173  34.741  1.00  0.00     0.000 C 
BRANCH  23  24
ATOM     24  C   UNL     1      18.572   2.055  36.268  1.00  0.00    -0.000 C 
BRANCH  24  25
ATOM     25  C   UNL     1      19.262   0.768  36.755  1.00  0.00    -0.000 C 
BRANCH  25  26
ATOM     26  C   UNL     1      19.395  -0.322  35.669  1.00  0.00    -0.000 C 
BRANCH  26  27
ATOM     27  C   UNL     1      18.966  -1.712  36.172  1.00  0.00    -0.000 C 
BRANCH  27  28
ATOM     28  C   UNL     1      18.195  -1.647  37.501  1.00  0.00    -0.000 C 
BRANCH  28  29
ATOM     29  C   UNL     1      18.556  -2.803  38.452  1.00  0.00    -0.000 C 
BRANCH  29  30
ATOM     30  C   UNL     1      19.324  -2.326  39.694  1.00  0.00    -0.000 C 
BRANCH  30  31
ATOM     31  C   UNL     1      20.817  -2.681  39.638  1.00  0.00    -0.003 C 
ATOM     32  C   UNL     1      21.631  -1.538  39.040  1.00  0.00     0.004 C 
ENDBRANCH  30  31
ENDBRANCH  29  30
ENDBRANCH  28  29
ENDBRANCH  27  28
ENDBRANCH  26  27
ENDBRANCH  25  26
ENDBRANCH  24  25
ENDBRANCH  23  24
ENDBRANCH  22  23
ENDBRANCH  21  22
ENDBRANCH  20  21
ENDBRANCH  19  20
ENDBRANCH  18  19
ENDBRANCH   1  18
TORSDOF 28
ENDMDL
MODEL 8
REMARK VINA RESULT:    -3.460      2.602      5.316
REMARK INTER + INTRA:         -14.700
REMARK INTER:                  -9.432
REMARK INTRA:                  -5.268
REMARK UNBOUND:                -5.577
REMARK SMILES CCCCCCCCCCCCCCCCCCCCCCCCCCCCCC(=O)[O-]
REMARK SMILES IDX 16 1 17 2 18 3 19 4 20 5 21 6 22 7 23 8 24 9 25 10 26 11
REMARK SMILES IDX 27 12 28 13 29 14 30 15 31 16 32 17 15 18 14 19 13 20 12 21
REMARK SMILES IDX 11 22 10 23 9 24 8 25 7 26 6 27 5 28 4 29 3 30 2 31 1 32
REMARK H PARENT
REMARK Flexibility Score: inf
ROOT
ATOM      1  C   UNL     1      18.422  -2.292  39.018  1.00  0.00     0.000 C 
ENDROOT
BRANCH   1   2
ATOM      2  C   UNL     1      19.923  -2.199  39.349  1.00  0.00     0.000 C 
BRANCH   2   3
ATOM      3  C   UNL     1      20.333  -3.085  40.535  1.00  0.00     0.000 C 
BRANCH   3   4
ATOM      4  C   UNL     1      19.104  -3.707  41.208  1.00  0.00     0.000 C 
BRANCH   4   5
ATOM      5  C   UNL     1      19.308  -3.813  42.727  1.00  0.00     0.000 C 
BRANCH   5   6
ATOM      6  C   UNL     1      18.777  -2.584  43.480  1.00  0.00     0.000 C 
BRANCH   6   7
ATOM      7  C   UNL     1      19.903  -1.664  43.984  1.00  0.00     0.000 C 
BRANCH   7   8
ATOM      8  C   UNL     1      19.612  -0.177  43.686  1.00  0.00     0.000 C 
BRANCH   8   9
ATOM      9  C   UNL     1      19.843   0.212  42.215  1.00  0.00     0.000 C 
BRANCH   9  10
ATOM     10  C   UNL     1      18.543   0.574  41.478  1.00  0.00     0.000 C 
BRANCH  10  11
ATOM     11  C   UNL     1      18.116   2.036  41.725  1.00  0.00     0.000 C 
BRANCH  11  12
ATOM     12  C   UNL     1      16.712   2.175  42.339  1.00  0.00     0.000 C 
BRANCH  12  13
ATOM     13  C   UNL     1      16.716   2.073  43.874  1.00  0.00     0.006 C 
BRANCH  13  14
ATOM     14  C   UNL     1      16.776   3.451  44.547  1.00  0.00     0.053 C 
BRANCH  14  15
ATOM     15  C   UNL     1      17.913   3.546  45.519  1.00  0.00     0.041 C 
ATOM     16  O   UNL     1      17.750   4.121  46.627  1.00  0.00    -0.550 OA
ATOM     17  O   UNL     1      19.136   2.960  45.221  1.00  0.00    -0.550 OA
ENDBRANCH  14  15
ENDBRANCH  13  14
ENDBRANCH  12  13
ENDBRANCH  11  12
ENDBRANCH  10  11
ENDBRANCH   9  10
ENDBRANCH   8   9
ENDBRANCH   7   8
ENDBRANCH   6   7
ENDBRANCH   5   6
ENDBRANCH   4   5
ENDBRANCH   3   4
ENDBRANCH   2   3
ENDBRANCH   1   2
BRANCH   1  18
ATOM     18  C   UNL     1      17.966  -1.469  37.798  1.00  0.00     0.000 C 
BRANCH  18  19
ATOM     19  C   UNL     1      18.382   0.012  37.882  1.00  0.00     0.000 C 
BRANCH  19  20
ATOM     20  C   UNL     1      18.819   0.578  36.522  1.00  0.00     0.000 C 
BRANCH  20  21
ATOM     21  C   UNL     1      18.952   2.108  36.532  1.00  0.00     0.000 C 
BRANCH  21  22
ATOM     22  C   UNL     1      18.648   2.674  37.927  1.00  0.00     0.000 C 
BRANCH  22  23
ATOM     23  C   UNL     1      17.645   3.842  37.900  1.00  0.00     0.000 C 
BRANCH  23  24
ATOM     24  C   UNL     1      16.514   3.759  38.943  1.00  0.00    -0.000 C 
BRANCH  24  25
ATOM     25  C   UNL     1      15.232   3.050  38.471  1.00  0.00    -0.000 C 
BRANCH  25  26
ATOM     26  C   UNL     1      15.125   1.578  38.924  1.00  0.00    -0.000 C 
BRANCH  26  27
ATOM     27  C   UNL     1      14.533   0.666  37.836  1.00  0.00    -0.000 C 
BRANCH  27  28
ATOM     28  C   UNL     1      15.166   0.905  36.455  1.00  0.00    -0.000 C 
BRANCH  28  29
ATOM     29  C   UNL     1      15.185  -0.364  35.584  1.00  0.00    -0.000 C 
BRANCH  29  30
ATOM     30  C   UNL     1      15.092  -0.050  34.083  1.00  0.00    -0.000 C 
BRANCH  30  31
ATOM     31  C   UNL     1      16.426  -0.261  33.352  1.00  0.00    -0.003 C 
ATOM     32  C   UNL     1      17.161   1.062  33.159  1.00  0.00     0.004 C 
ENDBRANCH  30  31
ENDBRANCH  29  30
ENDBRANCH  28  29
ENDBRANCH  27  28
ENDBRANCH  26  27
ENDBRANCH  25  26
ENDBRANCH  24  25
ENDBRANCH  23  24
ENDBRANCH  22  23
ENDBRANCH  21  22
ENDBRANCH  20  21
ENDBRANCH  19  20
ENDBRANCH  18  19
ENDBRANCH   1  18
TORSDOF 28
ENDMDL
MODEL 9
REMARK VINA RESULT:    -3.441      3.869      5.952
REMARK INTER + INTRA:         -14.651
REMARK INTER:                  -8.660
REMARK INTRA:                  -5.992
REMARK UNBOUND:                -5.577
REMARK SMILES CCCCCCCCCCCCCCCCCCCCCCCCCCCCCC(=O)[O-]
REMARK SMILES IDX 16 1 17 2 18 3 19 4 20 5 21 6 22 7 23 8 24 9 25 10 26 11
REMARK SMILES IDX 27 12 28 13 29 14 30 15 31 16 32 17 15 18 14 19 13 20 12 21
REMARK SMILES IDX 11 22 10 23 9 24 8 25 7 26 6 27 5 28 4 29 3 30 2 31 1 32
REMARK H PARENT
REMARK Flexibility Score: inf
ROOT
ATOM      1  C   UNL     1      18.858  -3.627  40.004  1.00  0.00     0.000 C 
ENDROOT
BRANCH   1   2
ATOM      2  C   UNL     1      18.276  -4.109  41.345  1.00  0.00     0.000 C 
BRANCH   2   3
ATOM      3  C   UNL     1      18.872  -5.445  41.814  1.00  0.00     0.000 C 
BRANCH   3   4
ATOM      4  C   UNL     1      19.619  -5.279  43.141  1.00  0.00     0.000 C 
BRANCH   4   5
ATOM      5  C   UNL     1      21.069  -4.832  42.900  1.00  0.00     0.000 C 
BRANCH   5   6
ATOM      6  C   UNL     1      21.328  -3.394  43.374  1.00  0.00     0.000 C 
BRANCH   6   7
ATOM      7  C   UNL     1      20.287  -2.908  44.397  1.00  0.00     0.000 C 
BRANCH   7   8
ATOM      8  C   UNL     1      19.731  -1.512  44.039  1.00  0.00     0.000 C 
BRANCH   8   9
ATOM      9  C   UNL     1      19.997  -1.101  42.581  1.00  0.00     0.000 C 
BRANCH   9  10
ATOM     10  C   UNL     1      19.037  -0.008  42.081  1.00  0.00     0.000 C 
BRANCH  10  11
ATOM     11  C   UNL     1      19.764   1.322  41.788  1.00  0.00     0.000 C 
BRANCH  11  12
ATOM     12  C   UNL     1      20.242   2.057  43.052  1.00  0.00     0.000 C 
BRANCH  12  13
ATOM     13  C   UNL     1      19.083   2.511  43.956  1.00  0.00     0.006 C 
BRANCH  13  14
ATOM     14  C   UNL     1      19.195   1.937  45.375  1.00  0.00     0.053 C 
BRANCH  14  15
ATOM     15  C   UNL     1      18.643   2.879  46.401  1.00  0.00     0.041 C 
ATOM     16  O   UNL     1      18.730   4.123  46.227  1.00  0.00    -0.550 OA
ATOM     17  O   UNL     1      17.991   2.385  47.524  1.00  0.00    -0.550 OA
ENDBRANCH  14  15
ENDBRANCH  13  14
ENDBRANCH  12  13
ENDBRANCH  11  12
ENDBRANCH  10  11
ENDBRANCH   9  10
ENDBRANCH   8   9
ENDBRANCH   7   8
ENDBRANCH   6   7
ENDBRANCH   5   6
ENDBRANCH   4   5
ENDBRANCH   3   4
ENDBRANCH   2   3
ENDBRANCH   1   2
BRANCH   1  18
ATOM     18  C   UNL     1      19.740  -4.651  39.264  1.00  0.00     0.000 C 
BRANCH  18  19
ATOM     19  C   UNL     1      21.041  -4.038  38.714  1.00  0.00     0.000 C 
BRANCH  19  20
ATOM     20  C   UNL     1      21.643  -2.989  39.661  1.00  0.00     0.000 C 
BRANCH  20  21
ATOM     21  C   UNL     1      22.230  -1.782  38.913  1.00  0.00     0.000 C 
BRANCH  21  22
ATOM     22  C   UNL     1      21.524  -0.483  39.332  1.00  0.00     0.000 C 
BRANCH  22  23
ATOM     23  C   UNL     1      20.756   0.186  38.177  1.00  0.00     0.000 C 
BRANCH  23  24
ATOM     24  C   UNL     1      20.110  -0.785  37.170  1.00  0.00    -0.000 C 
BRANCH  24  25
ATOM     25  C   UNL     1      18.608  -1.047  37.379  1.00  0.00    -0.000 C 
BRANCH  25  26
ATOM     26  C   UNL     1      17.995  -0.276  38.568  1.00  0.00    -0.000 C 
BRANCH  26  27
ATOM     27  C   UNL     1      16.687   0.443  38.195  1.00  0.00    -0.000 C 
BRANCH  27  28
ATOM     28  C   UNL     1      16.895   1.940  37.916  1.00  0.00    -0.000 C 
BRANCH  28  29
ATOM     29  C   UNL     1      18.039   2.546  38.749  1.00  0.00    -0.000 C 
BRANCH  29  30
ATOM     30  C   UNL     1      17.547   3.617  39.735  1.00  0.00    -0.000 C 
BRANCH  30  31
ATOM     31  C   UNL     1      16.687   3.029  40.864  1.00  0.00    -0.003 C 
ATOM     32  C   UNL     1      16.241   4.117  41.836  1.00  0.00     0.004 C 
ENDBRANCH  30  31
ENDBRANCH  29  30
ENDBRANCH  28  29
ENDBRANCH  27  28
ENDBRANCH  26  27
ENDBRANCH  25  26
ENDBRANCH  24  25
ENDBRANCH  23  24
ENDBRANCH  22  23
ENDBRANCH  21  22
ENDBRANCH  20  21
ENDBRANCH  19  20
ENDBRANCH  18  19
ENDBRANCH   1  18
TORSDOF 28
ENDMDL
