MODEL 1
REMARK VINA RESULT:    -3.502      0.000      0.000
REMARK INTER + INTRA:          -4.079
REMARK INTER:                  -4.014
REMARK INTRA:                  -0.065
REMARK UNBOUND:                -0.065
REMARK SMILES COc1cc(C=O)ccc1O
REMARK SMILES IDX 3 1 10 2 9 3 8 4 5 5 4 6 2 7 1 8 11 9 6 11 7 12
REMARK H PARENT 11 10
REMARK Flexibility Score: inf
ROOT
ATOM      1  C   UNL     1     117.111 115.688 121.952  1.00  0.00     0.161 A 
ATOM      2  C   UNL     1     115.735 115.497 121.766  1.00  0.00     0.157 A 
ATOM      3  C   UNL     1     115.267 114.803 120.641  1.00  0.00     0.051 A 
ATOM      4  C   UNL     1     116.167 114.298 119.701  1.00  0.00     0.015 A 
ATOM      5  C   UNL     1     117.546 114.480 119.873  1.00  0.00     0.018 A 
ATOM      6  C   UNL     1     118.015 115.175 121.000  1.00  0.00     0.062 A 
ENDROOT
BRANCH   1   7
ATOM      7  O   UNL     1     117.539 116.387 123.092  1.00  0.00    -0.493 OA
ATOM      8  C   UNL     1     117.821 117.783 123.123  1.00  0.00     0.278 C 
ENDBRANCH   1   7
BRANCH   2   9
ATOM      9  O   UNL     1     114.835 116.000 122.703  1.00  0.00    -0.504 OA
ATOM     10  H   UNL     1     114.512 115.440 123.483  1.00  0.00     0.293 HD
ENDBRANCH   2   9
BRANCH   5  11
ATOM     11  C   UNL     1     118.480 113.939 118.867  1.00  0.00     0.260 C 
ATOM     12  O   UNL     1     118.652 112.697 118.739  1.00  0.00    -0.298 OA
ENDBRANCH   5  11
TORSDOF 3
ENDMDL
MODEL 2
REMARK VINA RESULT:    -3.470      2.691      3.281
REMARK INTER + INTRA:          -4.042
REMARK INTER:                  -3.993
REMARK INTRA:                  -0.049
REMARK UNBOUND:                -0.065
REMARK SMILES COc1cc(C=O)ccc1O
REMARK SMILES IDX 3 1 10 2 9 3 8 4 5 5 4 6 2 7 1 8 11 9 6 11 7 12
REMARK H PARENT 11 10
REMARK Flexibility Score: inf
ROOT
ATOM      1  C   UNL     1     117.564 117.113 121.889  1.00  0.00     0.161 A 
ATOM      2  C   UNL     1     117.684 115.731 121.680  1.00  0.00     0.157 A 
ATOM      3  C   UNL     1     118.354 115.248 120.547  1.00  0.00     0.051 A 
ATOM      4  C   UNL     1     118.905 116.136 119.622  1.00  0.00     0.015 A 
ATOM      5  C   UNL     1     118.794 117.520 119.817  1.00  0.00     0.018 A 
ATOM      6  C   UNL     1     118.123 118.005 120.953  1.00  0.00     0.062 A 
ENDROOT
BRANCH   1   7
ATOM      7  O   UNL     1     116.886 117.557 123.036  1.00  0.00    -0.493 OA
ATOM      8  C   UNL     1     115.488 117.824 123.094  1.00  0.00     0.278 C 
ENDBRANCH   1   7
BRANCH   2   9
ATOM      9  O   UNL     1     117.134 114.844 122.602  1.00  0.00    -0.504 OA
ATOM     10  H   UNL     1     116.770 113.942 122.319  1.00  0.00     0.293 HD
ENDBRANCH   2   9
BRANCH   5  11
ATOM     11  C   UNL     1     119.384 118.442 118.828  1.00  0.00     0.260 C 
ATOM     12  O   UNL     1     120.632 118.530 118.682  1.00  0.00    -0.298 OA
ENDBRANCH   5  11
TORSDOF 3
ENDMDL
MODEL 3
REMARK VINA RESULT:    -3.469      2.638      3.310
REMARK INTER + INTRA:          -4.040
REMARK INTER:                  -4.001
REMARK INTRA:                  -0.040
REMARK UNBOUND:                -0.065
REMARK SMILES COc1cc(C=O)ccc1O
REMARK SMILES IDX 3 1 10 2 9 3 8 4 5 5 4 6 2 7 1 8 11 9 6 11 7 12
REMARK H PARENT 11 10
REMARK Flexibility Score: inf
ROOT
ATOM      1  C   UNL     1     115.648 115.983 121.931  1.00  0.00     0.161 A 
ATOM      2  C   UNL     1     115.436 117.364 121.819  1.00  0.00     0.157 A 
ATOM      3  C   UNL     1     114.744 117.882 120.715  1.00  0.00     0.051 A 
ATOM      4  C   UNL     1     114.261 117.027 119.722  1.00  0.00     0.015 A 
ATOM      5  C   UNL     1     114.465 115.644 119.820  1.00  0.00     0.018 A 
ATOM      6  C   UNL     1     115.159 115.125 120.926  1.00  0.00     0.062 A 
ENDROOT
BRANCH   1   7
ATOM      7  O   UNL     1     116.346 115.504 123.051  1.00  0.00    -0.493 OA
ATOM      8  C   UNL     1     117.762 115.374 123.125  1.00  0.00     0.278 C 
ENDBRANCH   1   7
BRANCH   2   9
ATOM      9  O   UNL     1     115.917 118.219 122.809  1.00  0.00    -0.504 OA
ATOM     10  H   UNL     1     116.731 118.803 122.657  1.00  0.00     0.293 HD
ENDBRANCH   2   9
BRANCH   5  11
ATOM     11  C   UNL     1     113.948 114.758 118.759  1.00  0.00     0.260 C 
ATOM     12  O   UNL     1     112.731 114.778 118.430  1.00  0.00    -0.298 OA
ENDBRANCH   5  11
TORSDOF 3
ENDMDL
MODEL 4
REMARK VINA RESULT:    -3.463      2.177      4.017
REMARK INTER + INTRA:          -4.034
REMARK INTER:                  -3.955
REMARK INTRA:                  -0.079
REMARK UNBOUND:                -0.065
REMARK SMILES COc1cc(C=O)ccc1O
REMARK SMILES IDX 3 1 10 2 9 3 8 4 5 5 4 6 2 7 1 8 11 9 6 11 7 12
REMARK H PARENT 11 10
REMARK Flexibility Score: inf
ROOT
ATOM      1  C   UNL     1     115.906 115.369 120.855  1.00  0.00     0.161 A 
ATOM      2  C   UNL     1     115.321 115.343 122.129  1.00  0.00     0.157 A 
ATOM      3  C   UNL     1     115.725 116.262 123.107  1.00  0.00     0.051 A 
ATOM      4  C   UNL     1     116.710 117.208 122.820  1.00  0.00     0.015 A 
ATOM      5  C   UNL     1     117.305 117.248 121.552  1.00  0.00     0.018 A 
ATOM      6  C   UNL     1     116.901 116.327 120.571  1.00  0.00     0.062 A 
ENDROOT
BRANCH   1   7
ATOM      7  O   UNL     1     115.474 114.432 119.903  1.00  0.00    -0.493 OA
ATOM      8  C   UNL     1     114.611 114.731 118.811  1.00  0.00     0.278 C 
ENDBRANCH   1   7
BRANCH   2   9
ATOM      9  O   UNL     1     114.337 114.399 122.416  1.00  0.00    -0.504 OA
ATOM     10  H   UNL     1     113.524 114.283 121.824  1.00  0.00     0.293 HD
ENDBRANCH   2   9
BRANCH   5  11
ATOM     11  C   UNL     1     118.345 118.256 121.270  1.00  0.00     0.260 C 
ATOM     12  O   UNL     1     118.906 118.892 122.201  1.00  0.00    -0.298 OA
ENDBRANCH   5  11
TORSDOF 3
ENDMDL
MODEL 5
REMARK VINA RESULT:    -3.438      1.919      4.281
REMARK INTER + INTRA:          -4.005
REMARK INTER:                  -3.929
REMARK INTRA:                  -0.076
REMARK UNBOUND:                -0.065
REMARK SMILES COc1cc(C=O)ccc1O
REMARK SMILES IDX 3 1 10 2 9 3 8 4 5 5 4 6 2 7 1 8 11 9 6 11 7 12
REMARK H PARENT 11 10
REMARK Flexibility Score: inf
ROOT
ATOM      1  C   UNL     1     117.636 115.174 120.909  1.00  0.00     0.161 A 
ATOM      2  C   UNL     1     117.850 115.189 122.295  1.00  0.00     0.157 A 
ATOM      3  C   UNL     1     117.070 116.013 123.117  1.00  0.00     0.051 A 
ATOM      4  C   UNL     1     116.077 116.823 122.565  1.00  0.00     0.015 A 
ATOM      5  C   UNL     1     115.850 116.820 121.182  1.00  0.00     0.018 A 
ATOM      6  C   UNL     1     116.632 115.994 120.356  1.00  0.00     0.062 A 
ENDROOT
BRANCH   1   7
ATOM      7  O   UNL     1     118.438 114.335 120.119  1.00  0.00    -0.493 OA
ATOM      8  C   UNL     1     118.010 113.093 119.570  1.00  0.00     0.278 C 
ENDBRANCH   1   7
BRANCH   2   9
ATOM      9  O   UNL     1     118.841 114.381 122.848  1.00  0.00    -0.504 OA
ATOM     10  H   UNL     1     118.841 113.376 122.718  1.00  0.00     0.293 HD
ENDBRANCH   2   9
BRANCH   5  11
ATOM     11  C   UNL     1     114.796 117.684 120.618  1.00  0.00     0.260 C 
ATOM     12  O   UNL     1     114.723 118.906 120.919  1.00  0.00    -0.298 OA
ENDBRANCH   5  11
TORSDOF 3
ENDMDL
MODEL 6
REMARK VINA RESULT:    -3.421      2.668      3.949
REMARK INTER + INTRA:          -3.986
REMARK INTER:                  -3.929
REMARK INTRA:                  -0.057
REMARK UNBOUND:                -0.065
REMARK SMILES COc1cc(C=O)ccc1O
REMARK SMILES IDX 3 1 10 2 9 3 8 4 5 5 4 6 2 7 1 8 11 9 6 11 7 12
REMARK H PARENT 11 10
REMARK Flexibility Score: inf
ROOT
ATOM      1  C   UNL     1     118.288 115.357 120.622  1.00  0.00     0.161 A 
ATOM      2  C   UNL     1     117.644 115.923 121.731  1.00  0.00     0.157 A 
ATOM      3  C   UNL     1     117.621 117.315 121.895  1.00  0.00     0.051 A 
ATOM      4  C   UNL     1     118.237 118.145 120.958  1.00  0.00     0.015 A 
ATOM      5  C   UNL     1     118.885 117.595 119.844  1.00  0.00     0.018 A 
ATOM      6  C   UNL     1     118.909 116.200 119.678  1.00  0.00     0.062 A 
ENDROOT
BRANCH   1   7
ATOM      7  O   UNL     1     118.289 113.959 120.493  1.00  0.00    -0.493 OA
ATOM      8  C   UNL     1     118.153 113.262 119.258  1.00  0.00     0.278 C 
ENDBRANCH   1   7
BRANCH   2   9
ATOM      9  O   UNL     1     117.029 115.096 122.668  1.00  0.00    -0.504 OA
ATOM     10  H   UNL     1     116.157 115.355 123.114  1.00  0.00     0.293 HD
ENDBRANCH   2   9
BRANCH   5  11
ATOM     11  C   UNL     1     119.531 118.491 118.864  1.00  0.00     0.260 C 
ATOM     12  O   UNL     1     120.786 118.574 118.785  1.00  0.00    -0.298 OA
ENDBRANCH   5  11
TORSDOF 3
ENDMDL
MODEL 7
REMARK VINA RESULT:    -3.421      2.444      3.689
REMARK INTER + INTRA:          -3.986
REMARK INTER:                  -3.911
REMARK INTRA:                  -0.075
REMARK UNBOUND:                -0.065
REMARK SMILES COc1cc(C=O)ccc1O
REMARK SMILES IDX 3 1 10 2 9 3 8 4 5 5 4 6 2 7 1 8 11 9 6 11 7 12
REMARK H PARENT 11 10
REMARK Flexibility Score: inf
ROOT
ATOM      1  C   UNL     1     117.961 117.646 120.851  1.00  0.00     0.161 A 
ATOM      2  C   UNL     1     117.975 117.858 122.237  1.00  0.00     0.157 A 
ATOM      3  C   UNL     1     117.163 117.081 123.075  1.00  0.00     0.051 A 
ATOM      4  C   UNL     1     116.338 116.092 122.537  1.00  0.00     0.015 A 
ATOM      5  C   UNL     1     116.312 115.867 121.154  1.00  0.00     0.018 A 
ATOM      6  C   UNL     1     117.126 116.646 120.313  1.00  0.00     0.062 A 
ENDROOT
BRANCH   1   7
ATOM      7  O   UNL     1     118.788 118.445 120.045  1.00  0.00    -0.493 OA
ATOM      8  C   UNL     1     120.054 118.038 119.535  1.00  0.00     0.278 C 
ENDBRANCH   1   7
BRANCH   2   9
ATOM      9  O   UNL     1     118.798 118.844 122.775  1.00  0.00    -0.504 OA
ATOM     10  H   UNL     1     118.429 119.580 123.366  1.00  0.00     0.293 HD
ENDBRANCH   2   9
BRANCH   5  11
ATOM     11  C   UNL     1     115.432 114.818 120.606  1.00  0.00     0.260 C 
ATOM     12  O   UNL     1     114.210 114.768 120.908  1.00  0.00    -0.298 OA
ENDBRANCH   5  11
TORSDOF 3
ENDMDL
MODEL 8
REMARK VINA RESULT:    -3.407      3.039      3.944
REMARK INTER + INTRA:          -3.970
REMARK INTER:                  -3.911
REMARK INTRA:                  -0.058
REMARK UNBOUND:                -0.065
REMARK SMILES COc1cc(C=O)ccc1O
REMARK SMILES IDX 3 1 10 2 9 3 8 4 5 5 4 6 2 7 1 8 11 9 6 11 7 12
REMARK H PARENT 11 10
REMARK Flexibility Score: inf
ROOT
ATOM      1  C   UNL     1     114.878 117.862 120.680  1.00  0.00     0.161 A 
ATOM      2  C   UNL     1     115.491 117.293 121.806  1.00  0.00     0.157 A 
ATOM      3  C   UNL     1     115.525 115.900 121.959  1.00  0.00     0.051 A 
ATOM      4  C   UNL     1     114.952 115.071 120.993  1.00  0.00     0.015 A 
ATOM      5  C   UNL     1     114.336 115.624 119.862  1.00  0.00     0.018 A 
ATOM      6  C   UNL     1     114.301 117.020 119.708  1.00  0.00     0.062 A 
ENDROOT
BRANCH   1   7
ATOM      7  O   UNL     1     114.864 119.261 120.564  1.00  0.00    -0.493 OA
ATOM      8  C   UNL     1     115.087 119.972 119.351  1.00  0.00     0.278 C 
ENDBRANCH   1   7
BRANCH   2   9
ATOM      9  O   UNL     1     116.063 118.119 122.771  1.00  0.00    -0.504 OA
ATOM     10  H   UNL     1     115.563 118.376 123.614  1.00  0.00     0.293 HD
ENDBRANCH   2   9
BRANCH   5  11
ATOM     11  C   UNL     1     113.736 114.730 118.853  1.00  0.00     0.260 C 
ATOM     12  O   UNL     1     112.486 114.643 118.720  1.00  0.00    -0.298 OA
ENDBRANCH   5  11
TORSDOF 3
ENDMDL
MODEL 9
REMARK VINA RESULT:    -3.403      3.614      4.830
REMARK INTER + INTRA:          -3.965
REMARK INTER:                  -3.908
REMARK INTRA:                  -0.057
REMARK UNBOUND:                -0.065
REMARK SMILES COc1cc(C=O)ccc1O
REMARK SMILES IDX 3 1 10 2 9 3 8 4 5 5 4 6 2 7 1 8 11 9 6 11 7 12
REMARK H PARENT 11 10
REMARK Flexibility Score: inf
ROOT
ATOM      1  C   UNL     1     117.815 118.240 120.636  1.00  0.00     0.161 A 
ATOM      2  C   UNL     1     117.232 117.592 121.734  1.00  0.00     0.157 A 
ATOM      3  C   UNL     1     115.841 117.608 121.902  1.00  0.00     0.051 A 
ATOM      4  C   UNL     1     115.027 118.267 120.978  1.00  0.00     0.015 A 
ATOM      5  C   UNL     1     115.595 118.919 119.875  1.00  0.00     0.018 A 
ATOM      6  C   UNL     1     116.990 118.903 119.706  1.00  0.00     0.062 A 
ENDROOT
BRANCH   1   7
ATOM      7  O   UNL     1     119.212 118.201 120.504  1.00  0.00    -0.493 OA
ATOM      8  C   UNL     1     119.902 118.079 119.264  1.00  0.00     0.278 C 
ENDBRANCH   1   7
BRANCH   2   9
ATOM      9  O   UNL     1     118.043 116.934 122.657  1.00  0.00    -0.504 OA
ATOM     10  H   UNL     1     119.052 117.020 122.633  1.00  0.00     0.293 HD
ENDBRANCH   2   9
BRANCH   5  11
ATOM     11  C   UNL     1     114.717 119.610 118.911  1.00  0.00     0.260 C 
ATOM     12  O   UNL     1     114.610 120.865 118.910  1.00  0.00    -0.298 OA
ENDBRANCH   5  11
TORSDOF 3
ENDMDL
