MODEL 1
REMARK VINA RESULT:    -5.076      0.000      0.000
REMARK INTER + INTRA:          -7.210
REMARK INTER:                  -6.856
REMARK INTRA:                  -0.353
REMARK UNBOUND:                -0.353
REMARK SMILES CC[C@@H](CC[C@H](C)[C@H]1CC[C@@H]2[C@@H]3CC(=O)C4=CC(=O)CC[C@@]4(C)[C@H]3CC[C@]21C)C(C)C
REMARK SMILES IDX 4 1 3 2 2 3 1 4 29 5 30 6 31 7 5 8 6 9 7 10 8 11 9 12 27 13
REMARK SMILES IDX 10 14 11 15 26 16 28 17 12 18 25 19 24 20 13 21 22 22 14 23
REMARK SMILES IDX 16 24 21 25 23 26 15 27 17 28 20 29 18 30 19 31
REMARK H PARENT
REMARK Flexibility Score: inf
ROOT
ATOM      1  C   UNL     1      25.193  12.241  73.130  1.00  0.00     0.004 C 
ENDROOT
BRANCH   1   2
ATOM      2  C   UNL     1      24.747  10.751  73.122  1.00  0.00    -0.009 C 
BRANCH   2   3
ATOM      3  C   UNL     1      25.404   9.991  71.932  1.00  0.00     0.000 C 
ATOM      4  C   UNL     1      26.934  10.046  71.942  1.00  0.00     0.004 C 
ENDBRANCH   2   3
BRANCH   2   5
ATOM      5  C   UNL     1      23.188  10.581  73.160  1.00  0.00    -0.014 C 
ATOM      6  C   UNL     1      22.677   9.875  74.426  1.00  0.00     0.007 C 
ATOM      7  C   UNL     1      22.637   9.889  71.903  1.00  0.00     0.007 C 
ENDBRANCH   2   5
ENDBRANCH   1   2
BRANCH   1   8
ATOM      8  C   UNL     1      25.106  12.893  74.527  1.00  0.00     0.004 C 
BRANCH   8   9
ATOM      9  C   UNL     1      26.381  12.659  75.387  1.00  0.00    -0.011 C 
ATOM     10  C   UNL     1      26.245  11.291  76.098  1.00  0.00     0.008 C 
BRANCH   9  11
ATOM     11  C   UNL     1      26.577  13.832  76.408  1.00  0.00    -0.002 C 
ATOM     12  C   UNL     1      25.245  14.354  77.023  1.00  0.00     0.005 C 
ATOM     13  C   UNL     1      27.547  13.590  77.647  1.00  0.00    -0.026 C 
ATOM     14  C   UNL     1      25.529  14.695  78.479  1.00  0.00     0.005 C 
ATOM     15  C   UNL     1      26.569  13.658  78.833  1.00  0.00    -0.001 C 
ATOM     16  C   UNL     1      28.335  12.225  77.773  1.00  0.00     0.007 C 
ATOM     17  C   UNL     1      28.574  14.768  77.628  1.00  0.00     0.012 C 
ATOM     18  C   UNL     1      27.194  13.650  80.251  1.00  0.00     0.004 C 
ATOM     19  C   UNL     1      28.457  11.668  79.228  1.00  0.00     0.005 C 
ATOM     20  C   UNL     1      28.491  12.791  80.296  1.00  0.00     0.003 C 
ATOM     21  C   UNL     1      27.485  15.021  80.883  1.00  0.00     0.085 C 
ATOM     22  C   UNL     1      28.832  12.354  81.772  1.00  0.00    -0.000 C 
ATOM     23  C   UNL     1      28.090  14.832  82.253  1.00  0.00     0.159 C 
ATOM     24  C   UNL     1      28.411  13.464  82.756  1.00  0.00     0.005 C 
ATOM     25  C   UNL     1      28.110  11.031  82.165  1.00  0.00     0.020 C 
ATOM     26  C   UNL     1      30.366  12.165  81.893  1.00  0.00     0.017 C 
ATOM     27  O   UNL     1      28.292  15.842  82.980  1.00  0.00    -0.295 OA
ATOM     28  C   UNL     1      28.225  13.187  84.056  1.00  0.00     0.055 C 
ATOM     29  C   UNL     1      28.360  10.630  83.630  1.00  0.00     0.081 C 
ATOM     30  C   UNL     1      28.245  11.806  84.564  1.00  0.00     0.156 C 
ATOM     31  O   UNL     1      28.183  11.600  85.805  1.00  0.00    -0.295 OA
ENDBRANCH   9  11
ENDBRANCH   8   9
ENDBRANCH   1   8
TORSDOF 6
ENDMDL
MODEL 2
REMARK VINA RESULT:    -5.036      0.916      1.543
REMARK INTER + INTRA:          -7.156
REMARK INTER:                  -7.229
REMARK INTRA:                   0.072
REMARK UNBOUND:                -0.353
REMARK SMILES CC[C@@H](CC[C@H](C)[C@H]1CC[C@@H]2[C@@H]3CC(=O)C4=CC(=O)CC[C@@]4(C)[C@H]3CC[C@]21C)C(C)C
REMARK SMILES IDX 4 1 3 2 2 3 1 4 29 5 30 6 31 7 5 8 6 9 7 10 8 11 9 12 27 13
REMARK SMILES IDX 10 14 11 15 26 16 28 17 12 18 25 19 24 20 13 21 22 22 14 23
REMARK SMILES IDX 16 24 21 25 23 26 15 27 17 28 20 29 18 30 19 31
REMARK H PARENT
REMARK Flexibility Score: inf
ROOT
ATOM      1  C   UNL     1      23.505  12.668  74.082  1.00  0.00     0.004 C 
ENDROOT
BRANCH   1   2
ATOM      2  C   UNL     1      24.573  12.326  73.004  1.00  0.00    -0.009 C 
BRANCH   2   3
ATOM      3  C   UNL     1      24.571  13.398  71.875  1.00  0.00     0.000 C 
ATOM      4  C   UNL     1      23.509  14.484  72.066  1.00  0.00     0.004 C 
ENDBRANCH   2   3
BRANCH   2   5
ATOM      5  C   UNL     1      24.434  10.865  72.451  1.00  0.00    -0.014 C 
ATOM      6  C   UNL     1      23.258  10.085  73.061  1.00  0.00     0.007 C 
ATOM      7  C   UNL     1      25.736  10.056  72.583  1.00  0.00     0.007 C 
ENDBRANCH   2   5
ENDBRANCH   1   2
BRANCH   1   8
ATOM      8  C   UNL     1      24.116  13.193  75.399  1.00  0.00     0.004 C 
BRANCH   8   9
ATOM      9  C   UNL     1      25.660  13.018  75.465  1.00  0.00    -0.011 C 
ATOM     10  C   UNL     1      25.968  11.573  75.928  1.00  0.00     0.008 C 
BRANCH   9  11
ATOM     11  C   UNL     1      26.294  14.086  76.421  1.00  0.00    -0.002 C 
ATOM     12  C   UNL     1      25.241  14.943  77.184  1.00  0.00     0.005 C 
ATOM     13  C   UNL     1      27.314  13.582  77.534  1.00  0.00    -0.026 C 
ATOM     14  C   UNL     1      25.791  15.184  78.582  1.00  0.00     0.005 C 
ATOM     15  C   UNL     1      26.550  13.902  78.832  1.00  0.00    -0.001 C 
ATOM     16  C   UNL     1      27.715  12.053  77.598  1.00  0.00     0.007 C 
ATOM     17  C   UNL     1      28.608  14.438  77.355  1.00  0.00     0.012 C 
ATOM     18  C   UNL     1      27.326  13.714  80.159  1.00  0.00     0.004 C 
ATOM     19  C   UNL     1      27.868  11.473  79.041  1.00  0.00     0.005 C 
ATOM     20  C   UNL     1      28.339  12.537  80.065  1.00  0.00     0.003 C 
ATOM     21  C   UNL     1      28.053  14.951  80.713  1.00  0.00     0.085 C 
ATOM     22  C   UNL     1      28.736  12.013  81.499  1.00  0.00    -0.000 C 
ATOM     23  C   UNL     1      28.756  14.595  82.001  1.00  0.00     0.159 C 
ATOM     24  C   UNL     1      28.759  13.188  82.496  1.00  0.00     0.005 C 
ATOM     25  C   UNL     1      27.741  10.932  82.015  1.00  0.00     0.020 C 
ATOM     26  C   UNL     1      30.165  11.416  81.431  1.00  0.00     0.017 C 
ATOM     27  O   UNL     1      29.314  15.507  82.668  1.00  0.00    -0.295 OA
ATOM     28  C   UNL     1      28.672  12.961  83.817  1.00  0.00     0.055 C 
ATOM     29  C   UNL     1      28.060  10.467  83.448  1.00  0.00     0.081 C 
ATOM     30  C   UNL     1      28.386  11.622  84.355  1.00  0.00     0.156 C 
ATOM     31  O   UNL     1      28.430  11.432  85.600  1.00  0.00    -0.295 OA
ENDBRANCH   9  11
ENDBRANCH   8   9
ENDBRANCH   1   8
TORSDOF 6
ENDMDL
MODEL 3
REMARK VINA RESULT:    -4.065      2.542      4.974
REMARK INTER + INTRA:          -5.844
REMARK INTER:                  -4.801
REMARK INTRA:                  -1.043
REMARK UNBOUND:                -0.353
REMARK SMILES CC[C@@H](CC[C@H](C)[C@H]1CC[C@@H]2[C@@H]3CC(=O)C4=CC(=O)CC[C@@]4(C)[C@H]3CC[C@]21C)C(C)C
REMARK SMILES IDX 4 1 3 2 2 3 1 4 29 5 30 6 31 7 5 8 6 9 7 10 8 11 9 12 27 13
REMARK SMILES IDX 10 14 11 15 26 16 28 17 12 18 25 19 24 20 13 21 22 22 14 23
REMARK SMILES IDX 16 24 21 25 23 26 15 27 17 28 20 29 18 30 19 31
REMARK H PARENT
REMARK Flexibility Score: inf
ROOT
ATOM      1  C   UNL     1      27.901  10.611  78.212  1.00  0.00     0.004 C 
ENDROOT
BRANCH   1   2
ATOM      2  C   UNL     1      27.239  11.486  77.110  1.00  0.00    -0.009 C 
BRANCH   2   3
ATOM      3  C   UNL     1      26.413  12.639  77.751  1.00  0.00     0.000 C 
ATOM      4  C   UNL     1      26.598  13.987  77.049  1.00  0.00     0.004 C 
ENDBRANCH   2   3
BRANCH   2   5
ATOM      5  C   UNL     1      26.405  10.643  76.083  1.00  0.00    -0.014 C 
ATOM      6  C   UNL     1      26.008  11.426  74.822  1.00  0.00     0.007 C 
ATOM      7  C   UNL     1      25.165   9.994  76.720  1.00  0.00     0.007 C 
ENDBRANCH   2   5
ENDBRANCH   1   2
BRANCH   1   8
ATOM      8  C   UNL     1      29.411  10.383  77.982  1.00  0.00     0.004 C 
BRANCH   8   9
ATOM      9  C   UNL     1      30.255  10.541  79.279  1.00  0.00    -0.011 C 
ATOM     10  C   UNL     1      29.487   9.875  80.446  1.00  0.00     0.008 C 
BRANCH   9  11
ATOM     11  C   UNL     1      30.550  12.055  79.561  1.00  0.00    -0.002 C 
ATOM     12  C   UNL     1      30.476  12.952  78.290  1.00  0.00     0.005 C 
ATOM     13  C   UNL     1      29.664  12.798  80.654  1.00  0.00    -0.026 C 
ATOM     14  C   UNL     1      29.859  14.277  78.715  1.00  0.00     0.005 C 
ATOM     15  C   UNL     1      28.907  13.831  79.800  1.00  0.00    -0.001 C 
ATOM     16  C   UNL     1      28.579  11.987  81.470  1.00  0.00     0.007 C 
ATOM     17  C   UNL     1      30.671  13.448  81.657  1.00  0.00     0.012 C 
ATOM     18  C   UNL     1      28.067  14.883  80.565  1.00  0.00     0.004 C 
ATOM     19  C   UNL     1      27.250  12.761  81.746  1.00  0.00     0.005 C 
ATOM     20  C   UNL     1      27.465  14.291  81.872  1.00  0.00     0.003 C 
ATOM     21  C   UNL     1      28.765  16.212  80.898  1.00  0.00     0.085 C 
ATOM     22  C   UNL     1      26.232  15.141  82.366  1.00  0.00    -0.000 C 
ATOM     23  C   UNL     1      27.812  17.116  81.641  1.00  0.00     0.159 C 
ATOM     24  C   UNL     1      26.456  16.629  82.031  1.00  0.00     0.005 C 
ATOM     25  C   UNL     1      24.903  14.670  81.706  1.00  0.00     0.020 C 
ATOM     26  C   UNL     1      26.124  15.009  83.907  1.00  0.00     0.017 C 
ATOM     27  O   UNL     1      28.163  18.298  81.901  1.00  0.00    -0.295 OA
ATOM     28  C   UNL     1      25.418  17.479  81.980  1.00  0.00     0.055 C 
ATOM     29  C   UNL     1      23.698  15.540  82.109  1.00  0.00     0.081 C 
ATOM     30  C   UNL     1      24.027  17.008  82.071  1.00  0.00     0.156 C 
ATOM     31  O   UNL     1      23.091  17.849  82.137  1.00  0.00    -0.295 OA
ENDBRANCH   9  11
ENDBRANCH   8   9
ENDBRANCH   1   8
TORSDOF 6
ENDMDL
MODEL 4
REMARK VINA RESULT:    -3.776      1.670      2.594
REMARK INTER + INTRA:          -5.454
REMARK INTER:                  -5.044
REMARK INTRA:                  -0.410
REMARK UNBOUND:                -0.353
REMARK SMILES CC[C@@H](CC[C@H](C)[C@H]1CC[C@@H]2[C@@H]3CC(=O)C4=CC(=O)CC[C@@]4(C)[C@H]3CC[C@]21C)C(C)C
REMARK SMILES IDX 4 1 3 2 2 3 1 4 29 5 30 6 31 7 5 8 6 9 7 10 8 11 9 12 27 13
REMARK SMILES IDX 10 14 11 15 26 16 28 17 12 18 25 19 24 20 13 21 22 22 14 23
REMARK SMILES IDX 16 24 21 25 23 26 15 27 17 28 20 29 18 30 19 31
REMARK H PARENT
REMARK Flexibility Score: inf
ROOT
ATOM      1  C   UNL     1      23.661  10.907  74.397  1.00  0.00     0.004 C 
ENDROOT
BRANCH   1   2
ATOM      2  C   UNL     1      23.694  11.515  72.966  1.00  0.00    -0.009 C 
BRANCH   2   3
ATOM      3  C   UNL     1      24.591  10.656  72.028  1.00  0.00     0.000 C 
ATOM      4  C   UNL     1      26.083  10.976  72.148  1.00  0.00     0.004 C 
ENDBRANCH   2   3
BRANCH   2   5
ATOM      5  C   UNL     1      24.092  13.033  72.959  1.00  0.00    -0.014 C 
ATOM      6  C   UNL     1      23.998  13.700  74.341  1.00  0.00     0.007 C 
ATOM      7  C   UNL     1      23.304  13.847  71.919  1.00  0.00     0.007 C 
ENDBRANCH   2   5
ENDBRANCH   1   2
BRANCH   1   8
ATOM      8  C   UNL     1      24.794   9.888  74.650  1.00  0.00     0.004 C 
BRANCH   8   9
ATOM      9  C   UNL     1      25.282   9.875  76.127  1.00  0.00    -0.011 C 
ATOM     10  C   UNL     1      24.107  10.314  77.034  1.00  0.00     0.008 C 
BRANCH   9  11
ATOM     11  C   UNL     1      26.533  10.803  76.300  1.00  0.00    -0.002 C 
ATOM     12  C   UNL     1      26.262  12.291  75.927  1.00  0.00     0.005 C 
ATOM     13  C   UNL     1      27.239  10.848  77.726  1.00  0.00    -0.026 C 
ATOM     14  C   UNL     1      27.043  13.147  76.914  1.00  0.00     0.005 C 
ATOM     15  C   UNL     1      26.978  12.300  78.163  1.00  0.00    -0.001 C 
ATOM     16  C   UNL     1      26.717   9.913  78.890  1.00  0.00     0.007 C 
ATOM     17  C   UNL     1      28.750  10.544  77.470  1.00  0.00     0.012 C 
ATOM     18  C   UNL     1      27.693  12.777  79.452  1.00  0.00     0.004 C 
ATOM     19  C   UNL     1      26.720  10.566  80.309  1.00  0.00     0.005 C 
ATOM     20  C   UNL     1      27.846  11.618  80.480  1.00  0.00     0.003 C 
ATOM     21  C   UNL     1      29.058  13.461  79.270  1.00  0.00     0.085 C 
ATOM     22  C   UNL     1      28.078  12.178  81.936  1.00  0.00    -0.000 C 
ATOM     23  C   UNL     1      29.613  13.858  80.617  1.00  0.00     0.159 C 
ATOM     24  C   UNL     1      28.896  13.482  81.870  1.00  0.00     0.005 C 
ATOM     25  C   UNL     1      26.732  12.462  82.667  1.00  0.00     0.020 C 
ATOM     26  C   UNL     1      28.899  11.139  82.742  1.00  0.00     0.017 C 
ATOM     27  O   UNL     1      30.674  14.537  80.668  1.00  0.00    -0.295 OA
ATOM     28  C   UNL     1      28.885  14.346  82.898  1.00  0.00     0.055 C 
ATOM     29  C   UNL     1      26.934  13.089  84.059  1.00  0.00     0.081 C 
ATOM     30  C   UNL     1      27.976  14.175  84.043  1.00  0.00     0.156 C 
ATOM     31  O   UNL     1      28.080  14.941  85.038  1.00  0.00    -0.295 OA
ENDBRANCH   9  11
ENDBRANCH   8   9
ENDBRANCH   1   8
TORSDOF 6
ENDMDL
MODEL 5
REMARK VINA RESULT:    -3.638      1.424      2.055
REMARK INTER + INTRA:          -5.267
REMARK INTER:                  -4.702
REMARK INTRA:                  -0.565
REMARK UNBOUND:                -0.353
REMARK SMILES CC[C@@H](CC[C@H](C)[C@H]1CC[C@@H]2[C@@H]3CC(=O)C4=CC(=O)CC[C@@]4(C)[C@H]3CC[C@]21C)C(C)C
REMARK SMILES IDX 4 1 3 2 2 3 1 4 29 5 30 6 31 7 5 8 6 9 7 10 8 11 9 12 27 13
REMARK SMILES IDX 10 14 11 15 26 16 28 17 12 18 25 19 24 20 13 21 22 22 14 23
REMARK SMILES IDX 16 24 21 25 23 26 15 27 17 28 20 29 18 30 19 31
REMARK H PARENT
REMARK Flexibility Score: inf
ROOT
ATOM      1  C   UNL     1      25.394  12.349  73.740  1.00  0.00     0.004 C 
ENDROOT
BRANCH   1   2
ATOM      2  C   UNL     1      24.340  11.920  72.679  1.00  0.00    -0.009 C 
BRANCH   2   3
ATOM      3  C   UNL     1      23.365  13.095  72.374  1.00  0.00     0.000 C 
ATOM      4  C   UNL     1      24.069  14.361  71.879  1.00  0.00     0.004 C 
ENDBRANCH   2   3
BRANCH   2   5
ATOM      5  C   UNL     1      23.591  10.597  73.065  1.00  0.00    -0.014 C 
ATOM      6  C   UNL     1      22.904   9.909  71.875  1.00  0.00     0.007 C 
ATOM      7  C   UNL     1      22.590  10.798  74.216  1.00  0.00     0.007 C 
ENDBRANCH   2   5
ENDBRANCH   1   2
BRANCH   1   8
ATOM      8  C   UNL     1      26.294  11.184  74.207  1.00  0.00     0.004 C 
BRANCH   8   9
ATOM      9  C   UNL     1      26.723  11.306  75.697  1.00  0.00    -0.011 C 
ATOM     10  C   UNL     1      25.762  10.447  76.554  1.00  0.00     0.008 C 
BRANCH   9  11
ATOM     11  C   UNL     1      26.724  12.808  76.146  1.00  0.00    -0.002 C 
ATOM     12  C   UNL     1      25.298  13.411  76.310  1.00  0.00     0.005 C 
ATOM     13  C   UNL     1      27.498  13.186  77.485  1.00  0.00    -0.026 C 
ATOM     14  C   UNL     1      25.344  14.345  77.510  1.00  0.00     0.005 C 
ATOM     15  C   UNL     1      26.347  13.646  78.397  1.00  0.00    -0.001 C 
ATOM     16  C   UNL     1      28.297  12.071  78.272  1.00  0.00     0.007 C 
ATOM     17  C   UNL     1      28.480  14.341  77.104  1.00  0.00     0.012 C 
ATOM     18  C   UNL     1      26.746  14.278  79.754  1.00  0.00     0.004 C 
ATOM     19  C   UNL     1      28.210  12.176  79.829  1.00  0.00     0.005 C 
ATOM     20  C   UNL     1      28.045  13.636  80.321  1.00  0.00     0.003 C 
ATOM     21  C   UNL     1      26.894  15.808  79.783  1.00  0.00     0.085 C 
ATOM     22  C   UNL     1      28.167  13.878  81.875  1.00  0.00    -0.000 C 
ATOM     23  C   UNL     1      27.286  16.255  81.171  1.00  0.00     0.159 C 
ATOM     24  C   UNL     1      27.567  15.250  82.238  1.00  0.00     0.005 C 
ATOM     25  C   UNL     1      27.432  12.774  82.691  1.00  0.00     0.020 C 
ATOM     26  C   UNL     1      29.669  13.897  82.259  1.00  0.00     0.017 C 
ATOM     27  O   UNL     1      27.344  17.488  81.425  1.00  0.00    -0.295 OA
ATOM     28  C   UNL     1      27.190  15.516  83.499  1.00  0.00     0.055 C 
ATOM     29  C   UNL     1      27.465  13.035  84.208  1.00  0.00     0.081 C 
ATOM     30  C   UNL     1      27.172  14.474  84.538  1.00  0.00     0.156 C 
ATOM     31  O   UNL     1      26.925  14.792  85.732  1.00  0.00    -0.295 OA
ENDBRANCH   9  11
ENDBRANCH   8   9
ENDBRANCH   1   8
TORSDOF 6
ENDMDL
MODEL 6
REMARK VINA RESULT:    -2.842      3.190      8.180
REMARK INTER + INTRA:          -4.192
REMARK INTER:                  -5.017
REMARK INTRA:                   0.825
REMARK UNBOUND:                -0.353
REMARK SMILES CC[C@@H](CC[C@H](C)[C@H]1CC[C@@H]2[C@@H]3CC(=O)C4=CC(=O)CC[C@@]4(C)[C@H]3CC[C@]21C)C(C)C
REMARK SMILES IDX 4 1 3 2 2 3 1 4 29 5 30 6 31 7 5 8 6 9 7 10 8 11 9 12 27 13
REMARK SMILES IDX 10 14 11 15 26 16 28 17 12 18 25 19 24 20 13 21 22 22 14 23
REMARK SMILES IDX 16 24 21 25 23 26 15 27 17 28 20 29 18 30 19 31
REMARK H PARENT
REMARK Flexibility Score: inf
ROOT
ATOM      1  C   UNL     1      27.169  14.840  82.300  1.00  0.00     0.004 C 
ENDROOT
BRANCH   1   2
ATOM      2  C   UNL     1      25.933  15.769  82.476  1.00  0.00    -0.009 C 
BRANCH   2   3
ATOM      3  C   UNL     1      24.641  15.059  81.977  1.00  0.00     0.000 C 
ATOM      4  C   UNL     1      23.376  15.906  82.141  1.00  0.00     0.004 C 
ENDBRANCH   2   3
BRANCH   2   5
ATOM      5  C   UNL     1      26.137  17.182  81.824  1.00  0.00    -0.014 C 
ATOM      6  C   UNL     1      25.647  17.265  80.370  1.00  0.00     0.007 C 
ATOM      7  C   UNL     1      27.589  17.678  81.928  1.00  0.00     0.007 C 
ENDBRANCH   2   5
ENDBRANCH   1   2
BRANCH   1   8
ATOM      8  C   UNL     1      27.483  14.002  83.558  1.00  0.00     0.004 C 
BRANCH   8   9
ATOM      9  C   UNL     1      28.883  13.327  83.505  1.00  0.00    -0.011 C 
ATOM     10  C   UNL     1      29.936  14.410  83.168  1.00  0.00     0.008 C 
BRANCH   9  11
ATOM     11  C   UNL     1      28.890  12.159  82.460  1.00  0.00    -0.002 C 
ATOM     12  C   UNL     1      27.786  11.090  82.711  1.00  0.00     0.005 C 
ATOM     13  C   UNL     1      28.771  12.535  80.918  1.00  0.00    -0.026 C 
ATOM     14  C   UNL     1      27.279  10.644  81.347  1.00  0.00     0.005 C 
ATOM     15  C   UNL     1      27.410  11.918  80.546  1.00  0.00    -0.001 C 
ATOM     16  C   UNL     1      28.726  14.054  80.481  1.00  0.00     0.007 C 
ATOM     17  C   UNL     1      29.976  11.838  80.209  1.00  0.00     0.012 C 
ATOM     18  C   UNL     1      27.032  11.924  79.044  1.00  0.00     0.004 C 
ATOM     19  C   UNL     1      27.752  14.370  79.301  1.00  0.00     0.005 C 
ATOM     20  C   UNL     1      27.597  13.180  78.320  1.00  0.00     0.003 C 
ATOM     21  C   UNL     1      27.410  10.673  78.234  1.00  0.00     0.085 C 
ATOM     22  C   UNL     1      26.813  13.463  76.981  1.00  0.00    -0.000 C 
ATOM     23  C   UNL     1      26.974  10.844  76.799  1.00  0.00     0.159 C 
ATOM     24  C   UNL     1      26.377  12.132  76.339  1.00  0.00     0.005 C 
ATOM     25  C   UNL     1      25.551  14.343  77.225  1.00  0.00     0.020 C 
ATOM     26  C   UNL     1      27.765  14.182  75.991  1.00  0.00     0.017 C 
ATOM     27  O   UNL     1      27.093   9.875  76.001  1.00  0.00    -0.295 OA
ATOM     28  C   UNL     1      25.381  12.104  75.439  1.00  0.00     0.055 C 
ATOM     29  C   UNL     1      24.724  14.563  75.945  1.00  0.00     0.081 C 
ATOM     30  C   UNL     1      24.560  13.292  75.155  1.00  0.00     0.156 C 
ATOM     31  O   UNL     1      23.715  13.253  74.221  1.00  0.00    -0.295 OA
ENDBRANCH   9  11
ENDBRANCH   8   9
ENDBRANCH   1   8
TORSDOF 6
ENDMDL
MODEL 7
REMARK VINA RESULT:    -2.276      1.280      2.046
REMARK INTER + INTRA:          -3.428
REMARK INTER:                  -4.252
REMARK INTRA:                   0.823
REMARK UNBOUND:                -0.353
REMARK SMILES CC[C@@H](CC[C@H](C)[C@H]1CC[C@@H]2[C@@H]3CC(=O)C4=CC(=O)CC[C@@]4(C)[C@H]3CC[C@]21C)C(C)C
REMARK SMILES IDX 4 1 3 2 2 3 1 4 29 5 30 6 31 7 5 8 6 9 7 10 8 11 9 12 27 13
REMARK SMILES IDX 10 14 11 15 26 16 28 17 12 18 25 19 24 20 13 21 22 22 14 23
REMARK SMILES IDX 16 24 21 25 23 26 15 27 17 28 20 29 18 30 19 31
REMARK H PARENT
REMARK Flexibility Score: inf
ROOT
ATOM      1  C   UNL     1      24.299   9.912  75.180  1.00  0.00     0.004 C 
ENDROOT
BRANCH   1   2
ATOM      2  C   UNL     1      22.861  10.321  74.751  1.00  0.00    -0.009 C 
BRANCH   2   3
ATOM      3  C   UNL     1      22.807  11.838  74.402  1.00  0.00     0.000 C 
ATOM      4  C   UNL     1      22.985  12.128  72.910  1.00  0.00     0.004 C 
ENDBRANCH   2   3
BRANCH   2   5
ATOM      5  C   UNL     1      21.772   9.902  75.799  1.00  0.00    -0.014 C 
ATOM      6  C   UNL     1      20.491  10.749  75.727  1.00  0.00     0.007 C 
ATOM      7  C   UNL     1      22.314   9.875  77.238  1.00  0.00     0.007 C 
ENDBRANCH   2   5
ENDBRANCH   1   2
BRANCH   1   8
ATOM      8  C   UNL     1      25.067  11.046  75.892  1.00  0.00     0.004 C 
BRANCH   8   9
ATOM      9  C   UNL     1      25.412  12.234  74.949  1.00  0.00    -0.011 C 
ATOM     10  C   UNL     1      26.387  11.726  73.859  1.00  0.00     0.008 C 
BRANCH   9  11
ATOM     11  C   UNL     1      26.017  13.427  75.765  1.00  0.00    -0.002 C 
ATOM     12  C   UNL     1      24.942  14.347  76.414  1.00  0.00     0.005 C 
ATOM     13  C   UNL     1      27.043  13.088  76.934  1.00  0.00    -0.026 C 
ATOM     14  C   UNL     1      25.480  14.772  77.773  1.00  0.00     0.005 C 
ATOM     15  C   UNL     1      26.267  13.549  78.180  1.00  0.00    -0.001 C 
ATOM     16  C   UNL     1      27.479  11.589  77.187  1.00  0.00     0.007 C 
ATOM     17  C   UNL     1      28.318  13.946  76.651  1.00  0.00     0.012 C 
ATOM     18  C   UNL     1      27.042  13.546  79.522  1.00  0.00     0.004 C 
ATOM     19  C   UNL     1      27.640  11.196  78.691  1.00  0.00     0.005 C 
ATOM     20  C   UNL     1      28.082  12.389  79.575  1.00  0.00     0.003 C 
ATOM     21  C   UNL     1      27.738  14.858  79.918  1.00  0.00     0.085 C 
ATOM     22  C   UNL     1      28.486  12.057  81.064  1.00  0.00    -0.000 C 
ATOM     23  C   UNL     1      28.444  14.681  81.241  1.00  0.00     0.159 C 
ATOM     24  C   UNL     1      28.477  13.346  81.907  1.00  0.00     0.005 C 
ATOM     25  C   UNL     1      27.513  11.025  81.709  1.00  0.00     0.020 C 
ATOM     26  C   UNL     1      29.928  11.489  81.072  1.00  0.00     0.017 C 
ATOM     27  O   UNL     1      28.978  15.682  81.791  1.00  0.00    -0.295 OA
ATOM     28  C   UNL     1      28.391  13.283  83.246  1.00  0.00     0.055 C 
ATOM     29  C   UNL     1      27.837  10.749  83.188  1.00  0.00     0.081 C 
ATOM     30  C   UNL     1      28.133  12.015  83.946  1.00  0.00     0.156 C 
ATOM     31  O   UNL     1      28.176  11.982  85.205  1.00  0.00    -0.295 OA
ENDBRANCH   9  11
ENDBRANCH   8   9
ENDBRANCH   1   8
TORSDOF 6
ENDMDL
