MODEL 1
REMARK VINA RESULT:    -2.614      0.000      0.000
REMARK INTER + INTRA:          -2.926
REMARK INTER:                  -2.920
REMARK INTRA:                  -0.006
REMARK UNBOUND:                -0.006
REMARK SMILES CCCC(=O)[O-]
REMARK SMILES IDX 3 1 4 2 5 3 6 4 2 5 1 6
REMARK H PARENT
REMARK Flexibility Score: inf
ROOT
ATOM      1  C   UNL     1      29.558  13.213 -18.213  1.00  0.00     0.052 C 
ENDROOT
BRANCH   1   2
ATOM      2  C   UNL     1      29.503  14.335 -17.225  1.00  0.00     0.041 C 
ATOM      3  O   UNL     1      29.632  15.527 -17.613  1.00  0.00    -0.550 OA
ATOM      4  O   UNL     1      29.260  14.069 -15.884  1.00  0.00    -0.550 OA
ENDBRANCH   1   2
BRANCH   1   5
ATOM      5  C   UNL     1      30.830  12.384 -18.014  1.00  0.00     0.003 C 
ATOM      6  C   UNL     1      30.737  11.050 -18.747  1.00  0.00     0.004 C 
ENDBRANCH   1   5
TORSDOF 2
ENDMDL
MODEL 2
REMARK VINA RESULT:    -2.605     18.631     19.094
REMARK INTER + INTRA:          -2.916
REMARK INTER:                  -2.884
REMARK INTRA:                  -0.032
REMARK UNBOUND:                -0.006
REMARK SMILES CCCC(=O)[O-]
REMARK SMILES IDX 3 1 4 2 5 3 6 4 2 5 1 6
REMARK H PARENT
REMARK Flexibility Score: inf
ROOT
ATOM      1  C   UNL     1      12.992   6.122 -16.056  1.00  0.00     0.052 C 
ENDROOT
BRANCH   1   2
ATOM      2  C   UNL     1      12.652   6.582 -17.439  1.00  0.00     0.041 C 
ATOM      3  O   UNL     1      13.458   6.385 -18.387  1.00  0.00    -0.550 OA
ATOM      4  O   UNL     1      11.426   7.182 -17.690  1.00  0.00    -0.550 OA
ENDBRANCH   1   2
BRANCH   1   5
ATOM      5  C   UNL     1      11.760   6.192 -15.149  1.00  0.00     0.003 C 
ATOM      6  C   UNL     1      12.039   7.030 -13.906  1.00  0.00     0.004 C 
ENDBRANCH   1   5
TORSDOF 2
ENDMDL
MODEL 3
REMARK VINA RESULT:    -2.569      1.949      2.583
REMARK INTER + INTRA:          -2.876
REMARK INTER:                  -2.805
REMARK INTRA:                  -0.071
REMARK UNBOUND:                -0.006
REMARK SMILES CCCC(=O)[O-]
REMARK SMILES IDX 3 1 4 2 5 3 6 4 2 5 1 6
REMARK H PARENT
REMARK Flexibility Score: inf
ROOT
ATOM      1  C   UNL     1      28.613  13.274 -17.232  1.00  0.00     0.052 C 
ENDROOT
BRANCH   1   2
ATOM      2  C   UNL     1      29.826  14.148 -17.283  1.00  0.00     0.041 C 
ATOM      3  O   UNL     1      29.705  15.402 -17.271  1.00  0.00    -0.550 OA
ATOM      4  O   UNL     1      31.093  13.579 -17.292  1.00  0.00    -0.550 OA
ENDBRANCH   1   2
BRANCH   1   5
ATOM      5  C   UNL     1      28.733  12.255 -16.095  1.00  0.00     0.003 C 
ATOM      6  C   UNL     1      28.601  12.932 -14.735  1.00  0.00     0.004 C 
ENDBRANCH   1   5
TORSDOF 2
ENDMDL
MODEL 4
REMARK VINA RESULT:    -2.562     21.042     21.564
REMARK INTER + INTRA:          -2.868
REMARK INTER:                  -2.838
REMARK INTRA:                  -0.031
REMARK UNBOUND:                -0.006
REMARK SMILES CCCC(=O)[O-]
REMARK SMILES IDX 3 1 4 2 5 3 6 4 2 5 1 6
REMARK H PARENT
REMARK Flexibility Score: inf
ROOT
ATOM      1  C   UNL     1      14.557   0.114 -11.847  1.00  0.00     0.052 C 
ENDROOT
BRANCH   1   2
ATOM      2  C   UNL     1      13.584  -0.574 -12.752  1.00  0.00     0.041 C 
ATOM      3  O   UNL     1      13.989  -1.423 -13.589  1.00  0.00    -0.550 OA
ATOM      4  O   UNL     1      12.224  -0.314 -12.637  1.00  0.00    -0.550 OA
ENDBRANCH   1   2
BRANCH   1   5
ATOM      5  C   UNL     1      15.988  -0.069 -12.360  1.00  0.00     0.003 C 
ATOM      6  C   UNL     1      16.769  -1.037 -11.477  1.00  0.00     0.004 C 
ENDBRANCH   1   5
TORSDOF 2
ENDMDL
MODEL 5
REMARK VINA RESULT:    -2.517      6.766      7.492
REMARK INTER + INTRA:          -2.818
REMARK INTER:                  -2.810
REMARK INTRA:                  -0.008
REMARK UNBOUND:                -0.006
REMARK SMILES CCCC(=O)[O-]
REMARK SMILES IDX 3 1 4 2 5 3 6 4 2 5 1 6
REMARK H PARENT
REMARK Flexibility Score: inf
ROOT
ATOM      1  C   UNL     1      26.611  12.484 -10.866  1.00  0.00     0.052 C 
ENDROOT
BRANCH   1   2
ATOM      2  C   UNL     1      26.155  13.909 -10.897  1.00  0.00     0.041 C 
ATOM      3  O   UNL     1      25.350  14.336 -10.028  1.00  0.00    -0.550 OA
ATOM      4  O   UNL     1      26.659  14.779 -11.856  1.00  0.00    -0.550 OA
ENDBRANCH   1   2
BRANCH   1   5
ATOM      5  C   UNL     1      28.076  12.379 -11.300  1.00  0.00     0.003 C 
ATOM      6  C   UNL     1      28.738  11.141 -10.705  1.00  0.00     0.004 C 
ENDBRANCH   1   5
TORSDOF 2
ENDMDL
MODEL 6
REMARK VINA RESULT:    -2.516     20.280     20.888
REMARK INTER + INTRA:          -2.816
REMARK INTER:                  -2.764
REMARK INTRA:                  -0.052
REMARK UNBOUND:                -0.006
REMARK SMILES CCCC(=O)[O-]
REMARK SMILES IDX 3 1 4 2 5 3 6 4 2 5 1 6
REMARK H PARENT
REMARK Flexibility Score: inf
ROOT
ATOM      1  C   UNL     1      15.925   0.275 -12.462  1.00  0.00     0.052 C 
ENDROOT
BRANCH   1   2
ATOM      2  C   UNL     1      16.730  -0.968 -12.244  1.00  0.00     0.041 C 
ATOM      3  O   UNL     1      17.215  -1.217 -11.108  1.00  0.00    -0.550 OA
ATOM      4  O   UNL     1      16.903  -1.875 -13.281  1.00  0.00    -0.550 OA
ENDBRANCH   1   2
BRANCH   1   5
ATOM      5  C   UNL     1      14.531   0.124 -11.848  1.00  0.00     0.003 C 
ATOM      6  C   UNL     1      13.580  -0.581 -12.811  1.00  0.00     0.004 C 
ENDBRANCH   1   5
TORSDOF 2
ENDMDL
MODEL 7
REMARK VINA RESULT:    -2.497      1.970      2.217
REMARK INTER + INTRA:          -2.796
REMARK INTER:                  -2.755
REMARK INTRA:                  -0.041
REMARK UNBOUND:                -0.006
REMARK SMILES CCCC(=O)[O-]
REMARK SMILES IDX 3 1 4 2 5 3 6 4 2 5 1 6
REMARK H PARENT
REMARK Flexibility Score: inf
ROOT
ATOM      1  C   UNL     1      30.178  14.202 -16.965  1.00  0.00     0.052 C 
ENDROOT
BRANCH   1   2
ATOM      2  C   UNL     1      29.908  15.553 -16.382  1.00  0.00     0.041 C 
ATOM      3  O   UNL     1      29.821  16.561 -17.134  1.00  0.00    -0.550 OA
ATOM      4  O   UNL     1      29.703  15.693 -15.016  1.00  0.00    -0.550 OA
ENDBRANCH   1   2
BRANCH   1   5
ATOM      5  C   UNL     1      28.863  13.481 -17.279  1.00  0.00     0.003 C 
ATOM      6  C   UNL     1      28.502  12.492 -16.175  1.00  0.00     0.004 C 
ENDBRANCH   1   5
TORSDOF 2
ENDMDL
MODEL 8
REMARK VINA RESULT:    -2.493     20.491     20.919
REMARK INTER + INTRA:          -2.791
REMARK INTER:                  -2.780
REMARK INTRA:                  -0.011
REMARK UNBOUND:                -0.006
REMARK SMILES CCCC(=O)[O-]
REMARK SMILES IDX 3 1 4 2 5 3 6 4 2 5 1 6
REMARK H PARENT
REMARK Flexibility Score: inf
ROOT
ATOM      1  C   UNL     1      16.091  -0.560 -11.582  1.00  0.00     0.052 C 
ENDROOT
BRANCH   1   2
ATOM      2  C   UNL     1      14.969  -0.478 -12.569  1.00  0.00     0.041 C 
ATOM      3  O   UNL     1      15.177  -0.724 -13.787  1.00  0.00    -0.550 OA
ATOM      4  O   UNL     1      13.683  -0.181 -12.136  1.00  0.00    -0.550 OA
ENDBRANCH   1   2
BRANCH   1   5
ATOM      5  C   UNL     1      16.943  -1.805 -11.841  1.00  0.00     0.003 C 
ATOM      6  C   UNL     1      18.256  -1.744 -11.066  1.00  0.00     0.004 C 
ENDBRANCH   1   5
TORSDOF 2
ENDMDL
MODEL 9
REMARK VINA RESULT:    -2.474      5.602      6.741
REMARK INTER + INTRA:          -2.770
REMARK INTER:                  -2.732
REMARK INTRA:                  -0.038
REMARK UNBOUND:                -0.006
REMARK SMILES CCCC(=O)[O-]
REMARK SMILES IDX 3 1 4 2 5 3 6 4 2 5 1 6
REMARK H PARENT
REMARK Flexibility Score: inf
ROOT
ATOM      1  C   UNL     1      27.208  14.090 -12.376  1.00  0.00     0.052 C 
ENDROOT
BRANCH   1   2
ATOM      2  C   UNL     1      27.897  15.339 -12.827  1.00  0.00     0.041 C 
ATOM      3  O   UNL     1      28.874  15.273 -13.619  1.00  0.00    -0.550 OA
ATOM      4  O   UNL     1      27.429  16.579 -12.413  1.00  0.00    -0.550 OA
ENDBRANCH   1   2
BRANCH   1   5
ATOM      5  C   UNL     1      25.758  14.388 -11.985  1.00  0.00     0.003 C 
ATOM      6  C   UNL     1      25.537  14.177 -10.490  1.00  0.00     0.004 C 
ENDBRANCH   1   5
TORSDOF 2
ENDMDL
