MODEL 1
REMARK VINA RESULT:    -4.299      0.000      0.000
REMARK INTER + INTRA:          -4.424
REMARK INTER:                  -4.424
REMARK INTRA:                   0.000
REMARK UNBOUND:                 0.000
REMARK SMILES Nc1ncnc2nc[nH]c12
REMARK SMILES IDX 8 1 7 2 6 3 5 4 4 5 3 6 2 7 10 8 9 9 1 11
REMARK H PARENT 9 10 1 12 1 13
REMARK Flexibility Score: inf
ROOT
ATOM      1  C   UNL     1       1.003  -1.743 -15.366  1.00  0.00     0.199 A 
ATOM      2  N   UNL     1       0.570  -1.161 -16.517  1.00  0.00    -0.217 NA
ATOM      3  C   UNL     1       0.325   0.100 -16.125  1.00  0.00     0.182 A 
ATOM      4  N   UNL     1      -0.134   1.113 -16.899  1.00  0.00    -0.215 NA
ATOM      5  C   UNL     1      -0.322   2.335 -16.317  1.00  0.00     0.226 A 
ATOM      6  N   UNL     1      -0.052   2.521 -14.985  1.00  0.00    -0.217 NA
ATOM      7  C   UNL     1       0.411   1.501 -14.202  1.00  0.00     0.152 A 
ATOM      8  C   UNL     1       0.598   0.262 -14.810  1.00  0.00     0.127 A 
ATOM      9  N   UNL     1       1.032  -0.899 -14.304  1.00  0.00    -0.340 N 
ATOM     10  H   UNL     1       1.326  -1.115 -13.327  1.00  0.00     0.168 HD
ENDROOT
BRANCH   7  11
ATOM     11  N   UNL     1       0.685   1.719 -12.818  1.00  0.00    -0.382 N 
ATOM     12  H   UNL     1      -0.068   1.657 -12.099  1.00  0.00     0.158 HD
ATOM     13  H   UNL     1       1.656   1.945 -12.507  1.00  0.00     0.158 HD
ENDBRANCH   7  11
TORSDOF 1
ENDMDL
MODEL 2
REMARK VINA RESULT:    -4.206     11.715     12.693
REMARK INTER + INTRA:          -4.329
REMARK INTER:                  -4.329
REMARK INTRA:                   0.000
REMARK UNBOUND:                 0.000
REMARK SMILES Nc1ncnc2nc[nH]c12
REMARK SMILES IDX 8 1 7 2 6 3 5 4 4 5 3 6 2 7 10 8 9 9 1 11
REMARK H PARENT 9 10 1 12 1 13
REMARK Flexibility Score: inf
ROOT
ATOM      1  C   UNL     1      -1.823   3.632  -2.149  1.00  0.00     0.199 A 
ATOM      2  N   UNL     1      -2.336   4.274  -3.233  1.00  0.00    -0.217 NA
ATOM      3  C   UNL     1      -1.249   4.867  -3.755  1.00  0.00     0.182 A 
ATOM      4  N   UNL     1      -1.206   5.645  -4.863  1.00  0.00    -0.215 NA
ATOM      5  C   UNL     1       0.001   6.163  -5.240  1.00  0.00     0.226 A 
ATOM      6  N   UNL     1       1.132   5.897  -4.512  1.00  0.00    -0.217 NA
ATOM      7  C   UNL     1       1.091   5.112  -3.393  1.00  0.00     0.152 A 
ATOM      8  C   UNL     1      -0.146   4.592  -3.022  1.00  0.00     0.127 A 
ATOM      9  N   UNL     1      -0.486   3.806  -1.993  1.00  0.00    -0.340 N 
ATOM     10  H   UNL     1       0.123   3.414  -1.242  1.00  0.00     0.168 HD
ENDROOT
BRANCH   7  11
ATOM     11  N   UNL     1       2.281   4.850  -2.650  1.00  0.00    -0.382 N 
ATOM     12  H   UNL     1       3.110   5.481  -2.710  1.00  0.00     0.158 HD
ATOM     13  H   UNL     1       2.335   4.012  -2.029  1.00  0.00     0.158 HD
ENDBRANCH   7  11
TORSDOF 1
ENDMDL
MODEL 3
REMARK VINA RESULT:    -3.971     11.635     12.400
REMARK INTER + INTRA:          -4.087
REMARK INTER:                  -4.087
REMARK INTRA:                   0.000
REMARK UNBOUND:                 0.000
REMARK SMILES Nc1ncnc2nc[nH]c12
REMARK SMILES IDX 8 1 7 2 6 3 5 4 4 5 3 6 2 7 10 8 9 9 1 11
REMARK H PARENT 9 10 1 12 1 13
REMARK Flexibility Score: inf
ROOT
ATOM      1  C   UNL     1      -0.265   7.293  -5.517  1.00  0.00     0.199 A 
ATOM      2  N   UNL     1      -1.328   6.454  -5.644  1.00  0.00    -0.217 NA
ATOM      3  C   UNL     1      -1.016   5.465  -4.790  1.00  0.00     0.182 A 
ATOM      4  N   UNL     1      -1.752   4.358  -4.532  1.00  0.00    -0.215 NA
ATOM      5  C   UNL     1      -1.266   3.458  -3.625  1.00  0.00     0.226 A 
ATOM      6  N   UNL     1      -0.066   3.679  -2.999  1.00  0.00    -0.217 NA
ATOM      7  C   UNL     1       0.679   4.795  -3.258  1.00  0.00     0.152 A 
ATOM      8  C   UNL     1       0.170   5.702  -4.185  1.00  0.00     0.127 A 
ATOM      9  N   UNL     1       0.669   6.862  -4.631  1.00  0.00    -0.340 N 
ATOM     10  H   UNL     1       1.562   7.333  -4.368  1.00  0.00     0.168 HD
ENDROOT
BRANCH   7  11
ATOM     11  N   UNL     1       1.926   5.003  -2.595  1.00  0.00    -0.382 N 
ATOM     12  H   UNL     1       2.661   4.263  -2.576  1.00  0.00     0.158 HD
ATOM     13  H   UNL     1       2.117   5.911  -2.116  1.00  0.00     0.158 HD
ENDBRANCH   7  11
TORSDOF 1
ENDMDL
MODEL 4
REMARK VINA RESULT:    -3.945     10.757     11.226
REMARK INTER + INTRA:          -4.060
REMARK INTER:                  -4.060
REMARK INTRA:                   0.000
REMARK UNBOUND:                 0.000
REMARK SMILES Nc1ncnc2nc[nH]c12
REMARK SMILES IDX 8 1 7 2 6 3 5 4 4 5 3 6 2 7 10 8 9 9 1 11
REMARK H PARENT 9 10 1 12 1 13
REMARK Flexibility Score: inf
ROOT
ATOM      1  C   UNL     1     -10.829  -0.525 -12.555  1.00  0.00     0.199 A 
ATOM      2  N   UNL     1     -11.659   0.174 -11.734  1.00  0.00    -0.217 NA
ATOM      3  C   UNL     1     -10.880   1.195 -11.342  1.00  0.00     0.182 A 
ATOM      4  N   UNL     1     -11.228   2.201 -10.503  1.00  0.00    -0.215 NA
ATOM      5  C   UNL     1     -10.292   3.157 -10.221  1.00  0.00     0.226 A 
ATOM      6  N   UNL     1      -9.040   3.091 -10.775  1.00  0.00    -0.217 NA
ATOM      7  C   UNL     1      -8.687   2.078 -11.622  1.00  0.00     0.152 A 
ATOM      8  C   UNL     1      -9.651   1.112 -11.899  1.00  0.00     0.127 A 
ATOM      9  N   UNL     1      -9.593   0.023 -12.677  1.00  0.00    -0.340 N 
ATOM     10  H   UNL     1      -8.794  -0.330 -13.247  1.00  0.00     0.168 HD
ENDROOT
BRANCH   7  11
ATOM     11  N   UNL     1      -7.377   2.030 -12.186  1.00  0.00    -0.382 N 
ATOM     12  H   UNL     1      -7.004   2.816 -12.763  1.00  0.00     0.158 HD
ATOM     13  H   UNL     1      -6.768   1.196 -12.025  1.00  0.00     0.158 HD
ENDBRANCH   7  11
TORSDOF 1
ENDMDL
MODEL 5
REMARK VINA RESULT:    -3.920      0.898      2.972
REMARK INTER + INTRA:          -4.034
REMARK INTER:                  -4.034
REMARK INTRA:                   0.000
REMARK UNBOUND:                 0.000
REMARK SMILES Nc1ncnc2nc[nH]c12
REMARK SMILES IDX 8 1 7 2 6 3 5 4 4 5 3 6 2 7 10 8 9 9 1 11
REMARK H PARENT 9 10 1 12 1 13
REMARK Flexibility Score: inf
ROOT
ATOM      1  C   UNL     1       0.461   2.108 -13.780  1.00  0.00     0.199 A 
ATOM      2  N   UNL     1       0.072   2.460 -15.035  1.00  0.00    -0.217 NA
ATOM      3  C   UNL     1       0.133   1.290 -15.692  1.00  0.00     0.182 A 
ATOM      4  N   UNL     1      -0.159   1.081 -16.998  1.00  0.00    -0.215 NA
ATOM      5  C   UNL     1      -0.036  -0.189 -17.490  1.00  0.00     0.226 A 
ATOM      6  N   UNL     1       0.372  -1.214 -16.677  1.00  0.00    -0.217 NA
ATOM      7  C   UNL     1       0.667  -1.006 -15.359  1.00  0.00     0.152 A 
ATOM      8  C   UNL     1       0.537   0.293 -14.873  1.00  0.00     0.127 A 
ATOM      9  N   UNL     1       0.753   0.789 -13.648  1.00  0.00    -0.340 N 
ATOM     10  H   UNL     1       1.069   0.290 -12.788  1.00  0.00     0.168 HD
ENDROOT
BRANCH   7  11
ATOM     11  N   UNL     1       1.091  -2.089 -14.532  1.00  0.00    -0.382 N 
ATOM     12  H   UNL     1       2.063  -2.139 -14.157  1.00  0.00     0.158 HD
ATOM     13  H   UNL     1       0.422  -2.854 -14.290  1.00  0.00     0.158 HD
ENDBRANCH   7  11
TORSDOF 1
ENDMDL
MODEL 6
REMARK VINA RESULT:    -3.881     10.863     11.508
REMARK INTER + INTRA:          -3.994
REMARK INTER:                  -3.994
REMARK INTRA:                   0.000
REMARK UNBOUND:                 0.000
REMARK SMILES Nc1ncnc2nc[nH]c12
REMARK SMILES IDX 8 1 7 2 6 3 5 4 4 5 3 6 2 7 10 8 9 9 1 11
REMARK H PARENT 9 10 1 12 1 13
REMARK Flexibility Score: inf
ROOT
ATOM      1  C   UNL     1      -7.765   2.021 -11.761  1.00  0.00     0.199 A 
ATOM      2  N   UNL     1      -8.590   2.753 -10.964  1.00  0.00    -0.217 NA
ATOM      3  C   UNL     1      -9.759   2.103 -11.089  1.00  0.00     0.182 A 
ATOM      4  N   UNL     1     -10.931   2.425 -10.492  1.00  0.00    -0.215 NA
ATOM      5  C   UNL     1     -12.020   1.638 -10.743  1.00  0.00     0.226 A 
ATOM      6  N   UNL     1     -11.919   0.555 -11.578  1.00  0.00    -0.217 NA
ATOM      7  C   UNL     1     -10.738   0.228 -12.182  1.00  0.00     0.152 A 
ATOM      8  C   UNL     1      -9.638   1.040 -11.916  1.00  0.00     0.127 A 
ATOM      9  N   UNL     1      -8.375   0.966 -12.357  1.00  0.00    -0.340 N 
ATOM     10  H   UNL     1      -7.950   0.268 -13.006  1.00  0.00     0.168 HD
ENDROOT
BRANCH   7  11
ATOM     11  N   UNL     1     -10.657  -0.903 -13.049  1.00  0.00    -0.382 N 
ATOM     12  H   UNL     1      -9.960  -0.946 -13.825  1.00  0.00     0.158 HD
ATOM     13  H   UNL     1     -11.303  -1.713 -12.913  1.00  0.00     0.158 HD
ENDBRANCH   7  11
TORSDOF 1
ENDMDL
MODEL 7
REMARK VINA RESULT:    -3.876      9.801     10.638
REMARK INTER + INTRA:          -3.990
REMARK INTER:                  -3.990
REMARK INTRA:                   0.000
REMARK UNBOUND:                 0.000
REMARK SMILES Nc1ncnc2nc[nH]c12
REMARK SMILES IDX 8 1 7 2 6 3 5 4 4 5 3 6 2 7 10 8 9 9 1 11
REMARK H PARENT 9 10 1 12 1 13
REMARK Flexibility Score: inf
ROOT
ATOM      1  C   UNL     1      -8.621   2.244  -8.136  1.00  0.00     0.199 A 
ATOM      2  N   UNL     1      -8.580   3.161  -9.140  1.00  0.00    -0.217 NA
ATOM      3  C   UNL     1      -8.543   2.384 -10.235  1.00  0.00     0.182 A 
ATOM      4  N   UNL     1      -8.493   2.803 -11.522  1.00  0.00    -0.215 NA
ATOM      5  C   UNL     1      -8.460   1.856 -12.508  1.00  0.00     0.226 A 
ATOM      6  N   UNL     1      -8.478   0.521 -12.192  1.00  0.00    -0.217 NA
ATOM      7  C   UNL     1      -8.528   0.096 -10.894  1.00  0.00     0.152 A 
ATOM      8  C   UNL     1      -8.561   1.073  -9.902  1.00  0.00     0.127 A 
ATOM      9  N   UNL     1      -8.611   0.958  -8.569  1.00  0.00    -0.340 N 
ATOM     10  H   UNL     1      -8.637   0.091  -7.989  1.00  0.00     0.168 HD
ENDROOT
BRANCH   7  11
ATOM     11  N   UNL     1      -8.545  -1.299 -10.590  1.00  0.00    -0.382 N 
ATOM     12  H   UNL     1      -7.856  -1.956 -11.015  1.00  0.00     0.158 HD
ATOM     13  H   UNL     1      -9.257  -1.680  -9.928  1.00  0.00     0.158 HD
ENDBRANCH   7  11
TORSDOF 1
ENDMDL
MODEL 8
REMARK VINA RESULT:    -3.784     11.580     12.067
REMARK INTER + INTRA:          -3.894
REMARK INTER:                  -3.894
REMARK INTRA:                   0.000
REMARK UNBOUND:                 0.000
REMARK SMILES Nc1ncnc2nc[nH]c12
REMARK SMILES IDX 8 1 7 2 6 3 5 4 4 5 3 6 2 7 10 8 9 9 1 11
REMARK H PARENT 9 10 1 12 1 13
REMARK Flexibility Score: inf
ROOT
ATOM      1  C   UNL     1      -2.995   6.065  -5.080  1.00  0.00     0.199 A 
ATOM      2  N   UNL     1      -1.890   6.860  -5.077  1.00  0.00    -0.217 NA
ATOM      3  C   UNL     1      -0.916   5.993  -4.755  1.00  0.00     0.182 A 
ATOM      4  N   UNL     1       0.402   6.274  -4.615  1.00  0.00    -0.215 NA
ATOM      5  C   UNL     1       1.247   5.252  -4.281  1.00  0.00     0.226 A 
ATOM      6  N   UNL     1       0.764   3.982  -4.096  1.00  0.00    -0.217 NA
ATOM      7  C   UNL     1      -0.565   3.696  -4.237  1.00  0.00     0.152 A 
ATOM      8  C   UNL     1      -1.412   4.748  -4.577  1.00  0.00     0.127 A 
ATOM      9  N   UNL     1      -2.736   4.768  -4.779  1.00  0.00    -0.340 N 
ATOM     10  H   UNL     1      -3.417   3.980  -4.721  1.00  0.00     0.168 HD
ENDROOT
BRANCH   7  11
ATOM     11  N   UNL     1      -1.044   2.366  -4.038  1.00  0.00    -0.382 N 
ATOM     12  H   UNL     1      -0.926   1.877  -3.124  1.00  0.00     0.158 HD
ATOM     13  H   UNL     1      -1.526   1.863  -4.816  1.00  0.00     0.158 HD
ENDBRANCH   7  11
TORSDOF 1
ENDMDL
MODEL 9
REMARK VINA RESULT:    -3.703     11.905     12.726
REMARK INTER + INTRA:          -3.811
REMARK INTER:                  -3.811
REMARK INTRA:                   0.000
REMARK UNBOUND:                 0.000
REMARK SMILES Nc1ncnc2nc[nH]c12
REMARK SMILES IDX 8 1 7 2 6 3 5 4 4 5 3 6 2 7 10 8 9 9 1 11
REMARK H PARENT 9 10 1 12 1 13
REMARK Flexibility Score: inf
ROOT
ATOM      1  C   UNL     1       1.494   5.372  -3.758  1.00  0.00     0.199 A 
ATOM      2  N   UNL     1       0.579   5.700  -4.711  1.00  0.00    -0.217 NA
ATOM      3  C   UNL     1      -0.538   5.116  -4.248  1.00  0.00     0.182 A 
ATOM      4  N   UNL     1      -1.761   5.134  -4.830  1.00  0.00    -0.215 NA
ATOM      5  C   UNL     1      -2.783   4.477  -4.204  1.00  0.00     0.226 A 
ATOM      6  N   UNL     1      -2.567   3.820  -3.020  1.00  0.00    -0.217 NA
ATOM      7  C   UNL     1      -1.334   3.800  -2.431  1.00  0.00     0.152 A 
ATOM      8  C   UNL     1      -0.303   4.474  -3.081  1.00  0.00     0.127 A 
ATOM      9  N   UNL     1       0.985   4.623  -2.748  1.00  0.00    -0.340 N 
ATOM     10  H   UNL     1       1.490   4.255  -1.912  1.00  0.00     0.168 HD
ENDROOT
BRANCH   7  11
ATOM     11  N   UNL     1      -1.132   3.108  -1.198  1.00  0.00    -0.382 N 
ATOM     12  H   UNL     1      -0.795   3.605  -0.345  1.00  0.00     0.158 HD
ATOM     13  H   UNL     1      -1.324   2.084  -1.136  1.00  0.00     0.158 HD
ENDBRANCH   7  11
TORSDOF 1
ENDMDL
