MODEL 1
REMARK VINA RESULT:    -4.549      0.000      0.000
REMARK INTER + INTRA:          -6.115
REMARK INTER:                  -5.745
REMARK INTRA:                  -0.370
REMARK UNBOUND:                -0.370
REMARK SMILES CC(C)=CCCC(C)=CCO
REMARK SMILES IDX 7 1 9 2 8 3 6 4 5 5 4 6 1 7 2 8 3 9 10 10 11 11
REMARK H PARENT 11 12
REMARK Flexibility Score: inf
ROOT
ATOM      1  C   UNL     1       1.171  -1.195  -9.295  1.00  0.00    -0.075 C 
ATOM      2  C   UNL     1       2.084  -0.509  -8.570  1.00  0.00    -0.000 C 
ATOM      3  C   UNL     1      -0.218  -1.462  -8.766  1.00  0.00     0.039 C 
ENDROOT
BRANCH   1   4
ATOM      4  C   UNL     1       1.546  -1.687 -10.676  1.00  0.00     0.034 C 
BRANCH   4   5
ATOM      5  C   UNL     1       3.067  -1.688 -10.861  1.00  0.00     0.032 C 
BRANCH   5   6
ATOM      6  C   UNL     1       3.503  -0.602 -11.816  1.00  0.00    -0.028 C 
ATOM      7  C   UNL     1       4.808   1.354 -12.536  1.00  0.00     0.039 C 
ATOM      8  C   UNL     1       4.448   0.312 -11.509  1.00  0.00    -0.080 C 
ATOM      9  C   UNL     1       5.143   0.311 -10.168  1.00  0.00     0.039 C 
ENDBRANCH   5   6
ENDBRANCH   4   5
ENDBRANCH   1   4
BRANCH   2  10
ATOM     10  C   UNL     1       1.825   0.033  -7.188  1.00  0.00     0.183 C 
BRANCH  10  11
ATOM     11  O   UNL     1       2.481   1.259  -7.006  1.00  0.00    -0.392 OA
ATOM     12  H   UNL     1       3.364   1.051  -6.601  1.00  0.00     0.210 HD
ENDBRANCH  10  11
ENDBRANCH   2  10
TORSDOF 5
ENDMDL
MODEL 2
REMARK VINA RESULT:    -4.499     10.735     11.592
REMARK INTER + INTRA:          -6.053
REMARK INTER:                  -5.766
REMARK INTRA:                  -0.286
REMARK UNBOUND:                -0.370
REMARK SMILES CC(C)=CCCC(C)=CCO
REMARK SMILES IDX 7 1 9 2 8 3 6 4 5 5 4 6 1 7 2 8 3 9 10 10 11 11
REMARK H PARENT 11 12
REMARK Flexibility Score: inf
ROOT
ATOM      1  C   UNL     1      -6.923   3.234 -13.555  1.00  0.00    -0.075 C 
ATOM      2  C   UNL     1      -7.937   2.974 -12.699  1.00  0.00    -0.000 C 
ATOM      3  C   UNL     1      -5.554   2.624 -13.366  1.00  0.00     0.039 C 
ENDROOT
BRANCH   1   4
ATOM      4  C   UNL     1      -7.172   4.143 -14.739  1.00  0.00     0.034 C 
BRANCH   4   5
ATOM      5  C   UNL     1      -6.565   3.555 -16.017  1.00  0.00     0.032 C 
BRANCH   5   6
ATOM      6  C   UNL     1      -5.587   4.515 -16.651  1.00  0.00    -0.028 C 
ATOM      7  C   UNL     1      -4.631   5.856 -18.478  1.00  0.00     0.039 C 
ATOM      8  C   UNL     1      -5.659   4.890 -17.946  1.00  0.00    -0.080 C 
ATOM      9  C   UNL     1      -6.738   4.364 -18.863  1.00  0.00     0.039 C 
ENDBRANCH   5   6
ENDBRANCH   4   5
ENDBRANCH   1   4
BRANCH   2  10
ATOM     10  C   UNL     1      -7.809   2.083 -11.490  1.00  0.00     0.183 C 
BRANCH  10  11
ATOM     11  O   UNL     1      -7.616   2.847 -10.330  1.00  0.00    -0.392 OA
ATOM     12  H   UNL     1      -6.752   2.554  -9.938  1.00  0.00     0.210 HD
ENDBRANCH  10  11
ENDBRANCH   2  10
TORSDOF 5
ENDMDL
MODEL 3
REMARK VINA RESULT:    -4.282     11.345     12.064
REMARK INTER + INTRA:          -5.779
REMARK INTER:                  -5.495
REMARK INTRA:                  -0.284
REMARK UNBOUND:                -0.370
REMARK SMILES CC(C)=CCCC(C)=CCO
REMARK SMILES IDX 7 1 9 2 8 3 6 4 5 5 4 6 1 7 2 8 3 9 10 10 11 11
REMARK H PARENT 11 12
REMARK Flexibility Score: inf
ROOT
ATOM      1  C   UNL     1      -7.461   4.543 -14.437  1.00  0.00    -0.075 C 
ATOM      2  C   UNL     1      -7.105   3.283 -14.099  1.00  0.00    -0.000 C 
ATOM      3  C   UNL     1      -8.045   5.498 -13.423  1.00  0.00     0.039 C 
ENDROOT
BRANCH   1   4
ATOM      4  C   UNL     1      -7.248   5.012 -15.860  1.00  0.00     0.034 C 
BRANCH   4   5
ATOM      5  C   UNL     1      -5.882   4.559 -16.387  1.00  0.00     0.032 C 
BRANCH   5   6
ATOM      6  C   UNL     1      -5.942   4.241 -17.862  1.00  0.00    -0.028 C 
ATOM      7  C   UNL     1      -5.414   4.558 -20.243  1.00  0.00     0.039 C 
ATOM      8  C   UNL     1      -5.286   4.962 -18.797  1.00  0.00    -0.080 C 
ATOM      9  C   UNL     1      -4.436   6.153 -18.425  1.00  0.00     0.039 C 
ENDBRANCH   5   6
ENDBRANCH   4   5
ENDBRANCH   1   4
BRANCH   2  10
ATOM     10  C   UNL     1      -7.264   2.707 -12.715  1.00  0.00     0.183 C 
BRANCH  10  11
ATOM     11  O   UNL     1      -6.023   2.314 -12.197  1.00  0.00    -0.392 OA
ATOM     12  H   UNL     1      -6.209   1.628 -11.504  1.00  0.00     0.210 HD
ENDBRANCH  10  11
ENDBRANCH   2  10
TORSDOF 5
ENDMDL
MODEL 4
REMARK VINA RESULT:    -4.230     15.101     15.954
REMARK INTER + INTRA:          -5.712
REMARK INTER:                  -5.126
REMARK INTRA:                  -0.586
REMARK UNBOUND:                -0.370
REMARK SMILES CC(C)=CCCC(C)=CCO
REMARK SMILES IDX 7 1 9 2 8 3 6 4 5 5 4 6 1 7 2 8 3 9 10 10 11 11
REMARK H PARENT 11 12
REMARK Flexibility Score: inf
ROOT
ATOM      1  C   UNL     1      -4.087  11.869 -13.573  1.00  0.00    -0.075 C 
ATOM      2  C   UNL     1      -3.694  12.082 -12.297  1.00  0.00    -0.000 C 
ATOM      3  C   UNL     1      -5.498  11.443 -13.904  1.00  0.00     0.039 C 
ENDROOT
BRANCH   1   4
ATOM      4  C   UNL     1      -3.095  12.081 -14.695  1.00  0.00     0.034 C 
BRANCH   4   5
ATOM      5  C   UNL     1      -3.733  12.862 -15.849  1.00  0.00     0.032 C 
BRANCH   5   6
ATOM      6  C   UNL     1      -3.166  14.258 -15.945  1.00  0.00    -0.028 C 
ATOM      7  C   UNL     1      -3.139  16.692 -15.593  1.00  0.00     0.039 C 
ATOM      8  C   UNL     1      -3.794  15.343 -15.443  1.00  0.00    -0.080 C 
ATOM      9  C   UNL     1      -5.126  15.231 -14.741  1.00  0.00     0.039 C 
ENDBRANCH   5   6
ENDBRANCH   4   5
ENDBRANCH   1   4
BRANCH   2  10
ATOM     10  C   UNL     1      -4.593  11.908 -11.100  1.00  0.00     0.183 C 
BRANCH  10  11
ATOM     11  O   UNL     1      -4.602  13.070 -10.315  1.00  0.00    -0.392 OA
ATOM     12  H   UNL     1      -5.235  12.902  -9.568  1.00  0.00     0.210 HD
ENDBRANCH  10  11
ENDBRANCH   2  10
TORSDOF 5
ENDMDL
MODEL 5
REMARK VINA RESULT:    -4.194     15.746     16.995
REMARK INTER + INTRA:          -5.667
REMARK INTER:                  -5.290
REMARK INTRA:                  -0.377
REMARK UNBOUND:                -0.370
REMARK SMILES CC(C)=CCCC(C)=CCO
REMARK SMILES IDX 7 1 9 2 8 3 6 4 5 5 4 6 1 7 2 8 3 9 10 10 11 11
REMARK H PARENT 11 12
REMARK Flexibility Score: inf
ROOT
ATOM      1  C   UNL     1      -3.596  14.594 -15.954  1.00  0.00    -0.075 C 
ATOM      2  C   UNL     1      -2.922  15.762 -16.054  1.00  0.00    -0.000 C 
ATOM      3  C   UNL     1      -5.085  14.518 -16.196  1.00  0.00     0.039 C 
ENDROOT
BRANCH   1   4
ATOM      4  C   UNL     1      -2.836  13.331 -15.611  1.00  0.00     0.034 C 
BRANCH   4   5
ATOM      5  C   UNL     1      -3.784  12.247 -15.087  1.00  0.00     0.032 C 
BRANCH   5   6
ATOM      6  C   UNL     1      -3.698  12.124 -13.585  1.00  0.00    -0.028 C 
ATOM      7  C   UNL     1      -4.479  11.482 -11.343  1.00  0.00     0.039 C 
ATOM      8  C   UNL     1      -4.666  11.553 -12.836  1.00  0.00    -0.080 C 
ATOM      9  C   UNL     1      -5.920  10.991 -13.462  1.00  0.00     0.039 C 
ENDBRANCH   5   6
ENDBRANCH   4   5
ENDBRANCH   1   4
BRANCH   2  10
ATOM     10  C   UNL     1      -3.570  17.080 -16.393  1.00  0.00     0.183 C 
BRANCH  10  11
ATOM     11  O   UNL     1      -3.659  17.895 -15.256  1.00  0.00    -0.392 OA
ATOM     12  H   UNL     1      -2.940  17.599 -14.637  1.00  0.00     0.210 HD
ENDBRANCH  10  11
ENDBRANCH   2  10
TORSDOF 5
ENDMDL
MODEL 6
REMARK VINA RESULT:    -4.150      2.214      4.718
REMARK INTER + INTRA:          -5.611
REMARK INTER:                  -4.966
REMARK INTRA:                  -0.645
REMARK UNBOUND:                -0.370
REMARK SMILES CC(C)=CCCC(C)=CCO
REMARK SMILES IDX 7 1 9 2 8 3 6 4 5 5 4 6 1 7 2 8 3 9 10 10 11 11
REMARK H PARENT 11 12
REMARK Flexibility Score: inf
ROOT
ATOM      1  C   UNL     1       4.467   0.961  -9.728  1.00  0.00    -0.075 C 
ATOM      2  C   UNL     1       4.012   1.555 -10.855  1.00  0.00    -0.000 C 
ATOM      3  C   UNL     1       5.696   0.084  -9.739  1.00  0.00     0.039 C 
ENDROOT
BRANCH   1   4
ATOM      4  C   UNL     1       3.737   1.198  -8.424  1.00  0.00     0.034 C 
BRANCH   4   5
ATOM      5  C   UNL     1       3.057  -0.086  -7.937  1.00  0.00     0.032 C 
BRANCH   5   6
ATOM      6  C   UNL     1       1.728  -0.297  -8.623  1.00  0.00    -0.028 C 
ATOM      7  C   UNL     1       0.168  -1.350 -10.206  1.00  0.00     0.039 C 
ATOM      8  C   UNL     1       1.536  -1.223  -9.587  1.00  0.00    -0.080 C 
ATOM      9  C   UNL     1       2.655  -2.125 -10.051  1.00  0.00     0.039 C 
ENDBRANCH   5   6
ENDBRANCH   4   5
ENDBRANCH   1   4
BRANCH   2  10
ATOM     10  C   UNL     1       4.657   1.397 -12.208  1.00  0.00     0.183 C 
BRANCH  10  11
ATOM     11  O   UNL     1       3.836   0.649 -13.063  1.00  0.00    -0.392 OA
ATOM     12  H   UNL     1       4.332   0.548 -13.917  1.00  0.00     0.210 HD
ENDBRANCH  10  11
ENDBRANCH   2  10
TORSDOF 5
ENDMDL
MODEL 7
REMARK VINA RESULT:    -4.142      2.362      4.916
REMARK INTER + INTRA:          -5.602
REMARK INTER:                  -5.079
REMARK INTRA:                  -0.523
REMARK UNBOUND:                -0.370
REMARK SMILES CC(C)=CCCC(C)=CCO
REMARK SMILES IDX 7 1 9 2 8 3 6 4 5 5 4 6 1 7 2 8 3 9 10 10 11 11
REMARK H PARENT 11 12
REMARK Flexibility Score: inf
ROOT
ATOM      1  C   UNL     1       3.393  -0.523 -10.918  1.00  0.00    -0.075 C 
ATOM      2  C   UNL     1       3.405   0.398 -11.909  1.00  0.00    -0.000 C 
ATOM      3  C   UNL     1       4.556  -0.675  -9.967  1.00  0.00     0.039 C 
ENDROOT
BRANCH   1   4
ATOM      4  C   UNL     1       2.176  -1.407 -10.749  1.00  0.00     0.034 C 
BRANCH   4   5
ATOM      5  C   UNL     1       1.031  -0.639 -10.080  1.00  0.00     0.032 C 
BRANCH   5   6
ATOM      6  C   UNL     1       0.569  -1.331  -8.821  1.00  0.00    -0.028 C 
ATOM      7  C   UNL     1       0.483  -1.749  -6.398  1.00  0.00     0.039 C 
ATOM      8  C   UNL     1       1.010  -0.992  -7.590  1.00  0.00    -0.080 C 
ATOM      9  C   UNL     1       2.011   0.120  -7.388  1.00  0.00     0.039 C 
ENDBRANCH   5   6
ENDBRANCH   4   5
ENDBRANCH   1   4
BRANCH   2  10
ATOM     10  C   UNL     1       4.556   1.335 -12.172  1.00  0.00     0.183 C 
BRANCH  10  11
ATOM     11  O   UNL     1       5.064   1.144 -13.464  1.00  0.00    -0.392 OA
ATOM     12  H   UNL     1       6.053   1.101 -13.377  1.00  0.00     0.210 HD
ENDBRANCH  10  11
ENDBRANCH   2  10
TORSDOF 5
ENDMDL
MODEL 8
REMARK VINA RESULT:    -4.086      1.893      2.367
REMARK INTER + INTRA:          -5.531
REMARK INTER:                  -5.155
REMARK INTRA:                  -0.376
REMARK UNBOUND:                -0.370
REMARK SMILES CC(C)=CCCC(C)=CCO
REMARK SMILES IDX 7 1 9 2 8 3 6 4 5 5 4 6 1 7 2 8 3 9 10 10 11 11
REMARK H PARENT 11 12
REMARK Flexibility Score: inf
ROOT
ATOM      1  C   UNL     1       0.820  -1.430  -9.482  1.00  0.00    -0.075 C 
ATOM      2  C   UNL     1      -0.412  -1.919  -9.216  1.00  0.00    -0.000 C 
ATOM      3  C   UNL     1       1.595  -0.642  -8.453  1.00  0.00     0.039 C 
ENDROOT
BRANCH   1   4
ATOM      4  C   UNL     1       1.442  -1.696 -10.836  1.00  0.00     0.034 C 
BRANCH   4   5
ATOM      5  C   UNL     1       2.949  -1.418 -10.809  1.00  0.00     0.032 C 
BRANCH   5   6
ATOM      6  C   UNL     1       3.277  -0.107 -11.483  1.00  0.00    -0.028 C 
ATOM      7  C   UNL     1       4.444   2.040 -11.755  1.00  0.00     0.039 C 
ATOM      8  C   UNL     1       4.194   0.759 -11.002  1.00  0.00    -0.080 C 
ATOM      9  C   UNL     1       4.967   0.470  -9.737  1.00  0.00     0.039 C 
ENDBRANCH   5   6
ENDBRANCH   4   5
ENDBRANCH   1   4
BRANCH   2  10
ATOM     10  C   UNL     1      -1.130  -1.723  -7.906  1.00  0.00     0.183 C 
BRANCH  10  11
ATOM     11  O   UNL     1      -2.503  -1.535  -8.117  1.00  0.00    -0.392 OA
ATOM     12  H   UNL     1      -2.913  -1.405  -7.221  1.00  0.00     0.210 HD
ENDBRANCH  10  11
ENDBRANCH   2  10
TORSDOF 5
ENDMDL
MODEL 9
REMARK VINA RESULT:    -4.005     15.199     15.956
REMARK INTER + INTRA:          -5.429
REMARK INTER:                  -5.001
REMARK INTRA:                  -0.428
REMARK UNBOUND:                -0.370
REMARK SMILES CC(C)=CCCC(C)=CCO
REMARK SMILES IDX 7 1 9 2 8 3 6 4 5 5 4 6 1 7 2 8 3 9 10 10 11 11
REMARK H PARENT 11 12
REMARK Flexibility Score: inf
ROOT
ATOM      1  C   UNL     1      -4.914  12.079 -12.921  1.00  0.00    -0.075 C 
ATOM      2  C   UNL     1      -5.941  12.863 -12.521  1.00  0.00    -0.000 C 
ATOM      3  C   UNL     1      -3.917  11.520 -11.933  1.00  0.00     0.039 C 
ENDROOT
BRANCH   1   4
ATOM      4  C   UNL     1      -4.775  11.739 -14.388  1.00  0.00     0.034 C 
BRANCH   4   5
ATOM      5  C   UNL     1      -3.379  12.104 -14.904  1.00  0.00     0.032 C 
BRANCH   5   6
ATOM      6  C   UNL     1      -3.206  13.601 -15.004  1.00  0.00    -0.028 C 
ATOM      7  C   UNL     1      -3.232  15.787 -16.131  1.00  0.00     0.039 C 
ATOM      8  C   UNL     1      -3.435  14.294 -16.140  1.00  0.00    -0.080 C 
ATOM      9  C   UNL     1      -3.885  13.608 -17.408  1.00  0.00     0.039 C 
ENDBRANCH   5   6
ENDBRANCH   4   5
ENDBRANCH   1   4
BRANCH   2  10
ATOM     10  C   UNL     1      -6.184  13.266 -11.089  1.00  0.00     0.183 C 
BRANCH  10  11
ATOM     11  O   UNL     1      -5.554  14.485 -10.804  1.00  0.00    -0.392 OA
ATOM     12  H   UNL     1      -4.578  14.303 -10.788  1.00  0.00     0.210 HD
ENDBRANCH  10  11
ENDBRANCH   2  10
TORSDOF 5
ENDMDL
