MODEL 1
REMARK VINA RESULT:    -5.095      0.000      0.000
REMARK INTER + INTRA:          -6.271
REMARK INTER:                  -5.988
REMARK INTRA:                  -0.283
REMARK UNBOUND:                -0.283
REMARK SMILES O=c1c(O)c(-c2ccc(O)c(O)c2)oc2cc(O)ccc12
REMARK SMILES IDX 5 1 3 2 2 3 1 4 21 5 15 6 14 7 16 8 17 9 19 10 20 11 6 12
REMARK SMILES IDX 7 13 8 14 9 15 13 16 11 17 10 18 12 20 4 22 18 24
REMARK H PARENT 10 19 12 21 4 23 18 25
REMARK Flexibility Score: inf
ROOT
ATOM      1  C   UNL     1      13.631  55.841  20.132  1.00  0.00     0.180 A 
ATOM      2  C   UNL     1      13.258  55.546  21.460  1.00  0.00     0.208 A 
ATOM      3  C   UNL     1      14.143  54.812  22.263  1.00  0.00     0.235 A 
ATOM      4  O   UNL     1      13.836  54.544  23.458  1.00  0.00    -0.285 OA
ATOM      5  C   UNL     1      15.362  54.373  21.725  1.00  0.00     0.069 A 
ATOM      6  C   UNL     1      15.652  54.689  20.380  1.00  0.00     0.142 A 
ATOM      7  O   UNL     1      14.791  55.395  19.654  1.00  0.00    -0.452 OA
ATOM      8  C   UNL     1      16.853  54.262  19.803  1.00  0.00     0.094 A 
ATOM      9  C   UNL     1      17.773  53.522  20.554  1.00  0.00     0.119 A 
ATOM     10  C   UNL     1      17.489  53.208  21.890  1.00  0.00     0.047 A 
ATOM     11  C   UNL     1      16.292  53.629  22.475  1.00  0.00     0.020 A 
ENDROOT
BRANCH   1  12
ATOM     12  C   UNL     1      12.760  56.627  19.226  1.00  0.00     0.025 A 
ATOM     13  C   UNL     1      13.023  57.981  18.952  1.00  0.00     0.016 A 
ATOM     14  C   UNL     1      12.202  58.695  18.076  1.00  0.00     0.051 A 
ATOM     15  C   UNL     1      11.116  58.065  17.452  1.00  0.00     0.157 A 
ATOM     16  C   UNL     1      11.684  55.995  18.583  1.00  0.00     0.062 A 
ATOM     17  C   UNL     1      10.859  56.712  17.703  1.00  0.00     0.158 A 
BRANCH  15  18
ATOM     18  O   UNL     1      10.295  58.776  16.579  1.00  0.00    -0.504 OA
ATOM     19  H   UNL     1       9.596  58.310  16.012  1.00  0.00     0.293 HD
ENDBRANCH  15  18
BRANCH  17  20
ATOM     20  O   UNL     1       9.784  56.086  17.076  1.00  0.00    -0.504 OA
ATOM     21  H   UNL     1       9.042  56.620  16.637  1.00  0.00     0.293 HD
ENDBRANCH  17  20
ENDBRANCH   1  12
BRANCH   2  22
ATOM     22  O   UNL     1      12.015  55.953  21.953  1.00  0.00    -0.502 OA
ATOM     23  H   UNL     1      11.663  56.893  21.823  1.00  0.00     0.293 HD
ENDBRANCH   2  22
BRANCH   9  24
ATOM     24  O   UNL     1      18.964  53.105  19.964  1.00  0.00    -0.508 OA
ATOM     25  H   UNL     1      19.401  52.227  20.218  1.00  0.00     0.293 HD
ENDBRANCH   9  24
TORSDOF 5
ENDMDL
MODEL 2
REMARK VINA RESULT:    -5.063      1.873      6.828
REMARK INTER + INTRA:          -6.233
REMARK INTER:                  -6.001
REMARK INTRA:                  -0.232
REMARK UNBOUND:                -0.283
REMARK SMILES O=c1c(O)c(-c2ccc(O)c(O)c2)oc2cc(O)ccc12
REMARK SMILES IDX 5 1 3 2 2 3 1 4 21 5 15 6 14 7 16 8 17 9 19 10 20 11 6 12
REMARK SMILES IDX 7 13 8 14 9 15 13 16 11 17 10 18 12 20 4 22 18 24
REMARK H PARENT 10 19 12 21 4 23 18 25
REMARK Flexibility Score: inf
ROOT
ATOM      1  C   UNL     1      14.280  55.921  20.373  1.00  0.00     0.180 A 
ATOM      2  C   UNL     1      15.023  56.950  19.758  1.00  0.00     0.208 A 
ATOM      3  C   UNL     1      14.457  57.640  18.676  1.00  0.00     0.235 A 
ATOM      4  O   UNL     1      15.098  58.570  18.116  1.00  0.00    -0.285 OA
ATOM      5  C   UNL     1      13.179  57.280  18.220  1.00  0.00     0.069 A 
ATOM      6  C   UNL     1      12.509  56.223  18.874  1.00  0.00     0.142 A 
ATOM      7  O   UNL     1      13.076  55.601  19.902  1.00  0.00    -0.452 OA
ATOM      8  C   UNL     1      11.238  55.828  18.444  1.00  0.00     0.094 A 
ATOM      9  C   UNL     1      10.623  56.476  17.367  1.00  0.00     0.119 A 
ATOM     10  C   UNL     1      11.286  57.526  16.716  1.00  0.00     0.047 A 
ATOM     11  C   UNL     1      12.556  57.927  17.137  1.00  0.00     0.020 A 
ENDROOT
BRANCH   1  12
ATOM     12  C   UNL     1      14.800  55.159  21.532  1.00  0.00     0.025 A 
ATOM     13  C   UNL     1      14.948  55.758  22.795  1.00  0.00     0.016 A 
ATOM     14  C   UNL     1      15.418  55.013  23.880  1.00  0.00     0.051 A 
ATOM     15  C   UNL     1      15.735  53.657  23.721  1.00  0.00     0.157 A 
ATOM     16  C   UNL     1      15.099  53.795  21.384  1.00  0.00     0.062 A 
ATOM     17  C   UNL     1      15.571  53.046  22.471  1.00  0.00     0.158 A 
BRANCH  15  18
ATOM     18  O   UNL     1      16.205  52.911  24.800  1.00  0.00    -0.504 OA
ATOM     19  H   UNL     1      17.072  52.389  24.746  1.00  0.00     0.293 HD
ENDBRANCH  15  18
BRANCH  17  20
ATOM     20  O   UNL     1      15.880  51.696  22.318  1.00  0.00    -0.504 OA
ATOM     21  H   UNL     1      16.812  51.390  22.064  1.00  0.00     0.293 HD
ENDBRANCH  17  20
ENDBRANCH   1  12
BRANCH   2  22
ATOM     22  O   UNL     1      16.313  57.253  20.202  1.00  0.00    -0.502 OA
ATOM     23  H   UNL     1      16.607  58.200  20.406  1.00  0.00     0.293 HD
ENDBRANCH   2  22
BRANCH   9  24
ATOM     24  O   UNL     1       9.358  56.070  16.952  1.00  0.00    -0.508 OA
ATOM     25  H   UNL     1       9.227  55.531  16.104  1.00  0.00     0.293 HD
ENDBRANCH   9  24
TORSDOF 5
ENDMDL
MODEL 3
REMARK VINA RESULT:    -5.027      3.782      6.997
REMARK INTER + INTRA:          -6.191
REMARK INTER:                  -5.873
REMARK INTRA:                  -0.318
REMARK UNBOUND:                -0.283
REMARK SMILES O=c1c(O)c(-c2ccc(O)c(O)c2)oc2cc(O)ccc12
REMARK SMILES IDX 5 1 3 2 2 3 1 4 21 5 15 6 14 7 16 8 17 9 19 10 20 11 6 12
REMARK SMILES IDX 7 13 8 14 9 15 13 16 11 17 10 18 12 20 4 22 18 24
REMARK H PARENT 10 19 12 21 4 23 18 25
REMARK Flexibility Score: inf
ROOT
ATOM      1  C   UNL     1      14.652  58.022  17.542  1.00  0.00     0.180 A 
ATOM      2  C   UNL     1      14.910  59.378  17.827  1.00  0.00     0.208 A 
ATOM      3  C   UNL     1      15.049  60.279  16.761  1.00  0.00     0.235 A 
ATOM      4  O   UNL     1      15.270  61.500  16.990  1.00  0.00    -0.285 OA
ATOM      5  C   UNL     1      14.948  59.809  15.442  1.00  0.00     0.069 A 
ATOM      6  C   UNL     1      14.712  58.432  15.239  1.00  0.00     0.142 A 
ATOM      7  O   UNL     1      14.577  57.613  16.277  1.00  0.00    -0.452 OA
ATOM      8  C   UNL     1      14.614  57.923  13.940  1.00  0.00     0.094 A 
ATOM      9  C   UNL     1      14.748  58.772  12.836  1.00  0.00     0.119 A 
ATOM     10  C   UNL     1      14.982  60.140  13.035  1.00  0.00     0.047 A 
ATOM     11  C   UNL     1      15.082  60.658  14.328  1.00  0.00     0.020 A 
ENDROOT
BRANCH   1  12
ATOM     12  C   UNL     1      14.474  57.013  18.612  1.00  0.00     0.025 A 
ATOM     13  C   UNL     1      15.570  56.314  19.148  1.00  0.00     0.016 A 
ATOM     14  C   UNL     1      15.380  55.384  20.174  1.00  0.00     0.051 A 
ATOM     15  C   UNL     1      14.098  55.148  20.686  1.00  0.00     0.157 A 
ATOM     16  C   UNL     1      13.194  56.788  19.143  1.00  0.00     0.062 A 
ATOM     17  C   UNL     1      13.003  55.854  20.172  1.00  0.00     0.158 A 
BRANCH  15  18
ATOM     18  O   UNL     1      13.906  54.221  21.708  1.00  0.00    -0.504 OA
ATOM     19  H   UNL     1      13.497  54.487  22.596  1.00  0.00     0.293 HD
ENDBRANCH  15  18
BRANCH  17  20
ATOM     20  O   UNL     1      11.729  55.624  20.689  1.00  0.00    -0.504 OA
ATOM     21  H   UNL     1      11.402  54.687  20.894  1.00  0.00     0.293 HD
ENDBRANCH  17  20
ENDBRANCH   1  12
BRANCH   2  22
ATOM     22  O   UNL     1      15.055  59.809  19.149  1.00  0.00    -0.502 OA
ATOM     23  H   UNL     1      15.918  59.693  19.665  1.00  0.00     0.293 HD
ENDBRANCH   2  22
BRANCH   9  24
ATOM     24  O   UNL     1      14.648  58.247  11.550  1.00  0.00    -0.508 OA
ATOM     25  H   UNL     1      14.560  57.251  11.390  1.00  0.00     0.293 HD
ENDBRANCH   9  24
TORSDOF 5
ENDMDL
MODEL 4
REMARK VINA RESULT:    -5.024      2.359      6.276
REMARK INTER + INTRA:          -6.188
REMARK INTER:                  -5.896
REMARK INTRA:                  -0.292
REMARK UNBOUND:                -0.283
REMARK SMILES O=c1c(O)c(-c2ccc(O)c(O)c2)oc2cc(O)ccc12
REMARK SMILES IDX 5 1 3 2 2 3 1 4 21 5 15 6 14 7 16 8 17 9 19 10 20 11 6 12
REMARK SMILES IDX 7 13 8 14 9 15 13 16 11 17 10 18 12 20 4 22 18 24
REMARK H PARENT 10 19 12 21 4 23 18 25
REMARK Flexibility Score: inf
ROOT
ATOM      1  C   UNL     1      14.126  55.965  19.880  1.00  0.00     0.180 A 
ATOM      2  C   UNL     1      12.743  56.034  19.613  1.00  0.00     0.208 A 
ATOM      3  C   UNL     1      12.308  56.719  18.469  1.00  0.00     0.235 A 
ATOM      4  O   UNL     1      11.077  56.786  18.203  1.00  0.00    -0.285 OA
ATOM      5  C   UNL     1      13.252  57.334  17.632  1.00  0.00     0.069 A 
ATOM      6  C   UNL     1      14.617  57.240  17.980  1.00  0.00     0.142 A 
ATOM      7  O   UNL     1      14.989  56.573  19.068  1.00  0.00    -0.452 OA
ATOM      8  C   UNL     1      15.588  57.847  17.177  1.00  0.00     0.094 A 
ATOM      9  C   UNL     1      15.214  58.548  16.025  1.00  0.00     0.119 A 
ATOM     10  C   UNL     1      13.860  58.643  15.676  1.00  0.00     0.047 A 
ATOM     11  C   UNL     1      12.883  58.041  16.473  1.00  0.00     0.020 A 
ENDROOT
BRANCH   1  12
ATOM     12  C   UNL     1      14.666  55.244  21.056  1.00  0.00     0.025 A 
ATOM     13  C   UNL     1      15.001  55.924  22.241  1.00  0.00     0.016 A 
ATOM     14  C   UNL     1      15.485  55.219  23.346  1.00  0.00     0.051 A 
ATOM     15  C   UNL     1      15.630  53.827  23.288  1.00  0.00     0.157 A 
ATOM     16  C   UNL     1      14.793  53.847  21.011  1.00  0.00     0.062 A 
ATOM     17  C   UNL     1      15.280  53.139  22.120  1.00  0.00     0.158 A 
BRANCH  15  18
ATOM     18  O   UNL     1      16.115  53.122  24.388  1.00  0.00    -0.504 OA
ATOM     19  H   UNL     1      15.652  53.161  25.289  1.00  0.00     0.293 HD
ENDBRANCH  15  18
BRANCH  17  20
ATOM     20  O   UNL     1      15.418  51.753  22.068  1.00  0.00    -0.504 OA
ATOM     21  H   UNL     1      15.870  51.237  22.814  1.00  0.00     0.293 HD
ENDBRANCH  17  20
ENDBRANCH   1  12
BRANCH   2  22
ATOM     22  O   UNL     1      11.823  55.454  20.491  1.00  0.00    -0.502 OA
ATOM     23  H   UNL     1      12.110  54.892  21.283  1.00  0.00     0.293 HD
ENDBRANCH   2  22
BRANCH   9  24
ATOM     24  O   UNL     1      16.194  59.146  15.237  1.00  0.00    -0.508 OA
ATOM     25  H   UNL     1      16.906  58.596  14.769  1.00  0.00     0.293 HD
ENDBRANCH   9  24
TORSDOF 5
ENDMDL
MODEL 5
REMARK VINA RESULT:    -5.016      4.358      5.955
REMARK INTER + INTRA:          -6.179
REMARK INTER:                  -5.862
REMARK INTRA:                  -0.317
REMARK UNBOUND:                -0.283
REMARK SMILES O=c1c(O)c(-c2ccc(O)c(O)c2)oc2cc(O)ccc12
REMARK SMILES IDX 5 1 3 2 2 3 1 4 21 5 15 6 14 7 16 8 17 9 19 10 20 11 6 12
REMARK SMILES IDX 7 13 8 14 9 15 13 16 11 17 10 18 12 20 4 22 18 24
REMARK H PARENT 10 19 12 21 4 23 18 25
REMARK Flexibility Score: inf
ROOT
ATOM      1  C   UNL     1      15.324  58.329  16.229  1.00  0.00     0.180 A 
ATOM      2  C   UNL     1      16.595  58.010  16.749  1.00  0.00     0.208 A 
ATOM      3  C   UNL     1      16.673  57.274  17.940  1.00  0.00     0.235 A 
ATOM      4  O   UNL     1      17.799  56.967  18.420  1.00  0.00    -0.285 OA
ATOM      5  C   UNL     1      15.492  56.891  18.594  1.00  0.00     0.069 A 
ATOM      6  C   UNL     1      14.258  57.270  18.022  1.00  0.00     0.142 A 
ATOM      7  O   UNL     1      14.227  57.959  16.886  1.00  0.00    -0.452 OA
ATOM      8  C   UNL     1      13.058  56.916  18.648  1.00  0.00     0.094 A 
ATOM      9  C   UNL     1      13.073  56.185  19.841  1.00  0.00     0.119 A 
ATOM     10  C   UNL     1      14.296  55.807  20.411  1.00  0.00     0.047 A 
ATOM     11  C   UNL     1      15.500  56.157  19.794  1.00  0.00     0.020 A 
ENDROOT
BRANCH   1  12
ATOM     12  C   UNL     1      15.157  59.087  14.966  1.00  0.00     0.025 A 
ATOM     13  C   UNL     1      15.127  60.492  14.955  1.00  0.00     0.016 A 
ATOM     14  C   UNL     1      14.993  61.185  13.749  1.00  0.00     0.051 A 
ATOM     15  C   UNL     1      14.900  60.486  12.539  1.00  0.00     0.157 A 
ATOM     16  C   UNL     1      15.085  58.392  13.748  1.00  0.00     0.062 A 
ATOM     17  C   UNL     1      14.950  59.087  12.538  1.00  0.00     0.158 A 
BRANCH  15  18
ATOM     18  O   UNL     1      14.765  61.175  11.335  1.00  0.00    -0.504 OA
ATOM     19  H   UNL     1      15.209  62.073  11.185  1.00  0.00     0.293 HD
ENDBRANCH  15  18
BRANCH  17  20
ATOM     20  O   UNL     1      14.865  58.394  11.332  1.00  0.00    -0.504 OA
ATOM     21  H   UNL     1      14.354  58.768  10.540  1.00  0.00     0.293 HD
ENDBRANCH  17  20
ENDBRANCH   1  12
BRANCH   2  22
ATOM     22  O   UNL     1      17.754  58.447  16.102  1.00  0.00    -0.502 OA
ATOM     23  H   UNL     1      18.636  57.956  16.180  1.00  0.00     0.293 HD
ENDBRANCH   2  22
BRANCH   9  24
ATOM     24  O   UNL     1      11.869  55.841  20.451  1.00  0.00    -0.508 OA
ATOM     25  H   UNL     1      11.426  54.946  20.281  1.00  0.00     0.293 HD
ENDBRANCH   9  24
TORSDOF 5
ENDMDL
MODEL 6
REMARK VINA RESULT:    -4.921      3.949      5.080
REMARK INTER + INTRA:          -6.067
REMARK INTER:                  -5.748
REMARK INTRA:                  -0.320
REMARK UNBOUND:                -0.283
REMARK SMILES O=c1c(O)c(-c2ccc(O)c(O)c2)oc2cc(O)ccc12
REMARK SMILES IDX 5 1 3 2 2 3 1 4 21 5 15 6 14 7 16 8 17 9 19 10 20 11 6 12
REMARK SMILES IDX 7 13 8 14 9 15 13 16 11 17 10 18 12 20 4 22 18 24
REMARK H PARENT 10 19 12 21 4 23 18 25
REMARK Flexibility Score: inf
ROOT
ATOM      1  C   UNL     1      14.417  58.155  16.451  1.00  0.00     0.180 A 
ATOM      2  C   UNL     1      13.150  57.872  17.004  1.00  0.00     0.208 A 
ATOM      3  C   UNL     1      13.084  57.210  18.239  1.00  0.00     0.235 A 
ATOM      4  O   UNL     1      11.962  56.955  18.758  1.00  0.00    -0.285 OA
ATOM      5  C   UNL     1      14.271  56.829  18.883  1.00  0.00     0.069 A 
ATOM      6  C   UNL     1      15.499  57.128  18.254  1.00  0.00     0.142 A 
ATOM      7  O   UNL     1      15.519  57.765  17.087  1.00  0.00    -0.452 OA
ATOM      8  C   UNL     1      16.704  56.756  18.859  1.00  0.00     0.094 A 
ATOM      9  C   UNL     1      16.701  56.090  20.089  1.00  0.00     0.119 A 
ATOM     10  C   UNL     1      15.483  55.793  20.716  1.00  0.00     0.047 A 
ATOM     11  C   UNL     1      14.274  56.158  20.120  1.00  0.00     0.020 A 
ENDROOT
BRANCH   1  12
ATOM     12  C   UNL     1      14.572  58.868  15.162  1.00  0.00     0.025 A 
ATOM     13  C   UNL     1      14.548  60.272  15.094  1.00  0.00     0.016 A 
ATOM     14  C   UNL     1      14.721  60.922  13.869  1.00  0.00     0.051 A 
ATOM     15  C   UNL     1      14.930  60.180  12.698  1.00  0.00     0.157 A 
ATOM     16  C   UNL     1      14.803  58.130  13.989  1.00  0.00     0.062 A 
ATOM     17  C   UNL     1      14.975  58.782  12.759  1.00  0.00     0.158 A 
BRANCH  15  18
ATOM     18  O   UNL     1      15.101  60.826  11.475  1.00  0.00    -0.504 OA
ATOM     19  H   UNL     1      15.783  60.507  10.798  1.00  0.00     0.293 HD
ENDBRANCH  15  18
BRANCH  17  20
ATOM     20  O   UNL     1      15.191  58.047  11.595  1.00  0.00    -0.504 OA
ATOM     21  H   UNL     1      14.680  57.193  11.404  1.00  0.00     0.293 HD
ENDBRANCH  17  20
ENDBRANCH   1  12
BRANCH   2  22
ATOM     22  O   UNL     1      11.985  58.220  16.316  1.00  0.00    -0.502 OA
ATOM     23  H   UNL     1      11.820  59.156  15.968  1.00  0.00     0.293 HD
ENDBRANCH   2  22
BRANCH   9  24
ATOM     24  O   UNL     1      17.910  55.728  20.677  1.00  0.00    -0.508 OA
ATOM     25  H   UNL     1      17.955  55.022  21.403  1.00  0.00     0.293 HD
ENDBRANCH   9  24
TORSDOF 5
ENDMDL
MODEL 7
REMARK VINA RESULT:    -4.589      1.793      3.024
REMARK INTER + INTRA:          -5.677
REMARK INTER:                  -5.479
REMARK INTRA:                  -0.198
REMARK UNBOUND:                -0.283
REMARK SMILES O=c1c(O)c(-c2ccc(O)c(O)c2)oc2cc(O)ccc12
REMARK SMILES IDX 5 1 3 2 2 3 1 4 21 5 15 6 14 7 16 8 17 9 19 10 20 11 6 12
REMARK SMILES IDX 7 13 8 14 9 15 13 16 11 17 10 18 12 20 4 22 18 24
REMARK H PARENT 10 19 12 21 4 23 18 25
REMARK Flexibility Score: inf
ROOT
ATOM      1  C   UNL     1      14.701  56.697  19.104  1.00  0.00     0.180 A 
ATOM      2  C   UNL     1      16.022  56.856  18.636  1.00  0.00     0.208 A 
ATOM      3  C   UNL     1      16.982  55.892  18.980  1.00  0.00     0.235 A 
ATOM      4  O   UNL     1      18.168  56.007  18.565  1.00  0.00    -0.285 OA
ATOM      5  C   UNL     1      16.613  54.810  19.794  1.00  0.00     0.069 A 
ATOM      6  C   UNL     1      15.276  54.735  20.242  1.00  0.00     0.142 A 
ATOM      7  O   UNL     1      14.395  55.663  19.886  1.00  0.00    -0.452 OA
ATOM      8  C   UNL     1      14.872  53.677  21.063  1.00  0.00     0.094 A 
ATOM      9  C   UNL     1      15.786  52.688  21.443  1.00  0.00     0.119 A 
ATOM     10  C   UNL     1      17.113  52.760  20.999  1.00  0.00     0.047 A 
ATOM     11  C   UNL     1      17.528  53.813  20.180  1.00  0.00     0.020 A 
ENDROOT
BRANCH   1  12
ATOM     12  C   UNL     1      13.626  57.660  18.769  1.00  0.00     0.025 A 
ATOM     13  C   UNL     1      13.634  58.971  19.276  1.00  0.00     0.016 A 
ATOM     14  C   UNL     1      12.622  59.869  18.927  1.00  0.00     0.051 A 
ATOM     15  C   UNL     1      11.596  59.474  18.058  1.00  0.00     0.157 A 
ATOM     16  C   UNL     1      12.607  57.276  17.882  1.00  0.00     0.062 A 
ATOM     17  C   UNL     1      11.591  58.177  17.532  1.00  0.00     0.158 A 
BRANCH  15  18
ATOM     18  O   UNL     1      10.585  60.367  17.709  1.00  0.00    -0.504 OA
ATOM     19  H   UNL     1      10.071  60.887  18.411  1.00  0.00     0.293 HD
ENDBRANCH  15  18
BRANCH  17  20
ATOM     20  O   UNL     1      10.574  57.789  16.661  1.00  0.00    -0.504 OA
ATOM     21  H   UNL     1       9.874  58.447  16.337  1.00  0.00     0.293 HD
ENDBRANCH  17  20
ENDBRANCH   1  12
BRANCH   2  22
ATOM     22  O   UNL     1      16.371  57.970  17.868  1.00  0.00    -0.502 OA
ATOM     23  H   UNL     1      16.486  58.891  18.271  1.00  0.00     0.293 HD
ENDBRANCH   2  22
BRANCH   9  24
ATOM     24  O   UNL     1      15.365  51.642  22.260  1.00  0.00    -0.508 OA
ATOM     25  H   UNL     1      16.017  50.951  22.612  1.00  0.00     0.293 HD
ENDBRANCH   9  24
TORSDOF 5
ENDMDL
MODEL 8
REMARK VINA RESULT:    -4.411      3.287      3.845
REMARK INTER + INTRA:          -5.468
REMARK INTER:                  -5.157
REMARK INTRA:                  -0.311
REMARK UNBOUND:                -0.283
REMARK SMILES O=c1c(O)c(-c2ccc(O)c(O)c2)oc2cc(O)ccc12
REMARK SMILES IDX 5 1 3 2 2 3 1 4 21 5 15 6 14 7 16 8 17 9 19 10 20 11 6 12
REMARK SMILES IDX 7 13 8 14 9 15 13 16 11 17 10 18 12 20 4 22 18 24
REMARK H PARENT 10 19 12 21 4 23 18 25
REMARK Flexibility Score: inf
ROOT
ATOM      1  C   UNL     1      15.589  56.719  18.777  1.00  0.00     0.180 A 
ATOM      2  C   UNL     1      14.301  56.637  19.346  1.00  0.00     0.208 A 
ATOM      3  C   UNL     1      14.018  55.585  20.230  1.00  0.00     0.235 A 
ATOM      4  O   UNL     1      12.876  55.497  20.760  1.00  0.00    -0.285 OA
ATOM      5  C   UNL     1      15.009  54.632  20.509  1.00  0.00     0.069 A 
ATOM      6  C   UNL     1      16.266  54.770  19.881  1.00  0.00     0.142 A 
ATOM      7  O   UNL     1      16.497  55.787  19.057  1.00  0.00    -0.452 OA
ATOM      8  C   UNL     1      17.277  53.835  20.126  1.00  0.00     0.094 A 
ATOM      9  C   UNL     1      17.052  52.762  20.994  1.00  0.00     0.119 A 
ATOM     10  C   UNL     1      15.806  52.623  21.620  1.00  0.00     0.047 A 
ATOM     11  C   UNL     1      14.788  53.550  21.381  1.00  0.00     0.020 A 
ENDROOT
BRANCH   1  12
ATOM     12  C   UNL     1      15.972  57.809  17.850  1.00  0.00     0.025 A 
ATOM     13  C   UNL     1      16.648  58.954  18.307  1.00  0.00     0.016 A 
ATOM     14  C   UNL     1      17.021  59.959  17.410  1.00  0.00     0.051 A 
ATOM     15  C   UNL     1      16.734  59.829  16.045  1.00  0.00     0.157 A 
ATOM     16  C   UNL     1      15.706  57.675  16.478  1.00  0.00     0.062 A 
ATOM     17  C   UNL     1      16.079  58.683  15.578  1.00  0.00     0.158 A 
BRANCH  15  18
ATOM     18  O   UNL     1      17.103  60.830  15.149  1.00  0.00    -0.504 OA
ATOM     19  H   UNL     1      16.900  60.757  14.159  1.00  0.00     0.293 HD
ENDBRANCH  15  18
BRANCH  17  20
ATOM     20  O   UNL     1      15.802  58.553  14.218  1.00  0.00    -0.504 OA
ATOM     21  H   UNL     1      16.339  57.931  13.625  1.00  0.00     0.293 HD
ENDBRANCH  17  20
ENDBRANCH   1  12
BRANCH   2  22
ATOM     22  O   UNL     1      13.318  57.573  19.011  1.00  0.00    -0.502 OA
ATOM     23  H   UNL     1      12.706  57.986  19.703  1.00  0.00     0.293 HD
ENDBRANCH   2  22
BRANCH   9  24
ATOM     24  O   UNL     1      18.070  51.841  21.227  1.00  0.00    -0.508 OA
ATOM     25  H   UNL     1      18.960  52.124  21.620  1.00  0.00     0.293 HD
ENDBRANCH   9  24
TORSDOF 5
ENDMDL
MODEL 9
REMARK VINA RESULT:    -4.273      1.825      6.702
REMARK INTER + INTRA:          -5.305
REMARK INTER:                  -5.016
REMARK INTRA:                  -0.289
REMARK UNBOUND:                -0.283
REMARK SMILES O=c1c(O)c(-c2ccc(O)c(O)c2)oc2cc(O)ccc12
REMARK SMILES IDX 5 1 3 2 2 3 1 4 21 5 15 6 14 7 16 8 17 9 19 10 20 11 6 12
REMARK SMILES IDX 7 13 8 14 9 15 13 16 11 17 10 18 12 20 4 22 18 24
REMARK H PARENT 10 19 12 21 4 23 18 25
REMARK Flexibility Score: inf
ROOT
ATOM      1  C   UNL     1      14.959  56.154  20.032  1.00  0.00     0.180 A 
ATOM      2  C   UNL     1      15.181  57.351  20.743  1.00  0.00     0.208 A 
ATOM      3  C   UNL     1      14.362  58.458  20.474  1.00  0.00     0.235 A 
ATOM      4  O   UNL     1      14.534  59.538  21.104  1.00  0.00    -0.285 OA
ATOM      5  C   UNL     1      13.362  58.357  19.495  1.00  0.00     0.069 A 
ATOM      6  C   UNL     1      13.219  57.130  18.810  1.00  0.00     0.142 A 
ATOM      7  O   UNL     1      14.008  56.101  19.101  1.00  0.00    -0.452 OA
ATOM      8  C   UNL     1      12.240  56.991  17.821  1.00  0.00     0.094 A 
ATOM      9  C   UNL     1      11.397  58.062  17.506  1.00  0.00     0.119 A 
ATOM     10  C   UNL     1      11.536  59.281  18.185  1.00  0.00     0.047 A 
ATOM     11  C   UNL     1      12.511  59.430  19.174  1.00  0.00     0.020 A 
ENDROOT
BRANCH   1  12
ATOM     12  C   UNL     1      15.767  54.935  20.271  1.00  0.00     0.025 A 
ATOM     13  C   UNL     1      17.047  54.784  19.710  1.00  0.00     0.016 A 
ATOM     14  C   UNL     1      17.801  53.636  19.970  1.00  0.00     0.051 A 
ATOM     15  C   UNL     1      17.292  52.631  20.802  1.00  0.00     0.157 A 
ATOM     16  C   UNL     1      15.272  53.934  21.122  1.00  0.00     0.062 A 
ATOM     17  C   UNL     1      16.027  52.782  21.383  1.00  0.00     0.158 A 
BRANCH  15  18
ATOM     18  O   UNL     1      18.041  51.484  21.062  1.00  0.00    -0.504 OA
ATOM     19  H   UNL     1      17.601  50.579  21.177  1.00  0.00     0.293 HD
ENDBRANCH  15  18
BRANCH  17  20
ATOM     20  O   UNL     1      15.527  51.784  22.217  1.00  0.00    -0.504 OA
ATOM     21  H   UNL     1      16.037  51.474  23.037  1.00  0.00     0.293 HD
ENDBRANCH  17  20
ENDBRANCH   1  12
BRANCH   2  22
ATOM     22  O   UNL     1      16.217  57.439  21.677  1.00  0.00    -0.502 OA
ATOM     23  H   UNL     1      16.764  58.281  21.801  1.00  0.00     0.293 HD
ENDBRANCH   2  22
BRANCH   9  24
ATOM     24  O   UNL     1      10.427  57.906  16.518  1.00  0.00    -0.508 OA
ATOM     25  H   UNL     1      10.532  57.222  15.778  1.00  0.00     0.293 HD
ENDBRANCH   9  24
TORSDOF 5
ENDMDL
