MODEL 1
REMARK VINA RESULT:    -3.352      0.000      0.000
REMARK INTER + INTRA:          -3.992
REMARK INTER:                  -3.940
REMARK INTRA:                  -0.052
REMARK UNBOUND:                -0.052
REMARK SMILES CCCCC(=O)[O-]
REMARK SMILES IDX 4 1 5 2 6 3 7 4 3 5 2 6 1 7
REMARK H PARENT
REMARK Flexibility Score: inf
ROOT
ATOM      1  C   UNL     1       5.106 -35.003  20.453  1.00  0.00     0.053 C 
ENDROOT
BRANCH   1   2
ATOM      2  C   UNL     1       4.890 -36.403  19.966  1.00  0.00     0.041 C 
ATOM      3  O   UNL     1       5.393 -37.375  20.587  1.00  0.00    -0.550 OA
ATOM      4  O   UNL     1       4.161 -36.630  18.805  1.00  0.00    -0.550 OA
ENDBRANCH   1   2
BRANCH   1   5
ATOM      5  C   UNL     1       6.075 -34.956  21.642  1.00  0.00     0.006 C 
BRANCH   5   6
ATOM      6  C   UNL     1       5.379 -34.529  22.942  1.00  0.00    -0.003 C 
ATOM      7  C   UNL     1       6.125 -35.055  24.165  1.00  0.00     0.004 C 
ENDBRANCH   5   6
ENDBRANCH   1   5
TORSDOF 3
ENDMDL
MODEL 2
REMARK VINA RESULT:    -3.339      4.152      6.146
REMARK INTER + INTRA:          -3.977
REMARK INTER:                  -3.943
REMARK INTRA:                  -0.034
REMARK UNBOUND:                -0.052
REMARK SMILES CCCCC(=O)[O-]
REMARK SMILES IDX 4 1 5 2 6 3 7 4 3 5 2 6 1 7
REMARK H PARENT
REMARK Flexibility Score: inf
ROOT
ATOM      1  C   UNL     1       3.506 -36.448  17.016  1.00  0.00     0.053 C 
ENDROOT
BRANCH   1   2
ATOM      2  C   UNL     1       3.090 -36.802  18.410  1.00  0.00     0.041 C 
ATOM      3  O   UNL     1       1.924 -37.220  18.636  1.00  0.00    -0.550 OA
ATOM      4  O   UNL     1       3.979 -36.636  19.465  1.00  0.00    -0.550 OA
ENDBRANCH   1   2
BRANCH   1   5
ATOM      5  C   UNL     1       2.309 -36.036  16.149  1.00  0.00     0.006 C 
BRANCH   5   6
ATOM      6  C   UNL     1       2.721 -35.705  14.708  1.00  0.00    -0.003 C 
ATOM      7  C   UNL     1       3.968 -36.484  14.298  1.00  0.00     0.004 C 
ENDBRANCH   5   6
ENDBRANCH   1   5
TORSDOF 3
ENDMDL
MODEL 3
REMARK VINA RESULT:    -3.279      1.550      2.052
REMARK INTER + INTRA:          -3.906
REMARK INTER:                  -3.891
REMARK INTRA:                  -0.015
REMARK UNBOUND:                -0.052
REMARK SMILES CCCCC(=O)[O-]
REMARK SMILES IDX 4 1 5 2 6 3 7 4 3 5 2 6 1 7
REMARK H PARENT
REMARK Flexibility Score: inf
ROOT
ATOM      1  C   UNL     1       4.718 -36.596  19.710  1.00  0.00     0.053 C 
ENDROOT
BRANCH   1   2
ATOM      2  C   UNL     1       3.522 -36.772  18.826  1.00  0.00     0.041 C 
ATOM      3  O   UNL     1       2.411 -37.100  19.320  1.00  0.00    -0.550 OA
ATOM      4  O   UNL     1       3.642 -36.606  17.452  1.00  0.00    -0.550 OA
ENDBRANCH   1   2
BRANCH   1   5
ATOM      5  C   UNL     1       4.727 -35.222  20.392  1.00  0.00     0.006 C 
BRANCH   5   6
ATOM      6  C   UNL     1       6.079 -34.908  21.049  1.00  0.00    -0.003 C 
ATOM      7  C   UNL     1       6.014 -35.099  22.561  1.00  0.00     0.004 C 
ENDBRANCH   5   6
ENDBRANCH   1   5
TORSDOF 3
ENDMDL
MODEL 4
REMARK VINA RESULT:    -2.956      3.141      4.307
REMARK INTER + INTRA:          -3.527
REMARK INTER:                  -3.511
REMARK INTRA:                  -0.016
REMARK UNBOUND:                -0.052
REMARK SMILES CCCCC(=O)[O-]
REMARK SMILES IDX 4 1 5 2 6 3 7 4 3 5 2 6 1 7
REMARK H PARENT
REMARK Flexibility Score: inf
ROOT
ATOM      1  C   UNL     1       2.981 -36.750  17.611  1.00  0.00     0.053 C 
ENDROOT
BRANCH   1   2
ATOM      2  C   UNL     1       2.921 -36.357  16.167  1.00  0.00     0.041 C 
ATOM      3  O   UNL     1       2.099 -35.485  15.782  1.00  0.00    -0.550 OA
ATOM      4  O   UNL     1       3.749 -36.979  15.242  1.00  0.00    -0.550 OA
ENDBRANCH   1   2
BRANCH   1   5
ATOM      5  C   UNL     1       4.217 -36.168  18.310  1.00  0.00     0.006 C 
BRANCH   5   6
ATOM      6  C   UNL     1       4.268 -36.533  19.801  1.00  0.00    -0.003 C 
ATOM      7  C   UNL     1       5.304 -35.690  20.539  1.00  0.00     0.004 C 
ENDBRANCH   5   6
ENDBRANCH   1   5
TORSDOF 3
ENDMDL
MODEL 5
REMARK VINA RESULT:    -2.954      3.157      5.301
REMARK INTER + INTRA:          -3.525
REMARK INTER:                  -3.508
REMARK INTRA:                  -0.016
REMARK UNBOUND:                -0.052
REMARK SMILES CCCCC(=O)[O-]
REMARK SMILES IDX 4 1 5 2 6 3 7 4 3 5 2 6 1 7
REMARK H PARENT
REMARK Flexibility Score: inf
ROOT
ATOM      1  C   UNL     1       3.618 -36.755  18.372  1.00  0.00     0.053 C 
ENDROOT
BRANCH   1   2
ATOM      2  C   UNL     1       4.644 -36.426  19.412  1.00  0.00     0.041 C 
ATOM      3  O   UNL     1       5.415 -37.321  19.847  1.00  0.00    -0.550 OA
ATOM      4  O   UNL     1       4.726 -35.137  19.925  1.00  0.00    -0.550 OA
ENDBRANCH   1   2
BRANCH   1   5
ATOM      5  C   UNL     1       3.712 -35.819  17.160  1.00  0.00     0.006 C 
BRANCH   5   6
ATOM      6  C   UNL     1       2.655 -36.139  16.094  1.00  0.00    -0.003 C 
ATOM      7  C   UNL     1       3.172 -35.826  14.693  1.00  0.00     0.004 C 
ENDBRANCH   5   6
ENDBRANCH   1   5
TORSDOF 3
ENDMDL
MODEL 6
REMARK VINA RESULT:    -2.870      2.811      4.210
REMARK INTER + INTRA:          -3.426
REMARK INTER:                  -3.410
REMARK INTRA:                  -0.016
REMARK UNBOUND:                -0.052
REMARK SMILES CCCCC(=O)[O-]
REMARK SMILES IDX 4 1 5 2 6 3 7 4 3 5 2 6 1 7
REMARK H PARENT
REMARK Flexibility Score: inf
ROOT
ATOM      1  C   UNL     1       5.216 -34.622  22.959  1.00  0.00     0.053 C 
ENDROOT
BRANCH   1   2
ATOM      2  C   UNL     1       5.711 -35.024  24.314  1.00  0.00     0.041 C 
ATOM      3  O   UNL     1       6.125 -34.152  25.123  1.00  0.00    -0.550 OA
ATOM      4  O   UNL     1       5.747 -36.366  24.671  1.00  0.00    -0.550 OA
ENDBRANCH   1   2
BRANCH   1   5
ATOM      5  C   UNL     1       6.120 -35.155  21.840  1.00  0.00     0.006 C 
BRANCH   5   6
ATOM      6  C   UNL     1       5.485 -34.989  20.452  1.00  0.00    -0.003 C 
ATOM      7  C   UNL     1       5.057 -36.336  19.877  1.00  0.00     0.004 C 
ENDBRANCH   5   6
ENDBRANCH   1   5
TORSDOF 3
ENDMDL
MODEL 7
REMARK VINA RESULT:    -2.866      2.461      3.213
REMARK INTER + INTRA:          -3.421
REMARK INTER:                  -3.319
REMARK INTRA:                  -0.102
REMARK UNBOUND:                -0.052
REMARK SMILES CCCCC(=O)[O-]
REMARK SMILES IDX 4 1 5 2 6 3 7 4 3 5 2 6 1 7
REMARK H PARENT
REMARK Flexibility Score: inf
ROOT
ATOM      1  C   UNL     1       3.717 -36.505  19.952  1.00  0.00     0.053 C 
ENDROOT
BRANCH   1   2
ATOM      2  C   UNL     1       2.999 -36.859  18.687  1.00  0.00     0.041 C 
ATOM      3  O   UNL     1       3.554 -36.678  17.571  1.00  0.00    -0.550 OA
ATOM      4  O   UNL     1       1.703 -37.357  18.738  1.00  0.00    -0.550 OA
ENDBRANCH   1   2
BRANCH   1   5
ATOM      5  C   UNL     1       5.229 -36.370  19.732  1.00  0.00     0.006 C 
BRANCH   5   6
ATOM      6  C   UNL     1       5.755 -34.987  20.144  1.00  0.00    -0.003 C 
ATOM      7  C   UNL     1       5.826 -34.045  18.947  1.00  0.00     0.004 C 
ENDBRANCH   5   6
ENDBRANCH   1   5
TORSDOF 3
ENDMDL
