MODEL 1
REMARK VINA RESULT:    -2.904      0.000      0.000
REMARK INTER + INTRA:          -3.472
REMARK INTER:                  -3.413
REMARK INTRA:                  -0.059
REMARK UNBOUND:                -0.059
REMARK SMILES O=C([O-])CCC(=O)[O-]
REMARK SMILES IDX 4 1 2 2 1 3 3 4 5 5 6 6 7 7 8 8
REMARK H PARENT
REMARK Flexibility Score: inf
ROOT
ATOM      1  C   UNL     1      25.098   5.186  13.206  1.00  0.00     0.059 C 
ENDROOT
BRANCH   1   2
ATOM      2  C   UNL     1      25.231   6.652  13.480  1.00  0.00     0.042 C 
ATOM      3  O   UNL     1      26.309   7.116  13.937  1.00  0.00    -0.550 OA
ATOM      4  O   UNL     1      24.150   7.500  13.271  1.00  0.00    -0.550 OA
ENDBRANCH   1   2
BRANCH   1   5
ATOM      5  C   UNL     1      23.749   4.852  12.560  1.00  0.00     0.059 C 
BRANCH   5   6
ATOM      6  C   UNL     1      23.109   3.658  13.201  1.00  0.00     0.042 C 
ATOM      7  O   UNL     1      23.727   3.007  14.084  1.00  0.00    -0.550 OA
ATOM      8  O   UNL     1      21.849   3.240  12.795  1.00  0.00    -0.550 OA
ENDBRANCH   5   6
ENDBRANCH   1   5
TORSDOF 3
ENDMDL
MODEL 2
REMARK VINA RESULT:    -2.887      0.161      3.976
REMARK INTER + INTRA:          -3.453
REMARK INTER:                  -3.393
REMARK INTRA:                  -0.059
REMARK UNBOUND:                -0.059
REMARK SMILES O=C([O-])CCC(=O)[O-]
REMARK SMILES IDX 4 1 2 2 1 3 3 4 5 5 6 6 7 7 8 8
REMARK H PARENT
REMARK Flexibility Score: inf
ROOT
ATOM      1  C   UNL     1      23.559   4.843  12.600  1.00  0.00     0.059 C 
ENDROOT
BRANCH   1   2
ATOM      2  C   UNL     1      23.069   3.571  13.222  1.00  0.00     0.042 C 
ATOM      3  O   UNL     1      23.740   3.010  14.128  1.00  0.00    -0.550 OA
ATOM      4  O   UNL     1      21.894   2.983  12.771  1.00  0.00    -0.550 OA
ENDBRANCH   1   2
BRANCH   1   5
ATOM      5  C   UNL     1      24.983   5.182  13.052  1.00  0.00     0.059 C 
BRANCH   5   6
ATOM      6  C   UNL     1      25.111   6.623  13.440  1.00  0.00     0.042 C 
ATOM      7  O   UNL     1      26.172   7.044  13.973  1.00  0.00    -0.550 OA
ATOM      8  O   UNL     1      24.044   7.493  13.253  1.00  0.00    -0.550 OA
ENDBRANCH   5   6
ENDBRANCH   1   5
TORSDOF 3
ENDMDL
MODEL 3
REMARK VINA RESULT:    -2.827      2.169      4.333
REMARK INTER + INTRA:          -3.382
REMARK INTER:                  -3.344
REMARK INTRA:                  -0.038
REMARK UNBOUND:                -0.059
REMARK SMILES O=C([O-])CCC(=O)[O-]
REMARK SMILES IDX 4 1 2 2 1 3 3 4 5 5 6 6 7 7 8 8
REMARK H PARENT
REMARK Flexibility Score: inf
ROOT
ATOM      1  C   UNL     1      23.198   2.337  14.274  1.00  0.00     0.059 C 
ENDROOT
BRANCH   1   2
ATOM      2  C   UNL     1      24.010   1.423  15.139  1.00  0.00     0.042 C 
ATOM      3  O   UNL     1      25.021   1.859  15.748  1.00  0.00    -0.550 OA
ATOM      4  O   UNL     1      23.673   0.078  15.237  1.00  0.00    -0.550 OA
ENDBRANCH   1   2
BRANCH   1   5
ATOM      5  C   UNL     1      23.926   3.659  14.008  1.00  0.00     0.059 C 
BRANCH   5   6
ATOM      6  C   UNL     1      23.438   4.317  12.754  1.00  0.00     0.042 C 
ATOM      7  O   UNL     1      24.038   5.323  12.292  1.00  0.00    -0.550 OA
ATOM      8  O   UNL     1      22.295   3.847  12.119  1.00  0.00    -0.550 OA
ENDBRANCH   5   6
ENDBRANCH   1   5
TORSDOF 3
ENDMDL
MODEL 4
REMARK VINA RESULT:    -2.825      2.103      3.232
REMARK INTER + INTRA:          -3.380
REMARK INTER:                  -3.341
REMARK INTRA:                  -0.039
REMARK UNBOUND:                -0.059
REMARK SMILES O=C([O-])CCC(=O)[O-]
REMARK SMILES IDX 4 1 2 2 1 3 3 4 5 5 6 6 7 7 8 8
REMARK H PARENT
REMARK Flexibility Score: inf
ROOT
ATOM      1  C   UNL     1      24.078   3.863  13.998  1.00  0.00     0.059 C 
ENDROOT
BRANCH   1   2
ATOM      2  C   UNL     1      23.448   4.483  12.788  1.00  0.00     0.042 C 
ATOM      3  O   UNL     1      23.850   5.600  12.367  1.00  0.00    -0.550 OA
ATOM      4  O   UNL     1      22.389   3.847  12.152  1.00  0.00    -0.550 OA
ENDBRANCH   1   2
BRANCH   1   5
ATOM      5  C   UNL     1      23.340   2.593  14.431  1.00  0.00     0.059 C 
BRANCH   5   6
ATOM      6  C   UNL     1      24.221   1.689  15.238  1.00  0.00     0.042 C 
ATOM      7  O   UNL     1      25.277   2.134  15.759  1.00  0.00    -0.550 OA
ATOM      8  O   UNL     1      23.898   0.345  15.379  1.00  0.00    -0.550 OA
ENDBRANCH   5   6
ENDBRANCH   1   5
TORSDOF 3
ENDMDL
MODEL 5
REMARK VINA RESULT:    -2.810      5.284      6.160
REMARK INTER + INTRA:          -3.362
REMARK INTER:                  -3.254
REMARK INTRA:                  -0.108
REMARK UNBOUND:                -0.059
REMARK SMILES O=C([O-])CCC(=O)[O-]
REMARK SMILES IDX 4 1 2 2 1 3 3 4 5 5 6 6 7 7 8 8
REMARK H PARENT
REMARK Flexibility Score: inf
ROOT
ATOM      1  C   UNL     1      21.829   0.611  14.612  1.00  0.00     0.059 C 
ENDROOT
BRANCH   1   2
ATOM      2  C   UNL     1      23.214   0.189  14.997  1.00  0.00     0.042 C 
ATOM      3  O   UNL     1      24.110   1.054  15.182  1.00  0.00    -0.550 OA
ATOM      4  O   UNL     1      23.524  -1.160  15.110  1.00  0.00    -0.550 OA
ENDBRANCH   1   2
BRANCH   1   5
ATOM      5  C   UNL     1      21.635   0.596  13.092  1.00  0.00     0.059 C 
BRANCH   5   6
ATOM      6  C   UNL     1      20.946  -0.654  12.635  1.00  0.00     0.042 C 
ATOM      7  O   UNL     1      20.132  -1.242  13.394  1.00  0.00    -0.550 OA
ATOM      8  O   UNL     1      21.234  -1.192  11.387  1.00  0.00    -0.550 OA
ENDBRANCH   5   6
ENDBRANCH   1   5
TORSDOF 3
ENDMDL
MODEL 6
REMARK VINA RESULT:    -2.793      5.362      6.937
REMARK INTER + INTRA:          -3.342
REMARK INTER:                  -3.268
REMARK INTRA:                  -0.074
REMARK UNBOUND:                -0.059
REMARK SMILES O=C([O-])CCC(=O)[O-]
REMARK SMILES IDX 4 1 2 2 1 3 3 4 5 5 6 6 7 7 8 8
REMARK H PARENT
REMARK Flexibility Score: inf
ROOT
ATOM      1  C   UNL     1      21.604   0.456  13.042  1.00  0.00     0.059 C 
ENDROOT
BRANCH   1   2
ATOM      2  C   UNL     1      20.896  -0.726  12.454  1.00  0.00     0.042 C 
ATOM      3  O   UNL     1      21.261  -1.195  11.345  1.00  0.00    -0.550 OA
ATOM      4  O   UNL     1      19.806  -1.282  13.113  1.00  0.00    -0.550 OA
ENDBRANCH   1   2
BRANCH   1   5
ATOM      5  C   UNL     1      21.748   0.330  14.563  1.00  0.00     0.059 C 
BRANCH   5   6
ATOM      6  C   UNL     1      23.159   0.021  14.960  1.00  0.00     0.042 C 
ATOM      7  O   UNL     1      23.527  -1.173  15.113  1.00  0.00    -0.550 OA
ATOM      8  O   UNL     1      24.057   1.053  15.203  1.00  0.00    -0.550 OA
ENDBRANCH   5   6
ENDBRANCH   1   5
TORSDOF 3
ENDMDL
MODEL 7
REMARK VINA RESULT:    -2.781      9.572     10.925
REMARK INTER + INTRA:          -3.328
REMARK INTER:                  -3.208
REMARK INTRA:                  -0.120
REMARK UNBOUND:                -0.059
REMARK SMILES O=C([O-])CCC(=O)[O-]
REMARK SMILES IDX 4 1 2 2 1 3 3 4 5 5 6 6 7 7 8 8
REMARK H PARENT
REMARK Flexibility Score: inf
ROOT
ATOM      1  C   UNL     1      15.344   0.991  10.508  1.00  0.00     0.059 C 
ENDROOT
BRANCH   1   2
ATOM      2  C   UNL     1      14.140   0.918   9.619  1.00  0.00     0.042 C 
ATOM      3  O   UNL     1      13.432   1.941   9.426  1.00  0.00    -0.550 OA
ATOM      4  O   UNL     1      13.776  -0.291   9.038  1.00  0.00    -0.550 OA
ENDBRANCH   1   2
BRANCH   1   5
ATOM      5  C   UNL     1      15.847  -0.404  10.894  1.00  0.00     0.059 C 
BRANCH   5   6
ATOM      6  C   UNL     1      17.156  -0.721  10.239  1.00  0.00     0.042 C 
ATOM      7  O   UNL     1      18.137  -1.098  10.933  1.00  0.00    -0.550 OA
ATOM      8  O   UNL     1      17.306  -0.559   8.867  1.00  0.00    -0.550 OA
ENDBRANCH   5   6
ENDBRANCH   1   5
TORSDOF 3
ENDMDL
MODEL 8
REMARK VINA RESULT:    -2.752      9.780     11.023
REMARK INTER + INTRA:          -3.294
REMARK INTER:                  -3.174
REMARK INTRA:                  -0.119
REMARK UNBOUND:                -0.059
REMARK SMILES O=C([O-])CCC(=O)[O-]
REMARK SMILES IDX 4 1 2 2 1 3 3 4 5 5 6 6 7 7 8 8
REMARK H PARENT
REMARK Flexibility Score: inf
ROOT
ATOM      1  C   UNL     1      16.538  -0.221  10.057  1.00  0.00     0.059 C 
ENDROOT
BRANCH   1   2
ATOM      2  C   UNL     1      16.807  -1.101  11.239  1.00  0.00     0.042 C 
ATOM      3  O   UNL     1      17.984  -1.457  11.509  1.00  0.00    -0.550 OA
ATOM      4  O   UNL     1      15.752  -1.561  12.018  1.00  0.00    -0.550 OA
ENDBRANCH   1   2
BRANCH   1   5
ATOM      5  C   UNL     1      15.373   0.739  10.320  1.00  0.00     0.059 C 
BRANCH   5   6
ATOM      6  C   UNL     1      14.180   0.404   9.477  1.00  0.00     0.042 C 
ATOM      7  O   UNL     1      14.019  -0.767   9.045  1.00  0.00    -0.550 OA
ATOM      8  O   UNL     1      13.269   1.395   9.135  1.00  0.00    -0.550 OA
ENDBRANCH   5   6
ENDBRANCH   1   5
TORSDOF 3
ENDMDL
MODEL 9
REMARK VINA RESULT:    -2.725      6.350      7.927
REMARK INTER + INTRA:          -3.262
REMARK INTER:                  -3.147
REMARK INTRA:                  -0.115
REMARK UNBOUND:                -0.059
REMARK SMILES O=C([O-])CCC(=O)[O-]
REMARK SMILES IDX 4 1 2 2 1 3 3 4 5 5 6 6 7 7 8 8
REMARK H PARENT
REMARK Flexibility Score: inf
ROOT
ATOM      1  C   UNL     1      21.139  -1.054  12.151  1.00  0.00     0.059 C 
ENDROOT
BRANCH   1   2
ATOM      2  C   UNL     1      19.711  -1.476  12.321  1.00  0.00     0.042 C 
ATOM      3  O   UNL     1      18.880  -1.287  11.395  1.00  0.00    -0.550 OA
ATOM      4  O   UNL     1      19.291  -2.040  13.519  1.00  0.00    -0.550 OA
ENDBRANCH   1   2
BRANCH   1   5
ATOM      5  C   UNL     1      21.651  -0.286  13.374  1.00  0.00     0.059 C 
BRANCH   5   6
ATOM      6  C   UNL     1      22.685  -1.069  14.124  1.00  0.00     0.042 C 
ATOM      7  O   UNL     1      23.375  -0.513  15.018  1.00  0.00    -0.550 OA
ATOM      8  O   UNL     1      22.914  -2.402  13.809  1.00  0.00    -0.550 OA
ENDBRANCH   5   6
ENDBRANCH   1   5
TORSDOF 3
ENDMDL
