MODEL 1
REMARK VINA RESULT:     0.665      0.000      0.000
REMARK INTER + INTRA:           1.451
REMARK INTER:                   0.976
REMARK INTRA:                   0.475
REMARK UNBOUND:                 0.475
REMARK SMILES CC(C)(O)CC[C@H](O)[C@](C)(O)[C@H]1CC[C@]2(O)C3=CC(=O)[C@H]4C[C@@H](O)[C@@H](O)C[C@@]4(C)[C@@H]3CC[C@]12C
REMARK SMILES IDX 6 1 7 2 9 3 10 4 12 5 34 6 33 7 32 8 15 9 31 10 17 11 14 12
REMARK SMILES IDX 13 13 30 14 18 15 28 16 19 17 21 18 27 19 29 20 20 21 22 22
REMARK SMILES IDX 25 23 23 24 16 25 26 27 24 29 11 31 8 33 5 35 2 36 1 37 3 38
REMARK SMILES IDX 4 39
REMARK H PARENT 16 26 26 28 24 30 11 32 8 34 4 40
REMARK Flexibility Score: inf
ROOT
ATOM      1  C   UNL     1      13.539  15.418 161.548  1.00  0.00     0.038 C 
ENDROOT
BRANCH   1   2
ATOM      2  C   UNL     1      12.339  15.307 160.567  1.00  0.00     0.146 C 
BRANCH   2   3
ATOM      3  C   UNL     1      11.079  16.170 160.972  1.00  0.00     0.091 C 
ATOM      4  C   UNL     1       9.906  15.854 160.015  1.00  0.00     0.045 C 
BRANCH   3   5
ATOM      5  C   UNL     1      10.660  15.847 162.471  1.00  0.00     0.032 C 
ATOM      6  C   UNL     1      12.495  17.353 163.515  1.00  0.00     0.015 C 
ATOM      7  C   UNL     1      11.038  16.834 163.640  1.00  0.00     0.006 C 
ATOM      8  C   UNL     1      10.051  18.072 163.684  1.00  0.00     0.011 C 
ATOM      9  C   UNL     1      10.896  15.925 164.920  1.00  0.00     0.092 C 
ATOM     10  C   UNL     1       9.698  18.601 165.098  1.00  0.00     0.009 C 
ATOM     11  C   UNL     1       9.494  16.144 165.493  1.00  0.00    -0.031 C 
ATOM     12  C   UNL     1      11.188  14.481 164.464  1.00  0.00     0.041 C 
ATOM     13  C   UNL     1      11.099  14.450 162.945  1.00  0.00     0.010 C 
ATOM     14  C   UNL     1       9.323  17.500 166.145  1.00  0.00     0.025 C 
ATOM     15  C   UNL     1       8.417  15.493 165.010  1.00  0.00     0.050 C 
ATOM     16  C   UNL     1       7.947  17.658 166.895  1.00  0.00    -0.013 C 
ATOM     17  C   UNL     1       7.050  16.015 165.170  1.00  0.00     0.159 C 
ATOM     18  C   UNL     1       6.777  17.297 165.931  1.00  0.00     0.070 C 
ATOM     19  C   UNL     1       7.941  16.687 168.125  1.00  0.00     0.042 C 
ATOM     20  C   UNL     1       7.805  19.119 167.418  1.00  0.00     0.013 C 
ATOM     21  O   UNL     1       6.109  15.424 164.575  1.00  0.00    -0.295 OA
ATOM     22  C   UNL     1       5.418  17.243 166.669  1.00  0.00     0.047 C 
ATOM     23  C   UNL     1       6.587  16.579 168.856  1.00  0.00     0.143 C 
ATOM     24  C   UNL     1       5.411  16.301 167.889  1.00  0.00     0.143 C 
BRANCH   9  25
ATOM     25  O   UNL     1      11.849  16.278 165.900  1.00  0.00    -0.385 OA
ATOM     26  H   UNL     1      11.988  17.262 165.846  1.00  0.00     0.211 HD
ENDBRANCH   9  25
BRANCH  23  27
ATOM     27  O   UNL     1       6.670  15.560 169.819  1.00  0.00    -0.390 OA
ATOM     28  H   UNL     1       7.634  15.422 170.013  1.00  0.00     0.211 HD
ENDBRANCH  23  27
BRANCH  24  29
ATOM     29  O   UNL     1       5.336  14.953 167.493  1.00  0.00    -0.390 OA
ATOM     30  H   UNL     1       4.501  14.816 166.979  1.00  0.00     0.211 HD
ENDBRANCH  24  29
ENDBRANCH   3   5
BRANCH   3  31
ATOM     31  O   UNL     1      11.374  17.541 160.820  1.00  0.00    -0.387 OA
ATOM     32  H   UNL     1      11.837  17.683 159.957  1.00  0.00     0.211 HD
ENDBRANCH   3  31
ENDBRANCH   2   3
BRANCH   2  33
ATOM     33  O   UNL     1      12.745  15.577 159.245  1.00  0.00    -0.390 OA
ATOM     34  H   UNL     1      13.536  16.175 159.281  1.00  0.00     0.211 HD
ENDBRANCH   2  33
ENDBRANCH   1   2
BRANCH   1  35
ATOM     35  C   UNL     1      14.531  14.234 161.413  1.00  0.00     0.037 C 
BRANCH  35  36
ATOM     36  C   UNL     1      15.435  13.959 162.650  1.00  0.00     0.059 C 
ATOM     37  C   UNL     1      15.212  15.087 163.673  1.00  0.00     0.042 C 
ATOM     38  C   UNL     1      16.936  13.931 162.283  1.00  0.00     0.042 C 
BRANCH  36  39
ATOM     39  O   UNL     1      15.050  12.753 163.273  1.00  0.00    -0.390 OA
ATOM     40  H   UNL     1      15.326  12.779 164.224  1.00  0.00     0.211 HD
ENDBRANCH  36  39
ENDBRANCH  35  36
ENDBRANCH   1  35
TORSDOF 11
ENDMDL
MODEL 2
REMARK VINA RESULT:     1.987      1.771      2.478
REMARK INTER + INTRA:           3.392
REMARK INTER:                   2.699
REMARK INTRA:                   0.692
REMARK UNBOUND:                 0.475
REMARK SMILES CC(C)(O)CC[C@H](O)[C@](C)(O)[C@H]1CC[C@]2(O)C3=CC(=O)[C@H]4C[C@@H](O)[C@@H](O)C[C@@]4(C)[C@@H]3CC[C@]12C
REMARK SMILES IDX 6 1 7 2 9 3 10 4 12 5 34 6 33 7 32 8 15 9 31 10 17 11 14 12
REMARK SMILES IDX 13 13 30 14 18 15 28 16 19 17 21 18 27 19 29 20 20 21 22 22
REMARK SMILES IDX 25 23 23 24 16 25 26 27 24 29 11 31 8 33 5 35 2 36 1 37 3 38
REMARK SMILES IDX 4 39
REMARK H PARENT 16 26 26 28 24 30 11 32 8 34 4 40
REMARK Flexibility Score: inf
ROOT
ATOM      1  C   UNL     1      12.035  13.671 160.461  1.00  0.00     0.038 C 
ENDROOT
BRANCH   1   2
ATOM      2  C   UNL     1      11.088  14.878 160.707  1.00  0.00     0.146 C 
BRANCH   2   3
ATOM      3  C   UNL     1      11.623  15.928 161.759  1.00  0.00     0.091 C 
ATOM      4  C   UNL     1      11.280  17.359 161.284  1.00  0.00     0.045 C 
BRANCH   3   5
ATOM      5  C   UNL     1      10.966  15.655 163.181  1.00  0.00     0.032 C 
ATOM      6  C   UNL     1      12.651  17.147 164.467  1.00  0.00     0.015 C 
ATOM      7  C   UNL     1      11.180  16.664 164.372  1.00  0.00     0.006 C 
ATOM      8  C   UNL     1      10.232  17.925 164.231  1.00  0.00     0.011 C 
ATOM      9  C   UNL     1      10.815  15.794 165.633  1.00  0.00     0.092 C 
ATOM     10  C   UNL     1       9.674  18.499 165.559  1.00  0.00     0.009 C 
ATOM     11  C   UNL     1       9.347  16.058 165.973  1.00  0.00    -0.031 C 
ATOM     12  C   UNL     1      11.138  14.332 165.263  1.00  0.00     0.041 C 
ATOM     13  C   UNL     1      11.288  14.262 163.750  1.00  0.00     0.010 C 
ATOM     14  C   UNL     1       9.111  17.435 166.559  1.00  0.00     0.025 C 
ATOM     15  C   UNL     1       8.343  15.419 165.341  1.00  0.00     0.050 C 
ATOM     16  C   UNL     1       7.638  17.644 167.079  1.00  0.00    -0.013 C 
ATOM     17  C   UNL     1       6.982  15.975 165.271  1.00  0.00     0.159 C 
ATOM     18  C   UNL     1       6.626  17.282 165.950  1.00  0.00     0.070 C 
ATOM     19  C   UNL     1       7.415  16.706 168.314  1.00  0.00     0.042 C 
ATOM     20  C   UNL     1       7.454  19.121 167.539  1.00  0.00     0.013 C 
ATOM     21  O   UNL     1       6.131  15.388 164.549  1.00  0.00    -0.295 OA
ATOM     22  C   UNL     1       5.166  17.278 166.466  1.00  0.00     0.047 C 
ATOM     23  C   UNL     1       5.959  16.647 168.824  1.00  0.00     0.143 C 
ATOM     24  C   UNL     1       4.943  16.369 167.690  1.00  0.00     0.143 C 
BRANCH   9  25
ATOM     25  O   UNL     1      11.612  16.152 166.743  1.00  0.00    -0.385 OA
ATOM     26  H   UNL     1      11.185  15.771 167.557  1.00  0.00     0.211 HD
ENDBRANCH   9  25
BRANCH  23  27
ATOM     27  O   UNL     1       5.864  15.653 169.811  1.00  0.00    -0.390 OA
ATOM     28  H   UNL     1       6.561  14.975 169.609  1.00  0.00     0.211 HD
ENDBRANCH  23  27
BRANCH  24  29
ATOM     29  O   UNL     1       4.896  15.013 167.319  1.00  0.00    -0.390 OA
ATOM     30  H   UNL     1       4.158  14.883 166.672  1.00  0.00     0.211 HD
ENDBRANCH  24  29
ENDBRANCH   3   5
BRANCH   3  31
ATOM     31  O   UNL     1      13.030  15.849 161.836  1.00  0.00    -0.387 OA
ATOM     32  H   UNL     1      13.322  16.085 162.751  1.00  0.00     0.211 HD
ENDBRANCH   3  31
ENDBRANCH   2   3
BRANCH   2  33
ATOM     33  O   UNL     1      10.739  15.499 159.492  1.00  0.00    -0.390 OA
ATOM     34  H   UNL     1      11.189  16.382 159.455  1.00  0.00     0.211 HD
ENDBRANCH   2  33
ENDBRANCH   1   2
BRANCH   1  35
ATOM     35  C   UNL     1      11.818  12.524 161.480  1.00  0.00     0.037 C 
BRANCH  35  36
ATOM     36  C   UNL     1      10.532  11.669 161.278  1.00  0.00     0.059 C 
ATOM     37  C   UNL     1       9.399  12.295 162.110  1.00  0.00     0.042 C 
ATOM     38  C   UNL     1      10.723  10.209 161.745  1.00  0.00     0.042 C 
BRANCH  36  39
ATOM     39  O   UNL     1      10.128  11.713 159.927  1.00  0.00    -0.390 OA
ATOM     40  H   UNL     1      10.689  12.372 159.444  1.00  0.00     0.211 HD
ENDBRANCH  36  39
ENDBRANCH  35  36
ENDBRANCH   1  35
TORSDOF 11
ENDMDL
MODEL 3
REMARK VINA RESULT:     2.201      2.270      3.934
REMARK INTER + INTRA:           3.706
REMARK INTER:                   3.345
REMARK INTRA:                   0.362
REMARK UNBOUND:                 0.475
REMARK SMILES CC(C)(O)CC[C@H](O)[C@](C)(O)[C@H]1CC[C@]2(O)C3=CC(=O)[C@H]4C[C@@H](O)[C@@H](O)C[C@@]4(C)[C@@H]3CC[C@]12C
REMARK SMILES IDX 6 1 7 2 9 3 10 4 12 5 34 6 33 7 32 8 15 9 31 10 17 11 14 12
REMARK SMILES IDX 13 13 30 14 18 15 28 16 19 17 21 18 27 19 29 20 20 21 22 22
REMARK SMILES IDX 25 23 23 24 16 25 26 27 24 29 11 31 8 33 5 35 2 36 1 37 3 38
REMARK SMILES IDX 4 39
REMARK H PARENT 16 26 26 28 24 30 11 32 8 34 4 40
REMARK Flexibility Score: inf
ROOT
ATOM      1  C   UNL     1      12.288  12.601 161.654  1.00  0.00     0.038 C 
ENDROOT
BRANCH   1   2
ATOM      2  C   UNL     1      13.046  13.121 162.907  1.00  0.00     0.146 C 
BRANCH   2   3
ATOM      3  C   UNL     1      13.625  14.584 162.763  1.00  0.00     0.091 C 
ATOM      4  C   UNL     1      13.720  14.958 161.267  1.00  0.00     0.045 C 
BRANCH   3   5
ATOM      5  C   UNL     1      12.685  15.616 163.524  1.00  0.00     0.032 C 
ATOM      6  C   UNL     1      11.586  16.515 161.354  1.00  0.00     0.015 C 
ATOM      7  C   UNL     1      11.366  16.151 162.846  1.00  0.00     0.006 C 
ATOM      8  C   UNL     1      10.198  15.086 162.950  1.00  0.00     0.011 C 
ATOM      9  C   UNL     1      11.051  17.450 163.679  1.00  0.00     0.092 C 
ATOM     10  C   UNL     1       8.776  15.667 163.161  1.00  0.00     0.009 C 
ATOM     11  C   UNL     1      10.060  17.069 164.780  1.00  0.00    -0.031 C 
ATOM     12  C   UNL     1      12.407  17.982 164.187  1.00  0.00     0.041 C 
ATOM     13  C   UNL     1      13.428  16.864 164.035  1.00  0.00     0.010 C 
ATOM     14  C   UNL     1       8.669  16.782 164.254  1.00  0.00     0.025 C 
ATOM     15  C   UNL     1      10.463  16.519 165.942  1.00  0.00     0.050 C 
ATOM     16  C   UNL     1       7.606  16.570 165.397  1.00  0.00    -0.013 C 
ATOM     17  C   UNL     1       9.563  15.708 166.778  1.00  0.00     0.159 C 
ATOM     18  C   UNL     1       8.114  15.485 166.394  1.00  0.00     0.070 C 
ATOM     19  C   UNL     1       7.411  17.932 166.147  1.00  0.00     0.042 C 
ATOM     20  C   UNL     1       6.243  16.152 164.769  1.00  0.00     0.013 C 
ATOM     21  O   UNL     1      10.048  15.114 167.779  1.00  0.00    -0.295 OA
ATOM     22  C   UNL     1       7.204  15.378 167.642  1.00  0.00     0.047 C 
ATOM     23  C   UNL     1       6.543  17.849 167.421  1.00  0.00     0.143 C 
ATOM     24  C   UNL     1       6.996  16.717 168.375  1.00  0.00     0.143 C 
BRANCH   9  25
ATOM     25  O   UNL     1      10.467  18.445 162.863  1.00  0.00    -0.385 OA
ATOM     26  H   UNL     1      10.493  18.119 161.924  1.00  0.00     0.211 HD
ENDBRANCH   9  25
BRANCH  23  27
ATOM     27  O   UNL     1       6.589  19.086 168.084  1.00  0.00    -0.390 OA
ATOM     28  H   UNL     1       7.535  19.242 168.340  1.00  0.00     0.211 HD
ENDBRANCH  23  27
BRANCH  24  29
ATOM     29  O   UNL     1       8.128  17.065 169.136  1.00  0.00    -0.390 OA
ATOM     30  H   UNL     1       8.337  16.323 169.757  1.00  0.00     0.211 HD
ENDBRANCH  24  29
ENDBRANCH   3   5
BRANCH   3  31
ATOM     31  O   UNL     1      14.937  14.628 163.281  1.00  0.00    -0.387 OA
ATOM     32  H   UNL     1      15.085  15.500 163.725  1.00  0.00     0.211 HD
ENDBRANCH   3  31
ENDBRANCH   2   3
BRANCH   2  33
ATOM     33  O   UNL     1      12.251  12.993 164.064  1.00  0.00    -0.390 OA
ATOM     34  H   UNL     1      11.916  12.061 164.107  1.00  0.00     0.211 HD
ENDBRANCH   2  33
ENDBRANCH   1   2
BRANCH   1  35
ATOM     35  C   UNL     1      11.540  11.270 161.920  1.00  0.00     0.037 C 
BRANCH  35  36
ATOM     36  C   UNL     1      10.117  11.153 161.298  1.00  0.00     0.059 C 
ATOM     37  C   UNL     1       9.271  12.335 161.803  1.00  0.00     0.042 C 
ATOM     38  C   UNL     1       9.407   9.843 161.706  1.00  0.00     0.042 C 
BRANCH  36  39
ATOM     39  O   UNL     1      10.191  11.265 159.894  1.00  0.00    -0.390 OA
ATOM     40  H   UNL     1       9.758  12.112 159.615  1.00  0.00     0.211 HD
ENDBRANCH  36  39
ENDBRANCH  35  36
ENDBRANCH   1  35
TORSDOF 11
ENDMDL
