MODEL 1
REMARK VINA RESULT:    -4.176      0.000      0.000
REMARK INTER + INTRA:          -8.980
REMARK INTER:                  -7.349
REMARK INTRA:                  -1.631
REMARK UNBOUND:                -1.631
REMARK SMILES CCCCCCCCCCCCCCC(=O)[O-]
REMARK SMILES IDX 9 1 10 2 11 3 12 4 13 5 14 6 15 7 16 8 17 9 8 10 7 11 6 12
REMARK SMILES IDX 5 13 4 14 3 15 2 16 1 17
REMARK H PARENT
REMARK Flexibility Score: inf
ROOT
ATOM      1  C   UNL     1       7.274  29.265  28.139  1.00  0.00     0.000 C 
ENDROOT
BRANCH   1   2
ATOM      2  C   UNL     1       8.793  29.128  27.976  1.00  0.00     0.000 C 
BRANCH   2   3
ATOM      3  C   UNL     1       9.255  29.699  26.627  1.00  0.00     0.000 C 
BRANCH   3   4
ATOM      4  C   UNL     1       8.646  31.079  26.327  1.00  0.00     0.000 C 
BRANCH   4   5
ATOM      5  C   UNL     1       9.714  32.169  26.137  1.00  0.00     0.006 C 
BRANCH   5   6
ATOM      6  C   UNL     1       9.519  32.948  24.828  1.00  0.00     0.053 C 
BRANCH   6   7
ATOM      7  C   UNL     1      10.766  33.674  24.421  1.00  0.00     0.041 C 
ATOM      8  O   UNL     1      11.198  34.629  25.118  1.00  0.00    -0.550 OA
ATOM      9  O   UNL     1      11.434  33.313  23.258  1.00  0.00    -0.550 OA
ENDBRANCH   6   7
ENDBRANCH   5   6
ENDBRANCH   4   5
ENDBRANCH   3   4
ENDBRANCH   2   3
ENDBRANCH   1   2
BRANCH   1  10
ATOM     10  C   UNL     1       6.926  30.031  29.425  1.00  0.00     0.000 C 
BRANCH  10  11
ATOM     11  C   UNL     1       8.150  30.268  30.324  1.00  0.00    -0.000 C 
BRANCH  11  12
ATOM     12  C   UNL     1       8.486  31.761  30.484  1.00  0.00    -0.000 C 
BRANCH  12  13
ATOM     13  C   UNL     1       9.887  32.110  29.956  1.00  0.00    -0.000 C 
BRANCH  13  14
ATOM     14  C   UNL     1      10.995  31.839  30.987  1.00  0.00    -0.000 C 
BRANCH  14  15
ATOM     15  C   UNL     1      12.297  31.421  30.294  1.00  0.00    -0.000 C 
BRANCH  15  16
ATOM     16  C   UNL     1      12.168  31.526  28.771  1.00  0.00    -0.003 C 
ATOM     17  C   UNL     1      13.475  31.150  28.079  1.00  0.00     0.004 C 
ENDBRANCH  15  16
ENDBRANCH  14  15
ENDBRANCH  13  14
ENDBRANCH  12  13
ENDBRANCH  11  12
ENDBRANCH  10  11
ENDBRANCH   1  10
TORSDOF 13
ENDMDL
MODEL 2
REMARK VINA RESULT:    -4.173      1.414      2.208
REMARK INTER + INTRA:          -8.976
REMARK INTER:                  -7.416
REMARK INTRA:                  -1.559
REMARK UNBOUND:                -1.631
REMARK SMILES CCCCCCCCCCCCCCC(=O)[O-]
REMARK SMILES IDX 9 1 10 2 11 3 12 4 13 5 14 6 15 7 16 8 17 9 8 10 7 11 6 12
REMARK SMILES IDX 5 13 4 14 3 15 2 16 1 17
REMARK H PARENT
REMARK Flexibility Score: inf
ROOT
ATOM      1  C   UNL     1       7.377  29.164  27.348  1.00  0.00     0.000 C 
ENDROOT
BRANCH   1   2
ATOM      2  C   UNL     1       7.594  30.261  26.297  1.00  0.00     0.000 C 
BRANCH   2   3
ATOM      3  C   UNL     1       8.531  29.777  25.181  1.00  0.00     0.000 C 
BRANCH   3   4
ATOM      4  C   UNL     1       9.661  30.775  24.881  1.00  0.00     0.000 C 
BRANCH   4   5
ATOM      5  C   UNL     1       9.437  32.142  25.548  1.00  0.00     0.006 C 
BRANCH   5   6
ATOM      6  C   UNL     1       9.556  33.301  24.548  1.00  0.00     0.053 C 
BRANCH   6   7
ATOM      7  C   UNL     1      10.934  33.890  24.541  1.00  0.00     0.041 C 
ATOM      8  O   UNL     1      11.656  33.800  23.513  1.00  0.00    -0.550 OA
ATOM      9  O   UNL     1      11.432  34.512  25.679  1.00  0.00    -0.550 OA
ENDBRANCH   6   7
ENDBRANCH   5   6
ENDBRANCH   4   5
ENDBRANCH   3   4
ENDBRANCH   2   3
ENDBRANCH   1   2
BRANCH   1  10
ATOM     10  C   UNL     1       8.720  28.658  27.898  1.00  0.00     0.000 C 
BRANCH  10  11
ATOM     11  C   UNL     1       9.579  29.783  28.496  1.00  0.00    -0.000 C 
BRANCH  11  12
ATOM     12  C   UNL     1      11.067  29.649  28.132  1.00  0.00    -0.000 C 
BRANCH  12  13
ATOM     13  C   UNL     1      11.860  30.937  28.403  1.00  0.00    -0.000 C 
BRANCH  13  14
ATOM     14  C   UNL     1      10.964  32.106  28.840  1.00  0.00    -0.000 C 
BRANCH  14  15
ATOM     15  C   UNL     1      11.353  32.603  30.237  1.00  0.00    -0.000 C 
BRANCH  15  16
ATOM     16  C   UNL     1      12.410  31.691  30.871  1.00  0.00    -0.003 C 
ATOM     17  C   UNL     1      13.737  32.423  31.046  1.00  0.00     0.004 C 
ENDBRANCH  15  16
ENDBRANCH  14  15
ENDBRANCH  13  14
ENDBRANCH  12  13
ENDBRANCH  11  12
ENDBRANCH  10  11
ENDBRANCH   1  10
TORSDOF 13
ENDMDL
MODEL 3
REMARK VINA RESULT:    -4.124      9.434     11.024
REMARK INTER + INTRA:          -8.889
REMARK INTER:                  -7.902
REMARK INTRA:                  -0.987
REMARK UNBOUND:                -1.631
REMARK SMILES CCCCCCCCCCCCCCC(=O)[O-]
REMARK SMILES IDX 9 1 10 2 11 3 12 4 13 5 14 6 15 7 16 8 17 9 8 10 7 11 6 12
REMARK SMILES IDX 5 13 4 14 3 15 2 16 1 17
REMARK H PARENT
REMARK Flexibility Score: inf
ROOT
ATOM      1  C   UNL     1       6.883  29.574  18.965  1.00  0.00     0.000 C 
ENDROOT
BRANCH   1   2
ATOM      2  C   UNL     1       8.349  29.123  18.918  1.00  0.00     0.000 C 
BRANCH   2   3
ATOM      3  C   UNL     1       8.574  27.891  19.807  1.00  0.00     0.000 C 
BRANCH   3   4
ATOM      4  C   UNL     1       7.509  26.803  19.592  1.00  0.00     0.000 C 
BRANCH   4   5
ATOM      5  C   UNL     1       8.104  25.385  19.589  1.00  0.00     0.006 C 
BRANCH   5   6
ATOM      6  C   UNL     1       9.622  25.393  19.821  1.00  0.00     0.053 C 
BRANCH   6   7
ATOM      7  C   UNL     1       9.994  24.702  21.098  1.00  0.00     0.041 C 
ATOM      8  O   UNL     1      10.557  23.576  21.068  1.00  0.00    -0.550 OA
ATOM      9  O   UNL     1       9.693  25.288  22.321  1.00  0.00    -0.550 OA
ENDBRANCH   6   7
ENDBRANCH   5   6
ENDBRANCH   4   5
ENDBRANCH   3   4
ENDBRANCH   2   3
ENDBRANCH   1   2
BRANCH   1  10
ATOM     10  C   UNL     1       6.350  29.859  17.553  1.00  0.00     0.000 C 
BRANCH  10  11
ATOM     11  C   UNL     1       4.913  30.404  17.559  1.00  0.00    -0.000 C 
BRANCH  11  12
ATOM     12  C   UNL     1       4.274  30.371  18.959  1.00  0.00    -0.000 C 
BRANCH  12  13
ATOM     13  C   UNL     1       3.955  31.775  19.496  1.00  0.00    -0.000 C 
BRANCH  13  14
ATOM     14  C   UNL     1       3.551  32.759  18.386  1.00  0.00    -0.000 C 
BRANCH  14  15
ATOM     15  C   UNL     1       4.352  34.062  18.491  1.00  0.00    -0.000 C 
BRANCH  15  16
ATOM     16  C   UNL     1       5.051  34.170  19.851  1.00  0.00    -0.003 C 
ATOM     17  C   UNL     1       6.211  35.160  19.799  1.00  0.00     0.004 C 
ENDBRANCH  15  16
ENDBRANCH  14  15
ENDBRANCH  13  14
ENDBRANCH  12  13
ENDBRANCH  11  12
ENDBRANCH  10  11
ENDBRANCH   1  10
TORSDOF 13
ENDMDL
MODEL 4
REMARK VINA RESULT:    -4.120      1.382      3.794
REMARK INTER + INTRA:          -8.882
REMARK INTER:                  -7.334
REMARK INTRA:                  -1.548
REMARK UNBOUND:                -1.631
REMARK SMILES CCCCCCCCCCCCCCC(=O)[O-]
REMARK SMILES IDX 9 1 10 2 11 3 12 4 13 5 14 6 15 7 16 8 17 9 8 10 7 11 6 12
REMARK SMILES IDX 5 13 4 14 3 15 2 16 1 17
REMARK H PARENT
REMARK Flexibility Score: inf
ROOT
ATOM      1  C   UNL     1      12.307  30.311  29.178  1.00  0.00     0.000 C 
ENDROOT
BRANCH   1   2
ATOM      2  C   UNL     1      13.031  31.281  28.235  1.00  0.00     0.000 C 
BRANCH   2   3
ATOM      3  C   UNL     1      12.085  31.785  27.134  1.00  0.00     0.000 C 
BRANCH   3   4
ATOM      4  C   UNL     1      11.574  30.653  26.228  1.00  0.00     0.000 C 
BRANCH   4   5
ATOM      5  C   UNL     1      10.527  31.136  25.211  1.00  0.00     0.006 C 
BRANCH   5   6
ATOM      6  C   UNL     1      10.146  32.608  25.426  1.00  0.00     0.053 C 
BRANCH   6   7
ATOM      7  C   UNL     1      10.862  33.514  24.470  1.00  0.00     0.041 C 
ATOM      8  O   UNL     1      11.109  34.706  24.792  1.00  0.00    -0.550 OA
ATOM      9  O   UNL     1      11.230  33.050  23.214  1.00  0.00    -0.550 OA
ENDBRANCH   6   7
ENDBRANCH   5   6
ENDBRANCH   4   5
ENDBRANCH   3   4
ENDBRANCH   2   3
ENDBRANCH   1   2
BRANCH   1  10
ATOM     10  C   UNL     1      11.816  31.037  30.441  1.00  0.00     0.000 C 
BRANCH  10  11
ATOM     11  C   UNL     1      10.455  31.723  30.240  1.00  0.00    -0.000 C 
BRANCH  11  12
ATOM     12  C   UNL     1       9.325  30.720  29.946  1.00  0.00    -0.000 C 
BRANCH  12  13
ATOM     13  C   UNL     1       8.756  30.872  28.527  1.00  0.00    -0.000 C 
BRANCH  13  14
ATOM     14  C   UNL     1       7.648  29.851  28.219  1.00  0.00    -0.000 C 
BRANCH  14  15
ATOM     15  C   UNL     1       8.080  28.896  27.100  1.00  0.00    -0.000 C 
BRANCH  15  16
ATOM     16  C   UNL     1       8.888  27.721  27.661  1.00  0.00    -0.003 C 
ATOM     17  C   UNL     1       8.780  26.495  26.759  1.00  0.00     0.004 C 
ENDBRANCH  15  16
ENDBRANCH  14  15
ENDBRANCH  13  14
ENDBRANCH  12  13
ENDBRANCH  11  12
ENDBRANCH  10  11
ENDBRANCH   1  10
TORSDOF 13
ENDMDL
MODEL 5
REMARK VINA RESULT:    -4.077      2.718      5.152
REMARK INTER + INTRA:          -8.806
REMARK INTER:                  -6.565
REMARK INTRA:                  -2.241
REMARK UNBOUND:                -1.631
REMARK SMILES CCCCCCCCCCCCCCC(=O)[O-]
REMARK SMILES IDX 9 1 10 2 11 3 12 4 13 5 14 6 15 7 16 8 17 9 8 10 7 11 6 12
REMARK SMILES IDX 5 13 4 14 3 15 2 16 1 17
REMARK H PARENT
REMARK Flexibility Score: inf
ROOT
ATOM      1  C   UNL     1       8.285  29.043  24.948  1.00  0.00     0.000 C 
ENDROOT
BRANCH   1   2
ATOM      2  C   UNL     1       9.390  29.920  25.552  1.00  0.00     0.000 C 
BRANCH   2   3
ATOM      3  C   UNL     1       8.860  31.323  25.880  1.00  0.00     0.000 C 
BRANCH   3   4
ATOM      4  C   UNL     1       9.903  32.200  26.591  1.00  0.00     0.000 C 
BRANCH   4   5
ATOM      5  C   UNL     1      10.670  31.438  27.685  1.00  0.00     0.006 C 
BRANCH   5   6
ATOM      6  C   UNL     1      12.190  31.519  27.490  1.00  0.00     0.053 C 
BRANCH   6   7
ATOM      7  C   UNL     1      12.933  31.114  28.728  1.00  0.00     0.041 C 
ATOM      8  O   UNL     1      14.189  31.027  28.713  1.00  0.00    -0.550 OA
ATOM      9  O   UNL     1      12.235  30.806  29.889  1.00  0.00    -0.550 OA
ENDBRANCH   6   7
ENDBRANCH   5   6
ENDBRANCH   4   5
ENDBRANCH   3   4
ENDBRANCH   2   3
ENDBRANCH   1   2
BRANCH   1  10
ATOM     10  C   UNL     1       8.143  27.725  25.726  1.00  0.00     0.000 C 
BRANCH  10  11
ATOM     11  C   UNL     1       8.748  27.801  27.137  1.00  0.00    -0.000 C 
BRANCH  11  12
ATOM     12  C   UNL     1       7.684  28.015  28.227  1.00  0.00    -0.000 C 
BRANCH  12  13
ATOM     13  C   UNL     1       7.847  29.356  28.958  1.00  0.00    -0.000 C 
BRANCH  13  14
ATOM     14  C   UNL     1       6.673  30.316  28.708  1.00  0.00    -0.000 C 
BRANCH  14  15
ATOM     15  C   UNL     1       5.547  29.616  27.938  1.00  0.00    -0.000 C 
BRANCH  15  16
ATOM     16  C   UNL     1       5.204  30.377  26.653  1.00  0.00    -0.003 C 
ATOM     17  C   UNL     1       4.664  29.435  25.581  1.00  0.00     0.004 C 
ENDBRANCH  15  16
ENDBRANCH  14  15
ENDBRANCH  13  14
ENDBRANCH  12  13
ENDBRANCH  11  12
ENDBRANCH  10  11
ENDBRANCH   1  10
TORSDOF 13
ENDMDL
MODEL 6
REMARK VINA RESULT:    -3.989      2.458      4.856
REMARK INTER + INTRA:          -8.652
REMARK INTER:                  -6.444
REMARK INTRA:                  -2.208
REMARK UNBOUND:                -1.631
REMARK SMILES CCCCCCCCCCCCCCC(=O)[O-]
REMARK SMILES IDX 9 1 10 2 11 3 12 4 13 5 14 6 15 7 16 8 17 9 8 10 7 11 6 12
REMARK SMILES IDX 5 13 4 14 3 15 2 16 1 17
REMARK H PARENT
REMARK Flexibility Score: inf
ROOT
ATOM      1  C   UNL     1       8.619  28.260  27.144  1.00  0.00     0.000 C 
ENDROOT
BRANCH   1   2
ATOM      2  C   UNL     1       8.303  27.926  25.680  1.00  0.00     0.000 C 
BRANCH   2   3
ATOM      3  C   UNL     1       8.438  29.170  24.791  1.00  0.00     0.000 C 
BRANCH   3   4
ATOM      4  C   UNL     1       9.011  30.380  25.546  1.00  0.00     0.000 C 
BRANCH   4   5
ATOM      5  C   UNL     1      10.427  30.754  25.077  1.00  0.00     0.006 C 
BRANCH   5   6
ATOM      6  C   UNL     1      11.306  31.258  26.231  1.00  0.00     0.053 C 
BRANCH   6   7
ATOM      7  C   UNL     1      10.912  32.636  26.670  1.00  0.00     0.041 C 
ATOM      8  O   UNL     1      11.026  33.609  25.879  1.00  0.00    -0.550 OA
ATOM      9  O   UNL     1      10.446  32.848  27.961  1.00  0.00    -0.550 OA
ENDBRANCH   6   7
ENDBRANCH   5   6
ENDBRANCH   4   5
ENDBRANCH   3   4
ENDBRANCH   2   3
ENDBRANCH   1   2
BRANCH   1  10
ATOM     10  C   UNL     1       7.746  27.430  28.098  1.00  0.00     0.000 C 
BRANCH  10  11
ATOM     11  C   UNL     1       6.985  28.298  29.113  1.00  0.00    -0.000 C 
BRANCH  11  12
ATOM     12  C   UNL     1       7.178  29.804  28.866  1.00  0.00    -0.000 C 
BRANCH  12  13
ATOM     13  C   UNL     1       5.862  30.519  28.521  1.00  0.00    -0.000 C 
BRANCH  13  14
ATOM     14  C   UNL     1       5.633  30.645  27.006  1.00  0.00    -0.000 C 
BRANCH  14  15
ATOM     15  C   UNL     1       4.355  29.912  26.583  1.00  0.00    -0.000 C 
BRANCH  15  16
ATOM     16  C   UNL     1       4.657  28.854  25.515  1.00  0.00    -0.003 C 
ATOM     17  C   UNL     1       4.539  27.444  26.085  1.00  0.00     0.004 C 
ENDBRANCH  15  16
ENDBRANCH  14  15
ENDBRANCH  13  14
ENDBRANCH  12  13
ENDBRANCH  11  12
ENDBRANCH  10  11
ENDBRANCH   1  10
TORSDOF 13
ENDMDL
MODEL 7
REMARK VINA RESULT:    -3.984      3.045      4.644
REMARK INTER + INTRA:          -8.642
REMARK INTER:                  -6.727
REMARK INTRA:                  -1.915
REMARK UNBOUND:                -1.631
REMARK SMILES CCCCCCCCCCCCCCC(=O)[O-]
REMARK SMILES IDX 9 1 10 2 11 3 12 4 13 5 14 6 15 7 16 8 17 9 8 10 7 11 6 12
REMARK SMILES IDX 5 13 4 14 3 15 2 16 1 17
REMARK H PARENT
REMARK Flexibility Score: inf
ROOT
ATOM      1  C   UNL     1       9.512  30.176  25.223  1.00  0.00     0.000 C 
ENDROOT
BRANCH   1   2
ATOM      2  C   UNL     1       8.454  29.279  25.877  1.00  0.00     0.000 C 
BRANCH   2   3
ATOM      3  C   UNL     1       8.961  28.715  27.213  1.00  0.00     0.000 C 
BRANCH   3   4
ATOM      4  C   UNL     1       7.914  28.817  28.335  1.00  0.00     0.000 C 
BRANCH   4   5
ATOM      5  C   UNL     1       7.491  30.267  28.621  1.00  0.00     0.006 C 
BRANCH   5   6
ATOM      6  C   UNL     1       6.028  30.366  29.075  1.00  0.00     0.053 C 
BRANCH   6   7
ATOM      7  C   UNL     1       5.094  30.525  27.914  1.00  0.00     0.041 C 
ATOM      8  O   UNL     1       3.912  30.097  27.989  1.00  0.00    -0.550 OA
ATOM      9  O   UNL     1       5.537  31.121  26.740  1.00  0.00    -0.550 OA
ENDBRANCH   6   7
ENDBRANCH   5   6
ENDBRANCH   4   5
ENDBRANCH   3   4
ENDBRANCH   2   3
ENDBRANCH   1   2
BRANCH   1  10
ATOM     10  C   UNL     1       9.386  31.625  25.718  1.00  0.00     0.000 C 
BRANCH  10  11
ATOM     11  C   UNL     1      10.614  32.482  25.367  1.00  0.00    -0.000 C 
BRANCH  11  12
ATOM     12  C   UNL     1      11.310  33.055  26.614  1.00  0.00    -0.000 C 
BRANCH  12  13
ATOM     13  C   UNL     1      10.465  32.898  27.887  1.00  0.00    -0.000 C 
BRANCH  13  14
ATOM     14  C   UNL     1      11.279  32.370  29.080  1.00  0.00    -0.000 C 
BRANCH  14  15
ATOM     15  C   UNL     1      11.096  30.856  29.241  1.00  0.00    -0.000 C 
BRANCH  15  16
ATOM     16  C   UNL     1      12.317  30.096  28.712  1.00  0.00    -0.003 C 
ATOM     17  C   UNL     1      13.569  30.967  28.748  1.00  0.00     0.004 C 
ENDBRANCH  15  16
ENDBRANCH  14  15
ENDBRANCH  13  14
ENDBRANCH  12  13
ENDBRANCH  11  12
ENDBRANCH  10  11
ENDBRANCH   1  10
TORSDOF 13
ENDMDL
MODEL 8
REMARK VINA RESULT:    -3.979      2.969      5.405
REMARK INTER + INTRA:          -8.635
REMARK INTER:                  -6.261
REMARK INTRA:                  -2.373
REMARK UNBOUND:                -1.631
REMARK SMILES CCCCCCCCCCCCCCC(=O)[O-]
REMARK SMILES IDX 9 1 10 2 11 3 12 4 13 5 14 6 15 7 16 8 17 9 8 10 7 11 6 12
REMARK SMILES IDX 5 13 4 14 3 15 2 16 1 17
REMARK H PARENT
REMARK Flexibility Score: inf
ROOT
ATOM      1  C   UNL     1       6.045  28.934  25.526  1.00  0.00     0.000 C 
ENDROOT
BRANCH   1   2
ATOM      2  C   UNL     1       7.292  29.537  26.185  1.00  0.00     0.000 C 
BRANCH   2   3
ATOM      3  C   UNL     1       7.050  29.806  27.677  1.00  0.00     0.000 C 
BRANCH   3   4
ATOM      4  C   UNL     1       8.345  29.760  28.505  1.00  0.00     0.000 C 
BRANCH   4   5
ATOM      5  C   UNL     1       9.584  29.451  27.650  1.00  0.00     0.006 C 
BRANCH   5   6
ATOM      6  C   UNL     1      10.702  30.483  27.855  1.00  0.00     0.053 C 
BRANCH   6   7
ATOM      7  C   UNL     1      10.216  31.883  27.634  1.00  0.00     0.041 C 
ATOM      8  O   UNL     1       9.782  32.231  26.504  1.00  0.00    -0.550 OA
ATOM      9  O   UNL     1      10.268  32.810  28.666  1.00  0.00    -0.550 OA
ENDBRANCH   6   7
ENDBRANCH   5   6
ENDBRANCH   4   5
ENDBRANCH   3   4
ENDBRANCH   2   3
ENDBRANCH   1   2
BRANCH   1  10
ATOM     10  C   UNL     1       4.792  29.200  26.376  1.00  0.00     0.000 C 
BRANCH  10  11
ATOM     11  C   UNL     1       3.988  27.921  26.663  1.00  0.00    -0.000 C 
BRANCH  11  12
ATOM     12  C   UNL     1       4.883  26.676  26.792  1.00  0.00    -0.000 C 
BRANCH  12  13
ATOM     13  C   UNL     1       5.267  26.373  28.249  1.00  0.00    -0.000 C 
BRANCH  13  14
ATOM     14  C   UNL     1       6.786  26.264  28.453  1.00  0.00    -0.000 C 
BRANCH  14  15
ATOM     15  C   UNL     1       7.418  25.358  27.390  1.00  0.00    -0.000 C 
BRANCH  15  16
ATOM     16  C   UNL     1       8.642  26.026  26.754  1.00  0.00    -0.003 C 
ATOM     17  C   UNL     1       8.480  26.151  25.242  1.00  0.00     0.004 C 
ENDBRANCH  15  16
ENDBRANCH  14  15
ENDBRANCH  13  14
ENDBRANCH  12  13
ENDBRANCH  11  12
ENDBRANCH  10  11
ENDBRANCH   1  10
TORSDOF 13
ENDMDL
MODEL 9
REMARK VINA RESULT:    -3.976      3.005      5.902
REMARK INTER + INTRA:          -8.630
REMARK INTER:                  -6.306
REMARK INTRA:                  -2.324
REMARK UNBOUND:                -1.631
REMARK SMILES CCCCCCCCCCCCCCC(=O)[O-]
REMARK SMILES IDX 9 1 10 2 11 3 12 4 13 5 14 6 15 7 16 8 17 9 8 10 7 11 6 12
REMARK SMILES IDX 5 13 4 14 3 15 2 16 1 17
REMARK H PARENT
REMARK Flexibility Score: inf
ROOT
ATOM      1  C   UNL     1       7.456  26.631  28.500  1.00  0.00     0.000 C 
ENDROOT
BRANCH   1   2
ATOM      2  C   UNL     1       6.797  27.989  28.773  1.00  0.00     0.000 C 
BRANCH   2   3
ATOM      3  C   UNL     1       7.724  29.143  28.363  1.00  0.00     0.000 C 
BRANCH   3   4
ATOM      4  C   UNL     1       8.999  28.656  27.655  1.00  0.00     0.000 C 
BRANCH   4   5
ATOM      5  C   UNL     1       9.380  29.534  26.452  1.00  0.00     0.006 C 
BRANCH   5   6
ATOM      6  C   UNL     1       8.734  30.925  26.522  1.00  0.00     0.053 C 
BRANCH   6   7
ATOM      7  C   UNL     1       9.668  31.997  26.046  1.00  0.00     0.041 C 
ATOM      8  O   UNL     1       9.814  32.208  24.814  1.00  0.00    -0.550 OA
ATOM      9  O   UNL     1      10.397  32.742  26.964  1.00  0.00    -0.550 OA
ENDBRANCH   6   7
ENDBRANCH   5   6
ENDBRANCH   4   5
ENDBRANCH   3   4
ENDBRANCH   2   3
ENDBRANCH   1   2
BRANCH   1  10
ATOM     10  C   UNL     1       6.564  25.757  27.605  1.00  0.00     0.000 C 
BRANCH  10  11
ATOM     11  C   UNL     1       7.374  24.870  26.645  1.00  0.00    -0.000 C 
BRANCH  11  12
ATOM     12  C   UNL     1       7.139  25.229  25.168  1.00  0.00    -0.000 C 
BRANCH  12  13
ATOM     13  C   UNL     1       7.649  26.634  24.812  1.00  0.00    -0.000 C 
BRANCH  13  14
ATOM     14  C   UNL     1       6.577  27.503  24.136  1.00  0.00    -0.000 C 
BRANCH  14  15
ATOM     15  C   UNL     1       6.142  28.651  25.054  1.00  0.00    -0.000 C 
BRANCH  15  16
ATOM     16  C   UNL     1       4.744  28.398  25.627  1.00  0.00    -0.003 C 
ATOM     17  C   UNL     1       4.299  29.548  26.526  1.00  0.00     0.004 C 
ENDBRANCH  15  16
ENDBRANCH  14  15
ENDBRANCH  13  14
ENDBRANCH  12  13
ENDBRANCH  11  12
ENDBRANCH  10  11
ENDBRANCH   1  10
TORSDOF 13
ENDMDL
