MODEL 1
REMARK VINA RESULT:    -2.787      0.000      0.000
REMARK INTER + INTRA:          -2.787
REMARK INTER:                  -2.787
REMARK INTRA:                   0.000
REMARK UNBOUND:                 0.000
REMARK SMILES CC(=O)[O-]
REMARK SMILES IDX 1 1 2 2 3 3 4 4
REMARK H PARENT
REMARK Flexibility Score: inf
ROOT
ATOM      1  C   UNL     1      28.483  -1.023  43.760  1.00  0.00     0.063 C 
ATOM      2  C   UNL     1      29.973  -0.969  43.809  1.00  0.00     0.038 C 
ATOM      3  O   UNL     1      30.643  -1.037  42.746  1.00  0.00    -0.550 OA
ATOM      4  O   UNL     1      30.627  -0.898  45.032  1.00  0.00    -0.550 OA
ENDROOT
TORSDOF 0
ENDMDL
MODEL 2
REMARK VINA RESULT:    -2.762      1.743      1.862
REMARK INTER + INTRA:          -2.762
REMARK INTER:                  -2.762
REMARK INTRA:                   0.000
REMARK UNBOUND:                 0.000
REMARK SMILES CC(=O)[O-]
REMARK SMILES IDX 1 1 2 2 3 3 4 4
REMARK H PARENT
REMARK Flexibility Score: inf
ROOT
ATOM      1  C   UNL     1      29.956  -0.863  43.377  1.00  0.00     0.063 C 
ATOM      2  C   UNL     1      29.786  -1.391  44.762  1.00  0.00     0.038 C 
ATOM      3  O   UNL     1      28.794  -2.112  45.046  1.00  0.00    -0.550 OA
ATOM      4  O   UNL     1      30.693  -1.046  45.755  1.00  0.00    -0.550 OA
ENDROOT
TORSDOF 0
ENDMDL
MODEL 3
REMARK VINA RESULT:    -2.640      2.949      3.573
REMARK INTER + INTRA:          -2.640
REMARK INTER:                  -2.640
REMARK INTRA:                   0.000
REMARK UNBOUND:                 0.000
REMARK SMILES CC(=O)[O-]
REMARK SMILES IDX 1 1 2 2 3 3 4 4
REMARK H PARENT
REMARK Flexibility Score: inf
ROOT
ATOM      1  C   UNL     1      29.266  -0.538  39.758  1.00  0.00     0.063 C 
ATOM      2  C   UNL     1      30.335  -0.971  40.705  1.00  0.00     0.038 C 
ATOM      3  O   UNL     1      30.031  -1.366  41.862  1.00  0.00    -0.550 OA
ATOM      4  O   UNL     1      31.670  -0.889  40.334  1.00  0.00    -0.550 OA
ENDROOT
TORSDOF 0
ENDMDL
MODEL 4
REMARK VINA RESULT:    -2.631      2.977      3.336
REMARK INTER + INTRA:          -2.631
REMARK INTER:                  -2.631
REMARK INTRA:                   0.000
REMARK UNBOUND:                 0.000
REMARK SMILES CC(=O)[O-]
REMARK SMILES IDX 1 1 2 2 3 3 4 4
REMARK H PARENT
REMARK Flexibility Score: inf
ROOT
ATOM      1  C   UNL     1      29.223  -0.576  39.705  1.00  0.00     0.063 C 
ATOM      2  C   UNL     1      30.319  -0.952  40.645  1.00  0.00     0.038 C 
ATOM      3  O   UNL     1      31.517  -0.927  40.260  1.00  0.00    -0.550 OA
ATOM      4  O   UNL     1      30.017  -1.383  41.930  1.00  0.00    -0.550 OA
ENDROOT
TORSDOF 0
ENDMDL
MODEL 5
REMARK VINA RESULT:    -2.530      2.546      3.383
REMARK INTER + INTRA:          -2.530
REMARK INTER:                  -2.530
REMARK INTRA:                   0.000
REMARK UNBOUND:                 0.000
REMARK SMILES CC(=O)[O-]
REMARK SMILES IDX 1 1 2 2 3 3 4 4
REMARK H PARENT
REMARK Flexibility Score: inf
ROOT
ATOM      1  C   UNL     1      31.442  -0.735  40.430  1.00  0.00     0.063 C 
ATOM      2  C   UNL     1      30.293  -0.838  41.376  1.00  0.00     0.038 C 
ATOM      3  O   UNL     1      30.499  -1.057  42.599  1.00  0.00    -0.550 OA
ATOM      4  O   UNL     1      28.991  -0.746  40.903  1.00  0.00    -0.550 OA
ENDROOT
TORSDOF 0
ENDMDL
MODEL 6
REMARK VINA RESULT:    -2.493      4.859      5.284
REMARK INTER + INTRA:          -2.493
REMARK INTER:                  -2.493
REMARK INTRA:                   0.000
REMARK UNBOUND:                 0.000
REMARK SMILES CC(=O)[O-]
REMARK SMILES IDX 1 1 2 2 3 3 4 4
REMARK H PARENT
REMARK Flexibility Score: inf
ROOT
ATOM      1  C   UNL     1      31.513   2.007  39.861  1.00  0.00     0.063 C 
ATOM      2  C   UNL     1      31.929   0.673  39.341  1.00  0.00     0.038 C 
ATOM      3  O   UNL     1      32.124   0.508  38.108  1.00  0.00    -0.550 OA
ATOM      4  O   UNL     1      32.052  -0.405  40.208  1.00  0.00    -0.550 OA
ENDROOT
TORSDOF 0
ENDMDL
MODEL 7
REMARK VINA RESULT:    -2.480     11.005     11.527
REMARK INTER + INTRA:          -2.480
REMARK INTER:                  -2.480
REMARK INTRA:                   0.000
REMARK UNBOUND:                 0.000
REMARK SMILES CC(=O)[O-]
REMARK SMILES IDX 1 1 2 2 3 3 4 4
REMARK H PARENT
REMARK Flexibility Score: inf
ROOT
ATOM      1  C   UNL     1      20.864   1.511  40.401  1.00  0.00     0.063 C 
ATOM      2  C   UNL     1      19.492   2.018  40.695  1.00  0.00     0.038 C 
ATOM      3  O   UNL     1      19.050   1.996  41.874  1.00  0.00    -0.550 OA
ATOM      4  O   UNL     1      18.679   2.465  39.662  1.00  0.00    -0.550 OA
ENDROOT
TORSDOF 0
ENDMDL
MODEL 8
REMARK VINA RESULT:    -2.404      4.172      4.670
REMARK INTER + INTRA:          -2.404
REMARK INTER:                  -2.404
REMARK INTRA:                   0.000
REMARK UNBOUND:                 0.000
REMARK SMILES CC(=O)[O-]
REMARK SMILES IDX 1 1 2 2 3 3 4 4
REMARK H PARENT
REMARK Flexibility Score: inf
ROOT
ATOM      1  C   UNL     1      29.059   0.436  38.489  1.00  0.00     0.063 C 
ATOM      2  C   UNL     1      29.996   0.378  39.648  1.00  0.00     0.038 C 
ATOM      3  O   UNL     1      29.965  -0.603  40.437  1.00  0.00    -0.550 OA
ATOM      4  O   UNL     1      30.869   1.430  39.893  1.00  0.00    -0.550 OA
ENDROOT
TORSDOF 0
ENDMDL
MODEL 9
REMARK VINA RESULT:    -2.392     10.883     11.296
REMARK INTER + INTRA:          -2.392
REMARK INTER:                  -2.392
REMARK INTRA:                   0.000
REMARK UNBOUND:                 0.000
REMARK SMILES CC(=O)[O-]
REMARK SMILES IDX 1 1 2 2 3 3 4 4
REMARK H PARENT
REMARK Flexibility Score: inf
ROOT
ATOM      1  C   UNL     1      21.028   1.556  40.415  1.00  0.00     0.063 C 
ATOM      2  C   UNL     1      19.616   1.994  40.609  1.00  0.00     0.038 C 
ATOM      3  O   UNL     1      18.942   2.409  39.630  1.00  0.00    -0.550 OA
ATOM      4  O   UNL     1      19.056   1.996  41.880  1.00  0.00    -0.550 OA
ENDROOT
TORSDOF 0
ENDMDL
