MODEL 1
REMARK VINA RESULT:    -4.628      0.000      0.000
REMARK INTER + INTRA:          -5.630
REMARK INTER:                  -5.305
REMARK INTRA:                  -0.325
REMARK UNBOUND:                -0.325
REMARK SMILES COc1ccc(C(C)=O)c(O)c1
REMARK SMILES IDX 6 1 10 2 12 3 3 4 4 5 5 6 7 7 8 8 9 9 11 10 2 12 1 13
REMARK H PARENT 11 11
REMARK Flexibility Score: inf
ROOT
ATOM      1  C   UNL     1     173.111 172.931 179.337  1.00  0.00     0.059 A 
ATOM      2  C   UNL     1     171.806 172.991 178.792  1.00  0.00     0.130 A 
ATOM      3  C   UNL     1     171.568 172.496 177.503  1.00  0.00     0.093 A 
ATOM      4  C   UNL     1     172.593 171.910 176.755  1.00  0.00     0.122 A 
ATOM      5  C   UNL     1     173.882 171.823 177.308  1.00  0.00     0.047 A 
ATOM      6  C   UNL     1     174.136 172.330 178.584  1.00  0.00     0.019 A 
ENDROOT
BRANCH   1   7
ATOM      7  C   UNL     1     173.438 173.515 180.660  1.00  0.00     0.163 C 
ATOM      8  C   UNL     1     174.581 172.995 181.475  1.00  0.00     0.093 C 
ATOM      9  O   UNL     1     172.801 174.518 181.079  1.00  0.00    -0.294 OA
ENDBRANCH   1   7
BRANCH   2  10
ATOM     10  O   UNL     1     170.719 173.502 179.504  1.00  0.00    -0.507 OA
ATOM     11  H   UNL     1     170.016 172.920 179.938  1.00  0.00     0.293 HD
ENDBRANCH   2  10
BRANCH   4  12
ATOM     12  O   UNL     1     172.290 171.427 175.473  1.00  0.00    -0.497 OA
ATOM     13  C   UNL     1     171.418 170.331 175.213  1.00  0.00     0.278 C 
ENDBRANCH   4  12
TORSDOF 3
ENDMDL
MODEL 2
REMARK VINA RESULT:    -4.612      2.616      3.471
REMARK INTER + INTRA:          -5.612
REMARK INTER:                  -5.283
REMARK INTRA:                  -0.329
REMARK UNBOUND:                -0.325
REMARK SMILES COc1ccc(C(C)=O)c(O)c1
REMARK SMILES IDX 6 1 10 2 12 3 3 4 4 5 5 6 7 7 8 8 9 9 11 10 2 12 1 13
REMARK H PARENT 11 11
REMARK Flexibility Score: inf
ROOT
ATOM      1  C   UNL     1     173.231 173.437 179.310  1.00  0.00     0.059 A 
ATOM      2  C   UNL     1     174.550 173.373 178.800  1.00  0.00     0.130 A 
ATOM      3  C   UNL     1     174.819 173.843 177.509  1.00  0.00     0.093 A 
ATOM      4  C   UNL     1     173.812 174.407 176.722  1.00  0.00     0.122 A 
ATOM      5  C   UNL     1     172.508 174.498 177.238  1.00  0.00     0.047 A 
ATOM      6  C   UNL     1     172.223 174.016 178.518  1.00  0.00     0.019 A 
ENDROOT
BRANCH   1   7
ATOM      7  C   UNL     1     172.872 172.877 180.636  1.00  0.00     0.163 C 
ATOM      8  C   UNL     1     171.741 173.445 181.435  1.00  0.00     0.093 C 
ATOM      9  O   UNL     1     173.470 171.856 181.070  1.00  0.00    -0.294 OA
ENDBRANCH   1   7
BRANCH   2  10
ATOM     10  O   UNL     1     175.620 172.883 179.551  1.00  0.00    -0.507 OA
ATOM     11  H   UNL     1     176.200 173.466 180.140  1.00  0.00     0.293 HD
ENDBRANCH   2  10
BRANCH   4  12
ATOM     12  O   UNL     1     174.146 174.867 175.439  1.00  0.00    -0.497 OA
ATOM     13  C   UNL     1     174.914 176.038 175.179  1.00  0.00     0.278 C 
ENDBRANCH   4  12
TORSDOF 3
ENDMDL
MODEL 3
REMARK VINA RESULT:    -4.450      2.365      2.708
REMARK INTER + INTRA:          -5.426
REMARK INTER:                  -5.122
REMARK INTRA:                  -0.304
REMARK UNBOUND:                -0.325
REMARK SMILES COc1ccc(C(C)=O)c(O)c1
REMARK SMILES IDX 6 1 10 2 12 3 3 4 4 5 5 6 7 7 8 8 9 9 11 10 2 12 1 13
REMARK H PARENT 11 11
REMARK Flexibility Score: inf
ROOT
ATOM      1  C   UNL     1     173.660 173.337 179.190  1.00  0.00     0.059 A 
ATOM      2  C   UNL     1     172.488 173.790 178.539  1.00  0.00     0.130 A 
ATOM      3  C   UNL     1     172.579 174.370 177.267  1.00  0.00     0.093 A 
ATOM      4  C   UNL     1     173.809 174.480 176.612  1.00  0.00     0.122 A 
ATOM      5  C   UNL     1     174.969 174.003 177.246  1.00  0.00     0.047 A 
ATOM      6  C   UNL     1     174.892 173.439 178.521  1.00  0.00     0.019 A 
ENDROOT
BRANCH   1   7
ATOM      7  C   UNL     1     173.632 172.793 180.570  1.00  0.00     0.163 C 
ATOM      8  C   UNL     1     174.828 172.894 181.465  1.00  0.00     0.093 C 
ATOM      9  O   UNL     1     172.566 172.309 181.034  1.00  0.00    -0.294 OA
ENDBRANCH   1   7
BRANCH   2  10
ATOM     10  O   UNL     1     171.217 173.655 179.103  1.00  0.00    -0.507 OA
ATOM     11  H   UNL     1     171.015 173.034 179.875  1.00  0.00     0.293 HD
ENDBRANCH   2  10
BRANCH   4  12
ATOM     12  O   UNL     1     173.834 175.064 175.336  1.00  0.00    -0.497 OA
ATOM     13  C   UNL     1     174.733 176.096 174.942  1.00  0.00     0.278 C 
ENDBRANCH   4  12
TORSDOF 3
ENDMDL
MODEL 4
REMARK VINA RESULT:    -4.423      1.332      5.001
REMARK INTER + INTRA:          -5.395
REMARK INTER:                  -5.057
REMARK INTRA:                  -0.338
REMARK UNBOUND:                -0.325
REMARK SMILES COc1ccc(C(C)=O)c(O)c1
REMARK SMILES IDX 6 1 10 2 12 3 3 4 4 5 5 6 7 7 8 8 9 9 11 10 2 12 1 13
REMARK H PARENT 11 11
REMARK Flexibility Score: inf
ROOT
ATOM      1  C   UNL     1     171.733 172.244 177.239  1.00  0.00     0.059 A 
ATOM      2  C   UNL     1     173.040 171.861 177.627  1.00  0.00     0.130 A 
ATOM      3  C   UNL     1     173.552 172.288 178.858  1.00  0.00     0.093 A 
ATOM      4  C   UNL     1     172.782 173.061 179.732  1.00  0.00     0.122 A 
ATOM      5  C   UNL     1     171.474 173.416 179.360  1.00  0.00     0.047 A 
ATOM      6  C   UNL     1     170.958 173.011 178.127  1.00  0.00     0.019 A 
ENDROOT
BRANCH   1   7
ATOM      7  C   UNL     1     171.172 171.891 175.913  1.00  0.00     0.163 C 
ATOM      8  C   UNL     1     170.804 172.952 174.922  1.00  0.00     0.093 C 
ATOM      9  O   UNL     1     171.075 170.682 175.572  1.00  0.00    -0.294 OA
ENDBRANCH   1   7
BRANCH   2  10
ATOM     10  O   UNL     1     173.844 171.037 176.838  1.00  0.00    -0.507 OA
ATOM     11  H   UNL     1     173.784 171.002 175.829  1.00  0.00     0.293 HD
ENDBRANCH   2  10
BRANCH   4  12
ATOM     12  O   UNL     1     173.349 173.452 180.954  1.00  0.00    -0.497 OA
ATOM     13  C   UNL     1     174.612 173.003 181.434  1.00  0.00     0.278 C 
ENDBRANCH   4  12
TORSDOF 3
ENDMDL
MODEL 5
REMARK VINA RESULT:    -4.412      1.356      4.702
REMARK INTER + INTRA:          -5.382
REMARK INTER:                  -5.143
REMARK INTRA:                  -0.239
REMARK UNBOUND:                -0.325
REMARK SMILES COc1ccc(C(C)=O)c(O)c1
REMARK SMILES IDX 6 1 10 2 12 3 3 4 4 5 5 6 7 7 8 8 9 9 11 10 2 12 1 13
REMARK H PARENT 11 11
REMARK Flexibility Score: inf
ROOT
ATOM      1  C   UNL     1     172.425 171.187 176.684  1.00  0.00     0.059 A 
ATOM      2  C   UNL     1     171.246 171.947 176.879  1.00  0.00     0.130 A 
ATOM      3  C   UNL     1     171.164 172.836 177.958  1.00  0.00     0.093 A 
ATOM      4  C   UNL     1     172.240 173.013 178.832  1.00  0.00     0.122 A 
ATOM      5  C   UNL     1     173.421 172.280 178.621  1.00  0.00     0.047 A 
ATOM      6  C   UNL     1     173.509 171.378 177.559  1.00  0.00     0.019 A 
ENDROOT
BRANCH   1   7
ATOM      7  C   UNL     1     172.535 170.171 175.610  1.00  0.00     0.163 C 
ATOM      8  C   UNL     1     173.772 169.341 175.454  1.00  0.00     0.093 C 
ATOM      9  O   UNL     1     171.549 169.936 174.862  1.00  0.00    -0.294 OA
ENDBRANCH   1   7
BRANCH   2  10
ATOM     10  O   UNL     1     170.154 171.873 176.012  1.00  0.00    -0.507 OA
ATOM     11  H   UNL     1     169.697 172.687 175.623  1.00  0.00     0.293 HD
ENDBRANCH   2  10
BRANCH   4  12
ATOM     12  O   UNL     1     172.098 173.923 179.890  1.00  0.00    -0.497 OA
ATOM     13  C   UNL     1     172.814 173.846 181.119  1.00  0.00     0.278 C 
ENDBRANCH   4  12
TORSDOF 3
ENDMDL
MODEL 6
REMARK VINA RESULT:    -4.410      1.266      2.152
REMARK INTER + INTRA:          -5.380
REMARK INTER:                  -5.067
REMARK INTRA:                  -0.313
REMARK UNBOUND:                -0.325
REMARK SMILES COc1ccc(C(C)=O)c(O)c1
REMARK SMILES IDX 6 1 10 2 12 3 3 4 4 5 5 6 7 7 8 8 9 9 11 10 2 12 1 13
REMARK H PARENT 11 11
REMARK Flexibility Score: inf
ROOT
ATOM      1  C   UNL     1     172.676 173.055 179.233  1.00  0.00     0.059 A 
ATOM      2  C   UNL     1     173.859 172.575 178.622  1.00  0.00     0.130 A 
ATOM      3  C   UNL     1     173.798 171.994 177.350  1.00  0.00     0.093 A 
ATOM      4  C   UNL     1     172.590 171.907 176.653  1.00  0.00     0.122 A 
ATOM      5  C   UNL     1     171.419 172.411 177.246  1.00  0.00     0.047 A 
ATOM      6  C   UNL     1     171.465 172.977 178.522  1.00  0.00     0.019 A 
ENDROOT
BRANCH   1   7
ATOM      7  C   UNL     1     172.668 173.603 180.611  1.00  0.00     0.163 C 
ATOM      8  C   UNL     1     171.483 173.424 181.508  1.00  0.00     0.093 C 
ATOM      9  O   UNL     1     173.701 174.158 181.073  1.00  0.00    -0.294 OA
ENDBRANCH   1   7
BRANCH   2  10
ATOM     10  O   UNL     1     175.113 172.685 179.228  1.00  0.00    -0.507 OA
ATOM     11  H   UNL     1     175.684 173.518 179.178  1.00  0.00     0.293 HD
ENDBRANCH   2  10
BRANCH   4  12
ATOM     12  O   UNL     1     172.595 171.320 175.379  1.00  0.00    -0.497 OA
ATOM     13  C   UNL     1     171.802 170.197 175.008  1.00  0.00     0.278 C 
ENDBRANCH   4  12
TORSDOF 3
ENDMDL
MODEL 7
REMARK VINA RESULT:    -4.408      3.338      5.137
REMARK INTER + INTRA:          -5.377
REMARK INTER:                  -5.090
REMARK INTRA:                  -0.287
REMARK UNBOUND:                -0.325
REMARK SMILES COc1ccc(C(C)=O)c(O)c1
REMARK SMILES IDX 6 1 10 2 12 3 3 4 4 5 5 6 7 7 8 8 9 9 11 10 2 12 1 13
REMARK H PARENT 11 11
REMARK Flexibility Score: inf
ROOT
ATOM      1  C   UNL     1     173.911 175.043 176.763  1.00  0.00     0.059 A 
ATOM      2  C   UNL     1     175.049 174.223 176.957  1.00  0.00     0.130 A 
ATOM      3  C   UNL     1     175.112 173.373 178.069  1.00  0.00     0.093 A 
ATOM      4  C   UNL     1     174.052 173.294 178.977  1.00  0.00     0.122 A 
ATOM      5  C   UNL     1     172.910 174.085 178.768  1.00  0.00     0.047 A 
ATOM      6  C   UNL     1     172.843 174.950 177.673  1.00  0.00     0.019 A 
ENDROOT
BRANCH   1   7
ATOM      7  C   UNL     1     173.828 176.021 175.652  1.00  0.00     0.163 C 
ATOM      8  C   UNL     1     172.540 176.711 175.323  1.00  0.00     0.093 C 
ATOM      9  O   UNL     1     174.869 176.346 175.021  1.00  0.00    -0.294 OA
ENDBRANCH   1   7
BRANCH   2  10
ATOM     10  O   UNL     1     176.118 174.199 176.059  1.00  0.00    -0.507 OA
ATOM     11  H   UNL     1     176.983 173.707 176.237  1.00  0.00     0.293 HD
ENDBRANCH   2  10
BRANCH   4  12
ATOM     12  O   UNL     1     174.172 172.418 180.066  1.00  0.00    -0.497 OA
ATOM     13  C   UNL     1     173.889 172.771 181.417  1.00  0.00     0.278 C 
ENDBRANCH   4  12
TORSDOF 3
ENDMDL
MODEL 8
REMARK VINA RESULT:    -4.397      1.928      2.391
REMARK INTER + INTRA:          -5.365
REMARK INTER:                  -5.043
REMARK INTRA:                  -0.322
REMARK UNBOUND:                -0.325
REMARK SMILES COc1ccc(C(C)=O)c(O)c1
REMARK SMILES IDX 6 1 10 2 12 3 3 4 4 5 5 6 7 7 8 8 9 9 11 10 2 12 1 13
REMARK H PARENT 11 11
REMARK Flexibility Score: inf
ROOT
ATOM      1  C   UNL     1     173.486 173.005 178.911  1.00  0.00     0.059 A 
ATOM      2  C   UNL     1     172.864 172.621 177.699  1.00  0.00     0.130 A 
ATOM      3  C   UNL     1     173.615 172.566 176.518  1.00  0.00     0.093 A 
ATOM      4  C   UNL     1     174.983 172.851 176.520  1.00  0.00     0.122 A 
ATOM      5  C   UNL     1     175.608 173.203 177.728  1.00  0.00     0.047 A 
ATOM      6  C   UNL     1     174.865 173.280 178.909  1.00  0.00     0.019 A 
ENDROOT
BRANCH   1   7
ATOM      7  C   UNL     1     172.722 173.163 180.172  1.00  0.00     0.163 C 
ATOM      8  C   UNL     1     173.395 173.043 181.504  1.00  0.00     0.093 C 
ATOM      9  O   UNL     1     171.504 173.484 180.133  1.00  0.00    -0.294 OA
ENDBRANCH   1   7
BRANCH   2  10
ATOM     10  O   UNL     1     171.516 172.259 177.630  1.00  0.00    -0.507 OA
ATOM     11  H   UNL     1     171.200 171.349 177.323  1.00  0.00     0.293 HD
ENDBRANCH   2  10
BRANCH   4  12
ATOM     12  O   UNL     1     175.683 172.771 175.307  1.00  0.00    -0.497 OA
ATOM     13  C   UNL     1     175.954 171.556 174.614  1.00  0.00     0.278 C 
ENDBRANCH   4  12
TORSDOF 3
ENDMDL
MODEL 9
REMARK VINA RESULT:    -4.372      2.232      2.726
REMARK INTER + INTRA:          -5.337
REMARK INTER:                  -5.006
REMARK INTRA:                  -0.331
REMARK UNBOUND:                -0.325
REMARK SMILES COc1ccc(C(C)=O)c(O)c1
REMARK SMILES IDX 6 1 10 2 12 3 3 4 4 5 5 6 7 7 8 8 9 9 11 10 2 12 1 13
REMARK H PARENT 11 11
REMARK Flexibility Score: inf
ROOT
ATOM      1  C   UNL     1     172.889 173.400 178.870  1.00  0.00     0.059 A 
ATOM      2  C   UNL     1     173.489 173.801 177.652  1.00  0.00     0.130 A 
ATOM      3  C   UNL     1     172.728 173.824 176.477  1.00  0.00     0.093 A 
ATOM      4  C   UNL     1     171.371 173.489 176.490  1.00  0.00     0.122 A 
ATOM      5  C   UNL     1     170.768 173.120 177.704  1.00  0.00     0.047 A 
ATOM      6  C   UNL     1     171.521 173.076 178.880  1.00  0.00     0.019 A 
ENDROOT
BRANCH   1   7
ATOM      7  C   UNL     1     173.668 173.276 180.126  1.00  0.00     0.163 C 
ATOM      8  C   UNL     1     173.008 173.422 181.463  1.00  0.00     0.093 C 
ATOM      9  O   UNL     1     174.887 172.962 180.082  1.00  0.00    -0.294 OA
ENDBRANCH   1   7
BRANCH   2  10
ATOM     10  O   UNL     1     174.822 174.211 177.573  1.00  0.00    -0.507 OA
ATOM     11  H   UNL     1     175.202 174.717 176.784  1.00  0.00     0.293 HD
ENDBRANCH   2  10
BRANCH   4  12
ATOM     12  O   UNL     1     170.660 173.539 175.281  1.00  0.00    -0.497 OA
ATOM     13  C   UNL     1     171.002 174.377 174.182  1.00  0.00     0.278 C 
ENDBRANCH   4  12
TORSDOF 3
ENDMDL
