MODEL 1
REMARK VINA RESULT:    -4.552      0.000      0.000
REMARK INTER + INTRA:          -5.148
REMARK INTER:                  -4.952
REMARK INTRA:                  -0.197
REMARK UNBOUND:                -0.197
REMARK SMILES Cc1ccc(C(C)C)c(O)c1
REMARK SMILES IDX 1 1 2 2 11 3 9 4 5 5 4 6 3 7 10 8 6 10 7 11 8 12
REMARK H PARENT 10 9
REMARK Flexibility Score: inf
ROOT
ATOM      1  C   UNL     1     177.379 178.094 182.786  1.00  0.00     0.044 C 
ATOM      2  C   UNL     1     176.975 176.720 182.336  1.00  0.00    -0.047 A 
ATOM      3  C   UNL     1     177.240 176.300 181.026  1.00  0.00     0.049 A 
ATOM      4  C   UNL     1     176.835 175.031 180.586  1.00  0.00     0.119 A 
ATOM      5  C   UNL     1     176.140 174.166 181.463  1.00  0.00    -0.004 A 
ATOM      6  C   UNL     1     175.863 174.608 182.770  1.00  0.00     0.008 A 
ATOM      7  C   UNL     1     176.271 175.873 183.199  1.00  0.00     0.004 A 
ENDROOT
BRANCH   4   8
ATOM      8  O   UNL     1     177.123 174.639 179.279  1.00  0.00    -0.508 OA
ATOM      9  H   UNL     1     176.648 173.859 178.839  1.00  0.00     0.293 HD
ENDBRANCH   4   8
BRANCH   5  10
ATOM     10  C   UNL     1     175.675 172.778 181.043  1.00  0.00     0.017 C 
ATOM     11  C   UNL     1     176.735 171.708 181.337  1.00  0.00     0.012 C 
ATOM     12  C   UNL     1     174.322 172.417 181.667  1.00  0.00     0.012 C 
ENDBRANCH   5  10
TORSDOF 2
ENDMDL
MODEL 2
REMARK VINA RESULT:    -4.278      2.104      4.353
REMARK INTER + INTRA:          -4.849
REMARK INTER:                  -4.657
REMARK INTRA:                  -0.192
REMARK UNBOUND:                -0.197
REMARK SMILES Cc1ccc(C(C)C)c(O)c1
REMARK SMILES IDX 1 1 2 2 11 3 9 4 5 5 4 6 3 7 10 8 6 10 7 11 8 12
REMARK H PARENT 10 9
REMARK Flexibility Score: inf
ROOT
ATOM      1  C   UNL     1     172.128 174.255 183.263  1.00  0.00     0.044 C 
ATOM      2  C   UNL     1     173.382 174.943 182.809  1.00  0.00    -0.047 A 
ATOM      3  C   UNL     1     174.602 174.256 182.807  1.00  0.00     0.049 A 
ATOM      4  C   UNL     1     175.786 174.901 182.420  1.00  0.00     0.119 A 
ATOM      5  C   UNL     1     175.758 176.263 182.038  1.00  0.00    -0.004 A 
ATOM      6  C   UNL     1     174.528 176.947 182.064  1.00  0.00     0.008 A 
ATOM      7  C   UNL     1     173.355 176.296 182.451  1.00  0.00     0.004 A 
ENDROOT
BRANCH   4   8
ATOM      8  O   UNL     1     176.984 174.186 182.418  1.00  0.00    -0.508 OA
ATOM      9  H   UNL     1     177.003 173.178 182.522  1.00  0.00     0.293 HD
ENDBRANCH   4   8
BRANCH   5  10
ATOM     10  C   UNL     1     177.009 177.017 181.608  1.00  0.00     0.017 C 
ATOM     11  C   UNL     1     176.855 177.627 180.208  1.00  0.00     0.012 C 
ATOM     12  C   UNL     1     177.422 178.074 182.640  1.00  0.00     0.012 C 
ENDBRANCH   5  10
TORSDOF 2
ENDMDL
MODEL 3
REMARK VINA RESULT:    -4.256      1.050      4.075
REMARK INTER + INTRA:          -4.825
REMARK INTER:                  -4.736
REMARK INTRA:                  -0.090
REMARK UNBOUND:                -0.197
REMARK SMILES Cc1ccc(C(C)C)c(O)c1
REMARK SMILES IDX 1 1 2 2 11 3 9 4 5 5 4 6 3 7 10 8 6 10 7 11 8 12
REMARK H PARENT 10 9
REMARK Flexibility Score: inf
ROOT
ATOM      1  C   UNL     1     175.220 171.624 181.655  1.00  0.00     0.044 C 
ATOM      2  C   UNL     1     175.677 173.034 181.419  1.00  0.00    -0.047 A 
ATOM      3  C   UNL     1     176.233 173.399 180.187  1.00  0.00     0.049 A 
ATOM      4  C   UNL     1     176.696 174.705 179.970  1.00  0.00     0.119 A 
ATOM      5  C   UNL     1     176.616 175.666 181.005  1.00  0.00    -0.004 A 
ATOM      6  C   UNL     1     176.073 175.280 182.244  1.00  0.00     0.008 A 
ATOM      7  C   UNL     1     175.615 173.978 182.451  1.00  0.00     0.004 A 
ENDROOT
BRANCH   4   8
ATOM      8  O   UNL     1     177.235 175.040 178.728  1.00  0.00    -0.508 OA
ATOM      9  H   UNL     1     176.917 175.851 178.210  1.00  0.00     0.293 HD
ENDBRANCH   4   8
BRANCH   5  10
ATOM     10  C   UNL     1     177.102 177.099 180.829  1.00  0.00     0.017 C 
ATOM     11  C   UNL     1     176.182 177.903 179.902  1.00  0.00     0.012 C 
ATOM     12  C   UNL     1     177.299 177.804 182.177  1.00  0.00     0.012 C 
ENDBRANCH   5  10
TORSDOF 2
ENDMDL
MODEL 4
REMARK VINA RESULT:    -4.254      2.937      4.366
REMARK INTER + INTRA:          -4.824
REMARK INTER:                  -4.630
REMARK INTRA:                  -0.193
REMARK UNBOUND:                -0.197
REMARK SMILES Cc1ccc(C(C)C)c(O)c1
REMARK SMILES IDX 1 1 2 2 11 3 9 4 5 5 4 6 3 7 10 8 6 10 7 11 8 12
REMARK H PARENT 10 9
REMARK Flexibility Score: inf
ROOT
ATOM      1  C   UNL     1     173.027 176.899 176.875  1.00  0.00     0.044 C 
ATOM      2  C   UNL     1     174.088 176.752 177.926  1.00  0.00    -0.047 A 
ATOM      3  C   UNL     1     175.271 176.060 177.642  1.00  0.00     0.049 A 
ATOM      4  C   UNL     1     176.253 175.886 178.628  1.00  0.00     0.119 A 
ATOM      5  C   UNL     1     176.047 176.401 179.930  1.00  0.00    -0.004 A 
ATOM      6  C   UNL     1     174.845 177.077 180.207  1.00  0.00     0.008 A 
ATOM      7  C   UNL     1     173.874 177.245 179.218  1.00  0.00     0.004 A 
ENDROOT
BRANCH   4   8
ATOM      8  O   UNL     1     177.425 175.201 178.311  1.00  0.00    -0.508 OA
ATOM      9  H   UNL     1     178.108 175.583 177.667  1.00  0.00     0.293 HD
ENDBRANCH   4   8
BRANCH   5  10
ATOM     10  C   UNL     1     177.076 176.244 181.042  1.00  0.00     0.017 C 
ATOM     11  C   UNL     1     177.079 177.450 181.990  1.00  0.00     0.012 C 
ATOM     12  C   UNL     1     176.893 174.927 181.807  1.00  0.00     0.012 C 
ENDBRANCH   5  10
TORSDOF 2
ENDMDL
MODEL 5
REMARK VINA RESULT:    -4.251      2.832      4.632
REMARK INTER + INTRA:          -4.820
REMARK INTER:                  -4.624
REMARK INTRA:                  -0.196
REMARK UNBOUND:                -0.197
REMARK SMILES Cc1ccc(C(C)C)c(O)c1
REMARK SMILES IDX 1 1 2 2 11 3 9 4 5 5 4 6 3 7 10 8 6 10 7 11 8 12
REMARK H PARENT 10 9
REMARK Flexibility Score: inf
ROOT
ATOM      1  C   UNL     1     175.048 176.102 176.684  1.00  0.00     0.044 C 
ATOM      2  C   UNL     1     175.270 176.328 178.151  1.00  0.00    -0.047 A 
ATOM      3  C   UNL     1     174.222 176.786 178.960  1.00  0.00     0.049 A 
ATOM      4  C   UNL     1     174.429 177.035 180.325  1.00  0.00     0.119 A 
ATOM      5  C   UNL     1     175.708 176.837 180.894  1.00  0.00    -0.004 A 
ATOM      6  C   UNL     1     176.757 176.397 180.066  1.00  0.00     0.008 A 
ATOM      7  C   UNL     1     176.541 176.151 178.708  1.00  0.00     0.004 A 
ENDROOT
BRANCH   4   8
ATOM      8  O   UNL     1     173.362 177.480 181.106  1.00  0.00    -0.508 OA
ATOM      9  H   UNL     1     172.430 177.097 181.003  1.00  0.00     0.293 HD
ENDBRANCH   4   8
BRANCH   5  10
ATOM     10  C   UNL     1     175.994 177.091 182.369  1.00  0.00     0.017 C 
ATOM     11  C   UNL     1     175.981 175.791 183.184  1.00  0.00     0.012 C 
ATOM     12  C   UNL     1     177.299 177.869 182.571  1.00  0.00     0.012 C 
ENDBRANCH   5  10
TORSDOF 2
ENDMDL
MODEL 6
REMARK VINA RESULT:    -4.184      3.293      4.294
REMARK INTER + INTRA:          -4.748
REMARK INTER:                  -4.557
REMARK INTRA:                  -0.191
REMARK UNBOUND:                -0.197
REMARK SMILES Cc1ccc(C(C)C)c(O)c1
REMARK SMILES IDX 1 1 2 2 11 3 9 4 5 5 4 6 3 7 10 8 6 10 7 11 8 12
REMARK H PARENT 10 9
REMARK Flexibility Score: inf
ROOT
ATOM      1  C   UNL     1     170.786 177.495 180.929  1.00  0.00     0.044 C 
ATOM      2  C   UNL     1     172.246 177.255 181.183  1.00  0.00    -0.047 A 
ATOM      3  C   UNL     1     173.110 176.968 180.119  1.00  0.00     0.049 A 
ATOM      4  C   UNL     1     174.468 176.707 180.350  1.00  0.00     0.119 A 
ATOM      5  C   UNL     1     174.977 176.719 181.670  1.00  0.00    -0.004 A 
ATOM      6  C   UNL     1     174.094 176.989 182.732  1.00  0.00     0.008 A 
ATOM      7  C   UNL     1     172.743 177.248 182.492  1.00  0.00     0.004 A 
ENDROOT
BRANCH   4   8
ATOM      8  O   UNL     1     175.304 176.435 179.267  1.00  0.00    -0.508 OA
ATOM      9  H   UNL     1     175.348 175.514 178.845  1.00  0.00     0.293 HD
ENDBRANCH   4   8
BRANCH   5  10
ATOM     10  C   UNL     1     176.441 176.444 181.984  1.00  0.00     0.017 C 
ATOM     11  C   UNL     1     177.137 177.672 182.584  1.00  0.00     0.012 C 
ATOM     12  C   UNL     1     176.611 175.208 182.876  1.00  0.00     0.012 C 
ENDBRANCH   5  10
TORSDOF 2
ENDMDL
MODEL 7
REMARK VINA RESULT:    -4.118      2.385      4.428
REMARK INTER + INTRA:          -4.676
REMARK INTER:                  -4.556
REMARK INTRA:                  -0.120
REMARK UNBOUND:                -0.197
REMARK SMILES Cc1ccc(C(C)C)c(O)c1
REMARK SMILES IDX 1 1 2 2 11 3 9 4 5 5 4 6 3 7 10 8 6 10 7 11 8 12
REMARK H PARENT 10 9
REMARK Flexibility Score: inf
ROOT
ATOM      1  C   UNL     1     173.061 173.471 182.941  1.00  0.00     0.044 C 
ATOM      2  C   UNL     1     173.961 174.625 182.610  1.00  0.00    -0.047 A 
ATOM      3  C   UNL     1     173.603 175.533 181.605  1.00  0.00     0.049 A 
ATOM      4  C   UNL     1     174.455 176.594 181.263  1.00  0.00     0.119 A 
ATOM      5  C   UNL     1     175.695 176.748 181.927  1.00  0.00    -0.004 A 
ATOM      6  C   UNL     1     176.051 175.817 182.919  1.00  0.00     0.008 A 
ATOM      7  C   UNL     1     175.197 174.764 183.253  1.00  0.00     0.004 A 
ENDROOT
BRANCH   4   8
ATOM      8  O   UNL     1     174.065 177.488 180.266  1.00  0.00    -0.508 OA
ATOM      9  H   UNL     1     174.051 177.222 179.288  1.00  0.00     0.293 HD
ENDBRANCH   4   8
BRANCH   5  10
ATOM     10  C   UNL     1     176.661 177.879 181.600  1.00  0.00     0.017 C 
ATOM     11  C   UNL     1     177.658 178.125 182.740  1.00  0.00     0.012 C 
ATOM     12  C   UNL     1     177.379 177.648 180.264  1.00  0.00     0.012 C 
ENDBRANCH   5  10
TORSDOF 2
ENDMDL
MODEL 8
REMARK VINA RESULT:    -4.023      3.319      4.620
REMARK INTER + INTRA:          -4.572
REMARK INTER:                  -4.380
REMARK INTRA:                  -0.192
REMARK UNBOUND:                -0.197
REMARK SMILES Cc1ccc(C(C)C)c(O)c1
REMARK SMILES IDX 1 1 2 2 11 3 9 4 5 5 4 6 3 7 10 8 6 10 7 11 8 12
REMARK H PARENT 10 9
REMARK Flexibility Score: inf
ROOT
ATOM      1  C   UNL     1     171.233 177.252 182.526  1.00  0.00     0.044 C 
ATOM      2  C   UNL     1     172.614 177.092 181.961  1.00  0.00    -0.047 A 
ATOM      3  C   UNL     1     173.718 176.982 182.816  1.00  0.00     0.049 A 
ATOM      4  C   UNL     1     175.016 176.869 182.297  1.00  0.00     0.119 A 
ATOM      5  C   UNL     1     175.222 176.878 180.898  1.00  0.00    -0.004 A 
ATOM      6  C   UNL     1     174.107 177.010 180.051  1.00  0.00     0.008 A 
ATOM      7  C   UNL     1     172.818 177.122 180.576  1.00  0.00     0.004 A 
ENDROOT
BRANCH   4   8
ATOM      8  O   UNL     1     176.093 176.750 183.175  1.00  0.00    -0.508 OA
ATOM      9  H   UNL     1     176.624 175.890 183.255  1.00  0.00     0.293 HD
ENDBRANCH   4   8
BRANCH   5  10
ATOM     10  C   UNL     1     176.607 176.759 180.276  1.00  0.00     0.017 C 
ATOM     11  C   UNL     1     176.568 176.017 178.934  1.00  0.00     0.012 C 
ATOM     12  C   UNL     1     177.293 178.125 180.144  1.00  0.00     0.012 C 
ENDBRANCH   5  10
TORSDOF 2
ENDMDL
MODEL 9
REMARK VINA RESULT:    -3.955      2.952      4.491
REMARK INTER + INTRA:          -4.499
REMARK INTER:                  -4.303
REMARK INTRA:                  -0.195
REMARK UNBOUND:                -0.197
REMARK SMILES Cc1ccc(C(C)C)c(O)c1
REMARK SMILES IDX 1 1 2 2 11 3 9 4 5 5 4 6 3 7 10 8 6 10 7 11 8 12
REMARK H PARENT 10 9
REMARK Flexibility Score: inf
ROOT
ATOM      1  C   UNL     1     170.622 175.970 182.641  1.00  0.00     0.044 C 
ATOM      2  C   UNL     1     172.118 176.001 182.533  1.00  0.00    -0.047 A 
ATOM      3  C   UNL     1     172.852 174.809 182.548  1.00  0.00     0.049 A 
ATOM      4  C   UNL     1     174.253 174.830 182.484  1.00  0.00     0.119 A 
ATOM      5  C   UNL     1     174.940 176.065 182.415  1.00  0.00    -0.004 A 
ATOM      6  C   UNL     1     174.191 177.256 182.420  1.00  0.00     0.008 A 
ATOM      7  C   UNL     1     172.797 177.225 182.485  1.00  0.00     0.004 A 
ENDROOT
BRANCH   4   8
ATOM      8  O   UNL     1     174.955 173.624 182.491  1.00  0.00    -0.508 OA
ATOM      9  H   UNL     1     175.932 173.578 182.753  1.00  0.00     0.293 HD
ENDBRANCH   4   8
BRANCH   5  10
ATOM     10  C   UNL     1     176.459 176.152 182.343  1.00  0.00     0.017 C 
ATOM     11  C   UNL     1     176.964 176.110 180.895  1.00  0.00     0.012 C 
ATOM     12  C   UNL     1     176.996 177.377 183.092  1.00  0.00     0.012 C 
ENDBRANCH   5  10
TORSDOF 2
ENDMDL
