MODEL 1
REMARK VINA RESULT:    -1.266      0.000      0.000
REMARK INTER + INTRA:          -5.118
REMARK INTER:                  -3.189
REMARK INTRA:                  -1.929
REMARK UNBOUND:                -1.929
REMARK SMILES CCCCCCCCCCCCCCCCCCCCCCCCCCCC(=O)[O-]
REMARK SMILES IDX 15 1 16 2 17 3 18 4 19 5 20 6 21 7 22 8 23 9 24 10 25 11
REMARK SMILES IDX 26 12 27 13 28 14 29 15 30 16 14 17 13 18 12 19 11 20 10 21
REMARK SMILES IDX 9 22 8 23 7 24 6 25 5 26 4 27 3 28 2 29 1 30
REMARK H PARENT
REMARK Flexibility Score: inf
ROOT
ATOM      1  C   UNL     1     -13.403  13.811  11.182  1.00  0.00     0.000 C 
ENDROOT
BRANCH   1   2
ATOM      2  C   UNL     1     -14.392  13.292  12.237  1.00  0.00     0.000 C 
BRANCH   2   3
ATOM      3  C   UNL     1     -15.459  14.342  12.608  1.00  0.00     0.000 C 
BRANCH   3   4
ATOM      4  C   UNL     1     -16.876  13.926  12.162  1.00  0.00     0.000 C 
BRANCH   4   5
ATOM      5  C   UNL     1     -16.984  12.447  11.740  1.00  0.00     0.000 C 
BRANCH   5   6
ATOM      6  C   UNL     1     -16.868  11.434  12.892  1.00  0.00     0.000 C 
BRANCH   6   7
ATOM      7  C   UNL     1     -16.217  10.111  12.455  1.00  0.00     0.000 C 
BRANCH   7   8
ATOM      8  C   UNL     1     -16.507   9.765  10.978  1.00  0.00     0.000 C 
BRANCH   8   9
ATOM      9  C   UNL     1     -16.048   8.353  10.563  1.00  0.00     0.000 C 
BRANCH   9  10
ATOM     10  C   UNL     1     -17.063   7.230  10.846  1.00  0.00     0.000 C 
BRANCH  10  11
ATOM     11  C   UNL     1     -17.124   6.755  12.313  1.00  0.00     0.000 C 
BRANCH  11  12
ATOM     12  C   UNL     1     -15.762   6.405  12.946  1.00  0.00     0.006 C 
BRANCH  12  13
ATOM     13  C   UNL     1     -15.372   4.923  12.835  1.00  0.00     0.053 C 
BRANCH  13  14
ATOM     14  C   UNL     1     -13.937   4.750  12.438  1.00  0.00     0.041 C 
ATOM     15  O   UNL     1     -13.623   3.914  11.550  1.00  0.00    -0.550 OA
ATOM     16  O   UNL     1     -12.945   5.497  13.063  1.00  0.00    -0.550 OA
ENDBRANCH  13  14
ENDBRANCH  12  13
ENDBRANCH  11  12
ENDBRANCH  10  11
ENDBRANCH   9  10
ENDBRANCH   8   9
ENDBRANCH   7   8
ENDBRANCH   6   7
ENDBRANCH   5   6
ENDBRANCH   4   5
ENDBRANCH   3   4
ENDBRANCH   2   3
ENDBRANCH   1   2
BRANCH   1  17
ATOM     17  C   UNL     1     -14.080  14.078   9.829  1.00  0.00     0.000 C 
BRANCH  17  18
ATOM     18  C   UNL     1     -14.131  12.825   8.935  1.00  0.00     0.000 C 
BRANCH  18  19
ATOM     19  C   UNL     1     -15.242  12.840   7.866  1.00  0.00     0.000 C 
BRANCH  19  20
ATOM     20  C   UNL     1     -16.064  11.541   7.743  1.00  0.00     0.000 C 
BRANCH  20  21
ATOM     21  C   UNL     1     -15.834  10.777   6.421  1.00  0.00     0.000 C 
BRANCH  21  22
ATOM     22  C   UNL     1     -14.344  10.683   6.061  1.00  0.00    -0.000 C 
BRANCH  22  23
ATOM     23  C   UNL     1     -14.086   9.626   4.981  1.00  0.00    -0.000 C 
BRANCH  23  24
ATOM     24  C   UNL     1     -13.229  10.179   3.821  1.00  0.00    -0.000 C 
BRANCH  24  25
ATOM     25  C   UNL     1     -13.744   9.786   2.424  1.00  0.00    -0.000 C 
BRANCH  25  26
ATOM     26  C   UNL     1     -12.704   9.125   1.498  1.00  0.00    -0.000 C 
BRANCH  26  27
ATOM     27  C   UNL     1     -13.292   8.260   0.368  1.00  0.00    -0.000 C 
BRANCH  27  28
ATOM     28  C   UNL     1     -14.551   7.491   0.796  1.00  0.00    -0.000 C 
BRANCH  28  29
ATOM     29  C   UNL     1     -14.820   6.267  -0.095  1.00  0.00    -0.003 C 
ATOM     30  C   UNL     1     -13.598   5.852  -0.915  1.00  0.00     0.004 C 
ENDBRANCH  28  29
ENDBRANCH  27  28
ENDBRANCH  26  27
ENDBRANCH  25  26
ENDBRANCH  24  25
ENDBRANCH  23  24
ENDBRANCH  22  23
ENDBRANCH  21  22
ENDBRANCH  20  21
ENDBRANCH  19  20
ENDBRANCH  18  19
ENDBRANCH  17  18
ENDBRANCH   1  17
TORSDOF 26
ENDMDL
MODEL 2
REMARK VINA RESULT:    -1.168      2.821      5.972
REMARK INTER + INTRA:          -4.873
REMARK INTER:                  -2.563
REMARK INTRA:                  -2.311
REMARK UNBOUND:                -1.929
REMARK SMILES CCCCCCCCCCCCCCCCCCCCCCCCCCCC(=O)[O-]
REMARK SMILES IDX 15 1 16 2 17 3 18 4 19 5 20 6 21 7 22 8 23 9 24 10 25 11
REMARK SMILES IDX 26 12 27 13 28 14 29 15 30 16 14 17 13 18 12 19 11 20 10 21
REMARK SMILES IDX 9 22 8 23 7 24 6 25 5 26 4 27 3 28 2 29 1 30
REMARK H PARENT
REMARK Flexibility Score: inf
ROOT
ATOM      1  C   UNL     1     -14.609  11.175   6.536  1.00  0.00     0.000 C 
ENDROOT
BRANCH   1   2
ATOM      2  C   UNL     1     -15.616  11.169   7.697  1.00  0.00     0.000 C 
BRANCH   2   3
ATOM      3  C   UNL     1     -16.754  10.151   7.482  1.00  0.00     0.000 C 
BRANCH   3   4
ATOM      4  C   UNL     1     -17.125   9.399   8.778  1.00  0.00     0.000 C 
BRANCH   4   5
ATOM      5  C   UNL     1     -16.110   8.307   9.172  1.00  0.00     0.000 C 
BRANCH   5   6
ATOM      6  C   UNL     1     -16.733   6.992   9.670  1.00  0.00     0.000 C 
BRANCH   6   7
ATOM      7  C   UNL     1     -16.256   6.607  11.081  1.00  0.00     0.000 C 
BRANCH   7   8
ATOM      8  C   UNL     1     -15.720   7.815  11.878  1.00  0.00     0.000 C 
BRANCH   8   9
ATOM      9  C   UNL     1     -16.761   8.462  12.811  1.00  0.00     0.000 C 
BRANCH   9  10
ATOM     10  C   UNL     1     -17.014   9.961  12.566  1.00  0.00     0.000 C 
BRANCH  10  11
ATOM     11  C   UNL     1     -15.805  10.750  12.020  1.00  0.00     0.000 C 
BRANCH  11  12
ATOM     12  C   UNL     1     -15.639  12.173  12.592  1.00  0.00     0.006 C 
BRANCH  12  13
ATOM     13  C   UNL     1     -14.393  12.917  12.089  1.00  0.00     0.053 C 
BRANCH  13  14
ATOM     14  C   UNL     1     -14.697  13.779  10.900  1.00  0.00     0.041 C 
ATOM     15  O   UNL     1     -15.517  14.730  11.002  1.00  0.00    -0.550 OA
ATOM     16  O   UNL     1     -14.091  13.519   9.676  1.00  0.00    -0.550 OA
ENDBRANCH  13  14
ENDBRANCH  12  13
ENDBRANCH  11  12
ENDBRANCH  10  11
ENDBRANCH   9  10
ENDBRANCH   8   9
ENDBRANCH   7   8
ENDBRANCH   6   7
ENDBRANCH   5   6
ENDBRANCH   4   5
ENDBRANCH   3   4
ENDBRANCH   2   3
ENDBRANCH   1   2
BRANCH   1  17
ATOM     17  C   UNL     1     -14.882  10.053   5.523  1.00  0.00     0.000 C 
BRANCH  17  18
ATOM     18  C   UNL     1     -13.731   9.873   4.516  1.00  0.00     0.000 C 
BRANCH  18  19
ATOM     19  C   UNL     1     -14.127   9.167   3.203  1.00  0.00     0.000 C 
BRANCH  19  20
ATOM     20  C   UNL     1     -13.386   9.649   1.939  1.00  0.00     0.000 C 
BRANCH  20  21
ATOM     21  C   UNL     1     -13.486   8.675   0.746  1.00  0.00     0.000 C 
BRANCH  21  22
ATOM     22  C   UNL     1     -12.109   8.349   0.150  1.00  0.00    -0.000 C 
BRANCH  22  23
ATOM     23  C   UNL     1     -12.185   7.201  -0.864  1.00  0.00    -0.000 C 
BRANCH  23  24
ATOM     24  C   UNL     1     -13.632   6.705  -1.071  1.00  0.00    -0.000 C 
BRANCH  24  25
ATOM     25  C   UNL     1     -13.822   5.202  -0.791  1.00  0.00    -0.000 C 
BRANCH  25  26
ATOM     26  C   UNL     1     -14.637   4.431  -1.847  1.00  0.00    -0.000 C 
BRANCH  26  27
ATOM     27  C   UNL     1     -16.009   3.922  -1.368  1.00  0.00    -0.000 C 
BRANCH  27  28
ATOM     28  C   UNL     1     -17.034   5.052  -1.179  1.00  0.00    -0.000 C 
BRANCH  28  29
ATOM     29  C   UNL     1     -17.112   5.531   0.281  1.00  0.00    -0.003 C 
ATOM     30  C   UNL     1     -17.062   7.054   0.407  1.00  0.00     0.004 C 
ENDBRANCH  28  29
ENDBRANCH  27  28
ENDBRANCH  26  27
ENDBRANCH  25  26
ENDBRANCH  24  25
ENDBRANCH  23  24
ENDBRANCH  22  23
ENDBRANCH  21  22
ENDBRANCH  20  21
ENDBRANCH  19  20
ENDBRANCH  18  19
ENDBRANCH  17  18
ENDBRANCH   1  17
TORSDOF 26
ENDMDL
MODEL 3
REMARK VINA RESULT:    -1.041      1.136      1.976
REMARK INTER + INTRA:          -4.553
REMARK INTER:                  -2.461
REMARK INTRA:                  -2.092
REMARK UNBOUND:                -1.929
REMARK SMILES CCCCCCCCCCCCCCCCCCCCCCCCCCCC(=O)[O-]
REMARK SMILES IDX 15 1 16 2 17 3 18 4 19 5 20 6 21 7 22 8 23 9 24 10 25 11
REMARK SMILES IDX 26 12 27 13 28 14 29 15 30 16 14 17 13 18 12 19 11 20 10 21
REMARK SMILES IDX 9 22 8 23 7 24 6 25 5 26 4 27 3 28 2 29 1 30
REMARK H PARENT
REMARK Flexibility Score: inf
ROOT
ATOM      1  C   UNL     1     -13.859  13.103   7.470  1.00  0.00     0.000 C 
ENDROOT
BRANCH   1   2
ATOM      2  C   UNL     1     -13.719  13.978   8.725  1.00  0.00     0.000 C 
BRANCH   2   3
ATOM      3  C   UNL     1     -14.160  13.242  10.006  1.00  0.00     0.000 C 
BRANCH   3   4
ATOM      4  C   UNL     1     -15.135  14.079  10.861  1.00  0.00     0.000 C 
BRANCH   4   5
ATOM      5  C   UNL     1     -14.995  13.835  12.377  1.00  0.00     0.000 C 
BRANCH   5   6
ATOM      6  C   UNL     1     -15.021  12.356  12.801  1.00  0.00     0.000 C 
BRANCH   6   7
ATOM      7  C   UNL     1     -16.398  11.704  12.594  1.00  0.00     0.000 C 
BRANCH   7   8
ATOM      8  C   UNL     1     -16.470  10.861  11.303  1.00  0.00     0.000 C 
BRANCH   8   9
ATOM      9  C   UNL     1     -16.836   9.383  11.539  1.00  0.00     0.000 C 
BRANCH   9  10
ATOM     10  C   UNL     1     -16.641   8.886  12.983  1.00  0.00     0.000 C 
BRANCH  10  11
ATOM     11  C   UNL     1     -15.877   7.552  13.121  1.00  0.00     0.000 C 
BRANCH  11  12
ATOM     12  C   UNL     1     -14.776   7.317  12.066  1.00  0.00     0.006 C 
BRANCH  12  13
ATOM     13  C   UNL     1     -14.968   6.048  11.221  1.00  0.00     0.053 C 
BRANCH  13  14
ATOM     14  C   UNL     1     -14.491   4.821  11.937  1.00  0.00     0.041 C 
ATOM     15  O   UNL     1     -15.304   3.908  12.239  1.00  0.00    -0.550 OA
ATOM     16  O   UNL     1     -13.152   4.695  12.289  1.00  0.00    -0.550 OA
ENDBRANCH  13  14
ENDBRANCH  12  13
ENDBRANCH  11  12
ENDBRANCH  10  11
ENDBRANCH   9  10
ENDBRANCH   8   9
ENDBRANCH   7   8
ENDBRANCH   6   7
ENDBRANCH   5   6
ENDBRANCH   4   5
ENDBRANCH   3   4
ENDBRANCH   2   3
ENDBRANCH   1   2
BRANCH   1  17
ATOM     17  C   UNL     1     -14.944  13.623   6.515  1.00  0.00     0.000 C 
BRANCH  17  18
ATOM     18  C   UNL     1     -16.344  13.080   6.858  1.00  0.00     0.000 C 
BRANCH  18  19
ATOM     19  C   UNL     1     -16.349  11.705   7.556  1.00  0.00     0.000 C 
BRANCH  19  20
ATOM     20  C   UNL     1     -16.890  10.533   6.712  1.00  0.00     0.000 C 
BRANCH  20  21
ATOM     21  C   UNL     1     -15.816   9.495   6.320  1.00  0.00     0.000 C 
BRANCH  21  22
ATOM     22  C   UNL     1     -14.544  10.160   5.774  1.00  0.00    -0.000 C 
BRANCH  22  23
ATOM     23  C   UNL     1     -13.963   9.385   4.585  1.00  0.00    -0.000 C 
BRANCH  23  24
ATOM     24  C   UNL     1     -13.073  10.276   3.692  1.00  0.00    -0.000 C 
BRANCH  24  25
ATOM     25  C   UNL     1     -13.308  10.077   2.182  1.00  0.00    -0.000 C 
BRANCH  25  26
ATOM     26  C   UNL     1     -12.660   8.818   1.574  1.00  0.00    -0.000 C 
BRANCH  26  27
ATOM     27  C   UNL     1     -12.826   8.671   0.050  1.00  0.00    -0.000 C 
BRANCH  27  28
ATOM     28  C   UNL     1     -12.894   7.204  -0.405  1.00  0.00    -0.000 C 
BRANCH  28  29
ATOM     29  C   UNL     1     -14.224   6.535  -0.021  1.00  0.00    -0.003 C 
ATOM     30  C   UNL     1     -14.563   5.339  -0.913  1.00  0.00     0.004 C 
ENDBRANCH  28  29
ENDBRANCH  27  28
ENDBRANCH  26  27
ENDBRANCH  25  26
ENDBRANCH  24  25
ENDBRANCH  23  24
ENDBRANCH  22  23
ENDBRANCH  21  22
ENDBRANCH  20  21
ENDBRANCH  19  20
ENDBRANCH  18  19
ENDBRANCH  17  18
ENDBRANCH   1  17
TORSDOF 26
ENDMDL
MODEL 4
REMARK VINA RESULT:    -0.254      3.749     10.037
REMARK INTER + INTRA:          -2.568
REMARK INTER:                  -1.134
REMARK INTRA:                  -1.434
REMARK UNBOUND:                -1.929
REMARK SMILES CCCCCCCCCCCCCCCCCCCCCCCCCCCC(=O)[O-]
REMARK SMILES IDX 15 1 16 2 17 3 18 4 19 5 20 6 21 7 22 8 23 9 24 10 25 11
REMARK SMILES IDX 26 12 27 13 28 14 29 15 30 16 14 17 13 18 12 19 11 20 10 21
REMARK SMILES IDX 9 22 8 23 7 24 6 25 5 26 4 27 3 28 2 29 1 30
REMARK H PARENT
REMARK Flexibility Score: inf
ROOT
ATOM      1  C   UNL     1     -16.213   7.195   9.341  1.00  0.00     0.000 C 
ENDROOT
BRANCH   1   2
ATOM      2  C   UNL     1     -17.125   8.111   8.509  1.00  0.00     0.000 C 
BRANCH   2   3
ATOM      3  C   UNL     1     -16.485   9.487   8.238  1.00  0.00     0.000 C 
BRANCH   3   4
ATOM      4  C   UNL     1     -16.843  10.041   6.843  1.00  0.00     0.000 C 
BRANCH   4   5
ATOM      5  C   UNL     1     -17.094   8.944   5.788  1.00  0.00     0.000 C 
BRANCH   5   6
ATOM      6  C   UNL     1     -16.502   9.234   4.398  1.00  0.00     0.000 C 
BRANCH   6   7
ATOM      7  C   UNL     1     -17.122   8.358   3.296  1.00  0.00     0.000 C 
BRANCH   7   8
ATOM      8  C   UNL     1     -16.062   7.758   2.346  1.00  0.00     0.000 C 
BRANCH   8   9
ATOM      9  C   UNL     1     -16.430   7.859   0.853  1.00  0.00     0.000 C 
BRANCH   9  10
ATOM     10  C   UNL     1     -16.858   6.533   0.197  1.00  0.00     0.000 C 
BRANCH  10  11
ATOM     11  C   UNL     1     -15.701   5.657  -0.328  1.00  0.00     0.000 C 
BRANCH  11  12
ATOM     12  C   UNL     1     -14.290   6.111   0.098  1.00  0.00     0.006 C 
BRANCH  12  13
ATOM     13  C   UNL     1     -13.277   6.197  -1.054  1.00  0.00     0.053 C 
BRANCH  13  14
ATOM     14  C   UNL     1     -12.335   7.350  -0.885  1.00  0.00     0.041 C 
ATOM     15  O   UNL     1     -12.116   7.826   0.260  1.00  0.00    -0.550 OA
ATOM     16  O   UNL     1     -11.714   7.912  -1.995  1.00  0.00    -0.550 OA
ENDBRANCH  13  14
ENDBRANCH  12  13
ENDBRANCH  11  12
ENDBRANCH  10  11
ENDBRANCH   9  10
ENDBRANCH   8   9
ENDBRANCH   7   8
ENDBRANCH   6   7
ENDBRANCH   5   6
ENDBRANCH   4   5
ENDBRANCH   3   4
ENDBRANCH   2   3
ENDBRANCH   1   2
BRANCH   1  17
ATOM     17  C   UNL     1     -17.012   6.229  10.228  1.00  0.00     0.000 C 
BRANCH  17  18
ATOM     18  C   UNL     1     -16.150   5.592  11.335  1.00  0.00     0.000 C 
BRANCH  18  19
ATOM     19  C   UNL     1     -15.875   6.507  12.545  1.00  0.00     0.000 C 
BRANCH  19  20
ATOM     20  C   UNL     1     -15.156   7.833  12.226  1.00  0.00     0.000 C 
BRANCH  20  21
ATOM     21  C   UNL     1     -15.613   9.020  13.102  1.00  0.00     0.000 C 
BRANCH  21  22
ATOM     22  C   UNL     1     -16.712   9.848  12.423  1.00  0.00    -0.000 C 
BRANCH  22  23
ATOM     23  C   UNL     1     -16.793  11.268  12.998  1.00  0.00    -0.000 C 
BRANCH  23  24
ATOM     24  C   UNL     1     -15.479  12.053  12.791  1.00  0.00    -0.000 C 
BRANCH  24  25
ATOM     25  C   UNL     1     -15.667  13.581  12.751  1.00  0.00    -0.000 C 
BRANCH  25  26
ATOM     26  C   UNL     1     -14.625  14.353  11.918  1.00  0.00    -0.000 C 
BRANCH  26  27
ATOM     27  C   UNL     1     -13.854  13.506  10.890  1.00  0.00    -0.000 C 
BRANCH  27  28
ATOM     28  C   UNL     1     -14.225  13.843   9.437  1.00  0.00    -0.000 C 
BRANCH  28  29
ATOM     29  C   UNL     1     -14.262  12.596   8.538  1.00  0.00    -0.003 C 
ATOM     30  C   UNL     1     -14.860  12.877   7.159  1.00  0.00     0.004 C 
ENDBRANCH  28  29
ENDBRANCH  27  28
ENDBRANCH  26  27
ENDBRANCH  25  26
ENDBRANCH  24  25
ENDBRANCH  23  24
ENDBRANCH  22  23
ENDBRANCH  21  22
ENDBRANCH  20  21
ENDBRANCH  19  20
ENDBRANCH  18  19
ENDBRANCH  17  18
ENDBRANCH   1  17
TORSDOF 26
ENDMDL
MODEL 5
REMARK VINA RESULT:    -0.129      2.846      6.491
REMARK INTER + INTRA:          -2.253
REMARK INTER:                  -1.143
REMARK INTRA:                  -1.111
REMARK UNBOUND:                -1.929
REMARK SMILES CCCCCCCCCCCCCCCCCCCCCCCCCCCC(=O)[O-]
REMARK SMILES IDX 15 1 16 2 17 3 18 4 19 5 20 6 21 7 22 8 23 9 24 10 25 11
REMARK SMILES IDX 26 12 27 13 28 14 29 15 30 16 14 17 13 18 12 19 11 20 10 21
REMARK SMILES IDX 9 22 8 23 7 24 6 25 5 26 4 27 3 28 2 29 1 30
REMARK H PARENT
REMARK Flexibility Score: inf
ROOT
ATOM      1  C   UNL     1     -16.289  10.030   6.244  1.00  0.00     0.000 C 
ENDROOT
BRANCH   1   2
ATOM      2  C   UNL     1     -16.985  10.277   7.591  1.00  0.00     0.000 C 
BRANCH   2   3
ATOM      3  C   UNL     1     -16.220   9.648   8.772  1.00  0.00     0.000 C 
BRANCH   3   4
ATOM      4  C   UNL     1     -17.055   8.585   9.517  1.00  0.00     0.000 C 
BRANCH   4   5
ATOM      5  C   UNL     1     -16.429   8.128  10.850  1.00  0.00     0.000 C 
BRANCH   5   6
ATOM      6  C   UNL     1     -16.838   8.959  12.078  1.00  0.00     0.000 C 
BRANCH   6   7
ATOM      7  C   UNL     1     -15.641   9.653  12.750  1.00  0.00     0.000 C 
BRANCH   7   8
ATOM      8  C   UNL     1     -15.928  11.128  13.102  1.00  0.00     0.000 C 
BRANCH   8   9
ATOM      9  C   UNL     1     -16.807  11.859  12.068  1.00  0.00     0.000 C 
BRANCH   9  10
ATOM     10  C   UNL     1     -17.026  13.358  12.343  1.00  0.00     0.000 C 
BRANCH  10  11
ATOM     11  C   UNL     1     -15.745  14.163  12.649  1.00  0.00     0.000 C 
BRANCH  11  12
ATOM     12  C   UNL     1     -14.511  13.775  11.809  1.00  0.00     0.006 C 
BRANCH  12  13
ATOM     13  C   UNL     1     -14.309  14.629  10.547  1.00  0.00     0.053 C 
BRANCH  13  14
ATOM     14  C   UNL     1     -14.167  13.784   9.317  1.00  0.00     0.041 C 
ATOM     15  O   UNL     1     -13.315  14.084   8.439  1.00  0.00    -0.550 OA
ATOM     16  O   UNL     1     -14.988  12.677   9.131  1.00  0.00    -0.550 OA
ENDBRANCH  13  14
ENDBRANCH  12  13
ENDBRANCH  11  12
ENDBRANCH  10  11
ENDBRANCH   9  10
ENDBRANCH   8   9
ENDBRANCH   7   8
ENDBRANCH   6   7
ENDBRANCH   5   6
ENDBRANCH   4   5
ENDBRANCH   3   4
ENDBRANCH   2   3
ENDBRANCH   1   2
BRANCH   1  17
ATOM     17  C   UNL     1     -17.119   9.130   5.315  1.00  0.00     0.000 C 
BRANCH  17  18
ATOM     18  C   UNL     1     -16.620   9.163   3.858  1.00  0.00     0.000 C 
BRANCH  18  19
ATOM     19  C   UNL     1     -17.125   8.002   2.977  1.00  0.00     0.000 C 
BRANCH  19  20
ATOM     20  C   UNL     1     -16.908   8.176   1.460  1.00  0.00     0.000 C 
BRANCH  20  21
ATOM     21  C   UNL     1     -16.076   7.048   0.814  1.00  0.00     0.000 C 
BRANCH  21  22
ATOM     22  C   UNL     1     -16.945   5.848   0.411  1.00  0.00    -0.000 C 
BRANCH  22  23
ATOM     23  C   UNL     1     -16.710   5.439  -1.048  1.00  0.00    -0.000 C 
BRANCH  23  24
ATOM     24  C   UNL     1     -15.568   4.408  -1.185  1.00  0.00    -0.000 C 
BRANCH  24  25
ATOM     25  C   UNL     1     -14.233   5.016  -1.654  1.00  0.00    -0.000 C 
BRANCH  25  26
ATOM     26  C   UNL     1     -13.486   5.861  -0.604  1.00  0.00    -0.000 C 
BRANCH  26  27
ATOM     27  C   UNL     1     -12.764   7.103  -1.159  1.00  0.00    -0.000 C 
BRANCH  27  28
ATOM     28  C   UNL     1     -12.343   8.090  -0.059  1.00  0.00    -0.000 C 
BRANCH  28  29
ATOM     29  C   UNL     1     -13.437   8.283   1.004  1.00  0.00    -0.003 C 
ATOM     30  C   UNL     1     -13.479   9.708   1.558  1.00  0.00     0.004 C 
ENDBRANCH  28  29
ENDBRANCH  27  28
ENDBRANCH  26  27
ENDBRANCH  25  26
ENDBRANCH  24  25
ENDBRANCH  23  24
ENDBRANCH  22  23
ENDBRANCH  21  22
ENDBRANCH  20  21
ENDBRANCH  19  20
ENDBRANCH  18  19
ENDBRANCH  17  18
ENDBRANCH   1  17
TORSDOF 26
ENDMDL
MODEL 6
REMARK VINA RESULT:     0.070      1.482      4.500
REMARK INTER + INTRA:          -1.752
REMARK INTER:                  -0.257
REMARK INTRA:                  -1.494
REMARK UNBOUND:                -1.929
REMARK SMILES CCCCCCCCCCCCCCCCCCCCCCCCCCCC(=O)[O-]
REMARK SMILES IDX 15 1 16 2 17 3 18 4 19 5 20 6 21 7 22 8 23 9 24 10 25 11
REMARK SMILES IDX 26 12 27 13 28 14 29 15 30 16 14 17 13 18 12 19 11 20 10 21
REMARK SMILES IDX 9 22 8 23 7 24 6 25 5 26 4 27 3 28 2 29 1 30
REMARK H PARENT
REMARK Flexibility Score: inf
ROOT
ATOM      1  C   UNL     1     -13.388  12.140   5.997  1.00  0.00     0.000 C 
ENDROOT
BRANCH   1   2
ATOM      2  C   UNL     1     -14.096  12.840   7.168  1.00  0.00     0.000 C 
BRANCH   2   3
ATOM      3  C   UNL     1     -15.321  12.050   7.670  1.00  0.00     0.000 C 
BRANCH   3   4
ATOM      4  C   UNL     1     -16.265  12.911   8.535  1.00  0.00     0.000 C 
BRANCH   4   5
ATOM      5  C   UNL     1     -15.613  13.433   9.831  1.00  0.00     0.000 C 
BRANCH   5   6
ATOM      6  C   UNL     1     -16.602  13.832  10.940  1.00  0.00     0.000 C 
BRANCH   6   7
ATOM      7  C   UNL     1     -16.761  12.743  12.013  1.00  0.00     0.000 C 
BRANCH   7   8
ATOM      8  C   UNL     1     -15.894  11.498  11.730  1.00  0.00     0.000 C 
BRANCH   8   9
ATOM      9  C   UNL     1     -16.555  10.167  12.139  1.00  0.00     0.000 C 
BRANCH   9  10
ATOM     10  C   UNL     1     -15.701   9.269  13.053  1.00  0.00     0.000 C 
BRANCH  10  11
ATOM     11  C   UNL     1     -16.142   7.792  13.120  1.00  0.00     0.000 C 
BRANCH  11  12
ATOM     12  C   UNL     1     -15.710   6.924  11.921  1.00  0.00     0.006 C 
BRANCH  12  13
ATOM     13  C   UNL     1     -14.276   6.381  12.015  1.00  0.00     0.053 C 
BRANCH  13  14
ATOM     14  C   UNL     1     -14.252   4.893  12.197  1.00  0.00     0.041 C 
ATOM     15  O   UNL     1     -13.319   4.210  11.699  1.00  0.00    -0.550 OA
ATOM     16  O   UNL     1     -15.271   4.259  12.899  1.00  0.00    -0.550 OA
ENDBRANCH  13  14
ENDBRANCH  12  13
ENDBRANCH  11  12
ENDBRANCH  10  11
ENDBRANCH   9  10
ENDBRANCH   8   9
ENDBRANCH   7   8
ENDBRANCH   6   7
ENDBRANCH   5   6
ENDBRANCH   4   5
ENDBRANCH   3   4
ENDBRANCH   2   3
ENDBRANCH   1   2
BRANCH   1  17
ATOM     17  C   UNL     1     -14.211  10.973   5.432  1.00  0.00     0.000 C 
BRANCH  17  18
ATOM     18  C   UNL     1     -13.364  10.007   4.584  1.00  0.00     0.000 C 
BRANCH  18  19
ATOM     19  C   UNL     1     -13.988   9.622   3.227  1.00  0.00     0.000 C 
BRANCH  19  20
ATOM     20  C   UNL     1     -12.995   9.476   2.056  1.00  0.00     0.000 C 
BRANCH  20  21
ATOM     21  C   UNL     1     -13.516   8.596   0.900  1.00  0.00     0.000 C 
BRANCH  21  22
ATOM     22  C   UNL     1     -12.392   8.177  -0.059  1.00  0.00    -0.000 C 
BRANCH  22  23
ATOM     23  C   UNL     1     -12.866   7.122  -1.066  1.00  0.00    -0.000 C 
BRANCH  23  24
ATOM     24  C   UNL     1     -13.533   5.915  -0.370  1.00  0.00    -0.000 C 
BRANCH  24  25
ATOM     25  C   UNL     1     -13.605   4.651  -1.248  1.00  0.00    -0.000 C 
BRANCH  25  26
ATOM     26  C   UNL     1     -14.824   4.568  -2.187  1.00  0.00    -0.000 C 
BRANCH  26  27
ATOM     27  C   UNL     1     -16.123   4.065  -1.530  1.00  0.00    -0.000 C 
BRANCH  27  28
ATOM     28  C   UNL     1     -17.067   5.207  -1.120  1.00  0.00    -0.000 C 
BRANCH  28  29
ATOM     29  C   UNL     1     -16.837   5.663   0.330  1.00  0.00    -0.003 C 
ATOM     30  C   UNL     1     -17.062   7.164   0.520  1.00  0.00     0.004 C 
ENDBRANCH  28  29
ENDBRANCH  27  28
ENDBRANCH  26  27
ENDBRANCH  25  26
ENDBRANCH  24  25
ENDBRANCH  23  24
ENDBRANCH  22  23
ENDBRANCH  21  22
ENDBRANCH  20  21
ENDBRANCH  19  20
ENDBRANCH  18  19
ENDBRANCH  17  18
ENDBRANCH   1  17
TORSDOF 26
ENDMDL
MODEL 7
REMARK VINA RESULT:     0.205      1.559      3.511
REMARK INTER + INTRA:          -1.413
REMARK INTER:                  -0.312
REMARK INTRA:                  -1.101
REMARK UNBOUND:                -1.929
REMARK SMILES CCCCCCCCCCCCCCCCCCCCCCCCCCCC(=O)[O-]
REMARK SMILES IDX 15 1 16 2 17 3 18 4 19 5 20 6 21 7 22 8 23 9 24 10 25 11
REMARK SMILES IDX 26 12 27 13 28 14 29 15 30 16 14 17 13 18 12 19 11 20 10 21
REMARK SMILES IDX 9 22 8 23 7 24 6 25 5 26 4 27 3 28 2 29 1 30
REMARK H PARENT
REMARK Flexibility Score: inf
ROOT
ATOM      1  C   UNL     1     -15.629  10.207   7.598  1.00  0.00     0.000 C 
ENDROOT
BRANCH   1   2
ATOM      2  C   UNL     1     -15.856  11.449   8.473  1.00  0.00     0.000 C 
BRANCH   2   3
ATOM      3  C   UNL     1     -14.581  12.303   8.623  1.00  0.00     0.000 C 
BRANCH   3   4
ATOM      4  C   UNL     1     -14.612  13.194   9.883  1.00  0.00     0.000 C 
BRANCH   4   5
ATOM      5  C   UNL     1     -16.037  13.555  10.350  1.00  0.00     0.000 C 
BRANCH   5   6
ATOM      6  C   UNL     1     -16.204  13.695  11.873  1.00  0.00     0.000 C 
BRANCH   6   7
ATOM      7  C   UNL     1     -15.558  12.535  12.649  1.00  0.00     0.000 C 
BRANCH   7   8
ATOM      8  C   UNL     1     -16.523  11.349  12.859  1.00  0.00     0.000 C 
BRANCH   8   9
ATOM      9  C   UNL     1     -16.700  10.457  11.615  1.00  0.00     0.000 C 
BRANCH   9  10
ATOM     10  C   UNL     1     -16.853   8.953  11.909  1.00  0.00     0.000 C 
BRANCH  10  11
ATOM     11  C   UNL     1     -15.584   8.255  12.440  1.00  0.00     0.000 C 
BRANCH  11  12
ATOM     12  C   UNL     1     -15.215   6.937  11.730  1.00  0.00     0.006 C 
BRANCH  12  13
ATOM     13  C   UNL     1     -14.439   5.940  12.604  1.00  0.00     0.053 C 
BRANCH  13  14
ATOM     14  C   UNL     1     -14.393   4.574  11.990  1.00  0.00     0.041 C 
ATOM     15  O   UNL     1     -15.441   3.880  11.911  1.00  0.00    -0.550 OA
ATOM     16  O   UNL     1     -13.189   4.059  11.522  1.00  0.00    -0.550 OA
ENDBRANCH  13  14
ENDBRANCH  12  13
ENDBRANCH  11  12
ENDBRANCH  10  11
ENDBRANCH   9  10
ENDBRANCH   8   9
ENDBRANCH   7   8
ENDBRANCH   6   7
ENDBRANCH   5   6
ENDBRANCH   4   5
ENDBRANCH   3   4
ENDBRANCH   2   3
ENDBRANCH   1   2
BRANCH   1  17
ATOM     17  C   UNL     1     -16.935   9.676   6.988  1.00  0.00     0.000 C 
BRANCH  17  18
ATOM     18  C   UNL     1     -17.053   9.981   5.483  1.00  0.00     0.000 C 
BRANCH  18  19
ATOM     19  C   UNL     1     -17.067   8.736   4.573  1.00  0.00     0.000 C 
BRANCH  19  20
ATOM     20  C   UNL     1     -16.050   8.748   3.414  1.00  0.00     0.000 C 
BRANCH  20  21
ATOM     21  C   UNL     1     -14.634   9.202   3.828  1.00  0.00     0.000 C 
BRANCH  21  22
ATOM     22  C   UNL     1     -13.740   9.487   2.613  1.00  0.00    -0.000 C 
BRANCH  22  23
ATOM     23  C   UNL     1     -14.129   8.625   1.405  1.00  0.00    -0.000 C 
BRANCH  23  24
ATOM     24  C   UNL     1     -12.932   8.374   0.463  1.00  0.00    -0.000 C 
BRANCH  24  25
ATOM     25  C   UNL     1     -13.113   7.156  -0.463  1.00  0.00    -0.000 C 
BRANCH  25  26
ATOM     26  C   UNL     1     -14.104   6.088   0.037  1.00  0.00    -0.000 C 
BRANCH  26  27
ATOM     27  C   UNL     1     -15.582   6.357  -0.304  1.00  0.00    -0.000 C 
BRANCH  27  28
ATOM     28  C   UNL     1     -16.502   5.179   0.050  1.00  0.00    -0.000 C 
BRANCH  28  29
ATOM     29  C   UNL     1     -16.177   3.917  -0.765  1.00  0.00    -0.003 C 
ATOM     30  C   UNL     1     -15.384   4.222  -2.037  1.00  0.00     0.004 C 
ENDBRANCH  28  29
ENDBRANCH  27  28
ENDBRANCH  26  27
ENDBRANCH  25  26
ENDBRANCH  24  25
ENDBRANCH  23  24
ENDBRANCH  22  23
ENDBRANCH  21  22
ENDBRANCH  20  21
ENDBRANCH  19  20
ENDBRANCH  18  19
ENDBRANCH  17  18
ENDBRANCH   1  17
TORSDOF 26
ENDMDL
