MODEL 1
REMARK VINA RESULT:    -4.313      0.000      0.000
REMARK INTER + INTRA:          -6.943
REMARK INTER:                  -6.329
REMARK INTRA:                  -0.613
REMARK UNBOUND:                -0.613
REMARK SMILES O=C([O-])CCCCCCCC(=O)[O-]
REMARK SMILES IDX 7 1 6 2 5 3 4 4 2 5 1 6 3 7 8 8 9 9 10 10 11 11 12 12 13 13
REMARK H PARENT
REMARK Flexibility Score: inf
ROOT
ATOM      1  C   UNL     1      20.836  18.883  -5.372  1.00  0.00     0.000 C 
ENDROOT
BRANCH   1   2
ATOM      2  C   UNL     1      21.710  18.554  -6.588  1.00  0.00     0.000 C 
BRANCH   2   3
ATOM      3  C   UNL     1      20.934  17.722  -7.616  1.00  0.00     0.006 C 
BRANCH   3   4
ATOM      4  C   UNL     1      19.481  18.195  -7.720  1.00  0.00     0.053 C 
BRANCH   4   5
ATOM      5  C   UNL     1      18.544  17.032  -7.621  1.00  0.00     0.041 C 
ATOM      6  O   UNL     1      18.495  16.347  -6.566  1.00  0.00    -0.550 OA
ATOM      7  O   UNL     1      17.762  16.675  -8.711  1.00  0.00    -0.550 OA
ENDBRANCH   4   5
ENDBRANCH   3   4
ENDBRANCH   2   3
ENDBRANCH   1   2
BRANCH   1   8
ATOM      8  C   UNL     1      20.791  20.394  -5.119  1.00  0.00     0.000 C 
BRANCH   8   9
ATOM      9  C   UNL     1      21.631  21.151  -6.155  1.00  0.00     0.006 C 
BRANCH   9  10
ATOM     10  C   UNL     1      20.874  22.369  -6.693  1.00  0.00     0.053 C 
BRANCH  10  11
ATOM     11  C   UNL     1      19.761  21.938  -7.595  1.00  0.00     0.041 C 
ATOM     12  O   UNL     1      18.613  21.723  -7.126  1.00  0.00    -0.550 OA
ATOM     13  O   UNL     1      19.979  21.823  -8.963  1.00  0.00    -0.550 OA
ENDBRANCH  10  11
ENDBRANCH   9  10
ENDBRANCH   8   9
ENDBRANCH   1   8
TORSDOF 8
ENDMDL
MODEL 2
REMARK VINA RESULT:    -4.240      1.525      4.344
REMARK INTER + INTRA:          -6.836
REMARK INTER:                  -6.065
REMARK INTRA:                  -0.771
REMARK UNBOUND:                -0.613
REMARK SMILES O=C([O-])CCCCCCCC(=O)[O-]
REMARK SMILES IDX 7 1 6 2 5 3 4 4 2 5 1 6 3 7 8 8 9 9 10 10 11 11 12 12 13 13
REMARK H PARENT
REMARK Flexibility Score: inf
ROOT
ATOM      1  C   UNL     1      22.163  17.948  -7.458  1.00  0.00     0.000 C 
ENDROOT
BRANCH   1   2
ATOM      2  C   UNL     1      21.955  18.626  -6.099  1.00  0.00     0.000 C 
BRANCH   2   3
ATOM      3  C   UNL     1      21.525  20.088  -6.272  1.00  0.00     0.006 C 
BRANCH   3   4
ATOM      4  C   UNL     1      20.240  20.379  -5.491  1.00  0.00     0.053 C 
BRANCH   4   5
ATOM      5  C   UNL     1      19.100  20.618  -6.429  1.00  0.00     0.041 C 
ATOM      6  O   UNL     1      19.287  20.589  -7.674  1.00  0.00    -0.550 OA
ATOM      7  O   UNL     1      17.841  20.922  -5.929  1.00  0.00    -0.550 OA
ENDBRANCH   4   5
ENDBRANCH   3   4
ENDBRANCH   2   3
ENDBRANCH   1   2
BRANCH   1   8
ATOM      8  C   UNL     1      21.200  16.769  -7.639  1.00  0.00     0.000 C 
BRANCH   8   9
ATOM      9  C   UNL     1      19.908  17.216  -8.333  1.00  0.00     0.006 C 
BRANCH   9  10
ATOM     10  C   UNL     1      18.687  16.942  -7.450  1.00  0.00     0.053 C 
BRANCH  10  11
ATOM     11  C   UNL     1      17.423  17.208  -8.205  1.00  0.00     0.041 C 
ATOM     12  O   UNL     1      16.611  18.078  -7.794  1.00  0.00    -0.550 OA
ATOM     13  O   UNL     1      17.165  16.531  -9.390  1.00  0.00    -0.550 OA
ENDBRANCH  10  11
ENDBRANCH   9  10
ENDBRANCH   8   9
ENDBRANCH   1   8
TORSDOF 8
ENDMDL
MODEL 3
REMARK VINA RESULT:    -4.228      8.669     10.453
REMARK INTER + INTRA:          -6.819
REMARK INTER:                  -6.353
REMARK INTRA:                  -0.466
REMARK UNBOUND:                -0.613
REMARK SMILES O=C([O-])CCCCCCCC(=O)[O-]
REMARK SMILES IDX 7 1 6 2 5 3 4 4 2 5 1 6 3 7 8 8 9 9 10 10 11 11 12 12 13 13
REMARK H PARENT
REMARK Flexibility Score: inf
ROOT
ATOM      1  C   UNL     1      26.552  16.077 -10.597  1.00  0.00     0.000 C 
ENDROOT
BRANCH   1   2
ATOM      2  C   UNL     1      25.414  17.079 -10.827  1.00  0.00     0.000 C 
BRANCH   2   3
ATOM      3  C   UNL     1      25.868  18.230 -11.733  1.00  0.00     0.006 C 
BRANCH   3   4
ATOM      4  C   UNL     1      27.228  17.925 -12.369  1.00  0.00     0.053 C 
BRANCH   4   5
ATOM      5  C   UNL     1      27.122  17.939 -13.861  1.00  0.00     0.041 C 
ATOM      6  O   UNL     1      28.095  18.327 -14.561  1.00  0.00    -0.550 OA
ATOM      7  O   UNL     1      25.934  17.572 -14.478  1.00  0.00    -0.550 OA
ENDBRANCH   4   5
ENDBRANCH   3   4
ENDBRANCH   2   3
ENDBRANCH   1   2
BRANCH   1   8
ATOM      8  C   UNL     1      26.356  15.314  -9.283  1.00  0.00     0.000 C 
BRANCH   8   9
ATOM      9  C   UNL     1      27.703  14.894  -8.683  1.00  0.00     0.006 C 
BRANCH   9  10
ATOM     10  C   UNL     1      28.762  14.720  -9.776  1.00  0.00     0.053 C 
BRANCH  10  11
ATOM     11  C   UNL     1      28.831  13.293 -10.217  1.00  0.00     0.041 C 
ATOM     12  O   UNL     1      29.417  12.988 -11.289  1.00  0.00    -0.550 OA
ATOM     13  O   UNL     1      28.293  12.291  -9.419  1.00  0.00    -0.550 OA
ENDBRANCH  10  11
ENDBRANCH   9  10
ENDBRANCH   8   9
ENDBRANCH   1   8
TORSDOF 8
ENDMDL
MODEL 4
REMARK VINA RESULT:    -4.194      2.343      3.022
REMARK INTER + INTRA:          -6.769
REMARK INTER:                  -6.100
REMARK INTRA:                  -0.669
REMARK UNBOUND:                -0.613
REMARK SMILES O=C([O-])CCCCCCCC(=O)[O-]
REMARK SMILES IDX 7 1 6 2 5 3 4 4 2 5 1 6 3 7 8 8 9 9 10 10 11 11 12 12 13 13
REMARK H PARENT
REMARK Flexibility Score: inf
ROOT
ATOM      1  C   UNL     1      18.309  19.220  -6.639  1.00  0.00     0.000 C 
ENDROOT
BRANCH   1   2
ATOM      2  C   UNL     1      17.634  18.243  -7.609  1.00  0.00     0.000 C 
BRANCH   2   3
ATOM      3  C   UNL     1      18.476  16.974  -7.788  1.00  0.00     0.006 C 
BRANCH   3   4
ATOM      4  C   UNL     1      19.829  17.109  -7.083  1.00  0.00     0.053 C 
BRANCH   4   5
ATOM      5  C   UNL     1      20.947  17.022  -8.074  1.00  0.00     0.041 C 
ATOM      6  O   UNL     1      21.771  16.071  -8.019  1.00  0.00    -0.550 OA
ATOM      7  O   UNL     1      21.108  18.018  -9.029  1.00  0.00    -0.550 OA
ENDBRANCH   4   5
ENDBRANCH   3   4
ENDBRANCH   2   3
ENDBRANCH   1   2
BRANCH   1   8
ATOM      8  C   UNL     1      18.316  20.643  -7.207  1.00  0.00     0.000 C 
BRANCH   8   9
ATOM      9  C   UNL     1      19.676  20.983  -7.827  1.00  0.00     0.006 C 
BRANCH   9  10
ATOM     10  C   UNL     1      20.402  22.054  -7.008  1.00  0.00     0.053 C 
BRANCH  10  11
ATOM     11  C   UNL     1      21.498  21.440  -6.195  1.00  0.00     0.041 C 
ATOM     12  O   UNL     1      22.239  22.165  -5.482  1.00  0.00    -0.550 OA
ATOM     13  O   UNL     1      21.669  20.061  -6.186  1.00  0.00    -0.550 OA
ENDBRANCH  10  11
ENDBRANCH   9  10
ENDBRANCH   8   9
ENDBRANCH   1   8
TORSDOF 8
ENDMDL
MODEL 5
REMARK VINA RESULT:    -4.182      2.169      4.690
REMARK INTER + INTRA:          -6.751
REMARK INTER:                  -6.074
REMARK INTRA:                  -0.677
REMARK UNBOUND:                -0.613
REMARK SMILES O=C([O-])CCCCCCCC(=O)[O-]
REMARK SMILES IDX 7 1 6 2 5 3 4 4 2 5 1 6 3 7 8 8 9 9 10 10 11 11 12 12 13 13
REMARK H PARENT
REMARK Flexibility Score: inf
ROOT
ATOM      1  C   UNL     1      20.380  18.732  -4.988  1.00  0.00     0.000 C 
ENDROOT
BRANCH   1   2
ATOM      2  C   UNL     1      18.999  19.167  -5.493  1.00  0.00     0.000 C 
BRANCH   2   3
ATOM      3  C   UNL     1      18.955  20.679  -5.743  1.00  0.00     0.006 C 
BRANCH   3   4
ATOM      4  C   UNL     1      18.730  20.983  -7.228  1.00  0.00     0.053 C 
BRANCH   4   5
ATOM      5  C   UNL     1      19.842  21.829  -7.763  1.00  0.00     0.041 C 
ATOM      6  O   UNL     1      19.891  22.109  -8.990  1.00  0.00    -0.550 OA
ATOM      7  O   UNL     1      20.850  22.269  -6.916  1.00  0.00    -0.550 OA
ENDBRANCH   4   5
ENDBRANCH   3   4
ENDBRANCH   2   3
ENDBRANCH   1   2
BRANCH   1   8
ATOM      8  C   UNL     1      21.398  18.698  -6.132  1.00  0.00     0.000 C 
BRANCH   8   9
ATOM      9  C   UNL     1      21.043  17.611  -7.154  1.00  0.00     0.006 C 
BRANCH   9  10
ATOM     10  C   UNL     1      20.845  18.211  -8.549  1.00  0.00     0.053 C 
BRANCH  10  11
ATOM     11  C   UNL     1      21.503  17.358  -9.586  1.00  0.00     0.041 C 
ATOM     12  O   UNL     1      21.968  17.879 -10.634  1.00  0.00    -0.550 OA
ATOM     13  O   UNL     1      21.649  15.993  -9.373  1.00  0.00    -0.550 OA
ENDBRANCH  10  11
ENDBRANCH   9  10
ENDBRANCH   8   9
ENDBRANCH   1   8
TORSDOF 8
ENDMDL
MODEL 6
REMARK VINA RESULT:    -4.138      2.406      4.864
REMARK INTER + INTRA:          -6.686
REMARK INTER:                  -5.934
REMARK INTRA:                  -0.753
REMARK UNBOUND:                -0.613
REMARK SMILES O=C([O-])CCCCCCCC(=O)[O-]
REMARK SMILES IDX 7 1 6 2 5 3 4 4 2 5 1 6 3 7 8 8 9 9 10 10 11 11 12 12 13 13
REMARK H PARENT
REMARK Flexibility Score: inf
ROOT
ATOM      1  C   UNL     1      18.523  18.314  -6.911  1.00  0.00     0.000 C 
ENDROOT
BRANCH   1   2
ATOM      2  C   UNL     1      17.475  19.348  -7.341  1.00  0.00     0.000 C 
BRANCH   2   3
ATOM      3  C   UNL     1      17.971  20.775  -7.082  1.00  0.00     0.006 C 
BRANCH   3   4
ATOM      4  C   UNL     1      19.269  20.767  -6.268  1.00  0.00     0.053 C 
BRANCH   4   5
ATOM      5  C   UNL     1      20.306  21.620  -6.928  1.00  0.00     0.041 C 
ATOM      6  O   UNL     1      20.132  22.032  -8.105  1.00  0.00    -0.550 OA
ATOM      7  O   UNL     1      21.486  21.920  -6.261  1.00  0.00    -0.550 OA
ENDBRANCH   4   5
ENDBRANCH   3   4
ENDBRANCH   2   3
ENDBRANCH   1   2
BRANCH   1   8
ATOM      8  C   UNL     1      18.599  17.157  -7.913  1.00  0.00     0.000 C 
BRANCH   8   9
ATOM      9  C   UNL     1      20.044  16.911  -8.362  1.00  0.00     0.006 C 
BRANCH   9  10
ATOM     10  C   UNL     1      20.841  18.218  -8.395  1.00  0.00     0.053 C 
BRANCH  10  11
ATOM     11  C   UNL     1      22.134  18.063  -7.660  1.00  0.00     0.041 C 
ATOM     12  O   UNL     1      22.259  18.520  -6.493  1.00  0.00    -0.550 OA
ATOM     13  O   UNL     1      23.187  17.370  -8.243  1.00  0.00    -0.550 OA
ENDBRANCH  10  11
ENDBRANCH   9  10
ENDBRANCH   8   9
ENDBRANCH   1   8
TORSDOF 8
ENDMDL
MODEL 7
REMARK VINA RESULT:    -4.124      2.251      5.170
REMARK INTER + INTRA:          -6.667
REMARK INTER:                  -6.237
REMARK INTRA:                  -0.430
REMARK UNBOUND:                -0.613
REMARK SMILES O=C([O-])CCCCCCCC(=O)[O-]
REMARK SMILES IDX 7 1 6 2 5 3 4 4 2 5 1 6 3 7 8 8 9 9 10 10 11 11 12 12 13 13
REMARK H PARENT
REMARK Flexibility Score: inf
ROOT
ATOM      1  C   UNL     1      17.733  20.472  -7.233  1.00  0.00     0.000 C 
ENDROOT
BRANCH   1   2
ATOM      2  C   UNL     1      18.543  21.774  -7.260  1.00  0.00     0.000 C 
BRANCH   2   3
ATOM      3  C   UNL     1      20.009  21.503  -7.617  1.00  0.00     0.006 C 
BRANCH   3   4
ATOM      4  C   UNL     1      20.950  22.360  -6.764  1.00  0.00     0.053 C 
BRANCH   4   5
ATOM      5  C   UNL     1      21.816  21.492  -5.908  1.00  0.00     0.041 C 
ATOM      6  O   UNL     1      22.573  22.009  -5.044  1.00  0.00    -0.550 OA
ATOM      7  O   UNL     1      21.825  20.117  -6.096  1.00  0.00    -0.550 OA
ENDBRANCH   4   5
ENDBRANCH   3   4
ENDBRANCH   2   3
ENDBRANCH   1   2
BRANCH   1   8
ATOM      8  C   UNL     1      18.655  19.252  -7.139  1.00  0.00     0.000 C 
BRANCH   8   9
ATOM      9  C   UNL     1      17.888  17.958  -7.438  1.00  0.00     0.006 C 
BRANCH   9  10
ATOM     10  C   UNL     1      18.779  16.730  -7.234  1.00  0.00     0.053 C 
BRANCH  10  11
ATOM     11  C   UNL     1      20.040  16.859  -8.028  1.00  0.00     0.041 C 
ATOM     12  O   UNL     1      20.000  16.851  -9.286  1.00  0.00    -0.550 OA
ATOM     13  O   UNL     1      21.256  17.039  -7.379  1.00  0.00    -0.550 OA
ENDBRANCH  10  11
ENDBRANCH   9  10
ENDBRANCH   8   9
ENDBRANCH   1   8
TORSDOF 8
ENDMDL
MODEL 8
REMARK VINA RESULT:    -4.081      8.345      9.382
REMARK INTER + INTRA:          -6.603
REMARK INTER:                  -6.025
REMARK INTRA:                  -0.579
REMARK UNBOUND:                -0.613
REMARK SMILES O=C([O-])CCCCCCCC(=O)[O-]
REMARK SMILES IDX 7 1 6 2 5 3 4 4 2 5 1 6 3 7 8 8 9 9 10 10 11 11 12 12 13 13
REMARK H PARENT
REMARK Flexibility Score: inf
ROOT
ATOM      1  C   UNL     1      25.664  16.089 -10.583  1.00  0.00     0.000 C 
ENDROOT
BRANCH   1   2
ATOM      2  C   UNL     1      25.824  15.467  -9.191  1.00  0.00     0.000 C 
BRANCH   2   3
ATOM      3  C   UNL     1      27.296  15.163  -8.888  1.00  0.00     0.006 C 
BRANCH   3   4
ATOM      4  C   UNL     1      28.083  14.915 -10.180  1.00  0.00     0.053 C 
BRANCH   4   5
ATOM      5  C   UNL     1      28.567  13.501 -10.234  1.00  0.00     0.041 C 
ATOM      6  O   UNL     1      28.483  12.763  -9.216  1.00  0.00    -0.550 OA
ATOM      7  O   UNL     1      29.157  13.012 -11.392  1.00  0.00    -0.550 OA
ENDBRANCH   4   5
ENDBRANCH   3   4
ENDBRANCH   2   3
ENDBRANCH   1   2
BRANCH   1   8
ATOM      8  C   UNL     1      25.062  17.495 -10.492  1.00  0.00     0.000 C 
BRANCH   8   9
ATOM      9  C   UNL     1      25.693  18.433 -11.528  1.00  0.00     0.006 C 
BRANCH   9  10
ATOM     10  C   UNL     1      26.932  17.796 -12.164  1.00  0.00     0.053 C 
BRANCH  10  11
ATOM     11  C   UNL     1      26.753  17.662 -13.643  1.00  0.00     0.041 C 
ATOM     12  O   UNL     1      25.775  17.018 -14.107  1.00  0.00    -0.550 OA
ATOM     13  O   UNL     1      27.637  18.291 -14.511  1.00  0.00    -0.550 OA
ENDBRANCH  10  11
ENDBRANCH   9  10
ENDBRANCH   8   9
ENDBRANCH   1   8
TORSDOF 8
ENDMDL
MODEL 9
REMARK VINA RESULT:    -4.048      8.153     10.085
REMARK INTER + INTRA:          -6.555
REMARK INTER:                  -5.860
REMARK INTRA:                  -0.695
REMARK UNBOUND:                -0.613
REMARK SMILES O=C([O-])CCCCCCCC(=O)[O-]
REMARK SMILES IDX 7 1 6 2 5 3 4 4 2 5 1 6 3 7 8 8 9 9 10 10 11 11 12 12 13 13
REMARK H PARENT
REMARK Flexibility Score: inf
ROOT
ATOM      1  C   UNL     1      26.547  15.262  -9.081  1.00  0.00     0.000 C 
ENDROOT
BRANCH   1   2
ATOM      2  C   UNL     1      25.370  15.901  -9.827  1.00  0.00     0.000 C 
BRANCH   2   3
ATOM      3  C   UNL     1      25.525  15.737 -11.344  1.00  0.00     0.006 C 
BRANCH   3   4
ATOM      4  C   UNL     1      25.066  16.999 -12.082  1.00  0.00     0.053 C 
BRANCH   4   5
ATOM      5  C   UNL     1      26.017  18.126 -11.832  1.00  0.00     0.041 C 
ATOM      6  O   UNL     1      25.599  19.213 -11.351  1.00  0.00    -0.550 OA
ATOM      7  O   UNL     1      27.356  17.996 -12.175  1.00  0.00    -0.550 OA
ENDBRANCH   4   5
ENDBRANCH   3   4
ENDBRANCH   2   3
ENDBRANCH   1   2
BRANCH   1   8
ATOM      8  C   UNL     1      27.814  15.268  -9.943  1.00  0.00     0.000 C 
BRANCH   8   9
ATOM      9  C   UNL     1      28.694  14.049  -9.638  1.00  0.00     0.006 C 
BRANCH   9  10
ATOM     10  C   UNL     1      29.022  13.273 -10.917  1.00  0.00     0.053 C 
BRANCH  10  11
ATOM     11  C   UNL     1      27.773  12.742 -11.544  1.00  0.00     0.041 C 
ATOM     12  O   UNL     1      27.604  12.825 -12.789  1.00  0.00    -0.550 OA
ATOM     13  O   UNL     1      26.815  12.110 -10.760  1.00  0.00    -0.550 OA
ENDBRANCH  10  11
ENDBRANCH   9  10
ENDBRANCH   8   9
ENDBRANCH   1   8
TORSDOF 8
ENDMDL
