MODEL 1
REMARK VINA RESULT:    -4.623      0.000      0.000
REMARK INTER + INTRA:          -5.319
REMARK INTER:                  -5.163
REMARK INTRA:                  -0.156
REMARK UNBOUND:                -0.156
REMARK SMILES C=CCc1ccc2c(c1)OCO2
REMARK SMILES IDX 3 1 2 2 1 3 4 4 9 5 5 6 8 7 6 8 7 9 10 10 12 11 11 12
REMARK H PARENT
REMARK Flexibility Score: inf
ROOT
ATOM      1  C   UNL     1      -2.897  -3.718  -1.627  1.00  0.00     0.062 C 
ENDROOT
BRANCH   1   2
ATOM      2  C   UNL     1      -2.634  -2.430  -2.355  1.00  0.00    -0.030 C 
ATOM      3  C   UNL     1      -1.873  -2.387  -3.454  1.00  0.00     0.004 C 
ENDBRANCH   1   2
BRANCH   1   4
ATOM      4  C   UNL     1      -3.974  -3.535  -0.592  1.00  0.00    -0.040 A 
ATOM      5  C   UNL     1      -4.656  -2.302  -0.484  1.00  0.00     0.054 A 
ATOM      6  C   UNL     1      -4.340  -4.615   0.252  1.00  0.00     0.008 A 
ATOM      7  C   UNL     1      -5.662  -2.193   0.471  1.00  0.00     0.166 A 
ATOM      8  C   UNL     1      -5.363  -4.462   1.205  1.00  0.00     0.051 A 
ATOM      9  C   UNL     1      -6.002  -3.229   1.280  1.00  0.00     0.165 A 
ATOM     10  O   UNL     1      -6.458  -1.102   0.762  1.00  0.00    -0.454 OA
ATOM     11  O   UNL     1      -7.025  -2.839   2.121  1.00  0.00    -0.454 OA
ATOM     12  C   UNL     1      -7.351  -1.474   1.821  1.00  0.00     0.468 C 
ENDBRANCH   1   4
TORSDOF 2
ENDMDL
MODEL 2
REMARK VINA RESULT:    -4.551      0.823      1.050
REMARK INTER + INTRA:          -5.240
REMARK INTER:                  -5.066
REMARK INTRA:                  -0.174
REMARK UNBOUND:                -0.156
REMARK SMILES C=CCc1ccc2c(c1)OCO2
REMARK SMILES IDX 3 1 2 2 1 3 4 4 9 5 5 6 8 7 6 8 7 9 10 10 12 11 11 12
REMARK H PARENT
REMARK Flexibility Score: inf
ROOT
ATOM      1  C   UNL     1      -2.940  -3.454  -1.549  1.00  0.00     0.062 C 
ENDROOT
BRANCH   1   2
ATOM      2  C   UNL     1      -2.947  -4.800  -2.218  1.00  0.00    -0.030 C 
ATOM      3  C   UNL     1      -2.557  -4.955  -3.487  1.00  0.00     0.004 C 
ENDBRANCH   1   2
BRANCH   1   4
ATOM      4  C   UNL     1      -4.059  -3.350  -0.548  1.00  0.00    -0.040 A 
ATOM      5  C   UNL     1      -4.743  -2.125  -0.370  1.00  0.00     0.054 A 
ATOM      6  C   UNL     1      -4.463  -4.493   0.189  1.00  0.00     0.008 A 
ATOM      7  C   UNL     1      -5.789  -2.090   0.547  1.00  0.00     0.166 A 
ATOM      8  C   UNL     1      -5.526  -4.412   1.106  1.00  0.00     0.051 A 
ATOM      9  C   UNL     1      -6.165  -3.185   1.255  1.00  0.00     0.165 A 
ATOM     10  O   UNL     1      -6.595  -1.021   0.892  1.00  0.00    -0.454 OA
ATOM     11  O   UNL     1      -7.222  -2.860   2.080  1.00  0.00    -0.454 OA
ATOM     12  C   UNL     1      -7.533  -1.473   1.878  1.00  0.00     0.468 C 
ENDBRANCH   1   4
TORSDOF 2
ENDMDL
MODEL 3
REMARK VINA RESULT:    -4.408     10.494     11.024
REMARK INTER + INTRA:          -5.079
REMARK INTER:                  -4.911
REMARK INTRA:                  -0.169
REMARK UNBOUND:                -0.156
REMARK SMILES C=CCc1ccc2c(c1)OCO2
REMARK SMILES IDX 3 1 2 2 1 3 4 4 9 5 5 6 8 7 6 8 7 9 10 10 12 11 11 12
REMARK H PARENT
REMARK Flexibility Score: inf
ROOT
ATOM      1  C   UNL     1      -0.522   3.735   7.668  1.00  0.00     0.062 C 
ENDROOT
BRANCH   1   2
ATOM      2  C   UNL     1      -1.983   4.086   7.676  1.00  0.00    -0.030 C 
ATOM      3  C   UNL     1      -2.458   5.130   6.989  1.00  0.00     0.004 C 
ENDBRANCH   1   2
BRANCH   1   4
ATOM      4  C   UNL     1      -0.321   2.283   8.011  1.00  0.00    -0.040 A 
ATOM      5  C   UNL     1       0.766   1.566   7.461  1.00  0.00     0.054 A 
ATOM      6  C   UNL     1      -1.196   1.640   8.924  1.00  0.00     0.008 A 
ATOM      7  C   UNL     1       0.923   0.234   7.833  1.00  0.00     0.166 A 
ATOM      8  C   UNL     1      -1.001   0.292   9.272  1.00  0.00     0.051 A 
ATOM      9  C   UNL     1       0.077  -0.377   8.700  1.00  0.00     0.165 A 
ATOM     10  O   UNL     1       1.895  -0.662   7.431  1.00  0.00    -0.454 OA
ATOM     11  O   UNL     1       0.473  -1.687   8.885  1.00  0.00    -0.454 OA
ATOM     12  C   UNL     1       1.643  -1.914   8.084  1.00  0.00     0.468 C 
ENDBRANCH   1   4
TORSDOF 2
ENDMDL
MODEL 4
REMARK VINA RESULT:    -4.394      2.238      4.518
REMARK INTER + INTRA:          -5.064
REMARK INTER:                  -4.842
REMARK INTRA:                  -0.222
REMARK UNBOUND:                -0.156
REMARK SMILES C=CCc1ccc2c(c1)OCO2
REMARK SMILES IDX 3 1 2 2 1 3 4 4 9 5 5 6 8 7 6 8 7 9 10 10 12 11 11 12
REMARK H PARENT
REMARK Flexibility Score: inf
ROOT
ATOM      1  C   UNL     1      -6.051  -4.526   0.551  1.00  0.00     0.062 C 
ENDROOT
BRANCH   1   2
ATOM      2  C   UNL     1      -6.201  -3.856   1.887  1.00  0.00    -0.030 C 
ATOM      3  C   UNL     1      -5.373  -4.120   2.903  1.00  0.00     0.004 C 
ENDBRANCH   1   2
BRANCH   1   4
ATOM      4  C   UNL     1      -4.963  -3.870  -0.256  1.00  0.00    -0.040 A 
ATOM      5  C   UNL     1      -4.998  -2.478  -0.500  1.00  0.00     0.054 A 
ATOM      6  C   UNL     1      -3.873  -4.640  -0.738  1.00  0.00     0.008 A 
ATOM      7  C   UNL     1      -3.953  -1.917  -1.227  1.00  0.00     0.166 A 
ATOM      8  C   UNL     1      -2.837  -4.032  -1.469  1.00  0.00     0.051 A 
ATOM      9  C   UNL     1      -2.917  -2.661  -1.692  1.00  0.00     0.165 A 
ATOM     10  O   UNL     1      -3.769  -0.596  -1.590  1.00  0.00    -0.454 OA
ATOM     11  O   UNL     1      -2.033  -1.846  -2.371  1.00  0.00    -0.454 OA
ATOM     12  C   UNL     1      -2.544  -0.506  -2.330  1.00  0.00     0.468 C 
ENDBRANCH   1   4
TORSDOF 2
ENDMDL
MODEL 5
REMARK VINA RESULT:    -4.333      7.172      9.033
REMARK INTER + INTRA:          -4.995
REMARK INTER:                  -4.836
REMARK INTRA:                  -0.159
REMARK UNBOUND:                -0.156
REMARK SMILES C=CCc1ccc2c(c1)OCO2
REMARK SMILES IDX 3 1 2 2 1 3 4 4 9 5 5 6 8 7 6 8 7 9 10 10 12 11 11 12
REMARK H PARENT
REMARK Flexibility Score: inf
ROOT
ATOM      1  C   UNL     1      -3.631   2.969  -5.192  1.00  0.00     0.062 C 
ENDROOT
BRANCH   1   2
ATOM      2  C   UNL     1      -4.086   1.669  -4.591  1.00  0.00    -0.030 C 
ATOM      3  C   UNL     1      -4.866   0.818  -5.265  1.00  0.00     0.004 C 
ENDBRANCH   1   2
BRANCH   1   4
ATOM      4  C   UNL     1      -2.384   3.464  -4.511  1.00  0.00    -0.040 A 
ATOM      5  C   UNL     1      -1.749   2.673  -3.526  1.00  0.00     0.054 A 
ATOM      6  C   UNL     1      -1.814   4.708  -4.886  1.00  0.00     0.008 A 
ATOM      7  C   UNL     1      -0.582   3.163  -2.948  1.00  0.00     0.166 A 
ATOM      8  C   UNL     1      -0.633   5.166  -4.275  1.00  0.00     0.051 A 
ATOM      9  C   UNL     1      -0.047   4.358  -3.306  1.00  0.00     0.165 A 
ATOM     10  O   UNL     1       0.207   2.581  -1.974  1.00  0.00    -0.454 OA
ATOM     11  O   UNL     1       1.102   4.586  -2.575  1.00  0.00    -0.454 OA
ATOM     12  C   UNL     1       1.303   3.464  -1.703  1.00  0.00     0.468 C 
ENDBRANCH   1   4
TORSDOF 2
ENDMDL
MODEL 6
REMARK VINA RESULT:    -4.315     10.466     11.244
REMARK INTER + INTRA:          -4.976
REMARK INTER:                  -4.826
REMARK INTRA:                  -0.150
REMARK UNBOUND:                -0.156
REMARK SMILES C=CCc1ccc2c(c1)OCO2
REMARK SMILES IDX 3 1 2 2 1 3 4 4 9 5 5 6 8 7 6 8 7 9 10 10 12 11 11 12
REMARK H PARENT
REMARK Flexibility Score: inf
ROOT
ATOM      1  C   UNL     1       0.366   1.236   8.766  1.00  0.00     0.062 C 
ENDROOT
BRANCH   1   2
ATOM      2  C   UNL     1       1.345   0.641   7.793  1.00  0.00    -0.030 C 
ATOM      3  C   UNL     1       1.961  -0.520   8.038  1.00  0.00     0.004 C 
ENDBRANCH   1   2
BRANCH   1   4
ATOM      4  C   UNL     1      -0.144   2.560   8.267  1.00  0.00    -0.040 A 
ATOM      5  C   UNL     1      -1.517   2.731   7.976  1.00  0.00     0.054 A 
ATOM      6  C   UNL     1       0.744   3.658   8.126  1.00  0.00     0.008 A 
ATOM      7  C   UNL     1      -1.943   3.983   7.544  1.00  0.00     0.166 A 
ATOM      8  C   UNL     1       0.271   4.907   7.686  1.00  0.00     0.051 A 
ATOM      9  C   UNL     1      -1.086   5.027   7.405  1.00  0.00     0.165 A 
ATOM     10  O   UNL     1      -3.219   4.388   7.202  1.00  0.00    -0.454 OA
ATOM     11  O   UNL     1      -1.780   6.137   6.966  1.00  0.00    -0.454 OA
ATOM     12  C   UNL     1      -3.159   5.770   6.822  1.00  0.00     0.468 C 
ENDBRANCH   1   4
TORSDOF 2
ENDMDL
MODEL 7
REMARK VINA RESULT:    -4.291      5.527      7.449
REMARK INTER + INTRA:          -4.949
REMARK INTER:                  -4.773
REMARK INTRA:                  -0.175
REMARK UNBOUND:                -0.156
REMARK SMILES C=CCc1ccc2c(c1)OCO2
REMARK SMILES IDX 3 1 2 2 1 3 4 4 9 5 5 6 8 7 6 8 7 9 10 10 12 11 11 12
REMARK H PARENT
REMARK Flexibility Score: inf
ROOT
ATOM      1  C   UNL     1      -1.618   4.514  -4.606  1.00  0.00     0.062 C 
ENDROOT
BRANCH   1   2
ATOM      2  C   UNL     1      -0.537   4.923  -3.645  1.00  0.00    -0.030 C 
ATOM      3  C   UNL     1      -0.635   6.036  -2.911  1.00  0.00     0.004 C 
ENDBRANCH   1   2
BRANCH   1   4
ATOM      4  C   UNL     1      -2.167   3.160  -4.246  1.00  0.00    -0.040 A 
ATOM      5  C   UNL     1      -1.418   2.281  -3.432  1.00  0.00     0.054 A 
ATOM      6  C   UNL     1      -3.461   2.778  -4.687  1.00  0.00     0.008 A 
ATOM      7  C   UNL     1      -1.984   1.052  -3.105  1.00  0.00     0.166 A 
ATOM      8  C   UNL     1      -3.995   1.526  -4.333  1.00  0.00     0.051 A 
ATOM      9  C   UNL     1      -3.219   0.690  -3.537  1.00  0.00     0.165 A 
ATOM     10  O   UNL     1      -1.450   0.037  -2.335  1.00  0.00    -0.454 OA
ATOM     11  O   UNL     1      -3.521  -0.571  -3.061  1.00  0.00    -0.454 OA
ATOM     12  C   UNL     1      -2.408  -1.030  -2.281  1.00  0.00     0.468 C 
ENDBRANCH   1   4
TORSDOF 2
ENDMDL
MODEL 8
REMARK VINA RESULT:    -4.231      2.038      5.382
REMARK INTER + INTRA:          -4.882
REMARK INTER:                  -4.725
REMARK INTRA:                  -0.157
REMARK UNBOUND:                -0.156
REMARK SMILES C=CCc1ccc2c(c1)OCO2
REMARK SMILES IDX 3 1 2 2 1 3 4 4 9 5 5 6 8 7 6 8 7 9 10 10 12 11 11 12
REMARK H PARENT
REMARK Flexibility Score: inf
ROOT
ATOM      1  C   UNL     1      -8.466  -1.939   3.637  1.00  0.00     0.062 C 
ENDROOT
BRANCH   1   2
ATOM      2  C   UNL     1      -9.543  -1.128   2.973  1.00  0.00    -0.030 C 
ATOM      3  C   UNL     1     -10.393  -0.377   3.680  1.00  0.00     0.004 C 
ENDBRANCH   1   2
BRANCH   1   4
ATOM      4  C   UNL     1      -7.378  -2.285   2.657  1.00  0.00    -0.040 A 
ATOM      5  C   UNL     1      -7.172  -1.486   1.509  1.00  0.00     0.054 A 
ATOM      6  C   UNL     1      -6.525  -3.392   2.903  1.00  0.00     0.008 A 
ATOM      7  C   UNL     1      -6.134  -1.833   0.650  1.00  0.00     0.166 A 
ATOM      8  C   UNL     1      -5.488  -3.707   2.007  1.00  0.00     0.051 A 
ATOM      9  C   UNL     1      -5.327  -2.897   0.887  1.00  0.00     0.165 A 
ATOM     10  O   UNL     1      -5.744  -1.213  -0.522  1.00  0.00    -0.454 OA
ATOM     11  O   UNL     1      -4.392  -3.001  -0.123  1.00  0.00    -0.454 OA
ATOM     12  C   UNL     1      -4.624  -1.934  -1.054  1.00  0.00     0.468 C 
ENDBRANCH   1   4
TORSDOF 2
ENDMDL
MODEL 9
REMARK VINA RESULT:    -4.220      1.762      3.439
REMARK INTER + INTRA:          -4.869
REMARK INTER:                  -4.694
REMARK INTRA:                  -0.175
REMARK UNBOUND:                -0.156
REMARK SMILES C=CCc1ccc2c(c1)OCO2
REMARK SMILES IDX 3 1 2 2 1 3 4 4 9 5 5 6 8 7 6 8 7 9 10 10 12 11 11 12
REMARK H PARENT
REMARK Flexibility Score: inf
ROOT
ATOM      1  C   UNL     1      -1.274  -3.776  -3.877  1.00  0.00     0.062 C 
ENDROOT
BRANCH   1   2
ATOM      2  C   UNL     1      -0.186  -2.813  -4.263  1.00  0.00    -0.030 C 
ATOM      3  C   UNL     1       0.471  -2.923  -5.421  1.00  0.00     0.004 C 
ENDBRANCH   1   2
BRANCH   1   4
ATOM      4  C   UNL     1      -2.255  -3.125  -2.940  1.00  0.00    -0.040 A 
ATOM      5  C   UNL     1      -2.832  -3.868  -1.885  1.00  0.00     0.054 A 
ATOM      6  C   UNL     1      -2.572  -1.750  -3.085  1.00  0.00     0.008 A 
ATOM      7  C   UNL     1      -3.712  -3.212  -1.030  1.00  0.00     0.166 A 
ATOM      8  C   UNL     1      -3.467  -1.126  -2.198  1.00  0.00     0.051 A 
ATOM      9  C   UNL     1      -4.017  -1.897  -1.179  1.00  0.00     0.165 A 
ATOM     10  O   UNL     1      -4.395  -3.720   0.058  1.00  0.00    -0.454 OA
ATOM     11  O   UNL     1      -4.907  -1.516  -0.195  1.00  0.00    -0.454 OA
ATOM     12  C   UNL     1      -5.178  -2.661   0.626  1.00  0.00     0.468 C 
ENDBRANCH   1   4
TORSDOF 2
ENDMDL
