MODEL 1
REMARK VINA RESULT:    -5.536      0.000      0.000
REMARK INTER + INTRA:          -8.341
REMARK INTER:                  -7.640
REMARK INTRA:                  -0.701
REMARK UNBOUND:                -0.701
REMARK SMILES O=C([O-])[C@H]1O[C@H](Oc2cc3oc(-c4ccccc4)cc(=O)c3c(O)c2O)[C@@H](O)[C@H](O)[C@@H]1O
REMARK SMILES IDX 7 1 6 2 4 3 31 4 5 5 29 6 27 7 2 8 1 9 3 10 32 11 30 13
REMARK SMILES IDX 28 15 8 17 25 18 9 19 23 20 10 21 22 22 11 23 20 24 12 25
REMARK SMILES IDX 19 26 21 27 26 28 24 30 13 32 14 33 18 34 15 35 17 36 16 37
REMARK H PARENT 32 12 30 14 28 16 26 29 24 31
REMARK Flexibility Score: inf
ROOT
ATOM      1  O   UNL     1      26.415  23.070   5.470  1.00  0.00    -0.458 OA
ENDROOT
BRANCH   1   2
ATOM      2  C   UNL     1      26.713  22.133   6.510  1.00  0.00     0.339 C 
ATOM      3  C   UNL     1      24.734  20.917   6.170  1.00  0.00     0.199 C 
ATOM      4  C   UNL     1      25.490  19.656   5.691  1.00  0.00     0.180 C 
ATOM      5  O   UNL     1      25.518  21.645   7.100  1.00  0.00    -0.328 OA
ATOM      6  C   UNL     1      26.828  20.054   5.046  1.00  0.00     0.181 C 
ATOM      7  C   UNL     1      27.612  20.981   5.995  1.00  0.00     0.214 C 
BRANCH   3   8
ATOM      8  C   UNL     1      23.450  20.520   6.837  1.00  0.00     0.073 C 
ATOM      9  O   UNL     1      22.579  21.389   7.099  1.00  0.00    -0.547 OA
ATOM     10  O   UNL     1      23.195  19.185   7.125  1.00  0.00    -0.547 OA
ENDBRANCH   3   8
BRANCH   4  11
ATOM     11  O   UNL     1      24.717  18.883   4.806  1.00  0.00    -0.387 OA
ATOM     12  H   UNL     1      23.762  19.002   5.048  1.00  0.00     0.211 HD
ENDBRANCH   4  11
BRANCH   6  13
ATOM     13  O   UNL     1      26.597  20.697   3.820  1.00  0.00    -0.387 OA
ATOM     14  H   UNL     1      26.904  21.636   3.924  1.00  0.00     0.211 HD
ENDBRANCH   6  13
BRANCH   7  15
ATOM     15  O   UNL     1      28.086  20.229   7.083  1.00  0.00    -0.384 OA
ATOM     16  H   UNL     1      28.694  19.537   6.712  1.00  0.00     0.211 HD
ENDBRANCH   7  15
ENDBRANCH   1   2
BRANCH   1  17
ATOM     17  C   UNL     1      25.550  24.152   5.660  1.00  0.00     0.172 A 
ATOM     18  C   UNL     1      26.028  25.402   6.086  1.00  0.00     0.201 A 
ATOM     19  C   UNL     1      24.189  23.976   5.428  1.00  0.00     0.098 A 
ATOM     20  C   UNL     1      25.155  26.494   6.215  1.00  0.00     0.176 A 
ATOM     21  C   UNL     1      23.296  25.035   5.582  1.00  0.00     0.146 A 
ATOM     22  C   UNL     1      23.756  26.316   5.983  1.00  0.00     0.111 A 
ATOM     23  O   UNL     1      22.008  24.814   5.347  1.00  0.00    -0.456 OA
ATOM     24  C   UNL     1      22.771  27.320   6.153  1.00  0.00     0.197 A 
ATOM     25  C   UNL     1      21.069  25.743   5.483  1.00  0.00     0.138 A 
ATOM     26  C   UNL     1      21.432  27.030   5.891  1.00  0.00     0.100 A 
ATOM     27  O   UNL     1      23.056  28.477   6.553  1.00  0.00    -0.289 OA
BRANCH  18  28
ATOM     28  O   UNL     1      27.374  25.581   6.406  1.00  0.00    -0.502 OA
ATOM     29  H   UNL     1      28.123  25.133   5.892  1.00  0.00     0.293 HD
ENDBRANCH  18  28
BRANCH  20  30
ATOM     30  O   UNL     1      25.740  27.715   6.568  1.00  0.00    -0.504 OA
ATOM     31  H   UNL     1      26.407  27.856   7.311  1.00  0.00     0.293 HD
ENDBRANCH  20  30
BRANCH  25  32
ATOM     32  C   UNL     1      19.661  25.382   5.186  1.00  0.00     0.017 A 
ATOM     33  C   UNL     1      18.951  25.982   4.125  1.00  0.00     0.012 A 
ATOM     34  C   UNL     1      18.998  24.444   5.998  1.00  0.00     0.012 A 
ATOM     35  C   UNL     1      17.622  25.631   3.875  1.00  0.00     0.001 A 
ATOM     36  C   UNL     1      17.668  24.095   5.743  1.00  0.00     0.001 A 
ATOM     37  C   UNL     1      16.982  24.685   4.679  1.00  0.00     0.000 A 
ENDBRANCH  25  32
ENDBRANCH   1  17
TORSDOF 9
ENDMDL
MODEL 2
REMARK VINA RESULT:    -5.187      1.372      2.036
REMARK INTER + INTRA:          -7.859
REMARK INTER:                  -6.986
REMARK INTRA:                  -0.873
REMARK UNBOUND:                -0.701
REMARK SMILES O=C([O-])[C@H]1O[C@H](Oc2cc3oc(-c4ccccc4)cc(=O)c3c(O)c2O)[C@@H](O)[C@H](O)[C@@H]1O
REMARK SMILES IDX 7 1 6 2 4 3 31 4 5 5 29 6 27 7 2 8 1 9 3 10 32 11 30 13
REMARK SMILES IDX 28 15 8 17 25 18 9 19 23 20 10 21 22 22 11 23 20 24 12 25
REMARK SMILES IDX 19 26 21 27 26 28 24 30 13 32 14 33 18 34 15 35 17 36 16 37
REMARK H PARENT 32 12 30 14 28 16 26 29 24 31
REMARK Flexibility Score: inf
ROOT
ATOM      1  O   UNL     1      25.764  22.550   5.867  1.00  0.00    -0.458 OA
ENDROOT
BRANCH   1   2
ATOM      2  C   UNL     1      25.198  21.243   6.007  1.00  0.00     0.339 C 
ATOM      3  C   UNL     1      25.500  20.719   3.739  1.00  0.00     0.199 C 
ATOM      4  C   UNL     1      26.532  19.610   4.045  1.00  0.00     0.180 C 
ATOM      5  O   UNL     1      24.568  20.839   4.801  1.00  0.00    -0.328 OA
ATOM      6  C   UNL     1      27.274  19.922   5.355  1.00  0.00     0.181 C 
ATOM      7  C   UNL     1      26.257  20.214   6.475  1.00  0.00     0.214 C 
BRANCH   3   8
ATOM      8  C   UNL     1      24.750  20.386   2.483  1.00  0.00     0.073 C 
ATOM      9  O   UNL     1      24.000  21.244   1.949  1.00  0.00    -0.547 OA
ATOM     10  O   UNL     1      24.916  19.147   1.876  1.00  0.00    -0.547 OA
ENDBRANCH   3   8
BRANCH   4  11
ATOM     11  O   UNL     1      27.441  19.429   2.986  1.00  0.00    -0.387 OA
ATOM     12  H   UNL     1      28.252  18.987   3.350  1.00  0.00     0.211 HD
ENDBRANCH   4  11
BRANCH   6  13
ATOM     13  O   UNL     1      28.125  21.024   5.174  1.00  0.00    -0.387 OA
ATOM     14  H   UNL     1      28.278  21.114   4.196  1.00  0.00     0.211 HD
ENDBRANCH   6  13
BRANCH   7  15
ATOM     15  O   UNL     1      25.622  19.015   6.842  1.00  0.00    -0.384 OA
ATOM     16  H   UNL     1      25.268  19.145   7.760  1.00  0.00     0.211 HD
ENDBRANCH   7  15
ENDBRANCH   1   2
BRANCH   1  17
ATOM     17  C   UNL     1      24.985  23.712   5.889  1.00  0.00     0.172 A 
ATOM     18  C   UNL     1      25.554  24.967   6.157  1.00  0.00     0.201 A 
ATOM     19  C   UNL     1      23.618  23.611   5.648  1.00  0.00     0.098 A 
ATOM     20  C   UNL     1      24.769  26.130   6.116  1.00  0.00     0.176 A 
ATOM     21  C   UNL     1      22.810  24.746   5.636  1.00  0.00     0.146 A 
ATOM     22  C   UNL     1      23.364  26.031   5.874  1.00  0.00     0.111 A 
ATOM     23  O   UNL     1      21.512  24.595   5.399  1.00  0.00    -0.456 OA
ATOM     24  C   UNL     1      22.459  27.121   5.884  1.00  0.00     0.197 A 
ATOM     25  C   UNL     1      20.648  25.602   5.385  1.00  0.00     0.138 A 
ATOM     26  C   UNL     1      21.106  26.902   5.628  1.00  0.00     0.100 A 
ATOM     27  O   UNL     1      22.829  28.296   6.133  1.00  0.00    -0.289 OA
BRANCH  18  28
ATOM     28  O   UNL     1      26.905  25.084   6.485  1.00  0.00    -0.502 OA
ATOM     29  H   UNL     1      27.596  24.397   6.209  1.00  0.00     0.293 HD
ENDBRANCH  18  28
BRANCH  20  30
ATOM     30  O   UNL     1      25.444  27.339   6.319  1.00  0.00    -0.504 OA
ATOM     31  H   UNL     1      26.291  27.627   5.855  1.00  0.00     0.293 HD
ENDBRANCH  20  30
BRANCH  25  32
ATOM     32  C   UNL     1      19.220  25.315   5.103  1.00  0.00     0.017 A 
ATOM     33  C   UNL     1      18.511  26.004   4.097  1.00  0.00     0.012 A 
ATOM     34  C   UNL     1      18.540  24.355   5.874  1.00  0.00     0.012 A 
ATOM     35  C   UNL     1      17.163  25.720   3.861  1.00  0.00     0.001 A 
ATOM     36  C   UNL     1      17.192  24.072   5.631  1.00  0.00     0.001 A 
ATOM     37  C   UNL     1      16.505  24.752   4.622  1.00  0.00     0.000 A 
ENDBRANCH  25  32
ENDBRANCH   1  17
TORSDOF 9
ENDMDL
MODEL 3
REMARK VINA RESULT:    -4.250      3.921      9.106
REMARK INTER + INTRA:          -6.566
REMARK INTER:                  -5.409
REMARK INTRA:                  -1.157
REMARK UNBOUND:                -0.701
REMARK SMILES O=C([O-])[C@H]1O[C@H](Oc2cc3oc(-c4ccccc4)cc(=O)c3c(O)c2O)[C@@H](O)[C@H](O)[C@@H]1O
REMARK SMILES IDX 7 1 6 2 4 3 31 4 5 5 29 6 27 7 2 8 1 9 3 10 32 11 30 13
REMARK SMILES IDX 28 15 8 17 25 18 9 19 23 20 10 21 22 22 11 23 20 24 12 25
REMARK SMILES IDX 19 26 21 27 26 28 24 30 13 32 14 33 18 34 15 35 17 36 16 37
REMARK H PARENT 32 12 30 14 28 16 26 29 24 31
REMARK Flexibility Score: inf
ROOT
ATOM      1  O   UNL     1      17.346  24.376   6.347  1.00  0.00    -0.458 OA
ENDROOT
BRANCH   1   2
ATOM      2  C   UNL     1      17.063  25.179   5.196  1.00  0.00     0.339 C 
ATOM      3  C   UNL     1      15.257  23.834   4.533  1.00  0.00     0.199 C 
ATOM      4  C   UNL     1      14.221  24.955   4.781  1.00  0.00     0.180 C 
ATOM      5  O   UNL     1      16.508  24.386   4.159  1.00  0.00    -0.328 OA
ATOM      6  C   UNL     1      14.721  25.905   5.881  1.00  0.00     0.181 C 
ATOM      7  C   UNL     1      16.150  26.378   5.554  1.00  0.00     0.214 C 
BRANCH   3   8
ATOM      8  C   UNL     1      14.783  22.936   3.429  1.00  0.00     0.073 C 
ATOM      9  O   UNL     1      15.342  21.826   3.234  1.00  0.00    -0.547 OA
ATOM     10  O   UNL     1      13.693  23.302   2.648  1.00  0.00    -0.547 OA
ENDBRANCH   3   8
BRANCH   4  11
ATOM     11  O   UNL     1      12.953  24.438   5.104  1.00  0.00    -0.387 OA
ATOM     12  H   UNL     1      12.269  24.998   4.651  1.00  0.00     0.211 HD
ENDBRANCH   4  11
BRANCH   6  13
ATOM     13  O   UNL     1      14.699  25.253   7.125  1.00  0.00    -0.387 OA
ATOM     14  H   UNL     1      15.269  24.445   7.038  1.00  0.00     0.211 HD
ENDBRANCH   6  13
BRANCH   7  15
ATOM     15  O   UNL     1      16.100  27.274   4.472  1.00  0.00    -0.384 OA
ATOM     16  H   UNL     1      15.144  27.376   4.226  1.00  0.00     0.211 HD
ENDBRANCH   7  15
ENDBRANCH   1   2
BRANCH   1  17
ATOM     17  C   UNL     1      18.551  23.683   6.500  1.00  0.00     0.172 A 
ATOM     18  C   UNL     1      18.573  22.292   6.699  1.00  0.00     0.201 A 
ATOM     19  C   UNL     1      19.747  24.394   6.463  1.00  0.00     0.098 A 
ATOM     20  C   UNL     1      19.794  21.604   6.791  1.00  0.00     0.176 A 
ATOM     21  C   UNL     1      20.971  23.738   6.587  1.00  0.00     0.146 A 
ATOM     22  C   UNL     1      21.023  22.331   6.758  1.00  0.00     0.111 A 
ATOM     23  O   UNL     1      22.083  24.463   6.542  1.00  0.00    -0.456 OA
ATOM     24  C   UNL     1      22.310  21.758   6.917  1.00  0.00     0.197 A 
ATOM     25  C   UNL     1      23.299  23.948   6.671  1.00  0.00     0.138 A 
ATOM     26  C   UNL     1      23.443  22.569   6.861  1.00  0.00     0.100 A 
ATOM     27  O   UNL     1      22.475  20.529   7.125  1.00  0.00    -0.289 OA
BRANCH  18  28
ATOM     28  O   UNL     1      17.387  21.569   6.825  1.00  0.00    -0.502 OA
ATOM     29  H   UNL     1      17.369  20.561   6.919  1.00  0.00     0.293 HD
ENDBRANCH  18  28
BRANCH  20  30
ATOM     30  O   UNL     1      19.710  20.212   6.909  1.00  0.00    -0.504 OA
ATOM     31  H   UNL     1      19.896  19.678   7.743  1.00  0.00     0.293 HD
ENDBRANCH  20  30
BRANCH  25  32
ATOM     32  C   UNL     1      24.471  24.855   6.599  1.00  0.00     0.017 A 
ATOM     33  C   UNL     1      25.775  24.403   6.886  1.00  0.00     0.012 A 
ATOM     34  C   UNL     1      24.281  26.209   6.268  1.00  0.00     0.012 A 
ATOM     35  C   UNL     1      26.859  25.284   6.821  1.00  0.00     0.001 A 
ATOM     36  C   UNL     1      25.369  27.085   6.202  1.00  0.00     0.001 A 
ATOM     37  C   UNL     1      26.658  26.621   6.474  1.00  0.00     0.000 A 
ENDBRANCH  25  32
ENDBRANCH   1  17
TORSDOF 9
ENDMDL
MODEL 4
REMARK VINA RESULT:    -3.842      3.961      8.913
REMARK INTER + INTRA:          -6.003
REMARK INTER:                  -4.988
REMARK INTRA:                  -1.015
REMARK UNBOUND:                -0.701
REMARK SMILES O=C([O-])[C@H]1O[C@H](Oc2cc3oc(-c4ccccc4)cc(=O)c3c(O)c2O)[C@@H](O)[C@H](O)[C@@H]1O
REMARK SMILES IDX 7 1 6 2 4 3 31 4 5 5 29 6 27 7 2 8 1 9 3 10 32 11 30 13
REMARK SMILES IDX 28 15 8 17 25 18 9 19 23 20 10 21 22 22 11 23 20 24 12 25
REMARK SMILES IDX 19 26 21 27 26 28 24 30 13 32 14 33 18 34 15 35 17 36 16 37
REMARK H PARENT 32 12 30 14 28 16 26 29 24 31
REMARK Flexibility Score: inf
ROOT
ATOM      1  O   UNL     1      17.402  23.904   5.647  1.00  0.00    -0.458 OA
ENDROOT
BRANCH   1   2
ATOM      2  C   UNL     1      17.015  24.788   4.588  1.00  0.00     0.339 C 
ATOM      3  C   UNL     1      14.798  24.015   4.569  1.00  0.00     0.199 C 
ATOM      4  C   UNL     1      14.232  25.371   5.050  1.00  0.00     0.180 C 
ATOM      5  O   UNL     1      15.980  24.210   3.809  1.00  0.00    -0.328 OA
ATOM      6  C   UNL     1      15.280  26.113   5.896  1.00  0.00     0.181 C 
ATOM      7  C   UNL     1      16.616  26.182   5.133  1.00  0.00     0.214 C 
BRANCH   3   8
ATOM      8  C   UNL     1      13.788  23.316   3.709  1.00  0.00     0.073 C 
ATOM      9  O   UNL     1      13.911  23.325   2.457  1.00  0.00    -0.547 OA
ATOM     10  O   UNL     1      12.739  22.614   4.290  1.00  0.00    -0.547 OA
ENDBRANCH   3   8
BRANCH   4  11
ATOM     11  O   UNL     1      13.030  25.217   5.764  1.00  0.00    -0.387 OA
ATOM     12  H   UNL     1      13.130  25.678   6.637  1.00  0.00     0.211 HD
ENDBRANCH   4  11
BRANCH   6  13
ATOM     13  O   UNL     1      15.456  25.457   7.125  1.00  0.00    -0.387 OA
ATOM     14  H   UNL     1      16.340  25.740   7.479  1.00  0.00     0.211 HD
ENDBRANCH   6  13
BRANCH   7  15
ATOM     15  O   UNL     1      16.488  27.087   4.065  1.00  0.00    -0.384 OA
ATOM     16  H   UNL     1      15.875  27.807   4.369  1.00  0.00     0.211 HD
ENDBRANCH   7  15
ENDBRANCH   1   2
BRANCH   1  17
ATOM     17  C   UNL     1      18.741  23.634   5.946  1.00  0.00     0.172 A 
ATOM     18  C   UNL     1      19.170  22.335   6.263  1.00  0.00     0.201 A 
ATOM     19  C   UNL     1      19.658  24.681   5.938  1.00  0.00     0.098 A 
ATOM     20  C   UNL     1      20.528  22.070   6.502  1.00  0.00     0.176 A 
ATOM     21  C   UNL     1      21.006  24.451   6.207  1.00  0.00     0.146 A 
ATOM     22  C   UNL     1      21.472  23.143   6.499  1.00  0.00     0.111 A 
ATOM     23  O   UNL     1      21.840  25.484   6.184  1.00  0.00    -0.456 OA
ATOM     24  C   UNL     1      22.850  23.012   6.801  1.00  0.00     0.197 A 
ATOM     25  C   UNL     1      23.138  25.384   6.445  1.00  0.00     0.138 A 
ATOM     26  C   UNL     1      23.679  24.133   6.761  1.00  0.00     0.100 A 
ATOM     27  O   UNL     1      23.364  21.911   7.123  1.00  0.00    -0.289 OA
BRANCH  18  28
ATOM     28  O   UNL     1      18.257  21.284   6.361  1.00  0.00    -0.502 OA
ATOM     29  H   UNL     1      17.882  20.967   7.247  1.00  0.00     0.293 HD
ENDBRANCH  18  28
BRANCH  20  30
ATOM     30  O   UNL     1      20.865  20.732   6.730  1.00  0.00    -0.504 OA
ATOM     31  H   UNL     1      21.404  20.145   6.113  1.00  0.00     0.293 HD
ENDBRANCH  20  30
BRANCH  25  32
ATOM     32  C   UNL     1      23.975  26.607   6.384  1.00  0.00     0.017 A 
ATOM     33  C   UNL     1      25.220  26.686   7.042  1.00  0.00     0.012 A 
ATOM     34  C   UNL     1      23.508  27.734   5.682  1.00  0.00     0.012 A 
ATOM     35  C   UNL     1      25.982  27.856   6.976  1.00  0.00     0.001 A 
ATOM     36  C   UNL     1      24.276  28.900   5.617  1.00  0.00     0.001 A 
ATOM     37  C   UNL     1      25.514  28.960   6.261  1.00  0.00     0.000 A 
ENDBRANCH  25  32
ENDBRANCH   1  17
TORSDOF 9
ENDMDL
MODEL 5
REMARK VINA RESULT:    -3.146      7.542     13.173
REMARK INTER + INTRA:          -5.042
REMARK INTER:                  -4.024
REMARK INTRA:                  -1.018
REMARK UNBOUND:                -0.701
REMARK SMILES O=C([O-])[C@H]1O[C@H](Oc2cc3oc(-c4ccccc4)cc(=O)c3c(O)c2O)[C@@H](O)[C@H](O)[C@@H]1O
REMARK SMILES IDX 7 1 6 2 4 3 31 4 5 5 29 6 27 7 2 8 1 9 3 10 32 11 30 13
REMARK SMILES IDX 28 15 8 17 25 18 9 19 23 20 10 21 22 22 11 23 20 24 12 25
REMARK SMILES IDX 19 26 21 27 26 28 24 30 13 32 14 33 18 34 15 35 17 36 16 37
REMARK H PARENT 32 12 30 14 28 16 26 29 24 31
REMARK Flexibility Score: inf
ROOT
ATOM      1  O   UNL     1      11.491  26.781   5.611  1.00  0.00    -0.458 OA
ENDROOT
BRANCH   1   2
ATOM      2  C   UNL     1      11.926  28.118   5.879  1.00  0.00     0.339 C 
ATOM      3  C   UNL     1      11.196  28.920   3.797  1.00  0.00     0.199 C 
ATOM      4  C   UNL     1      10.112  29.824   4.430  1.00  0.00     0.180 C 
ATOM      5  O   UNL     1      12.298  28.773   4.677  1.00  0.00    -0.328 OA
ATOM      6  C   UNL     1       9.637  29.228   5.765  1.00  0.00     0.181 C 
ATOM      7  C   UNL     1      10.852  28.916   6.661  1.00  0.00     0.214 C 
BRANCH   3   8
ATOM      8  C   UNL     1      11.685  29.529   2.518  1.00  0.00     0.073 C 
ATOM      9  O   UNL     1      10.935  29.566   1.508  1.00  0.00    -0.547 OA
ATOM     10  O   UNL     1      12.951  30.100   2.453  1.00  0.00    -0.547 OA
ENDBRANCH   3   8
BRANCH   4  11
ATOM     11  O   UNL     1       9.026  30.033   3.560  1.00  0.00    -0.387 OA
ATOM     12  H   UNL     1       8.557  30.859   3.848  1.00  0.00     0.211 HD
ENDBRANCH   4  11
BRANCH   6  13
ATOM     13  O   UNL     1       8.894  28.059   5.532  1.00  0.00    -0.387 OA
ATOM     14  H   UNL     1       8.346  27.899   6.344  1.00  0.00     0.211 HD
ENDBRANCH   6  13
BRANCH   7  15
ATOM     15  O   UNL     1      11.403  30.124   7.122  1.00  0.00    -0.384 OA
ATOM     16  H   UNL     1      10.645  30.744   7.284  1.00  0.00     0.211 HD
ENDBRANCH   7  15
ENDBRANCH   1   2
BRANCH   1  17
ATOM     17  C   UNL     1      12.375  25.768   5.223  1.00  0.00     0.172 A 
ATOM     18  C   UNL     1      11.910  24.579   4.638  1.00  0.00     0.201 A 
ATOM     19  C   UNL     1      13.739  25.948   5.432  1.00  0.00     0.098 A 
ATOM     20  C   UNL     1      12.814  23.598   4.200  1.00  0.00     0.176 A 
ATOM     21  C   UNL     1      14.655  24.975   5.037  1.00  0.00     0.146 A 
ATOM     22  C   UNL     1      14.215  23.776   4.417  1.00  0.00     0.111 A 
ATOM     23  O   UNL     1      15.946  25.196   5.258  1.00  0.00    -0.456 OA
ATOM     24  C   UNL     1      15.215  22.827   4.089  1.00  0.00     0.197 A 
ATOM     25  C   UNL     1      16.902  24.330   4.943  1.00  0.00     0.138 A 
ATOM     26  C   UNL     1      16.555  23.115   4.344  1.00  0.00     0.100 A 
ATOM     27  O   UNL     1      14.938  21.711   3.582  1.00  0.00    -0.289 OA
BRANCH  18  28
ATOM     28  O   UNL     1      10.543  24.339   4.496  1.00  0.00    -0.502 OA
ATOM     29  H   UNL     1       9.983  23.914   5.226  1.00  0.00     0.293 HD
ENDBRANCH  18  28
BRANCH  20  30
ATOM     30  O   UNL     1      12.257  22.486   3.560  1.00  0.00    -0.504 OA
ATOM     31  H   UNL     1      11.278  22.345   3.367  1.00  0.00     0.293 HD
ENDBRANCH  20  30
BRANCH  25  32
ATOM     32  C   UNL     1      18.312  24.688   5.232  1.00  0.00     0.017 A 
ATOM     33  C   UNL     1      18.975  25.713   4.525  1.00  0.00     0.012 A 
ATOM     34  C   UNL     1      19.024  23.972   6.211  1.00  0.00     0.012 A 
ATOM     35  C   UNL     1      20.308  26.021   4.811  1.00  0.00     0.001 A 
ATOM     36  C   UNL     1      20.357  24.286   6.495  1.00  0.00     0.001 A 
ATOM     37  C   UNL     1      20.997  25.313   5.798  1.00  0.00     0.000 A 
ENDBRANCH  25  32
ENDBRANCH   1  17
TORSDOF 9
ENDMDL
MODEL 6
REMARK VINA RESULT:    -2.725      3.597      8.851
REMARK INTER + INTRA:          -4.461
REMARK INTER:                  -3.778
REMARK INTRA:                  -0.683
REMARK UNBOUND:                -0.701
REMARK SMILES O=C([O-])[C@H]1O[C@H](Oc2cc3oc(-c4ccccc4)cc(=O)c3c(O)c2O)[C@@H](O)[C@H](O)[C@@H]1O
REMARK SMILES IDX 7 1 6 2 4 3 31 4 5 5 29 6 27 7 2 8 1 9 3 10 32 11 30 13
REMARK SMILES IDX 28 15 8 17 25 18 9 19 23 20 10 21 22 22 11 23 20 24 12 25
REMARK SMILES IDX 19 26 21 27 26 28 24 30 13 32 14 33 18 34 15 35 17 36 16 37
REMARK H PARENT 32 12 30 14 28 16 26 29 24 31
REMARK Flexibility Score: inf
ROOT
ATOM      1  O   UNL     1      17.656  24.004   6.791  1.00  0.00    -0.458 OA
ENDROOT
BRANCH   1   2
ATOM      2  C   UNL     1      16.648  23.671   5.831  1.00  0.00     0.339 C 
ATOM      3  C   UNL     1      15.705  25.820   5.871  1.00  0.00     0.199 C 
ATOM      4  C   UNL     1      16.102  26.114   4.405  1.00  0.00     0.180 C 
ATOM      5  O   UNL     1      15.473  24.434   6.055  1.00  0.00    -0.328 OA
ATOM      6  C   UNL     1      17.364  25.319   4.028  1.00  0.00     0.181 C 
ATOM      7  C   UNL     1      17.171  23.832   4.381  1.00  0.00     0.214 C 
BRANCH   3   8
ATOM      8  C   UNL     1      14.450  26.564   6.218  1.00  0.00     0.073 C 
ATOM      9  O   UNL     1      13.474  25.954   6.726  1.00  0.00    -0.547 OA
ATOM     10  O   UNL     1      14.375  27.938   6.027  1.00  0.00    -0.547 OA
ENDBRANCH   3   8
BRANCH   4  11
ATOM     11  O   UNL     1      16.290  27.489   4.175  1.00  0.00    -0.387 OA
ATOM     12  H   UNL     1      15.966  27.694   3.259  1.00  0.00     0.211 HD
ENDBRANCH   4  11
BRANCH   6  13
ATOM     13  O   UNL     1      18.478  25.838   4.707  1.00  0.00    -0.387 OA
ATOM     14  H   UNL     1      18.559  26.792   4.443  1.00  0.00     0.211 HD
ENDBRANCH   6  13
BRANCH   7  15
ATOM     15  O   UNL     1      16.253  23.262   3.482  1.00  0.00    -0.384 OA
ATOM     16  H   UNL     1      16.626  23.389   2.570  1.00  0.00     0.211 HD
ENDBRANCH   7  15
ENDBRANCH   1   2
BRANCH   1  17
ATOM     17  C   UNL     1      18.882  23.333   6.855  1.00  0.00     0.172 A 
ATOM     18  C   UNL     1      18.943  21.933   6.951  1.00  0.00     0.201 A 
ATOM     19  C   UNL     1      20.059  24.076   6.833  1.00  0.00     0.098 A 
ATOM     20  C   UNL     1      20.182  21.272   6.954  1.00  0.00     0.176 A 
ATOM     21  C   UNL     1      21.301  23.445   6.870  1.00  0.00     0.146 A 
ATOM     22  C   UNL     1      21.392  22.031   6.936  1.00  0.00     0.111 A 
ATOM     23  O   UNL     1      22.393  24.200   6.844  1.00  0.00    -0.456 OA
ATOM     24  C   UNL     1      22.696  21.481   7.013  1.00  0.00     0.197 A 
ATOM     25  C   UNL     1      23.625  23.708   6.897  1.00  0.00     0.138 A 
ATOM     26  C   UNL     1      23.807  22.324   6.981  1.00  0.00     0.100 A 
ATOM     27  O   UNL     1      22.897  20.246   7.125  1.00  0.00    -0.289 OA
BRANCH  18  28
ATOM     28  O   UNL     1      17.779  21.172   7.060  1.00  0.00    -0.502 OA
ATOM     29  H   UNL     1      16.972  21.481   7.589  1.00  0.00     0.293 HD
ENDBRANCH  18  28
BRANCH  20  30
ATOM     30  O   UNL     1      20.135  19.874   6.972  1.00  0.00    -0.504 OA
ATOM     31  H   UNL     1      20.716  19.271   7.533  1.00  0.00     0.293 HD
ENDBRANCH  20  30
BRANCH  25  32
ATOM     32  C   UNL     1      24.772  24.649   6.856  1.00  0.00     0.017 A 
ATOM     33  C   UNL     1      24.582  26.045   6.804  1.00  0.00     0.012 A 
ATOM     34  C   UNL     1      26.084  24.142   6.833  1.00  0.00     0.012 A 
ATOM     35  C   UNL     1      25.681  26.907   6.755  1.00  0.00     0.001 A 
ATOM     36  C   UNL     1      27.181  25.009   6.786  1.00  0.00     0.001 A 
ATOM     37  C   UNL     1      26.979  26.391   6.751  1.00  0.00     0.000 A 
ENDBRANCH  25  32
ENDBRANCH   1  17
TORSDOF 9
ENDMDL
