MODEL 1
REMARK VINA RESULT:    -5.646      0.000      0.000
REMARK INTER + INTRA:          -9.739
REMARK INTER:                  -8.782
REMARK INTRA:                  -0.957
REMARK UNBOUND:                -0.957
REMARK SMILES C[C@@]12C[C@@]3(O)O[C@@H](O1)[C@]1(COC(=O)c4ccccc4)[C@H]3C[C@@]12O[C@H]1O[C@H](CO)[C@H](O)[C@H](O)[C@@H]1O
REMARK SMILES IDX 1 1 2 2 3 3 4 4 20 5 21 6 22 7 9 8 7 9 8 10 6 11 23 12 24 13
REMARK SMILES IDX 33 14 25 15 31 16 26 17 29 18 34 19 32 21 27 23 28 24 30 26
REMARK SMILES IDX 5 28 10 30 11 31 12 32 13 33 14 34 15 35 19 36 16 37 18 38
REMARK SMILES IDX 17 39
REMARK H PARENT 34 20 32 22 28 25 30 27 5 29
REMARK Flexibility Score: inf
ROOT
ATOM      1  C   UNL     1      18.945   2.234   3.904  1.00  0.00     0.046 C 
ATOM      2  C   UNL     1      19.373   1.828   2.493  1.00  0.00     0.104 C 
ATOM      3  C   UNL     1      18.499   2.543   1.400  1.00  0.00     0.104 C 
ATOM      4  C   UNL     1      19.044   1.961   0.050  1.00  0.00     0.175 C 
ATOM      5  C   UNL     1      19.128   0.401   0.116  1.00  0.00     0.070 C 
ATOM      6  C   UNL     1      18.271  -0.195   1.236  1.00  0.00     0.050 C 
ATOM      7  C   UNL     1      19.377   0.274   2.209  1.00  0.00     0.115 C 
ATOM      8  C   UNL     1      20.352   0.282   1.023  1.00  0.00     0.096 C 
ATOM      9  C   UNL     1      21.021   1.650   1.002  1.00  0.00     0.267 C 
ATOM     10  O   UNL     1      20.705   2.243   2.250  1.00  0.00    -0.342 OA
ATOM     11  O   UNL     1      20.389   2.384  -0.034  1.00  0.00    -0.320 OA
ENDROOT
BRANCH   7  12
ATOM     12  O   UNL     1      19.751  -0.585   3.280  1.00  0.00    -0.339 OA
BRANCH  12  13
ATOM     13  C   UNL     1      18.746  -0.632   4.291  1.00  0.00     0.282 C 
ATOM     14  C   UNL     1      19.377  -0.835   5.686  1.00  0.00     0.202 C 
ATOM     15  O   UNL     1      17.783  -1.640   4.017  1.00  0.00    -0.341 OA
ATOM     16  C   UNL     1      19.952  -2.257   5.820  1.00  0.00     0.179 C 
ATOM     17  C   UNL     1      18.364  -2.934   3.998  1.00  0.00     0.178 C 
ATOM     18  C   UNL     1      18.912  -3.308   5.391  1.00  0.00     0.177 C 
BRANCH  14  19
ATOM     19  O   UNL     1      18.391  -0.613   6.665  1.00  0.00    -0.385 OA
ATOM     20  H   UNL     1      18.094   0.330   6.574  1.00  0.00     0.211 HD
ENDBRANCH  14  19
BRANCH  16  21
ATOM     21  O   UNL     1      20.365  -2.489   7.143  1.00  0.00    -0.387 OA
ATOM     22  H   UNL     1      20.875  -1.686   7.434  1.00  0.00     0.211 HD
ENDBRANCH  16  21
BRANCH  17  23
ATOM     23  C   UNL     1      17.315  -3.944   3.526  1.00  0.00     0.191 C 
BRANCH  23  24
ATOM     24  O   UNL     1      17.363  -4.056   2.130  1.00  0.00    -0.394 OA
ATOM     25  H   UNL     1      16.804  -3.320   1.772  1.00  0.00     0.210 HD
ENDBRANCH  23  24
ENDBRANCH  17  23
BRANCH  18  26
ATOM     26  O   UNL     1      17.861  -3.365   6.324  1.00  0.00    -0.387 OA
ATOM     27  H   UNL     1      17.615  -4.320   6.426  1.00  0.00     0.211 HD
ENDBRANCH  18  26
ENDBRANCH  12  13
ENDBRANCH   7  12
BRANCH   4  28
ATOM     28  O   UNL     1      18.290   2.413  -1.042  1.00  0.00    -0.365 OA
ATOM     29  H   UNL     1      17.987   1.605  -1.533  1.00  0.00     0.214 HD
ENDBRANCH   4  28
BRANCH   8  30
ATOM     30  C   UNL     1      21.237  -0.961   0.745  1.00  0.00     0.249 C 
BRANCH  30  31
ATOM     31  O   UNL     1      22.468  -0.602   0.117  1.00  0.00    -0.461 OA
BRANCH  31  32
ATOM     32  C   UNL     1      22.798  -0.905  -1.206  1.00  0.00     0.338 C 
ATOM     33  O   UNL     1      23.913  -1.422  -1.479  1.00  0.00    -0.246 OA
BRANCH  32  34
ATOM     34  C   UNL     1      21.818  -0.652  -2.285  1.00  0.00     0.060 A 
ATOM     35  C   UNL     1      21.177  -1.726  -2.929  1.00  0.00     0.015 A 
ATOM     36  C   UNL     1      21.510   0.662  -2.682  1.00  0.00     0.015 A 
ATOM     37  C   UNL     1      20.251  -1.489  -3.949  1.00  0.00     0.001 A 
ATOM     38  C   UNL     1      20.582   0.894  -3.703  1.00  0.00     0.001 A 
ATOM     39  C   UNL     1      19.953  -0.181  -4.336  1.00  0.00     0.000 A 
ENDBRANCH  32  34
ENDBRANCH  31  32
ENDBRANCH  30  31
ENDBRANCH   8  30
TORSDOF 12
ENDMDL
MODEL 2
REMARK VINA RESULT:    -5.538      3.661      8.845
REMARK INTER + INTRA:          -9.570
REMARK INTER:                  -8.626
REMARK INTRA:                  -0.944
REMARK UNBOUND:                -0.957
REMARK SMILES C[C@@]12C[C@@]3(O)O[C@@H](O1)[C@]1(COC(=O)c4ccccc4)[C@H]3C[C@@]12O[C@H]1O[C@H](CO)[C@H](O)[C@H](O)[C@@H]1O
REMARK SMILES IDX 1 1 2 2 3 3 4 4 20 5 21 6 22 7 9 8 7 9 8 10 6 11 23 12 24 13
REMARK SMILES IDX 33 14 25 15 31 16 26 17 29 18 34 19 32 21 27 23 28 24 30 26
REMARK SMILES IDX 5 28 10 30 11 31 12 32 13 33 14 34 15 35 19 36 16 37 18 38
REMARK SMILES IDX 17 39
REMARK H PARENT 34 20 32 22 28 25 30 27 5 29
REMARK Flexibility Score: inf
ROOT
ATOM      1  C   UNL     1      23.548  -1.768   4.174  1.00  0.00     0.046 C 
ATOM      2  C   UNL     1      23.099  -1.475   5.606  1.00  0.00     0.104 C 
ATOM      3  C   UNL     1      23.854  -2.384   6.641  1.00  0.00     0.104 C 
ATOM      4  C   UNL     1      23.223  -1.980   8.019  1.00  0.00     0.175 C 
ATOM      5  C   UNL     1      21.661  -1.987   7.933  1.00  0.00     0.070 C 
ATOM      6  C   UNL     1      21.133  -2.790   6.741  1.00  0.00     0.050 C 
ATOM      7  C   UNL     1      21.545  -1.587   5.863  1.00  0.00     0.115 C 
ATOM      8  C   UNL     1      21.477  -0.707   7.119  1.00  0.00     0.096 C 
ATOM      9  C   UNL     1      22.801   0.041   7.214  1.00  0.00     0.267 C 
ATOM     10  O   UNL     1      23.428  -0.141   5.956  1.00  0.00    -0.342 OA
ATOM     11  O   UNL     1      23.560  -0.623   8.212  1.00  0.00    -0.320 OA
ENDROOT
BRANCH   7  12
ATOM     12  O   UNL     1      20.677  -1.185   4.809  1.00  0.00    -0.339 OA
BRANCH  12  13
ATOM     13  C   UNL     1      20.599  -2.177   3.787  1.00  0.00     0.282 C 
ATOM     14  C   UNL     1      20.324  -1.530   2.411  1.00  0.00     0.202 C 
ATOM     15  O   UNL     1      19.618  -3.159   4.092  1.00  0.00    -0.341 OA
ATOM     16  C   UNL     1      18.889  -0.975   2.350  1.00  0.00     0.179 C 
ATOM     17  C   UNL     1      18.319  -2.597   4.177  1.00  0.00     0.178 C 
ATOM     18  C   UNL     1      17.874  -2.036   2.811  1.00  0.00     0.177 C 
BRANCH  14  19
ATOM     19  O   UNL     1      20.516  -2.499   1.409  1.00  0.00    -0.385 OA
ATOM     20  H   UNL     1      20.580  -2.017   0.543  1.00  0.00     0.211 HD
ENDBRANCH  14  19
BRANCH  16  21
ATOM     21  O   UNL     1      18.591  -0.547   1.044  1.00  0.00    -0.387 OA
ATOM     22  H   UNL     1      19.018  -1.195   0.422  1.00  0.00     0.211 HD
ENDBRANCH  16  21
BRANCH  17  23
ATOM     23  C   UNL     1      17.346  -3.668   4.680  1.00  0.00     0.191 C 
BRANCH  23  24
ATOM     24  O   UNL     1      17.354  -3.692   6.080  1.00  0.00    -0.394 OA
ATOM     25  H   UNL     1      16.421  -3.520   6.368  1.00  0.00     0.210 HD
ENDBRANCH  23  24
ENDBRANCH  17  23
BRANCH  18  26
ATOM     26  O   UNL     1      17.790  -3.076   1.866  1.00  0.00    -0.387 OA
ATOM     27  H   UNL     1      18.493  -2.910   1.189  1.00  0.00     0.211 HD
ENDBRANCH  18  26
ENDBRANCH  12  13
ENDBRANCH   7  12
BRANCH   4  28
ATOM     28  O   UNL     1      23.707  -2.786   9.058  1.00  0.00    -0.365 OA
ATOM     29  H   UNL     1      23.401  -2.371   9.907  1.00  0.00     0.214 HD
ENDBRANCH   4  28
BRANCH   8  30
ATOM     30  C   UNL     1      20.178   0.077   7.442  1.00  0.00     0.249 C 
BRANCH  30  31
ATOM     31  O   UNL     1      20.460   1.336   8.053  1.00  0.00    -0.461 OA
BRANCH  31  32
ATOM     32  C   UNL     1      20.152   1.659   9.377  1.00  0.00     0.338 C 
ATOM     33  O   UNL     1      19.622   2.767   9.652  1.00  0.00    -0.246 OA
BRANCH  32  34
ATOM     34  C   UNL     1      20.415   0.678  10.453  1.00  0.00     0.060 A 
ATOM     35  C   UNL     1      19.346   0.063  11.130  1.00  0.00     0.015 A 
ATOM     36  C   UNL     1      21.732   0.343  10.815  1.00  0.00     0.015 A 
ATOM     37  C   UNL     1      19.591  -0.864  12.148  1.00  0.00     0.001 A 
ATOM     38  C   UNL     1      21.973  -0.585  11.833  1.00  0.00     0.001 A 
ATOM     39  C   UNL     1      20.904  -1.188  12.499  1.00  0.00     0.000 A 
ENDBRANCH  32  34
ENDBRANCH  31  32
ENDBRANCH  30  31
ENDBRANCH   8  30
TORSDOF 12
ENDMDL
MODEL 3
REMARK VINA RESULT:    -5.502      2.155      5.349
REMARK INTER + INTRA:          -9.515
REMARK INTER:                  -7.828
REMARK INTRA:                  -1.687
REMARK UNBOUND:                -0.957
REMARK SMILES C[C@@]12C[C@@]3(O)O[C@@H](O1)[C@]1(COC(=O)c4ccccc4)[C@H]3C[C@@]12O[C@H]1O[C@H](CO)[C@H](O)[C@H](O)[C@@H]1O
REMARK SMILES IDX 1 1 2 2 3 3 4 4 20 5 21 6 22 7 9 8 7 9 8 10 6 11 23 12 24 13
REMARK SMILES IDX 33 14 25 15 31 16 26 17 29 18 34 19 32 21 27 23 28 24 30 26
REMARK SMILES IDX 5 28 10 30 11 31 12 32 13 33 14 34 15 35 19 36 16 37 18 38
REMARK SMILES IDX 17 39
REMARK H PARENT 34 20 32 22 28 25 30 27 5 29
REMARK Flexibility Score: inf
ROOT
ATOM      1  C   UNL     1      19.883   0.210  -0.077  1.00  0.00     0.046 C 
ATOM      2  C   UNL     1      21.311  -0.246   0.226  1.00  0.00     0.104 C 
ATOM      3  C   UNL     1      21.972  -0.932  -1.024  1.00  0.00     0.104 C 
ATOM      4  C   UNL     1      23.383  -1.372  -0.503  1.00  0.00     0.175 C 
ATOM      5  C   UNL     1      23.256  -2.134   0.857  1.00  0.00     0.070 C 
ATOM      6  C   UNL     1      21.840  -2.656   1.117  1.00  0.00     0.050 C 
ATOM      7  C   UNL     1      21.465  -1.200   1.475  1.00  0.00     0.115 C 
ATOM      8  C   UNL     1      22.951  -0.936   1.756  1.00  0.00     0.096 C 
ATOM      9  C   UNL     1      23.347   0.298   0.954  1.00  0.00     0.267 C 
ATOM     10  O   UNL     1      22.126   0.874   0.523  1.00  0.00    -0.342 OA
ATOM     11  O   UNL     1      24.061  -0.177  -0.176  1.00  0.00    -0.320 OA
ENDROOT
BRANCH   7  12
ATOM     12  O   UNL     1      20.601  -0.972   2.582  1.00  0.00    -0.339 OA
BRANCH  12  13
ATOM     13  C   UNL     1      19.606  -1.988   2.690  1.00  0.00     0.282 C 
ATOM     14  C   UNL     1      18.198  -1.369   2.826  1.00  0.00     0.202 C 
ATOM     15  O   UNL     1      19.882  -2.869   3.771  1.00  0.00    -0.341 OA
ATOM     16  C   UNL     1      18.033  -0.692   4.199  1.00  0.00     0.179 C 
ATOM     17  C   UNL     1      19.871  -2.192   5.018  1.00  0.00     0.178 C 
ATOM     18  C   UNL     1      18.464  -1.642   5.330  1.00  0.00     0.177 C 
BRANCH  14  19
ATOM     19  O   UNL     1      17.239  -2.386   2.665  1.00  0.00    -0.385 OA
ATOM     20  H   UNL     1      17.156  -2.852   3.537  1.00  0.00     0.211 HD
ENDBRANCH  14  19
BRANCH  16  21
ATOM     21  O   UNL     1      16.700  -0.286   4.382  1.00  0.00    -0.387 OA
ATOM     22  H   UNL     1      16.623   0.047   5.315  1.00  0.00     0.211 HD
ENDBRANCH  16  21
BRANCH  17  23
ATOM     23  C   UNL     1      20.346  -3.155   6.110  1.00  0.00     0.191 C 
BRANCH  23  24
ATOM     24  O   UNL     1      19.963  -4.462   5.785  1.00  0.00    -0.394 OA
ATOM     25  H   UNL     1      19.271  -4.723   6.446  1.00  0.00     0.210 HD
ENDBRANCH  23  24
ENDBRANCH  17  23
BRANCH  18  26
ATOM     26  O   UNL     1      17.548  -2.703   5.454  1.00  0.00    -0.387 OA
ATOM     27  H   UNL     1      17.465  -3.121   4.559  1.00  0.00     0.211 HD
ENDBRANCH  18  26
ENDBRANCH  12  13
ENDBRANCH   7  12
BRANCH   4  28
ATOM     28  O   UNL     1      24.077  -2.112  -1.470  1.00  0.00    -0.365 OA
ATOM     29  H   UNL     1      25.040  -2.062  -1.232  1.00  0.00     0.214 HD
ENDBRANCH   4  28
BRANCH   8  30
ATOM     30  C   UNL     1      23.497  -1.065   3.203  1.00  0.00     0.249 C 
BRANCH  30  31
ATOM     31  O   UNL     1      23.391   0.166   3.917  1.00  0.00    -0.461 OA
BRANCH  31  32
ATOM     32  C   UNL     1      22.678   0.332   5.107  1.00  0.00     0.338 C 
ATOM     33  O   UNL     1      23.083  -0.210   6.169  1.00  0.00    -0.246 OA
BRANCH  32  34
ATOM     34  C   UNL     1      21.466   1.179   5.126  1.00  0.00     0.060 A 
ATOM     35  C   UNL     1      20.663   1.246   6.280  1.00  0.00     0.015 A 
ATOM     36  C   UNL     1      21.097   1.931   3.996  1.00  0.00     0.015 A 
ATOM     37  C   UNL     1      19.517   2.046   6.300  1.00  0.00     0.001 A 
ATOM     38  C   UNL     1      19.949   2.730   4.020  1.00  0.00     0.001 A 
ATOM     39  C   UNL     1      19.159   2.787   5.171  1.00  0.00     0.000 A 
ENDBRANCH  32  34
ENDBRANCH  31  32
ENDBRANCH  30  31
ENDBRANCH   8  30
TORSDOF 12
ENDMDL
MODEL 4
REMARK VINA RESULT:    -5.485      2.032      3.228
REMARK INTER + INTRA:          -9.488
REMARK INTER:                  -8.707
REMARK INTRA:                  -0.781
REMARK UNBOUND:                -0.957
REMARK SMILES C[C@@]12C[C@@]3(O)O[C@@H](O1)[C@]1(COC(=O)c4ccccc4)[C@H]3C[C@@]12O[C@H]1O[C@H](CO)[C@H](O)[C@H](O)[C@@H]1O
REMARK SMILES IDX 1 1 2 2 3 3 4 4 20 5 21 6 22 7 9 8 7 9 8 10 6 11 23 12 24 13
REMARK SMILES IDX 33 14 25 15 31 16 26 17 29 18 34 19 32 21 27 23 28 24 30 26
REMARK SMILES IDX 5 28 10 30 11 31 12 32 13 33 14 34 15 35 19 36 16 37 18 38
REMARK SMILES IDX 17 39
REMARK H PARENT 34 20 32 22 28 25 30 27 5 29
REMARK Flexibility Score: inf
ROOT
ATOM      1  C   UNL     1      18.772   2.061   4.164  1.00  0.00     0.046 C 
ATOM      2  C   UNL     1      18.999   0.905   3.190  1.00  0.00     0.104 C 
ATOM      3  C   UNL     1      17.736   0.658   2.289  1.00  0.00     0.104 C 
ATOM      4  C   UNL     1      18.139  -0.581   1.417  1.00  0.00     0.175 C 
ATOM      5  C   UNL     1      18.720  -1.722   2.315  1.00  0.00     0.070 C 
ATOM      6  C   UNL     1      18.349  -1.565   3.792  1.00  0.00     0.050 C 
ATOM      7  C   UNL     1      19.431  -0.462   3.853  1.00  0.00     0.115 C 
ATOM      8  C   UNL     1      20.082  -1.097   2.616  1.00  0.00     0.096 C 
ATOM      9  C   UNL     1      20.268   0.012   1.588  1.00  0.00     0.267 C 
ATOM     10  O   UNL     1      20.052   1.221   2.296  1.00  0.00    -0.342 OA
ATOM     11  O   UNL     1      19.234  -0.158   0.632  1.00  0.00    -0.320 OA
ENDROOT
BRANCH   7  12
ATOM     12  O   UNL     1      20.271  -0.396   4.999  1.00  0.00    -0.339 OA
BRANCH  12  13
ATOM     13  C   UNL     1      19.528  -0.562   6.205  1.00  0.00     0.282 C 
ATOM     14  C   UNL     1      19.907   0.522   7.239  1.00  0.00     0.202 C 
ATOM     15  O   UNL     1      19.704  -1.864   6.746  1.00  0.00    -0.341 OA
ATOM     16  C   UNL     1      21.331   0.289   7.773  1.00  0.00     0.179 C 
ATOM     17  C   UNL     1      21.056  -2.112   7.096  1.00  0.00     0.178 C 
ATOM     18  C   UNL     1      21.511  -1.170   8.229  1.00  0.00     0.177 C 
BRANCH  14  19
ATOM     19  O   UNL     1      18.977   0.484   8.295  1.00  0.00    -0.385 OA
ATOM     20  H   UNL     1      18.178  -0.005   7.965  1.00  0.00     0.211 HD
ENDBRANCH  14  19
BRANCH  16  21
ATOM     21  O   UNL     1      21.601   1.170   8.834  1.00  0.00    -0.387 OA
ATOM     22  H   UNL     1      21.467   0.660   9.677  1.00  0.00     0.211 HD
ENDBRANCH  16  21
BRANCH  17  23
ATOM     23  C   UNL     1      21.205  -3.581   7.502  1.00  0.00     0.191 C 
BRANCH  23  24
ATOM     24  O   UNL     1      19.990  -4.053   8.016  1.00  0.00    -0.394 OA
ATOM     25  H   UNL     1      19.733  -4.829   7.455  1.00  0.00     0.210 HD
ENDBRANCH  23  24
ENDBRANCH  17  23
BRANCH  18  26
ATOM     26  O   UNL     1      20.756  -1.415   9.392  1.00  0.00    -0.387 OA
ATOM     27  H   UNL     1      20.509  -2.375   9.381  1.00  0.00     0.211 HD
ENDBRANCH  18  26
ENDBRANCH  12  13
ENDBRANCH   7  12
BRANCH   4  28
ATOM     28  O   UNL     1      17.070  -1.016   0.621  1.00  0.00    -0.365 OA
ATOM     29  H   UNL     1      16.650  -0.201   0.237  1.00  0.00     0.214 HD
ENDBRANCH   4  28
BRANCH   8  30
ATOM     30  C   UNL     1      21.233  -2.122   2.792  1.00  0.00     0.249 C 
BRANCH  30  31
ATOM     31  O   UNL     1      21.702  -2.609   1.534  1.00  0.00    -0.461 OA
BRANCH  31  32
ATOM     32  C   UNL     1      22.925  -2.260   0.958  1.00  0.00     0.338 C 
ATOM     33  O   UNL     1      24.002  -2.486   1.570  1.00  0.00    -0.246 OA
BRANCH  32  34
ATOM     34  C   UNL     1      22.956  -1.660  -0.394  1.00  0.00     0.060 A 
ATOM     35  C   UNL     1      24.094  -0.959  -0.835  1.00  0.00     0.015 A 
ATOM     36  C   UNL     1      21.854  -1.782  -1.260  1.00  0.00     0.015 A 
ATOM     37  C   UNL     1      24.125  -0.390  -2.112  1.00  0.00     0.001 A 
ATOM     38  C   UNL     1      21.890  -1.212  -2.537  1.00  0.00     0.001 A 
ATOM     39  C   UNL     1      23.024  -0.517  -2.962  1.00  0.00     0.000 A 
ENDBRANCH  32  34
ENDBRANCH  31  32
ENDBRANCH  30  31
ENDBRANCH   8  30
TORSDOF 12
ENDMDL
MODEL 5
REMARK VINA RESULT:    -5.475      3.510      8.211
REMARK INTER + INTRA:          -9.473
REMARK INTER:                  -8.627
REMARK INTRA:                  -0.845
REMARK UNBOUND:                -0.957
REMARK SMILES C[C@@]12C[C@@]3(O)O[C@@H](O1)[C@]1(COC(=O)c4ccccc4)[C@H]3C[C@@]12O[C@H]1O[C@H](CO)[C@H](O)[C@H](O)[C@@H]1O
REMARK SMILES IDX 1 1 2 2 3 3 4 4 20 5 21 6 22 7 9 8 7 9 8 10 6 11 23 12 24 13
REMARK SMILES IDX 33 14 25 15 31 16 26 17 29 18 34 19 32 21 27 23 28 24 30 26
REMARK SMILES IDX 5 28 10 30 11 31 12 32 13 33 14 34 15 35 19 36 16 37 18 38
REMARK SMILES IDX 17 39
REMARK H PARENT 34 20 32 22 28 25 30 27 5 29
REMARK Flexibility Score: inf
ROOT
ATOM      1  C   UNL     1      20.533   2.520   2.975  1.00  0.00     0.046 C 
ATOM      2  C   UNL     1      20.869   2.272   4.446  1.00  0.00     0.104 C 
ATOM      3  C   UNL     1      22.362   2.646   4.764  1.00  0.00     0.104 C 
ATOM      4  C   UNL     1      22.523   2.273   6.278  1.00  0.00     0.175 C 
ATOM      5  C   UNL     1      21.980   0.832   6.552  1.00  0.00     0.070 C 
ATOM      6  C   UNL     1      21.858  -0.011   5.279  1.00  0.00     0.050 C 
ATOM      7  C   UNL     1      20.585   0.809   4.967  1.00  0.00     0.115 C 
ATOM      8  C   UNL     1      20.485   1.136   6.463  1.00  0.00     0.096 C 
ATOM      9  C   UNL     1      20.360   2.650   6.584  1.00  0.00     0.267 C 
ATOM     10  O   UNL     1      20.080   3.110   5.273  1.00  0.00    -0.342 OA
ATOM     11  O   UNL     1      21.638   3.122   6.979  1.00  0.00    -0.320 OA
ENDROOT
BRANCH   7  12
ATOM     12  O   UNL     1      19.455   0.131   4.430  1.00  0.00    -0.339 OA
BRANCH  12  13
ATOM     13  C   UNL     1      19.842  -0.993   3.642  1.00  0.00     0.282 C 
ATOM     14  C   UNL     1      19.344  -0.845   2.188  1.00  0.00     0.202 C 
ATOM     15  O   UNL     1      19.381  -2.209   4.216  1.00  0.00    -0.341 OA
ATOM     16  C   UNL     1      17.813  -0.990   2.119  1.00  0.00     0.179 C 
ATOM     17  C   UNL     1      17.965  -2.258   4.279  1.00  0.00     0.178 C 
ATOM     18  C   UNL     1      17.352  -2.256   2.864  1.00  0.00     0.177 C 
BRANCH  14  19
ATOM     19  O   UNL     1      19.964  -1.829   1.395  1.00  0.00    -0.385 OA
ATOM     20  H   UNL     1      19.663  -1.686   0.460  1.00  0.00     0.211 HD
ENDBRANCH  14  19
BRANCH  16  21
ATOM     21  O   UNL     1      17.390  -1.028   0.780  1.00  0.00    -0.387 OA
ATOM     22  H   UNL     1      16.744  -1.780   0.700  1.00  0.00     0.211 HD
ENDBRANCH  16  21
BRANCH  17  23
ATOM     23  C   UNL     1      17.545  -3.506   5.063  1.00  0.00     0.191 C 
BRANCH  23  24
ATOM     24  O   UNL     1      18.124  -3.479   6.338  1.00  0.00    -0.394 OA
ATOM     25  H   UNL     1      19.082  -3.258   6.204  1.00  0.00     0.210 HD
ENDBRANCH  23  24
ENDBRANCH  17  23
BRANCH  18  26
ATOM     26  O   UNL     1      17.752  -3.409   2.163  1.00  0.00    -0.387 OA
ATOM     27  H   UNL     1      18.230  -3.103   1.350  1.00  0.00     0.211 HD
ENDBRANCH  18  26
ENDBRANCH  12  13
ENDBRANCH   7  12
BRANCH   4  28
ATOM     28  O   UNL     1      23.847   2.438   6.707  1.00  0.00    -0.365 OA
ATOM     29  H   UNL     1      23.944   3.391   6.973  1.00  0.00     0.214 HD
ENDBRANCH   4  28
BRANCH   8  30
ATOM     30  C   UNL     1      19.597   0.260   7.386  1.00  0.00     0.249 C 
BRANCH  30  31
ATOM     31  O   UNL     1      19.223   0.958   8.574  1.00  0.00    -0.461 OA
BRANCH  31  32
ATOM     32  C   UNL     1      20.023   1.064   9.714  1.00  0.00     0.338 C 
ATOM     33  O   UNL     1      20.445   2.189  10.090  1.00  0.00    -0.246 OA
BRANCH  32  34
ATOM     34  C   UNL     1      20.341  -0.146  10.503  1.00  0.00     0.060 A 
ATOM     35  C   UNL     1      21.417  -0.973  10.133  1.00  0.00     0.015 A 
ATOM     36  C   UNL     1      19.578  -0.487  11.635  1.00  0.00     0.015 A 
ATOM     37  C   UNL     1      21.720  -2.117  10.878  1.00  0.00     0.001 A 
ATOM     38  C   UNL     1      19.884  -1.632  12.377  1.00  0.00     0.001 A 
ATOM     39  C   UNL     1      20.954  -2.447  11.999  1.00  0.00     0.000 A 
ENDBRANCH  32  34
ENDBRANCH  31  32
ENDBRANCH  30  31
ENDBRANCH   8  30
TORSDOF 12
ENDMDL
MODEL 6
REMARK VINA RESULT:    -5.467      4.209      8.597
REMARK INTER + INTRA:          -9.460
REMARK INTER:                  -9.780
REMARK INTRA:                   0.320
REMARK UNBOUND:                -0.957
REMARK SMILES C[C@@]12C[C@@]3(O)O[C@@H](O1)[C@]1(COC(=O)c4ccccc4)[C@H]3C[C@@]12O[C@H]1O[C@H](CO)[C@H](O)[C@H](O)[C@@H]1O
REMARK SMILES IDX 1 1 2 2 3 3 4 4 20 5 21 6 22 7 9 8 7 9 8 10 6 11 23 12 24 13
REMARK SMILES IDX 33 14 25 15 31 16 26 17 29 18 34 19 32 21 27 23 28 24 30 26
REMARK SMILES IDX 5 28 10 30 11 31 12 32 13 33 14 34 15 35 19 36 16 37 18 38
REMARK SMILES IDX 17 39
REMARK H PARENT 34 20 32 22 28 25 30 27 5 29
REMARK Flexibility Score: inf
ROOT
ATOM      1  C   UNL     1      19.092   0.999   5.535  1.00  0.00     0.046 C 
ATOM      2  C   UNL     1      20.221   0.328   6.318  1.00  0.00     0.104 C 
ATOM      3  C   UNL     1      21.574   1.111   6.159  1.00  0.00     0.104 C 
ATOM      4  C   UNL     1      22.600   0.249   6.973  1.00  0.00     0.175 C 
ATOM      5  C   UNL     1      22.493  -1.259   6.571  1.00  0.00     0.070 C 
ATOM      6  C   UNL     1      21.791  -1.469   5.227  1.00  0.00     0.050 C 
ATOM      7  C   UNL     1      20.468  -1.194   5.978  1.00  0.00     0.115 C 
ATOM      8  C   UNL     1      21.180  -1.587   7.280  1.00  0.00     0.096 C 
ATOM      9  C   UNL     1      20.950  -0.456   8.275  1.00  0.00     0.267 C 
ATOM     10  O   UNL     1      19.929   0.345   7.704  1.00  0.00    -0.342 OA
ATOM     11  O   UNL     1      22.157   0.289   8.313  1.00  0.00    -0.320 OA
ENDROOT
BRANCH   7  12
ATOM     12  O   UNL     1      19.329  -1.987   5.661  1.00  0.00    -0.339 OA
BRANCH  12  13
ATOM     13  C   UNL     1      19.616  -2.931   4.632  1.00  0.00     0.282 C 
ATOM     14  C   UNL     1      19.562  -2.263   3.240  1.00  0.00     0.202 C 
ATOM     15  O   UNL     1      18.738  -4.047   4.694  1.00  0.00    -0.341 OA
ATOM     16  C   UNL     1      18.113  -1.900   2.868  1.00  0.00     0.179 C 
ATOM     17  C   UNL     1      17.386  -3.666   4.495  1.00  0.00     0.178 C 
ATOM     18  C   UNL     1      17.179  -3.106   3.074  1.00  0.00     0.177 C 
BRANCH  14  19
ATOM     19  O   UNL     1      20.102  -3.150   2.291  1.00  0.00    -0.385 OA
ATOM     20  H   UNL     1      21.037  -2.864   2.119  1.00  0.00     0.211 HD
ENDBRANCH  14  19
BRANCH  16  21
ATOM     21  O   UNL     1      18.052  -1.455   1.536  1.00  0.00    -0.387 OA
ATOM     22  H   UNL     1      18.856  -1.813   1.073  1.00  0.00     0.211 HD
ENDBRANCH  16  21
BRANCH  17  23
ATOM     23  C   UNL     1      16.485  -4.878   4.750  1.00  0.00     0.191 C 
BRANCH  23  24
ATOM     24  O   UNL     1      15.875  -4.756   6.005  1.00  0.00    -0.394 OA
ATOM     25  H   UNL     1      16.221  -3.916   6.403  1.00  0.00     0.210 HD
ENDBRANCH  23  24
ENDBRANCH  17  23
BRANCH  18  26
ATOM     26  O   UNL     1      17.449  -4.102   2.117  1.00  0.00    -0.387 OA
ATOM     27  H   UNL     1      18.213  -4.633   2.459  1.00  0.00     0.211 HD
ENDBRANCH  18  26
ENDBRANCH  12  13
ENDBRANCH   7  12
BRANCH   4  28
ATOM     28  O   UNL     1      23.903   0.748   6.844  1.00  0.00    -0.365 OA
ATOM     29  H   UNL     1      23.956   1.559   7.416  1.00  0.00     0.214 HD
ENDBRANCH   4  28
BRANCH   8  30
ATOM     30  C   UNL     1      21.080  -3.043   7.804  1.00  0.00     0.249 C 
BRANCH  30  31
ATOM     31  O   UNL     1      22.313  -3.485   8.371  1.00  0.00    -0.461 OA
BRANCH  31  32
ATOM     32  C   UNL     1      22.489  -3.828   9.713  1.00  0.00     0.338 C 
ATOM     33  O   UNL     1      23.519  -4.454  10.078  1.00  0.00    -0.246 OA
BRANCH  32  34
ATOM     34  C   UNL     1      21.480  -3.419  10.715  1.00  0.00     0.060 A 
ATOM     35  C   UNL     1      21.550  -2.149  11.316  1.00  0.00     0.015 A 
ATOM     36  C   UNL     1      20.436  -4.288  11.080  1.00  0.00     0.015 A 
ATOM     37  C   UNL     1      20.598  -1.760  12.263  1.00  0.00     0.001 A 
ATOM     38  C   UNL     1      19.486  -3.895  12.027  1.00  0.00     0.001 A 
ATOM     39  C   UNL     1      19.566  -2.632  12.619  1.00  0.00     0.000 A 
ENDBRANCH  32  34
ENDBRANCH  31  32
ENDBRANCH  30  31
ENDBRANCH   8  30
TORSDOF 12
ENDMDL
MODEL 7
REMARK VINA RESULT:    -5.458      2.308      4.205
REMARK INTER + INTRA:          -9.447
REMARK INTER:                  -8.785
REMARK INTRA:                  -0.662
REMARK UNBOUND:                -0.957
REMARK SMILES C[C@@]12C[C@@]3(O)O[C@@H](O1)[C@]1(COC(=O)c4ccccc4)[C@H]3C[C@@]12O[C@H]1O[C@H](CO)[C@H](O)[C@H](O)[C@@H]1O
REMARK SMILES IDX 1 1 2 2 3 3 4 4 20 5 21 6 22 7 9 8 7 9 8 10 6 11 23 12 24 13
REMARK SMILES IDX 33 14 25 15 31 16 26 17 29 18 34 19 32 21 27 23 28 24 30 26
REMARK SMILES IDX 5 28 10 30 11 31 12 32 13 33 14 34 15 35 19 36 16 37 18 38
REMARK SMILES IDX 17 39
REMARK H PARENT 34 20 32 22 28 25 30 27 5 29
REMARK Flexibility Score: inf
ROOT
ATOM      1  C   UNL     1      17.910  -0.220   5.637  1.00  0.00     0.046 C 
ATOM      2  C   UNL     1      18.438  -1.020   4.446  1.00  0.00     0.104 C 
ATOM      3  C   UNL     1      17.386  -2.080   3.955  1.00  0.00     0.104 C 
ATOM      4  C   UNL     1      18.125  -2.822   2.788  1.00  0.00     0.175 C 
ATOM      5  C   UNL     1      19.558  -3.261   3.234  1.00  0.00     0.070 C 
ATOM      6  C   UNL     1      19.728  -3.283   4.755  1.00  0.00     0.050 C 
ATOM      7  C   UNL     1      19.823  -1.742   4.677  1.00  0.00     0.115 C 
ATOM      8  C   UNL     1      20.230  -1.889   3.204  1.00  0.00     0.096 C 
ATOM      9  C   UNL     1      19.307  -0.990   2.392  1.00  0.00     0.267 C 
ATOM     10  O   UNL     1      18.659  -0.160   3.341  1.00  0.00    -0.342 OA
ATOM     11  O   UNL     1      18.348  -1.846   1.792  1.00  0.00    -0.320 OA
ENDROOT
BRANCH   7  12
ATOM     12  O   UNL     1      20.779  -1.077   5.495  1.00  0.00    -0.339 OA
BRANCH  12  13
ATOM     13  C   UNL     1      20.772  -1.583   6.828  1.00  0.00     0.282 C 
ATOM     14  C   UNL     1      20.930  -0.439   7.853  1.00  0.00     0.202 C 
ATOM     15  O   UNL     1      21.776  -2.572   7.011  1.00  0.00    -0.341 OA
ATOM     16  C   UNL     1      22.354   0.144   7.800  1.00  0.00     0.179 C 
ATOM     17  C   UNL     1      23.077  -2.045   6.811  1.00  0.00     0.178 C 
ATOM     18  C   UNL     1      23.405  -0.977   7.874  1.00  0.00     0.177 C 
BRANCH  14  19
ATOM     19  O   UNL     1      20.656  -0.941   9.138  1.00  0.00    -0.385 OA
ATOM     20  H   UNL     1      20.173  -1.800   9.021  1.00  0.00     0.211 HD
ENDBRANCH  14  19
BRANCH  16  21
ATOM     21  O   UNL     1      22.541   1.061   8.849  1.00  0.00    -0.387 OA
ATOM     22  H   UNL     1      22.241   0.613   9.684  1.00  0.00     0.211 HD
ENDBRANCH  16  21
BRANCH  17  23
ATOM     23  C   UNL     1      24.090  -3.194   6.848  1.00  0.00     0.191 C 
BRANCH  23  24
ATOM     24  O   UNL     1      23.415  -4.420   6.794  1.00  0.00    -0.394 OA
ATOM     25  H   UNL     1      22.946  -4.519   7.662  1.00  0.00     0.210 HD
ENDBRANCH  23  24
ENDBRANCH  17  23
BRANCH  18  26
ATOM     26  O   UNL     1      23.412  -1.558   9.156  1.00  0.00    -0.387 OA
ATOM     27  H   UNL     1      24.331  -1.890   9.319  1.00  0.00     0.211 HD
ENDBRANCH  18  26
ENDBRANCH  12  13
ENDBRANCH   7  12
BRANCH   4  28
ATOM     28  O   UNL     1      17.363  -3.893   2.301  1.00  0.00    -0.365 OA
ATOM     29  H   UNL     1      17.295  -3.771   1.317  1.00  0.00     0.214 HD
ENDBRANCH   4  28
BRANCH   8  30
ATOM     30  C   UNL     1      21.733  -1.919   2.820  1.00  0.00     0.249 C 
BRANCH  30  31
ATOM     31  O   UNL     1      21.999  -1.117   1.670  1.00  0.00    -0.461 OA
BRANCH  31  32
ATOM     32  C   UNL     1      22.347  -1.623   0.415  1.00  0.00     0.338 C 
ATOM     33  O   UNL     1      23.206  -2.539   0.317  1.00  0.00    -0.246 OA
BRANCH  32  34
ATOM     34  C   UNL     1      21.675  -1.108  -0.798  1.00  0.00     0.060 A 
ATOM     35  C   UNL     1      21.876  -1.734  -2.042  1.00  0.00     0.015 A 
ATOM     36  C   UNL     1      20.825   0.011  -0.729  1.00  0.00     0.015 A 
ATOM     37  C   UNL     1      21.243  -1.249  -3.190  1.00  0.00     0.001 A 
ATOM     38  C   UNL     1      20.193   0.492  -1.879  1.00  0.00     0.001 A 
ATOM     39  C   UNL     1      20.402  -0.136  -3.109  1.00  0.00     0.000 A 
ENDBRANCH  32  34
ENDBRANCH  31  32
ENDBRANCH  30  31
ENDBRANCH   8  30
TORSDOF 12
ENDMDL
MODEL 8
REMARK VINA RESULT:    -5.457      4.173      8.432
REMARK INTER + INTRA:          -9.445
REMARK INTER:                  -9.333
REMARK INTRA:                  -0.111
REMARK UNBOUND:                -0.957
REMARK SMILES C[C@@]12C[C@@]3(O)O[C@@H](O1)[C@]1(COC(=O)c4ccccc4)[C@H]3C[C@@]12O[C@H]1O[C@H](CO)[C@H](O)[C@H](O)[C@@H]1O
REMARK SMILES IDX 1 1 2 2 3 3 4 4 20 5 21 6 22 7 9 8 7 9 8 10 6 11 23 12 24 13
REMARK SMILES IDX 33 14 25 15 31 16 26 17 29 18 34 19 32 21 27 23 28 24 30 26
REMARK SMILES IDX 5 28 10 30 11 31 12 32 13 33 14 34 15 35 19 36 16 37 18 38
REMARK SMILES IDX 17 39
REMARK H PARENT 34 20 32 22 28 25 30 27 5 29
REMARK Flexibility Score: inf
ROOT
ATOM      1  C   UNL     1      18.910   1.055   4.531  1.00  0.00     0.046 C 
ATOM      2  C   UNL     1      20.061   0.768   5.495  1.00  0.00     0.104 C 
ATOM      3  C   UNL     1      21.359   1.556   5.089  1.00  0.00     0.104 C 
ATOM      4  C   UNL     1      22.420   1.090   6.145  1.00  0.00     0.175 C 
ATOM      5  C   UNL     1      22.432  -0.469   6.265  1.00  0.00     0.070 C 
ATOM      6  C   UNL     1      21.784  -1.164   5.065  1.00  0.00     0.050 C 
ATOM      7  C   UNL     1      20.424  -0.758   5.679  1.00  0.00     0.115 C 
ATOM      8  C   UNL     1      21.126  -0.642   7.039  1.00  0.00     0.096 C 
ATOM      9  C   UNL     1      20.789   0.733   7.602  1.00  0.00     0.267 C 
ATOM     10  O   UNL     1      19.730   1.220   6.796  1.00  0.00    -0.342 OA
ATOM     11  O   UNL     1      21.939   1.537   7.395  1.00  0.00    -0.320 OA
ENDROOT
BRANCH   7  12
ATOM     12  O   UNL     1      19.354  -1.694   5.640  1.00  0.00    -0.339 OA
BRANCH  12  13
ATOM     13  C   UNL     1      19.620  -2.760   4.730  1.00  0.00     0.282 C 
ATOM     14  C   UNL     1      19.512  -2.274   3.268  1.00  0.00     0.202 C 
ATOM     15  O   UNL     1      18.761  -3.867   4.963  1.00  0.00    -0.341 OA
ATOM     16  C   UNL     1      18.047  -1.976   2.901  1.00  0.00     0.179 C 
ATOM     17  C   UNL     1      17.398  -3.527   4.763  1.00  0.00     0.178 C 
ATOM     18  C   UNL     1      17.137  -3.154   3.290  1.00  0.00     0.177 C 
BRANCH  14  19
ATOM     19  O   UNL     1      20.034  -3.270   2.421  1.00  0.00    -0.385 OA
ATOM     20  H   UNL     1      19.348  -3.985   2.350  1.00  0.00     0.211 HD
ENDBRANCH  14  19
BRANCH  16  21
ATOM     21  O   UNL     1      17.938  -1.704   1.527  1.00  0.00    -0.387 OA
ATOM     22  H   UNL     1      17.323  -0.928   1.431  1.00  0.00     0.211 HD
ENDBRANCH  16  21
BRANCH  17  23
ATOM     23  C   UNL     1      16.522  -4.705   5.200  1.00  0.00     0.191 C 
BRANCH  23  24
ATOM     24  O   UNL     1      15.972  -4.441   6.461  1.00  0.00    -0.394 OA
ATOM     25  H   UNL     1      16.728  -4.442   7.102  1.00  0.00     0.210 HD
ENDBRANCH  23  24
ENDBRANCH  17  23
BRANCH  18  26
ATOM     26  O   UNL     1      17.390  -4.262   2.459  1.00  0.00    -0.387 OA
ATOM     27  H   UNL     1      18.169  -4.028   1.892  1.00  0.00     0.211 HD
ENDBRANCH  18  26
ENDBRANCH  12  13
ENDBRANCH   7  12
BRANCH   4  28
ATOM     28  O   UNL     1      23.688   1.617   5.861  1.00  0.00    -0.365 OA
ATOM     29  H   UNL     1      23.638   2.593   6.038  1.00  0.00     0.214 HD
ENDBRANCH   4  28
BRANCH   8  30
ATOM     30  C   UNL     1      21.116  -1.847   8.017  1.00  0.00     0.249 C 
BRANCH  30  31
ATOM     31  O   UNL     1      21.744  -1.525   9.257  1.00  0.00    -0.461 OA
BRANCH  31  32
ATOM     32  C   UNL     1      21.115  -1.588  10.503  1.00  0.00     0.338 C 
ATOM     33  O   UNL     1      20.963  -2.695  11.081  1.00  0.00    -0.246 OA
BRANCH  32  34
ATOM     34  C   UNL     1      20.661  -0.343  11.161  1.00  0.00     0.060 A 
ATOM     35  C   UNL     1      19.357  -0.247  11.679  1.00  0.00     0.015 A 
ATOM     36  C   UNL     1      21.524   0.762  11.281  1.00  0.00     0.015 A 
ATOM     37  C   UNL     1      18.926   0.929  12.301  1.00  0.00     0.001 A 
ATOM     38  C   UNL     1      21.089   1.936  11.903  1.00  0.00     0.001 A 
ATOM     39  C   UNL     1      19.791   2.020  12.413  1.00  0.00     0.000 A 
ENDBRANCH  32  34
ENDBRANCH  31  32
ENDBRANCH  30  31
ENDBRANCH   8  30
TORSDOF 12
ENDMDL
