MODEL 1
REMARK VINA RESULT:    -4.025      0.000      0.000
REMARK INTER + INTRA:          -5.372
REMARK INTER:                  -4.966
REMARK INTRA:                  -0.406
REMARK UNBOUND:                -0.406
REMARK SMILES C=CC[C@@H](C)C(=O)CC
REMARK SMILES IDX 4 1 5 2 6 3 7 4 8 5 9 6 3 7 2 8 1 9
REMARK H PARENT
REMARK Flexibility Score: inf
ROOT
ATOM      1  C   UNL     1      12.750 -29.773  22.532  1.00  0.00     0.057 C 
ATOM      2  C   UNL     1      11.792 -30.619  21.685  1.00  0.00     0.016 C 
ENDROOT
BRANCH   1   3
ATOM      3  C   UNL     1      12.000 -28.665  23.246  1.00  0.00     0.135 C 
ATOM      4  O   UNL     1      10.875 -28.371  22.867  1.00  0.00    -0.299 OA
BRANCH   3   5
ATOM      5  C   UNL     1      12.606 -27.895  24.393  1.00  0.00     0.072 C 
ATOM      6  C   UNL     1      13.107 -26.531  23.931  1.00  0.00     0.012 C 
ENDBRANCH   3   5
ENDBRANCH   1   3
BRANCH   1   7
ATOM      7  C   UNL     1      13.544 -30.659  23.514  1.00  0.00     0.038 C 
BRANCH   7   8
ATOM      8  C   UNL     1      15.027 -30.615  23.250  1.00  0.00    -0.034 C 
ATOM      9  C   UNL     1      15.585 -29.637  22.530  1.00  0.00     0.004 C 
ENDBRANCH   7   8
ENDBRANCH   1   7
TORSDOF 4
ENDMDL
MODEL 2
REMARK VINA RESULT:    -3.959      2.201      4.214
REMARK INTER + INTRA:          -5.291
REMARK INTER:                  -5.104
REMARK INTRA:                  -0.186
REMARK UNBOUND:                -0.406
REMARK SMILES C=CC[C@@H](C)C(=O)CC
REMARK SMILES IDX 4 1 5 2 6 3 7 4 8 5 9 6 3 7 2 8 1 9
REMARK H PARENT
REMARK Flexibility Score: inf
ROOT
ATOM      1  C   UNL     1      12.392 -30.640  22.288  1.00  0.00     0.057 C 
ATOM      2  C   UNL     1      11.096 -30.249  21.567  1.00  0.00     0.016 C 
ENDROOT
BRANCH   1   3
ATOM      3  C   UNL     1      13.502 -30.910  21.289  1.00  0.00     0.135 C 
ATOM      4  O   UNL     1      14.415 -30.104  21.186  1.00  0.00    -0.299 OA
BRANCH   3   5
ATOM      5  C   UNL     1      13.501 -32.129  20.399  1.00  0.00     0.072 C 
ATOM      6  C   UNL     1      14.514 -33.160  20.887  1.00  0.00     0.012 C 
ENDBRANCH   3   5
ENDBRANCH   1   3
BRANCH   1   7
ATOM      7  C   UNL     1      12.793 -29.565  23.320  1.00  0.00     0.038 C 
BRANCH   7   8
ATOM      8  C   UNL     1      11.791 -28.442  23.390  1.00  0.00    -0.034 C 
ATOM      9  C   UNL     1      11.840 -27.515  24.351  1.00  0.00     0.004 C 
ENDBRANCH   7   8
ENDBRANCH   1   7
TORSDOF 4
ENDMDL
MODEL 3
REMARK VINA RESULT:    -3.951      1.704      3.870
REMARK INTER + INTRA:          -5.281
REMARK INTER:                  -4.931
REMARK INTRA:                  -0.350
REMARK UNBOUND:                -0.406
REMARK SMILES C=CC[C@@H](C)C(=O)CC
REMARK SMILES IDX 4 1 5 2 6 3 7 4 8 5 9 6 3 7 2 8 1 9
REMARK H PARENT
REMARK Flexibility Score: inf
ROOT
ATOM      1  C   UNL     1      13.457 -29.376  22.863  1.00  0.00     0.057 C 
ATOM      2  C   UNL     1      14.990 -29.348  22.878  1.00  0.00     0.016 C 
ENDROOT
BRANCH   1   3
ATOM      3  C   UNL     1      12.949 -30.740  22.437  1.00  0.00     0.135 C 
ATOM      4  O   UNL     1      13.038 -31.676  23.218  1.00  0.00    -0.299 OA
BRANCH   3   5
ATOM      5  C   UNL     1      12.360 -30.986  21.070  1.00  0.00     0.072 C 
ATOM      6  C   UNL     1      10.876 -30.635  21.045  1.00  0.00     0.012 C 
ENDBRANCH   3   5
ENDBRANCH   1   3
BRANCH   1   7
ATOM      7  C   UNL     1      12.886 -28.947  24.231  1.00  0.00     0.038 C 
BRANCH   7   8
ATOM      8  C   UNL     1      11.951 -27.772  24.115  1.00  0.00    -0.034 C 
ATOM      9  C   UNL     1      10.875 -27.804  23.323  1.00  0.00     0.004 C 
ENDBRANCH   7   8
ENDBRANCH   1   7
TORSDOF 4
ENDMDL
MODEL 4
REMARK VINA RESULT:    -3.946      1.734      3.544
REMARK INTER + INTRA:          -5.275
REMARK INTER:                  -4.985
REMARK INTRA:                  -0.291
REMARK UNBOUND:                -0.406
REMARK SMILES C=CC[C@@H](C)C(=O)CC
REMARK SMILES IDX 4 1 5 2 6 3 7 4 8 5 9 6 3 7 2 8 1 9
REMARK H PARENT
REMARK Flexibility Score: inf
ROOT
ATOM      1  C   UNL     1      12.293 -30.272  22.465  1.00  0.00     0.057 C 
ATOM      2  C   UNL     1      11.410 -30.608  21.257  1.00  0.00     0.016 C 
ENDROOT
BRANCH   1   3
ATOM      3  C   UNL     1      13.750 -30.570  22.165  1.00  0.00     0.135 C 
ATOM      4  O   UNL     1      14.204 -30.265  21.072  1.00  0.00    -0.299 OA
BRANCH   3   5
ATOM      5  C   UNL     1      14.651 -31.255  23.163  1.00  0.00     0.072 C 
ATOM      6  C   UNL     1      13.866 -32.247  24.016  1.00  0.00     0.012 C 
ENDBRANCH   3   5
ENDBRANCH   1   3
BRANCH   1   7
ATOM      7  C   UNL     1      12.082 -28.810  22.910  1.00  0.00     0.038 C 
BRANCH   7   8
ATOM      8  C   UNL     1      12.645 -28.545  24.282  1.00  0.00    -0.034 C 
ATOM      9  C   UNL     1      12.633 -27.324  24.825  1.00  0.00     0.004 C 
ENDBRANCH   7   8
ENDBRANCH   1   7
TORSDOF 4
ENDMDL
MODEL 5
REMARK VINA RESULT:    -3.936      1.510      2.670
REMARK INTER + INTRA:          -5.262
REMARK INTER:                  -4.777
REMARK INTRA:                  -0.485
REMARK UNBOUND:                -0.406
REMARK SMILES C=CC[C@@H](C)C(=O)CC
REMARK SMILES IDX 4 1 5 2 6 3 7 4 8 5 9 6 3 7 2 8 1 9
REMARK H PARENT
REMARK Flexibility Score: inf
ROOT
ATOM      1  C   UNL     1      14.069 -29.750  23.033  1.00  0.00     0.057 C 
ATOM      2  C   UNL     1      14.971 -29.664  21.796  1.00  0.00     0.016 C 
ENDROOT
BRANCH   1   3
ATOM      3  C   UNL     1      13.470 -28.394  23.355  1.00  0.00     0.135 C 
ATOM      4  O   UNL     1      13.903 -27.404  22.785  1.00  0.00    -0.299 OA
BRANCH   3   5
ATOM      5  C   UNL     1      12.372 -28.225  24.376  1.00  0.00     0.072 C 
ATOM      6  C   UNL     1      11.177 -27.491  23.775  1.00  0.00     0.012 C 
ENDBRANCH   3   5
ENDBRANCH   1   3
BRANCH   1   7
ATOM      7  C   UNL     1      12.985 -30.832  22.848  1.00  0.00     0.038 C 
BRANCH   7   8
ATOM      8  C   UNL     1      12.322 -30.750  21.497  1.00  0.00    -0.034 C 
ATOM      9  C   UNL     1      11.030 -30.435  21.365  1.00  0.00     0.004 C 
ENDBRANCH   7   8
ENDBRANCH   1   7
TORSDOF 4
ENDMDL
MODEL 6
REMARK VINA RESULT:    -3.897      2.007      3.807
REMARK INTER + INTRA:          -5.214
REMARK INTER:                  -4.966
REMARK INTRA:                  -0.248
REMARK UNBOUND:                -0.406
REMARK SMILES C=CC[C@@H](C)C(=O)CC
REMARK SMILES IDX 4 1 5 2 6 3 7 4 8 5 9 6 3 7 2 8 1 9
REMARK H PARENT
REMARK Flexibility Score: inf
ROOT
ATOM      1  C   UNL     1      12.155 -30.591  22.176  1.00  0.00     0.057 C 
ATOM      2  C   UNL     1      10.875 -30.244  21.405  1.00  0.00     0.016 C 
ENDROOT
BRANCH   1   3
ATOM      3  C   UNL     1      13.284 -30.924  21.220  1.00  0.00     0.135 C 
ATOM      4  O   UNL     1      13.115 -31.801  20.386  1.00  0.00    -0.299 OA
BRANCH   3   5
ATOM      5  C   UNL     1      14.620 -30.226  21.283  1.00  0.00     0.072 C 
ATOM      6  C   UNL     1      15.687 -31.142  21.874  1.00  0.00     0.012 C 
ENDBRANCH   3   5
ENDBRANCH   1   3
BRANCH   1   7
ATOM      7  C   UNL     1      12.536 -29.454  23.148  1.00  0.00     0.038 C 
BRANCH   7   8
ATOM      8  C   UNL     1      11.464 -28.399  23.238  1.00  0.00    -0.034 C 
ATOM      9  C   UNL     1      11.667 -27.242  23.874  1.00  0.00     0.004 C 
ENDBRANCH   7   8
ENDBRANCH   1   7
TORSDOF 4
ENDMDL
MODEL 7
REMARK VINA RESULT:    -3.870      1.418      1.860
REMARK INTER + INTRA:          -5.181
REMARK INTER:                  -4.949
REMARK INTRA:                  -0.231
REMARK UNBOUND:                -0.406
REMARK SMILES C=CC[C@@H](C)C(=O)CC
REMARK SMILES IDX 4 1 5 2 6 3 7 4 8 5 9 6 3 7 2 8 1 9
REMARK H PARENT
REMARK Flexibility Score: inf
ROOT
ATOM      1  C   UNL     1      13.553 -30.233  22.164  1.00  0.00     0.057 C 
ATOM      2  C   UNL     1      13.114 -31.323  21.179  1.00  0.00     0.016 C 
ENDROOT
BRANCH   1   3
ATOM      3  C   UNL     1      12.348 -29.520  22.749  1.00  0.00     0.135 C 
ATOM      4  O   UNL     1      11.279 -29.586  22.161  1.00  0.00    -0.299 OA
BRANCH   3   5
ATOM      5  C   UNL     1      12.434 -28.712  24.020  1.00  0.00     0.072 C 
ATOM      6  C   UNL     1      11.568 -27.459  23.928  1.00  0.00     0.012 C 
ENDBRANCH   3   5
ENDBRANCH   1   3
BRANCH   1   7
ATOM      7  C   UNL     1      14.466 -30.821  23.262  1.00  0.00     0.038 C 
BRANCH   7   8
ATOM      8  C   UNL     1      13.906 -32.091  23.848  1.00  0.00    -0.034 C 
ATOM      9  C   UNL     1      14.675 -33.161  24.072  1.00  0.00     0.004 C 
ENDBRANCH   7   8
ENDBRANCH   1   7
TORSDOF 4
ENDMDL
MODEL 8
REMARK VINA RESULT:    -3.853      1.097      1.527
REMARK INTER + INTRA:          -5.160
REMARK INTER:                  -4.677
REMARK INTRA:                  -0.484
REMARK UNBOUND:                -0.406
REMARK SMILES C=CC[C@@H](C)C(=O)CC
REMARK SMILES IDX 4 1 5 2 6 3 7 4 8 5 9 6 3 7 2 8 1 9
REMARK H PARENT
REMARK Flexibility Score: inf
ROOT
ATOM      1  C   UNL     1      12.802 -30.845  22.449  1.00  0.00     0.057 C 
ATOM      2  C   UNL     1      13.537 -31.503  23.623  1.00  0.00     0.016 C 
ENDROOT
BRANCH   1   3
ATOM      3  C   UNL     1      12.148 -29.547  22.885  1.00  0.00     0.135 C 
ATOM      4  O   UNL     1      11.171 -29.141  22.272  1.00  0.00    -0.299 OA
BRANCH   3   5
ATOM      5  C   UNL     1      12.679 -28.728  24.035  1.00  0.00     0.072 C 
ATOM      6  C   UNL     1      12.887 -27.276  23.620  1.00  0.00     0.012 C 
ENDBRANCH   3   5
ENDBRANCH   1   3
BRANCH   1   7
ATOM      7  C   UNL     1      13.753 -30.639  21.251  1.00  0.00     0.038 C 
BRANCH   7   8
ATOM      8  C   UNL     1      15.163 -30.339  21.688  1.00  0.00    -0.034 C 
ATOM      9  C   UNL     1      15.663 -29.101  21.653  1.00  0.00     0.004 C 
ENDBRANCH   7   8
ENDBRANCH   1   7
TORSDOF 4
ENDMDL
MODEL 9
REMARK VINA RESULT:    -3.822      9.461     11.165
REMARK INTER + INTRA:          -5.122
REMARK INTER:                  -4.840
REMARK INTRA:                  -0.282
REMARK UNBOUND:                -0.406
REMARK SMILES C=CC[C@@H](C)C(=O)CC
REMARK SMILES IDX 4 1 5 2 6 3 7 4 8 5 9 6 3 7 2 8 1 9
REMARK H PARENT
REMARK Flexibility Score: inf
ROOT
ATOM      1  C   UNL     1      22.690 -25.183  20.498  1.00  0.00     0.057 C 
ATOM      2  C   UNL     1      23.484 -26.494  20.438  1.00  0.00     0.016 C 
ENDROOT
BRANCH   1   3
ATOM      3  C   UNL     1      23.519 -24.029  19.967  1.00  0.00     0.135 C 
ATOM      4  O   UNL     1      23.805 -24.002  18.779  1.00  0.00    -0.299 OA
BRANCH   3   5
ATOM      5  C   UNL     1      24.024 -22.925  20.863  1.00  0.00     0.072 C 
ATOM      6  C   UNL     1      23.221 -22.865  22.159  1.00  0.00     0.012 C 
ENDBRANCH   3   5
ENDBRANCH   1   3
BRANCH   1   7
ATOM      7  C   UNL     1      21.346 -25.321  19.752  1.00  0.00     0.038 C 
BRANCH   7   8
ATOM      8  C   UNL     1      20.245 -25.823  20.650  1.00  0.00    -0.034 C 
ATOM      9  C   UNL     1      19.689 -27.025  20.478  1.00  0.00     0.004 C 
ENDBRANCH   7   8
ENDBRANCH   1   7
TORSDOF 4
ENDMDL
