MODEL 1
REMARK VINA RESULT:    -1.012      0.000      0.000
REMARK INTER + INTRA:          -4.297
REMARK INTER:                  -1.781
REMARK INTRA:                  -2.516
REMARK UNBOUND:                -2.516
REMARK SMILES CCCCCCCCCCCCCCC(=O)[O-]
REMARK SMILES IDX 9 1 10 2 11 3 12 4 13 5 14 6 15 7 16 8 17 9 8 10 7 11 6 12
REMARK SMILES IDX 5 13 4 14 3 15 2 16 1 17
REMARK H PARENT
REMARK Flexibility Score: inf
ROOT
ATOM      1  C   UNL     1      27.033  -6.641  18.526  1.00  0.00     0.000 C 
ENDROOT
BRANCH   1   2
ATOM      2  C   UNL     1      28.559  -6.812  18.463  1.00  0.00     0.000 C 
BRANCH   2   3
ATOM      3  C   UNL     1      29.201  -6.938  19.853  1.00  0.00     0.000 C 
BRANCH   3   4
ATOM      4  C   UNL     1      30.460  -7.816  19.798  1.00  0.00     0.000 C 
BRANCH   4   5
ATOM      5  C   UNL     1      30.581  -8.764  21.005  1.00  0.00     0.006 C 
BRANCH   5   6
ATOM      6  C   UNL     1      29.277  -8.950  21.798  1.00  0.00     0.053 C 
BRANCH   6   7
ATOM      7  C   UNL     1      29.178 -10.317  22.401  1.00  0.00     0.041 C 
ATOM      8  O   UNL     1      30.194 -11.057  22.463  1.00  0.00    -0.550 OA
ATOM      9  O   UNL     1      27.955 -10.786  22.865  1.00  0.00    -0.550 OA
ENDBRANCH   6   7
ENDBRANCH   5   6
ENDBRANCH   4   5
ENDBRANCH   3   4
ENDBRANCH   2   3
ENDBRANCH   1   2
BRANCH   1  10
ATOM     10  C   UNL     1      26.441  -7.105  19.869  1.00  0.00     0.000 C 
BRANCH  10  11
ATOM     11  C   UNL     1      25.967  -8.567  19.831  1.00  0.00    -0.000 C 
BRANCH  11  12
ATOM     12  C   UNL     1      25.686  -9.060  18.401  1.00  0.00    -0.000 C 
BRANCH  12  13
ATOM     13  C   UNL     1      26.575 -10.249  18.000  1.00  0.00    -0.000 C 
BRANCH  13  14
ATOM     14  C   UNL     1      27.407 -10.790  19.173  1.00  0.00    -0.000 C 
BRANCH  14  15
ATOM     15  C   UNL     1      28.835 -11.125  18.723  1.00  0.00    -0.000 C 
BRANCH  15  16
ATOM     16  C   UNL     1      29.193 -10.384  17.430  1.00  0.00    -0.003 C 
ATOM     17  C   UNL     1      30.700 -10.388  17.192  1.00  0.00     0.004 C 
ENDBRANCH  15  16
ENDBRANCH  14  15
ENDBRANCH  13  14
ENDBRANCH  12  13
ENDBRANCH  11  12
ENDBRANCH  10  11
ENDBRANCH   1  10
TORSDOF 13
ENDMDL
MODEL 2
REMARK VINA RESULT:    -0.921      2.327      4.186
REMARK INTER + INTRA:          -4.136
REMARK INTER:                  -1.981
REMARK INTRA:                  -2.156
REMARK UNBOUND:                -2.516
REMARK SMILES CCCCCCCCCCCCCCC(=O)[O-]
REMARK SMILES IDX 9 1 10 2 11 3 12 4 13 5 14 6 15 7 16 8 17 9 8 10 7 11 6 12
REMARK SMILES IDX 5 13 4 14 3 15 2 16 1 17
REMARK H PARENT
REMARK Flexibility Score: inf
ROOT
ATOM      1  C   UNL     1      31.125  -8.095  16.378  1.00  0.00     0.000 C 
ENDROOT
BRANCH   1   2
ATOM      2  C   UNL     1      30.551  -8.873  17.573  1.00  0.00     0.000 C 
BRANCH   2   3
ATOM      3  C   UNL     1      30.693 -10.395  17.416  1.00  0.00     0.000 C 
BRANCH   3   4
ATOM      4  C   UNL     1      29.410 -11.114  17.859  1.00  0.00     0.000 C 
BRANCH   4   5
ATOM      5  C   UNL     1      28.643 -10.348  18.953  1.00  0.00     0.006 C 
BRANCH   5   6
ATOM      6  C   UNL     1      28.569 -11.078  20.304  1.00  0.00     0.053 C 
BRANCH   6   7
ATOM      7  C   UNL     1      29.434 -10.430  21.340  1.00  0.00     0.041 C 
ATOM      8  O   UNL     1      30.497  -9.847  21.003  1.00  0.00    -0.550 OA
ATOM      9  O   UNL     1      29.083 -10.500  22.682  1.00  0.00    -0.550 OA
ENDBRANCH   6   7
ENDBRANCH   5   6
ENDBRANCH   4   5
ENDBRANCH   3   4
ENDBRANCH   2   3
ENDBRANCH   1   2
BRANCH   1  10
ATOM     10  C   UNL     1      30.027  -7.479  15.492  1.00  0.00     0.000 C 
BRANCH  10  11
ATOM     11  C   UNL     1      29.950  -8.138  14.105  1.00  0.00    -0.000 C 
BRANCH  11  12
ATOM     12  C   UNL     1      28.555  -8.708  13.797  1.00  0.00    -0.000 C 
BRANCH  12  13
ATOM     13  C   UNL     1      28.246  -9.981  14.603  1.00  0.00    -0.000 C 
BRANCH  13  14
ATOM     14  C   UNL     1      26.929  -9.882  15.388  1.00  0.00    -0.000 C 
BRANCH  14  15
ATOM     15  C   UNL     1      26.489  -8.420  15.539  1.00  0.00    -0.000 C 
BRANCH  15  16
ATOM     16  C   UNL     1      26.701  -7.928  16.975  1.00  0.00    -0.003 C 
ATOM     17  C   UNL     1      25.634  -8.485  17.912  1.00  0.00     0.004 C 
ENDBRANCH  15  16
ENDBRANCH  14  15
ENDBRANCH  13  14
ENDBRANCH  12  13
ENDBRANCH  11  12
ENDBRANCH  10  11
ENDBRANCH   1  10
TORSDOF 13
ENDMDL
MODEL 3
REMARK VINA RESULT:    -0.905      1.710      2.545
REMARK INTER + INTRA:          -4.108
REMARK INTER:                  -1.408
REMARK INTRA:                  -2.700
REMARK UNBOUND:                -2.516
REMARK SMILES CCCCCCCCCCCCCCC(=O)[O-]
REMARK SMILES IDX 9 1 10 2 11 3 12 4 13 5 14 6 15 7 16 8 17 9 8 10 7 11 6 12
REMARK SMILES IDX 5 13 4 14 3 15 2 16 1 17
REMARK H PARENT
REMARK Flexibility Score: inf
ROOT
ATOM      1  C   UNL     1      28.174  -6.924  18.559  1.00  0.00     0.000 C 
ENDROOT
BRANCH   1   2
ATOM      2  C   UNL     1      29.642  -7.375  18.626  1.00  0.00     0.000 C 
BRANCH   2   3
ATOM      3  C   UNL     1      29.913  -8.641  17.799  1.00  0.00     0.000 C 
BRANCH   3   4
ATOM      4  C   UNL     1      30.415  -9.784  18.694  1.00  0.00     0.000 C 
BRANCH   4   5
ATOM      5  C   UNL     1      30.739  -9.323  20.127  1.00  0.00     0.006 C 
BRANCH   5   6
ATOM      6  C   UNL     1      29.943 -10.052  21.222  1.00  0.00     0.053 C 
BRANCH   6   7
ATOM      7  C   UNL     1      29.420  -9.106  22.258  1.00  0.00     0.041 C 
ATOM      8  O   UNL     1      28.473  -9.453  23.012  1.00  0.00    -0.550 OA
ATOM      9  O   UNL     1      29.957  -7.830  22.370  1.00  0.00    -0.550 OA
ENDBRANCH   6   7
ENDBRANCH   5   6
ENDBRANCH   4   5
ENDBRANCH   3   4
ENDBRANCH   2   3
ENDBRANCH   1   2
BRANCH   1  10
ATOM     10  C   UNL     1      27.364  -7.363  19.792  1.00  0.00     0.000 C 
BRANCH  10  11
ATOM     11  C   UNL     1      26.236  -8.346  19.438  1.00  0.00    -0.000 C 
BRANCH  11  12
ATOM     12  C   UNL     1      26.608  -9.807  19.743  1.00  0.00    -0.000 C 
BRANCH  12  13
ATOM     13  C   UNL     1      26.830 -10.639  18.469  1.00  0.00    -0.000 C 
BRANCH  13  14
ATOM     14  C   UNL     1      25.993 -10.142  17.281  1.00  0.00    -0.000 C 
BRANCH  14  15
ATOM     15  C   UNL     1      26.865  -9.959  16.033  1.00  0.00    -0.000 C 
BRANCH  15  16
ATOM     16  C   UNL     1      26.869  -8.497  15.573  1.00  0.00    -0.003 C 
ATOM     17  C   UNL     1      25.514  -7.839  15.816  1.00  0.00     0.004 C 
ENDBRANCH  15  16
ENDBRANCH  14  15
ENDBRANCH  13  14
ENDBRANCH  12  13
ENDBRANCH  11  12
ENDBRANCH  10  11
ENDBRANCH   1  10
TORSDOF 13
ENDMDL
MODEL 4
REMARK VINA RESULT:    -0.903      3.719      5.828
REMARK INTER + INTRA:          -4.104
REMARK INTER:                  -1.974
REMARK INTRA:                  -2.131
REMARK UNBOUND:                -2.516
REMARK SMILES CCCCCCCCCCCCCCC(=O)[O-]
REMARK SMILES IDX 9 1 10 2 11 3 12 4 13 5 14 6 15 7 16 8 17 9 8 10 7 11 6 12
REMARK SMILES IDX 5 13 4 14 3 15 2 16 1 17
REMARK H PARENT
REMARK Flexibility Score: inf
ROOT
ATOM      1  C   UNL     1      26.962  -9.506  18.336  1.00  0.00     0.000 C 
ENDROOT
BRANCH   1   2
ATOM      2  C   UNL     1      25.901  -9.901  17.296  1.00  0.00     0.000 C 
BRANCH   2   3
ATOM      3  C   UNL     1      26.350  -9.621  15.854  1.00  0.00     0.000 C 
BRANCH   3   4
ATOM      4  C   UNL     1      27.215  -8.353  15.785  1.00  0.00     0.000 C 
BRANCH   4   5
ATOM      5  C   UNL     1      28.557  -8.584  15.066  1.00  0.00     0.006 C 
BRANCH   5   6
ATOM      6  C   UNL     1      28.464  -9.482  13.822  1.00  0.00     0.053 C 
BRANCH   6   7
ATOM      7  C   UNL     1      29.787 -10.086  13.465  1.00  0.00     0.041 C 
ATOM      8  O   UNL     1      30.784  -9.913  14.213  1.00  0.00    -0.550 OA
ATOM      9  O   UNL     1      29.926 -10.812  12.289  1.00  0.00    -0.550 OA
ENDBRANCH   6   7
ENDBRANCH   5   6
ENDBRANCH   4   5
ENDBRANCH   3   4
ENDBRANCH   2   3
ENDBRANCH   1   2
BRANCH   1  10
ATOM     10  C   UNL     1      27.302 -10.658  19.299  1.00  0.00     0.000 C 
BRANCH  10  11
ATOM     11  C   UNL     1      28.761 -11.124  19.169  1.00  0.00    -0.000 C 
BRANCH  11  12
ATOM     12  C   UNL     1      29.313 -10.951  17.743  1.00  0.00    -0.000 C 
BRANCH  12  13
ATOM     13  C   UNL     1      30.678 -10.245  17.720  1.00  0.00    -0.000 C 
BRANCH  13  14
ATOM     14  C   UNL     1      31.021  -9.569  19.056  1.00  0.00    -0.000 C 
BRANCH  14  15
ATOM     15  C   UNL     1      31.098  -8.046  18.897  1.00  0.00    -0.000 C 
BRANCH  15  16
ATOM     16  C   UNL     1      29.800  -7.377  19.361  1.00  0.00    -0.003 C 
ATOM     17  C   UNL     1      29.203  -6.508  18.259  1.00  0.00     0.004 C 
ENDBRANCH  15  16
ENDBRANCH  14  15
ENDBRANCH  13  14
ENDBRANCH  12  13
ENDBRANCH  11  12
ENDBRANCH  10  11
ENDBRANCH   1  10
TORSDOF 13
ENDMDL
MODEL 5
REMARK VINA RESULT:    -0.863      3.041      5.456
REMARK INTER + INTRA:          -4.035
REMARK INTER:                  -1.746
REMARK INTRA:                  -2.289
REMARK UNBOUND:                -2.516
REMARK SMILES CCCCCCCCCCCCCCC(=O)[O-]
REMARK SMILES IDX 9 1 10 2 11 3 12 4 13 5 14 6 15 7 16 8 17 9 8 10 7 11 6 12
REMARK SMILES IDX 5 13 4 14 3 15 2 16 1 17
REMARK H PARENT
REMARK Flexibility Score: inf
ROOT
ATOM      1  C   UNL     1      29.639  -7.618  14.803  1.00  0.00     0.000 C 
ENDROOT
BRANCH   1   2
ATOM      2  C   UNL     1      28.363  -7.856  15.626  1.00  0.00     0.000 C 
BRANCH   2   3
ATOM      3  C   UNL     1      27.247  -8.529  14.812  1.00  0.00     0.000 C 
BRANCH   3   4
ATOM      4  C   UNL     1      27.057  -9.991  15.245  1.00  0.00     0.000 C 
BRANCH   4   5
ATOM      5  C   UNL     1      26.149 -10.135  16.480  1.00  0.00     0.006 C 
BRANCH   5   6
ATOM      6  C   UNL     1      24.967  -9.153  16.515  1.00  0.00     0.053 C 
BRANCH   6   7
ATOM      7  C   UNL     1      24.926  -8.369  17.790  1.00  0.00     0.041 C 
ATOM      8  O   UNL     1      24.055  -8.623  18.662  1.00  0.00    -0.550 OA
ATOM      9  O   UNL     1      25.829  -7.334  17.999  1.00  0.00    -0.550 OA
ENDBRANCH   6   7
ENDBRANCH   5   6
ENDBRANCH   4   5
ENDBRANCH   3   4
ENDBRANCH   2   3
ENDBRANCH   1   2
BRANCH   1  10
ATOM     10  C   UNL     1      30.785  -8.563  15.205  1.00  0.00     0.000 C 
BRANCH  10  11
ATOM     11  C   UNL     1      30.738  -9.902  14.450  1.00  0.00    -0.000 C 
BRANCH  11  12
ATOM     12  C   UNL     1      30.611 -11.109  15.396  1.00  0.00    -0.000 C 
BRANCH  12  13
ATOM     13  C   UNL     1      30.791 -10.724  16.874  1.00  0.00    -0.000 C 
BRANCH  13  14
ATOM     14  C   UNL     1      29.533 -10.991  17.714  1.00  0.00    -0.000 C 
BRANCH  14  15
ATOM     15  C   UNL     1      29.600 -10.246  19.053  1.00  0.00    -0.000 C 
BRANCH  15  16
ATOM     16  C   UNL     1      28.888  -8.891  18.965  1.00  0.00    -0.003 C 
ATOM     17  C   UNL     1      29.890  -7.740  18.976  1.00  0.00     0.004 C 
ENDBRANCH  15  16
ENDBRANCH  14  15
ENDBRANCH  13  14
ENDBRANCH  12  13
ENDBRANCH  11  12
ENDBRANCH  10  11
ENDBRANCH   1  10
TORSDOF 13
ENDMDL
MODEL 6
REMARK VINA RESULT:    -0.844      2.019      2.985
REMARK INTER + INTRA:          -4.001
REMARK INTER:                  -2.019
REMARK INTRA:                  -1.982
REMARK UNBOUND:                -2.516
REMARK SMILES CCCCCCCCCCCCCCC(=O)[O-]
REMARK SMILES IDX 9 1 10 2 11 3 12 4 13 5 14 6 15 7 16 8 17 9 8 10 7 11 6 12
REMARK SMILES IDX 5 13 4 14 3 15 2 16 1 17
REMARK H PARENT
REMARK Flexibility Score: inf
ROOT
ATOM      1  C   UNL     1      28.874  -7.888  20.329  1.00  0.00     0.000 C 
ENDROOT
BRANCH   1   2
ATOM      2  C   UNL     1      30.368  -8.248  20.340  1.00  0.00     0.000 C 
BRANCH   2   3
ATOM      3  C   UNL     1      31.125  -7.611  21.515  1.00  0.00     0.000 C 
BRANCH   3   4
ATOM      4  C   UNL     1      30.505  -8.028  22.858  1.00  0.00     0.000 C 
BRANCH   4   5
ATOM      5  C   UNL     1      30.813  -9.490  23.230  1.00  0.00     0.006 C 
BRANCH   5   6
ATOM      6  C   UNL     1      29.624 -10.254  23.834  1.00  0.00     0.053 C 
BRANCH   6   7
ATOM      7  C   UNL     1      29.799 -10.495  25.301  1.00  0.00     0.041 C 
ATOM      8  O   UNL     1      28.921 -11.122  25.950  1.00  0.00    -0.550 OA
ATOM      9  O   UNL     1      30.916  -9.997  25.960  1.00  0.00    -0.550 OA
ENDBRANCH   6   7
ENDBRANCH   5   6
ENDBRANCH   4   5
ENDBRANCH   3   4
ENDBRANCH   2   3
ENDBRANCH   1   2
BRANCH   1  10
ATOM     10  C   UNL     1      27.973  -9.115  20.101  1.00  0.00     0.000 C 
BRANCH  10  11
ATOM     11  C   UNL     1      28.765 -10.432  20.076  1.00  0.00    -0.000 C 
BRANCH  11  12
ATOM     12  C   UNL     1      28.721 -11.123  18.702  1.00  0.00    -0.000 C 
BRANCH  12  13
ATOM     13  C   UNL     1      27.942 -10.309  17.656  1.00  0.00    -0.000 C 
BRANCH  13  14
ATOM     14  C   UNL     1      28.813  -9.888  16.462  1.00  0.00    -0.000 C 
BRANCH  14  15
ATOM     15  C   UNL     1      30.296 -10.161  16.742  1.00  0.00    -0.000 C 
BRANCH  15  16
ATOM     16  C   UNL     1      31.101  -8.858  16.762  1.00  0.00    -0.003 C 
ATOM     17  C   UNL     1      30.185  -7.642  16.657  1.00  0.00     0.004 C 
ENDBRANCH  15  16
ENDBRANCH  14  15
ENDBRANCH  13  14
ENDBRANCH  12  13
ENDBRANCH  11  12
ENDBRANCH  10  11
ENDBRANCH   1  10
TORSDOF 13
ENDMDL
MODEL 7
REMARK VINA RESULT:    -0.830      3.579      5.473
REMARK INTER + INTRA:          -3.977
REMARK INTER:                  -2.258
REMARK INTRA:                  -1.719
REMARK UNBOUND:                -2.516
REMARK SMILES CCCCCCCCCCCCCCC(=O)[O-]
REMARK SMILES IDX 9 1 10 2 11 3 12 4 13 5 14 6 15 7 16 8 17 9 8 10 7 11 6 12
REMARK SMILES IDX 5 13 4 14 3 15 2 16 1 17
REMARK H PARENT
REMARK Flexibility Score: inf
ROOT
ATOM      1  C   UNL     1      29.557  -7.662  18.695  1.00  0.00     0.000 C 
ENDROOT
BRANCH   1   2
ATOM      2  C   UNL     1      30.499  -8.459  17.780  1.00  0.00     0.000 C 
BRANCH   2   3
ATOM      3  C   UNL     1      30.704  -9.906  18.254  1.00  0.00     0.000 C 
BRANCH   3   4
ATOM      4  C   UNL     1      30.731 -10.875  17.061  1.00  0.00     0.000 C 
BRANCH   4   5
ATOM      5  C   UNL     1      30.480 -10.172  15.715  1.00  0.00     0.006 C 
BRANCH   5   6
ATOM      6  C   UNL     1      30.366 -11.125  14.514  1.00  0.00     0.053 C 
BRANCH   6   7
ATOM      7  C   UNL     1      29.212 -10.774  13.626  1.00  0.00     0.041 C 
ATOM      8  O   UNL     1      29.348 -10.791  12.375  1.00  0.00    -0.550 OA
ATOM      9  O   UNL     1      27.997 -10.394  14.182  1.00  0.00    -0.550 OA
ENDBRANCH   6   7
ENDBRANCH   5   6
ENDBRANCH   4   5
ENDBRANCH   3   4
ENDBRANCH   2   3
ENDBRANCH   1   2
BRANCH   1  10
ATOM     10  C   UNL     1      30.145  -7.442  20.101  1.00  0.00     0.000 C 
BRANCH  10  11
ATOM     11  C   UNL     1      29.211  -7.940  21.215  1.00  0.00    -0.000 C 
BRANCH  11  12
ATOM     12  C   UNL     1      29.807  -9.119  22.005  1.00  0.00    -0.000 C 
BRANCH  12  13
ATOM     13  C   UNL     1      29.292 -10.481  21.513  1.00  0.00    -0.000 C 
BRANCH  13  14
ATOM     14  C   UNL     1      27.813 -10.442  21.097  1.00  0.00    -0.000 C 
BRANCH  14  15
ATOM     15  C   UNL     1      27.608 -11.125  19.739  1.00  0.00    -0.000 C 
BRANCH  15  16
ATOM     16  C   UNL     1      26.977 -10.162  18.728  1.00  0.00    -0.003 C 
ATOM     17  C   UNL     1      25.456 -10.158  18.845  1.00  0.00     0.004 C 
ENDBRANCH  15  16
ENDBRANCH  14  15
ENDBRANCH  13  14
ENDBRANCH  12  13
ENDBRANCH  11  12
ENDBRANCH  10  11
ENDBRANCH   1  10
TORSDOF 13
ENDMDL
MODEL 8
REMARK VINA RESULT:    -0.830      3.865      5.556
REMARK INTER + INTRA:          -3.977
REMARK INTER:                  -2.005
REMARK INTRA:                  -1.971
REMARK UNBOUND:                -2.516
REMARK SMILES CCCCCCCCCCCCCCC(=O)[O-]
REMARK SMILES IDX 9 1 10 2 11 3 12 4 13 5 14 6 15 7 16 8 17 9 8 10 7 11 6 12
REMARK SMILES IDX 5 13 4 14 3 15 2 16 1 17
REMARK H PARENT
REMARK Flexibility Score: inf
ROOT
ATOM      1  C   UNL     1      29.617  -8.573  18.737  1.00  0.00     0.000 C 
ENDROOT
BRANCH   1   2
ATOM      2  C   UNL     1      29.849 -10.087  18.868  1.00  0.00     0.000 C 
BRANCH   2   3
ATOM      3  C   UNL     1      29.671 -10.833  17.536  1.00  0.00     0.000 C 
BRANCH   3   4
ATOM      4  C   UNL     1      30.954 -10.765  16.694  1.00  0.00     0.000 C 
BRANCH   4   5
ATOM      5  C   UNL     1      30.687 -10.905  15.184  1.00  0.00     0.006 C 
BRANCH   5   6
ATOM      6  C   UNL     1      29.283 -10.457  14.746  1.00  0.00     0.053 C 
BRANCH   6   7
ATOM      7  C   UNL     1      29.200 -10.242  13.266  1.00  0.00     0.041 C 
ATOM      8  O   UNL     1      30.070 -10.738  12.504  1.00  0.00    -0.550 OA
ATOM      9  O   UNL     1      28.180  -9.464  12.732  1.00  0.00    -0.550 OA
ENDBRANCH   6   7
ENDBRANCH   5   6
ENDBRANCH   4   5
ENDBRANCH   3   4
ENDBRANCH   2   3
ENDBRANCH   1   2
BRANCH   1  10
ATOM     10  C   UNL     1      28.505  -8.231  17.730  1.00  0.00     0.000 C 
BRANCH  10  11
ATOM     11  C   UNL     1      27.142  -8.016  18.407  1.00  0.00    -0.000 C 
BRANCH  11  12
ATOM     12  C   UNL     1      26.176  -9.193  18.179  1.00  0.00    -0.000 C 
BRANCH  12  13
ATOM     13  C   UNL     1      25.728  -9.853  19.493  1.00  0.00    -0.000 C 
BRANCH  13  14
ATOM     14  C   UNL     1      26.527 -11.124  19.822  1.00  0.00    -0.000 C 
BRANCH  14  15
ATOM     15  C   UNL     1      27.029 -11.096  21.271  1.00  0.00    -0.000 C 
BRANCH  15  16
ATOM     16  C   UNL     1      26.981  -9.675  21.843  1.00  0.00    -0.003 C 
ATOM     17  C   UNL     1      28.381  -9.163  22.166  1.00  0.00     0.004 C 
ENDBRANCH  15  16
ENDBRANCH  14  15
ENDBRANCH  13  14
ENDBRANCH  12  13
ENDBRANCH  11  12
ENDBRANCH  10  11
ENDBRANCH   1  10
TORSDOF 13
ENDMDL
