MODEL 1
REMARK VINA RESULT:    -3.986      0.000      0.000
REMARK INTER + INTRA:          -6.145
REMARK INTER:                  -6.083
REMARK INTRA:                  -0.062
REMARK UNBOUND:                -0.062
REMARK SMILES CC1=CCC[C@H](C)C(=O)C[C@H](C(C)C)C(=O)C1
REMARK SMILES IDX 8 1 9 2 6 3 7 4 5 5 4 6 3 7 2 8 1 9 10 11 11 12 15 13 16 14
REMARK SMILES IDX 17 15 12 17 13 18 14 19
REMARK H PARENT
REMARK Flexibility Score: 70.00
ROOT
ATOM      1  C   UNL     1     -15.179  12.314 -27.533  1.00  0.00     0.136 C 
ATOM      2  O   UNL     1     -16.129  12.100 -26.792  1.00  0.00    -0.299 OA
ENDROOT
BRANCH   1   3
ATOM      3  C   UNL     1     -13.877  12.834 -26.959  1.00  0.00     0.053 C 
ATOM      4  C   UNL     1     -13.263  11.771 -26.044  1.00  0.00     0.016 C 
BRANCH   3   5
ATOM      5  C   UNL     1     -12.868  13.237 -28.061  1.00  0.00     0.015 C 
BRANCH   5   6
ATOM      6  C   UNL     1     -13.130  14.623 -28.667  1.00  0.00     0.028 C 
BRANCH   6   7
ATOM      7  C   UNL     1     -12.680  14.687 -30.107  1.00  0.00    -0.028 C 
ATOM      8  C   UNL     1     -13.500  14.853 -31.169  1.00  0.00    -0.070 CG0
ATOM      9  C   UNL     1     -12.883  14.890 -32.544  1.00  0.00     0.039 C 
ATOM     10  G   UNL     1     -15.005  14.991 -31.034  1.00  0.00     0.000 G0
ENDBRANCH   6   7
ENDBRANCH   5   6
ENDBRANCH   3   5
ENDBRANCH   1   3
BRANCH   1  11
ATOM     11  C   UNL     1     -15.344  12.112 -29.019  1.00  0.00     0.087 C 
BRANCH  11  12
ATOM     12  C   UNL     1     -16.335  13.107 -29.682  1.00  0.00     0.066 C 
BRANCH  12  13
ATOM     13  C   UNL     1     -15.744  13.661 -30.976  1.00  0.00     0.140 C 
ATOM     14  O   UNL     1     -15.942  13.056 -32.019  1.00  0.00    -0.299 OA
BRANCH  13  15
ATOM     15  C   UNL     1     -15.003  14.982 -31.050  1.00  0.00     0.106 CG0
ATOM     16  G   UNL     1     -13.494  14.848 -31.142  1.00  0.00     0.000 G0
ENDBRANCH  13  15
ENDBRANCH  12  13
BRANCH  12  17
ATOM     17  C   UNL     1     -17.717  12.435 -29.963  1.00  0.00    -0.006 C 
ATOM     18  C   UNL     1     -18.807  12.963 -29.012  1.00  0.00     0.008 C 
ATOM     19  C   UNL     1     -17.654  10.901 -29.840  1.00  0.00     0.008 C 
ENDBRANCH  12  17
ENDBRANCH  11  12
ENDBRANCH   1  11
TORSDOF 1
ENDMDL
MODEL 2
REMARK VINA RESULT:    -3.694      1.587      3.620
REMARK INTER + INTRA:          -5.700
REMARK INTER:                  -6.638
REMARK INTRA:                   0.938
REMARK UNBOUND:                -0.062
REMARK SMILES CC1=CCC[C@H](C)C(=O)C[C@H](C(C)C)C(=O)C1
REMARK SMILES IDX 8 1 9 2 6 3 7 4 5 5 4 6 3 7 2 8 1 9 10 11 11 12 15 13 16 14
REMARK SMILES IDX 17 15 12 17 13 18 14 19
REMARK H PARENT
REMARK Flexibility Score: 70.00
ROOT
ATOM      1  C   UNL     1     -15.533  14.320 -31.560  1.00  0.00     0.136 C 
ATOM      2  O   UNL     1     -16.597  14.586 -32.101  1.00  0.00    -0.299 OA
ENDROOT
BRANCH   1   3
ATOM      3  C   UNL     1     -14.484  15.399 -31.385  1.00  0.00     0.053 C 
ATOM      4  C   UNL     1     -14.722  16.130 -30.059  1.00  0.00     0.016 C 
BRANCH   3   5
ATOM      5  C   UNL     1     -13.044  14.834 -31.431  1.00  0.00     0.015 C 
BRANCH   5   6
ATOM      6  C   UNL     1     -12.283  14.963 -30.105  1.00  0.00     0.028 C 
BRANCH   6   7
ATOM      7  C   UNL     1     -11.987  13.608 -29.507  1.00  0.00    -0.028 C 
ATOM      8  C   UNL     1     -12.840  12.899 -28.734  1.00  0.00    -0.070 CG0
ATOM      9  C   UNL     1     -12.381  11.560 -28.214  1.00  0.00     0.039 C 
ATOM     10  G   UNL     1     -14.226  13.397 -28.366  1.00  0.00     0.000 G0
ENDBRANCH   6   7
ENDBRANCH   5   6
ENDBRANCH   3   5
ENDBRANCH   1   3
BRANCH   1  11
ATOM     11  C   UNL     1     -15.259  12.898 -31.131  1.00  0.00     0.087 C 
BRANCH  11  12
ATOM     12  C   UNL     1     -16.150  12.415 -29.955  1.00  0.00     0.066 C 
BRANCH  12  13
ATOM     13  C   UNL     1     -15.350  12.401 -28.655  1.00  0.00     0.140 C 
ATOM     14  O   UNL     1     -15.561  11.511 -27.844  1.00  0.00    -0.299 OA
BRANCH  13  15
ATOM     15  C   UNL     1     -14.232  13.382 -28.358  1.00  0.00     0.106 CG0
ATOM     16  G   UNL     1     -12.847  12.885 -28.729  1.00  0.00     0.000 G0
ENDBRANCH  13  15
ENDBRANCH  12  13
BRANCH  12  17
ATOM     17  C   UNL     1     -17.423  13.306 -29.798  1.00  0.00    -0.006 C 
ATOM     18  C   UNL     1     -17.567  13.839 -28.361  1.00  0.00     0.008 C 
ATOM     19  C   UNL     1     -18.712  12.551 -30.176  1.00  0.00     0.008 C 
ENDBRANCH  12  17
ENDBRANCH  11  12
ENDBRANCH   1  11
TORSDOF 1
ENDMDL
MODEL 3
REMARK VINA RESULT:    -3.658      1.937      4.057
REMARK INTER + INTRA:          -5.645
REMARK INTER:                  -5.384
REMARK INTRA:                  -0.261
REMARK UNBOUND:                -0.062
REMARK SMILES CC1=CCC[C@H](C)C(=O)C[C@H](C(C)C)C(=O)C1
REMARK SMILES IDX 8 1 9 2 6 3 7 4 5 5 4 6 3 7 2 8 1 9 10 11 11 12 15 13 16 14
REMARK SMILES IDX 17 15 12 17 13 18 14 19
REMARK H PARENT
REMARK Flexibility Score: 70.00
ROOT
ATOM      1  C   UNL     1     -14.962  15.025 -30.230  1.00  0.00     0.136 C 
ATOM      2  O   UNL     1     -15.020  16.215 -30.502  1.00  0.00    -0.299 OA
ENDROOT
BRANCH   1   3
ATOM      3  C   UNL     1     -13.977  14.131 -30.955  1.00  0.00     0.053 C 
ATOM      4  C   UNL     1     -13.846  14.593 -32.410  1.00  0.00     0.016 C 
BRANCH   3   5
ATOM      5  C   UNL     1     -12.587  14.114 -30.274  1.00  0.00     0.015 C 
BRANCH   5   6
ATOM      6  C   UNL     1     -12.643  14.225 -28.744  1.00  0.00     0.028 C 
BRANCH   6   7
ATOM      7  C   UNL     1     -12.403  12.887 -28.087  1.00  0.00    -0.028 C 
ATOM      8  C   UNL     1     -13.318  12.204 -27.362  1.00  0.00    -0.070 CG0
ATOM      9  C   UNL     1     -12.909  10.879 -26.770  1.00  0.00     0.039 C 
ATOM     10  G   UNL     1     -14.724  12.719 -27.115  1.00  0.00     0.000 G0
ENDBRANCH   6   7
ENDBRANCH   5   6
ENDBRANCH   3   5
ENDBRANCH   1   3
BRANCH   1  11
ATOM     11  C   UNL     1     -15.923  14.454 -29.215  1.00  0.00     0.087 C 
BRANCH  11  12
ATOM     12  C   UNL     1     -16.163  12.927 -29.365  1.00  0.00     0.066 C 
BRANCH  12  13
ATOM     13  C   UNL     1     -15.770  12.200 -28.083  1.00  0.00     0.140 C 
ATOM     14  O   UNL     1     -16.262  11.104 -27.854  1.00  0.00    -0.299 OA
BRANCH  13  15
ATOM     15  C   UNL     1     -14.723  12.723 -27.118  1.00  0.00     0.106 CG0
ATOM     16  G   UNL     1     -13.325  12.188 -27.362  1.00  0.00     0.000 G0
ENDBRANCH  13  15
ENDBRANCH  12  13
BRANCH  12  17
ATOM     17  C   UNL     1     -17.649  12.616 -29.732  1.00  0.00    -0.006 C 
ATOM     18  C   UNL     1     -17.887  12.699 -31.250  1.00  0.00     0.008 C 
ATOM     19  C   UNL     1     -18.634  13.565 -29.023  1.00  0.00     0.008 C 
ENDBRANCH  12  17
ENDBRANCH  11  12
ENDBRANCH   1  11
TORSDOF 1
ENDMDL
MODEL 4
REMARK VINA RESULT:    -3.429      2.002      4.913
REMARK INTER + INTRA:          -5.295
REMARK INTER:                  -5.604
REMARK INTRA:                   0.309
REMARK UNBOUND:                -0.062
REMARK SMILES CC1=CCC[C@H](C)C(=O)C[C@H](C(C)C)C(=O)C1
REMARK SMILES IDX 8 1 9 2 6 3 7 4 5 5 4 6 3 7 2 8 1 9 10 11 11 12 15 13 16 14
REMARK SMILES IDX 17 15 12 17 13 18 14 19
REMARK H PARENT
REMARK Flexibility Score: 70.00
ROOT
ATOM      1  C   UNL     1     -16.345  13.597 -30.185  1.00  0.00     0.136 C 
ATOM      2  O   UNL     1     -17.150  14.015 -31.005  1.00  0.00    -0.299 OA
ENDROOT
BRANCH   1   3
ATOM      3  C   UNL     1     -16.812  13.229 -28.791  1.00  0.00     0.053 C 
ATOM      4  C   UNL     1     -18.085  14.012 -28.456  1.00  0.00     0.016 C 
BRANCH   3   5
ATOM      5  C   UNL     1     -17.064  11.710 -28.638  1.00  0.00     0.015 C 
BRANCH   5   6
ATOM      6  C   UNL     1     -15.782  10.876 -28.506  1.00  0.00     0.028 C 
BRANCH   6   7
ATOM      7  C   UNL     1     -15.028  11.223 -27.244  1.00  0.00    -0.028 C 
ATOM      8  C   UNL     1     -13.869  11.917 -27.200  1.00  0.00    -0.070 CG0
ATOM      9  C   UNL     1     -13.245  12.172 -25.851  1.00  0.00     0.039 C 
ATOM     10  G   UNL     1     -13.171  12.436 -28.444  1.00  0.00     0.000 G0
ENDBRANCH   6   7
ENDBRANCH   5   6
ENDBRANCH   3   5
ENDBRANCH   1   3
BRANCH   1  11
ATOM     11  C   UNL     1     -14.885  13.516 -30.559  1.00  0.00     0.087 C 
BRANCH  11  12
ATOM     12  C   UNL     1     -13.995  14.574 -29.853  1.00  0.00     0.066 C 
BRANCH  12  13
ATOM     13  C   UNL     1     -13.290  13.955 -28.649  1.00  0.00     0.140 C 
ATOM     14  O   UNL     1     -12.878  14.694 -27.766  1.00  0.00    -0.299 OA
BRANCH  13  15
ATOM     15  C   UNL     1     -13.159  12.459 -28.443  1.00  0.00     0.106 CG0
ATOM     16  G   UNL     1     -13.871  11.932 -27.211  1.00  0.00     0.000 G0
ENDBRANCH  13  15
ENDBRANCH  12  13
BRANCH  12  17
ATOM     17  C   UNL     1     -12.949  15.189 -30.837  1.00  0.00    -0.006 C 
ATOM     18  C   UNL     1     -13.496  15.259 -32.274  1.00  0.00     0.008 C 
ATOM     19  C   UNL     1     -11.626  14.399 -30.848  1.00  0.00     0.008 C 
ENDBRANCH  12  17
ENDBRANCH  11  12
ENDBRANCH   1  11
TORSDOF 1
ENDMDL
MODEL 5
REMARK VINA RESULT:    -3.263      1.957      4.014
REMARK INTER + INTRA:          -5.042
REMARK INTER:                  -5.681
REMARK INTRA:                   0.639
REMARK UNBOUND:                -0.062
REMARK SMILES CC1=CCC[C@H](C)C(=O)C[C@H](C(C)C)C(=O)C1
REMARK SMILES IDX 8 1 9 2 6 3 7 4 5 5 4 6 3 7 2 8 1 9 10 11 11 12 15 13 16 14
REMARK SMILES IDX 17 15 12 17 13 18 14 19
REMARK H PARENT
REMARK Flexibility Score: 70.00
ROOT
ATOM      1  C   UNL     1     -13.362  14.659 -32.172  1.00  0.00     0.136 C 
ATOM      2  O   UNL     1     -13.509  15.850 -32.408  1.00  0.00    -0.299 OA
ENDROOT
BRANCH   1   3
ATOM      3  C   UNL     1     -11.967  14.075 -32.076  1.00  0.00     0.053 C 
ATOM      4  C   UNL     1     -11.023  15.112 -31.458  1.00  0.00     0.016 C 
BRANCH   3   5
ATOM      5  C   UNL     1     -11.933  12.765 -31.252  1.00  0.00     0.015 C 
BRANCH   5   6
ATOM      6  C   UNL     1     -11.220  12.900 -29.899  1.00  0.00     0.028 C 
BRANCH   6   7
ATOM      7  C   UNL     1     -12.136  12.533 -28.756  1.00  0.00    -0.028 C 
ATOM      8  C   UNL     1     -13.113  13.324 -28.260  1.00  0.00    -0.070 CG0
ATOM      9  C   UNL     1     -13.935  12.802 -27.110  1.00  0.00     0.039 C 
ATOM     10  G   UNL     1     -13.406  14.710 -28.805  1.00  0.00     0.000 G0
ENDBRANCH   6   7
ENDBRANCH   5   6
ENDBRANCH   3   5
ENDBRANCH   1   3
BRANCH   1  11
ATOM     11  C   UNL     1     -14.580  13.777 -32.043  1.00  0.00     0.087 C 
BRANCH  11  12
ATOM     12  C   UNL     1     -15.080  13.606 -30.584  1.00  0.00     0.066 C 
BRANCH  12  13
ATOM     13  C   UNL     1     -14.621  14.781 -29.724  1.00  0.00     0.140 C 
ATOM     14  O   UNL     1     -15.296  15.800 -29.714  1.00  0.00    -0.299 OA
BRANCH  13  15
ATOM     15  C   UNL     1     -13.419  14.716 -28.803  1.00  0.00     0.106 CG0
ATOM     16  G   UNL     1     -13.113  13.328 -28.270  1.00  0.00     0.000 G0
ENDBRANCH  13  15
ENDBRANCH  12  13
BRANCH  12  17
ATOM     17  C   UNL     1     -16.635  13.466 -30.524  1.00  0.00    -0.006 C 
ATOM     18  C   UNL     1     -17.067  12.350 -29.556  1.00  0.00     0.008 C 
ATOM     19  C   UNL     1     -17.247  13.183 -31.910  1.00  0.00     0.008 C 
ENDBRANCH  12  17
ENDBRANCH  11  12
ENDBRANCH   1  11
TORSDOF 1
ENDMDL
MODEL 6
REMARK VINA RESULT:    -3.171      2.042      3.978
REMARK INTER + INTRA:          -4.901
REMARK INTER:                  -5.469
REMARK INTRA:                   0.568
REMARK UNBOUND:                -0.062
REMARK SMILES CC1=CCC[C@H](C)C(=O)C[C@H](C(C)C)C(=O)C1
REMARK SMILES IDX 8 1 9 2 6 3 7 4 5 5 4 6 3 7 2 8 1 9 10 11 11 12 15 13 16 14
REMARK SMILES IDX 17 15 12 17 13 18 14 19
REMARK H PARENT
REMARK Flexibility Score: 70.00
ROOT
ATOM      1  C   UNL     1     -13.389  12.456 -28.451  1.00  0.00     0.136 C 
ATOM      2  O   UNL     1     -12.437  13.201 -28.634  1.00  0.00    -0.299 OA
ENDROOT
BRANCH   1   3
ATOM      3  C   UNL     1     -13.794  12.083 -27.039  1.00  0.00     0.053 C 
ATOM      4  C   UNL     1     -12.754  12.622 -26.052  1.00  0.00     0.016 C 
BRANCH   3   5
ATOM      5  C   UNL     1     -15.201  12.613 -26.672  1.00  0.00     0.015 C 
BRANCH   5   6
ATOM      6  C   UNL     1     -16.342  11.656 -27.044  1.00  0.00     0.028 C 
BRANCH   6   7
ATOM      7  C   UNL     1     -17.516  12.402 -27.632  1.00  0.00    -0.028 C 
ATOM      8  C   UNL     1     -17.823  12.452 -28.947  1.00  0.00    -0.070 CG0
ATOM      9  C   UNL     1     -19.033  13.250 -29.364  1.00  0.00     0.039 C 
ATOM     10  G   UNL     1     -16.999  11.753 -30.013  1.00  0.00     0.000 G0
ENDBRANCH   6   7
ENDBRANCH   5   6
ENDBRANCH   3   5
ENDBRANCH   1   3
BRANCH   1  11
ATOM     11  C   UNL     1     -14.107  11.870 -29.642  1.00  0.00     0.087 C 
BRANCH  11  12
ATOM     12  C   UNL     1     -14.663  12.933 -30.627  1.00  0.00     0.066 C 
BRANCH  12  13
ATOM     13  C   UNL     1     -16.153  12.706 -30.867  1.00  0.00     0.140 C 
ATOM     14  O   UNL     1     -16.682  13.245 -31.828  1.00  0.00    -0.299 OA
BRANCH  13  15
ATOM     15  C   UNL     1     -16.995  11.765 -30.027  1.00  0.00     0.106 CG0
ATOM     16  G   UNL     1     -17.810  12.450 -28.946  1.00  0.00     0.000 G0
ENDBRANCH  13  15
ENDBRANCH  12  13
BRANCH  12  17
ATOM     17  C   UNL     1     -14.413  14.384 -30.102  1.00  0.00    -0.006 C 
ATOM     18  C   UNL     1     -15.715  15.036 -29.604  1.00  0.00     0.008 C 
ATOM     19  C   UNL     1     -13.784  15.291 -31.176  1.00  0.00     0.008 C 
ENDBRANCH  12  17
ENDBRANCH  11  12
ENDBRANCH   1  11
TORSDOF 1
ENDMDL
MODEL 7
REMARK VINA RESULT:    -3.059     11.479     14.167
REMARK INTER + INTRA:          -4.731
REMARK INTER:                  -5.019
REMARK INTRA:                   0.288
REMARK UNBOUND:                -0.062
REMARK SMILES CC1=CCC[C@H](C)C(=O)C[C@H](C(C)C)C(=O)C1
REMARK SMILES IDX 8 1 9 2 6 3 7 4 5 5 4 6 3 7 2 8 1 9 10 11 11 12 15 13 16 14
REMARK SMILES IDX 17 15 12 17 13 18 14 19
REMARK H PARENT
REMARK Flexibility Score: 70.00
ROOT
ATOM      1  C   UNL     1     -26.531  13.665 -29.991  1.00  0.00     0.136 C 
ATOM      2  O   UNL     1     -25.504  14.112 -30.481  1.00  0.00    -0.299 OA
ENDROOT
BRANCH   1   3
ATOM      3  C   UNL     1     -26.605  12.204 -29.597  1.00  0.00     0.053 C 
ATOM      4  C   UNL     1     -25.306  11.501 -30.001  1.00  0.00     0.016 C 
BRANCH   3   5
ATOM      5  C   UNL     1     -26.865  12.015 -28.083  1.00  0.00     0.015 C 
BRANCH   5   6
ATOM      6  C   UNL     1     -28.295  11.566 -27.749  1.00  0.00     0.028 C 
BRANCH   6   7
ATOM      7  C   UNL     1     -28.981  10.971 -28.955  1.00  0.00    -0.028 C 
ATOM      8  C   UNL     1     -29.854  11.626 -29.753  1.00  0.00    -0.070 CG0
ATOM      9  C   UNL     1     -30.452  10.877 -30.917  1.00  0.00     0.039 C 
ATOM     10  G   UNL     1     -30.260  13.069 -29.519  1.00  0.00     0.000 G0
ENDBRANCH   6   7
ENDBRANCH   5   6
ENDBRANCH   3   5
ENDBRANCH   1   3
BRANCH   1  11
ATOM     11  C   UNL     1     -27.732  14.568 -29.845  1.00  0.00     0.087 C 
BRANCH  11  12
ATOM     12  C   UNL     1     -28.663  14.583 -31.087  1.00  0.00     0.066 C 
BRANCH  12  13
ATOM     13  C   UNL     1     -30.020  13.977 -30.739  1.00  0.00     0.140 C 
ATOM     14  O   UNL     1     -30.957  14.158 -31.503  1.00  0.00    -0.299 OA
BRANCH  13  15
ATOM     15  C   UNL     1     -30.244  13.076 -29.540  1.00  0.00     0.106 CG0
ATOM     16  G   UNL     1     -29.858  11.626 -29.765  1.00  0.00     0.000 G0
ENDBRANCH  13  15
ENDBRANCH  12  13
BRANCH  12  17
ATOM     17  C   UNL     1     -28.843  16.029 -31.649  1.00  0.00    -0.006 C 
ATOM     18  C   UNL     1     -29.219  16.013 -33.142  1.00  0.00     0.008 C 
ATOM     19  C   UNL     1     -27.577  16.887 -31.466  1.00  0.00     0.008 C 
ENDBRANCH  12  17
ENDBRANCH  11  12
ENDBRANCH   1  11
TORSDOF 1
ENDMDL
MODEL 8
REMARK VINA RESULT:    -3.022     11.064     14.013
REMARK INTER + INTRA:          -4.674
REMARK INTER:                  -4.773
REMARK INTRA:                   0.098
REMARK UNBOUND:                -0.062
REMARK SMILES CC1=CCC[C@H](C)C(=O)C[C@H](C(C)C)C(=O)C1
REMARK SMILES IDX 8 1 9 2 6 3 7 4 5 5 4 6 3 7 2 8 1 9 10 11 11 12 15 13 16 14
REMARK SMILES IDX 17 15 12 17 13 18 14 19
REMARK H PARENT
REMARK Flexibility Score: 70.00
ROOT
ATOM      1  C   UNL     1     -29.919  15.124 -32.142  1.00  0.00     0.136 C 
ATOM      2  O   UNL     1     -31.013  15.035 -32.681  1.00  0.00    -0.299 OA
ENDROOT
BRANCH   1   3
ATOM      3  C   UNL     1     -29.650  14.372 -30.854  1.00  0.00     0.053 C 
ATOM      4  C   UNL     1     -30.682  13.251 -30.694  1.00  0.00     0.016 C 
BRANCH   3   5
ATOM      5  C   UNL     1     -28.218  13.790 -30.801  1.00  0.00     0.015 C 
BRANCH   5   6
ATOM      6  C   UNL     1     -27.369  14.330 -29.642  1.00  0.00     0.028 C 
BRANCH   6   7
ATOM      7  C   UNL     1     -26.026  14.822 -30.127  1.00  0.00    -0.028 C 
ATOM      8  C   UNL     1     -25.731  16.109 -30.419  1.00  0.00    -0.070 CG0
ATOM      9  C   UNL     1     -24.336  16.427 -30.896  1.00  0.00     0.039 C 
ATOM     10  G   UNL     1     -26.742  17.234 -30.296  1.00  0.00     0.000 G0
ENDBRANCH   6   7
ENDBRANCH   5   6
ENDBRANCH   3   5
ENDBRANCH   1   3
BRANCH   1  11
ATOM     11  C   UNL     1     -28.874  16.034 -32.740  1.00  0.00     0.087 C 
BRANCH  11  12
ATOM     12  C   UNL     1     -28.774  17.418 -32.045  1.00  0.00     0.066 C 
BRANCH  12  13
ATOM     13  C   UNL     1     -27.334  17.697 -31.621  1.00  0.00     0.140 C 
ATOM     14  O   UNL     1     -26.634  18.393 -32.342  1.00  0.00    -0.299 OA
BRANCH  13  15
ATOM     15  C   UNL     1     -26.753  17.232 -30.300  1.00  0.00     0.106 CG0
ATOM     16  G   UNL     1     -25.737  16.112 -30.423  1.00  0.00     0.000 G0
ENDBRANCH  13  15
ENDBRANCH  12  13
BRANCH  12  17
ATOM     17  C   UNL     1     -29.297  18.562 -32.971  1.00  0.00    -0.006 C 
ATOM     18  C   UNL     1     -29.471  19.882 -32.198  1.00  0.00     0.008 C 
ATOM     19  C   UNL     1     -30.636  18.202 -33.642  1.00  0.00     0.008 C 
ENDBRANCH  12  17
ENDBRANCH  11  12
ENDBRANCH   1  11
TORSDOF 1
ENDMDL
MODEL 9
REMARK VINA RESULT:    -2.787      2.074      5.316
REMARK INTER + INTRA:          -4.315
REMARK INTER:                  -5.965
REMARK INTRA:                   1.649
REMARK UNBOUND:                -0.062
REMARK SMILES CC1=CCC[C@H](C)C(=O)C[C@H](C(C)C)C(=O)C1
REMARK SMILES IDX 8 1 9 2 6 3 7 4 5 5 4 6 3 7 2 8 1 9 10 11 11 12 15 13 16 14
REMARK SMILES IDX 17 15 12 17 13 18 14 19
REMARK H PARENT
REMARK Flexibility Score: 70.00
ROOT
ATOM      1  C   UNL     1     -15.325  14.794 -30.875  1.00  0.00     0.136 C 
ATOM      2  O   UNL     1     -14.999  15.789 -31.506  1.00  0.00    -0.299 OA
ENDROOT
BRANCH   1   3
ATOM      3  C   UNL     1     -16.131  13.703 -31.549  1.00  0.00     0.053 C 
ATOM      4  C   UNL     1     -15.740  13.621 -33.028  1.00  0.00     0.016 C 
BRANCH   3   5
ATOM      5  C   UNL     1     -15.941  12.326 -30.870  1.00  0.00     0.015 C 
BRANCH   5   6
ATOM      6  C   UNL     1     -17.177  11.835 -30.103  1.00  0.00     0.028 C 
BRANCH   6   7
ATOM      7  C   UNL     1     -17.003  12.003 -28.613  1.00  0.00    -0.028 C 
ATOM      8  C   UNL     1     -15.816  11.998 -27.966  1.00  0.00    -0.070 CG0
ATOM      9  C   UNL     1     -15.823  12.175 -26.468  1.00  0.00     0.039 C 
ATOM     10  G   UNL     1     -14.490  11.811 -28.679  1.00  0.00     0.000 G0
ENDBRANCH   6   7
ENDBRANCH   5   6
ENDBRANCH   3   5
ENDBRANCH   1   3
BRANCH   1  11
ATOM     11  C   UNL     1     -14.968  14.700 -29.411  1.00  0.00     0.087 C 
BRANCH  11  12
ATOM     12  C   UNL     1     -13.501  14.263 -29.149  1.00  0.00     0.066 C 
BRANCH  12  13
ATOM     13  C   UNL     1     -13.470  12.919 -28.425  1.00  0.00     0.140 C 
ATOM     14  O   UNL     1     -12.643  12.746 -27.542  1.00  0.00    -0.299 OA
BRANCH  13  15
ATOM     15  C   UNL     1     -14.480  11.816 -28.680  1.00  0.00     0.106 CG0
ATOM     16  G   UNL     1     -15.806  12.005 -27.967  1.00  0.00     0.000 G0
ENDBRANCH  13  15
ENDBRANCH  12  13
BRANCH  12  17
ATOM     17  C   UNL     1     -12.682  14.182 -30.477  1.00  0.00    -0.006 C 
ATOM     18  C   UNL     1     -12.115  12.770 -30.707  1.00  0.00     0.008 C 
ATOM     19  C   UNL     1     -11.520  15.193 -30.506  1.00  0.00     0.008 C 
ENDBRANCH  12  17
ENDBRANCH  11  12
ENDBRANCH   1  11
TORSDOF 1
ENDMDL
