MODEL 1
REMARK VINA RESULT:    -4.846      0.000      0.000
REMARK INTER + INTRA:         -11.606
REMARK INTER:                 -10.513
REMARK INTRA:                  -1.093
REMARK UNBOUND:                -1.093
REMARK SMILES CCCCCCCCCCCCCCCCCCCCCC(=O)[O-]
REMARK SMILES IDX 12 1 11 2 10 3 9 4 8 5 7 6 6 7 5 8 4 9 3 10 2 11 1 12 13 13
REMARK SMILES IDX 14 14 15 15 16 16 17 17 18 18 19 19 20 20 21 21 22 22 23 23
REMARK SMILES IDX 24 24
REMARK H PARENT
REMARK Flexibility Score: inf
ROOT
ATOM      1  C   UNL     1       7.701  -4.774  -3.628  1.00  0.00     0.000 C 
ENDROOT
BRANCH   1   2
ATOM      2  C   UNL     1       7.482  -4.161  -5.021  1.00  0.00     0.000 C 
BRANCH   2   3
ATOM      3  C   UNL     1       8.786  -4.015  -5.820  1.00  0.00     0.000 C 
BRANCH   3   4
ATOM      4  C   UNL     1       8.618  -4.567  -7.245  1.00  0.00    -0.000 C 
BRANCH   4   5
ATOM      5  C   UNL     1       8.727  -6.099  -7.310  1.00  0.00    -0.000 C 
BRANCH   5   6
ATOM      6  C   UNL     1       8.635  -6.641  -8.746  1.00  0.00    -0.000 C 
BRANCH   6   7
ATOM      7  C   UNL     1       7.252  -7.229  -9.073  1.00  0.00    -0.000 C 
BRANCH   7   8
ATOM      8  C   UNL     1       7.226  -8.772  -9.102  1.00  0.00    -0.000 C 
BRANCH   8   9
ATOM      9  C   UNL     1       5.919  -9.344  -8.531  1.00  0.00    -0.000 C 
BRANCH   9  10
ATOM     10  C   UNL     1       5.081 -10.005  -9.634  1.00  0.00    -0.000 C 
BRANCH  10  11
ATOM     11  C   UNL     1       4.648  -9.013 -10.726  1.00  0.00    -0.003 C 
ATOM     12  C   UNL     1       3.147  -9.069 -11.014  1.00  0.00     0.004 C 
ENDBRANCH  10  11
ENDBRANCH   9  10
ENDBRANCH   8   9
ENDBRANCH   7   8
ENDBRANCH   6   7
ENDBRANCH   5   6
ENDBRANCH   4   5
ENDBRANCH   3   4
ENDBRANCH   2   3
ENDBRANCH   1   2
BRANCH   1  13
ATOM     13  C   UNL     1       8.891  -5.751  -3.593  1.00  0.00     0.000 C 
BRANCH  13  14
ATOM     14  C   UNL     1       8.803  -6.742  -2.421  1.00  0.00     0.000 C 
BRANCH  14  15
ATOM     15  C   UNL     1       8.141  -8.073  -2.824  1.00  0.00     0.000 C 
BRANCH  15  16
ATOM     16  C   UNL     1       7.656  -8.881  -1.610  1.00  0.00     0.000 C 
BRANCH  16  17
ATOM     17  C   UNL     1       8.811  -9.486  -0.799  1.00  0.00     0.000 C 
BRANCH  17  18
ATOM     18  C   UNL     1       8.447  -9.579   0.688  1.00  0.00     0.000 C 
BRANCH  18  19
ATOM     19  C   UNL     1       6.927  -9.585   0.885  1.00  0.00     0.000 C 
BRANCH  19  20
ATOM     20  C   UNL     1       6.539 -10.386   2.137  1.00  0.00     0.006 C 
BRANCH  20  21
ATOM     21  C   UNL     1       5.021 -10.567   2.264  1.00  0.00     0.053 C 
BRANCH  21  22
ATOM     22  C   UNL     1       4.565 -10.490   3.688  1.00  0.00     0.041 C 
ATOM     23  O   UNL     1       3.348 -10.311   3.956  1.00  0.00    -0.550 OA
ATOM     24  O   UNL     1       5.492 -10.593   4.722  1.00  0.00    -0.550 OA
ENDBRANCH  21  22
ENDBRANCH  20  21
ENDBRANCH  19  20
ENDBRANCH  18  19
ENDBRANCH  17  18
ENDBRANCH  16  17
ENDBRANCH  15  16
ENDBRANCH  14  15
ENDBRANCH  13  14
ENDBRANCH   1  13
TORSDOF 20
ENDMDL
MODEL 2
REMARK VINA RESULT:    -4.777      3.990      9.719
REMARK INTER + INTRA:         -11.455
REMARK INTER:                 -10.173
REMARK INTRA:                  -1.282
REMARK UNBOUND:                -1.093
REMARK SMILES CCCCCCCCCCCCCCCCCCCCCC(=O)[O-]
REMARK SMILES IDX 12 1 11 2 10 3 9 4 8 5 7 6 6 7 5 8 4 9 3 10 2 11 1 12 13 13
REMARK SMILES IDX 14 14 15 15 16 16 17 17 18 18 19 19 20 20 21 21 22 22 23 23
REMARK SMILES IDX 24 24
REMARK H PARENT
REMARK Flexibility Score: inf
ROOT
ATOM      1  C   UNL     1       8.905  -3.896  -4.175  1.00  0.00     0.000 C 
ENDROOT
BRANCH   1   2
ATOM      2  C   UNL     1       9.047  -5.044  -3.163  1.00  0.00     0.000 C 
BRANCH   2   3
ATOM      3  C   UNL     1       8.278  -6.307  -3.582  1.00  0.00     0.000 C 
BRANCH   3   4
ATOM      4  C   UNL     1       8.344  -7.377  -2.481  1.00  0.00    -0.000 C 
BRANCH   4   5
ATOM      5  C   UNL     1       7.955  -8.777  -2.984  1.00  0.00    -0.000 C 
BRANCH   5   6
ATOM      6  C   UNL     1       7.902  -9.820  -1.856  1.00  0.00    -0.000 C 
BRANCH   6   7
ATOM      7  C   UNL     1       7.610  -9.195  -0.481  1.00  0.00    -0.000 C 
BRANCH   7   8
ATOM      8  C   UNL     1       8.580  -9.657   0.628  1.00  0.00    -0.000 C 
BRANCH   8   9
ATOM      9  C   UNL     1       7.895 -10.567   1.660  1.00  0.00    -0.000 C 
BRANCH   9  10
ATOM     10  C   UNL     1       6.553  -9.972   2.110  1.00  0.00    -0.000 C 
BRANCH  10  11
ATOM     11  C   UNL     1       6.102 -10.497   3.482  1.00  0.00    -0.003 C 
ATOM     12  C   UNL     1       4.581 -10.512   3.639  1.00  0.00     0.004 C 
ENDBRANCH  10  11
ENDBRANCH   9  10
ENDBRANCH   8   9
ENDBRANCH   7   8
ENDBRANCH   6   7
ENDBRANCH   5   6
ENDBRANCH   4   5
ENDBRANCH   3   4
ENDBRANCH   2   3
ENDBRANCH   1   2
BRANCH   1  13
ATOM     13  C   UNL     1       7.668  -4.054  -5.080  1.00  0.00     0.000 C 
BRANCH  13  14
ATOM     14  C   UNL     1       7.945  -3.632  -6.532  1.00  0.00     0.000 C 
BRANCH  14  15
ATOM     15  C   UNL     1       8.931  -4.577  -7.242  1.00  0.00     0.000 C 
BRANCH  15  16
ATOM     16  C   UNL     1       8.427  -6.029  -7.287  1.00  0.00     0.000 C 
BRANCH  16  17
ATOM     17  C   UNL     1       8.342  -6.584  -8.716  1.00  0.00     0.000 C 
BRANCH  17  18
ATOM     18  C   UNL     1       8.607  -8.094  -8.734  1.00  0.00     0.000 C 
BRANCH  18  19
ATOM     19  C   UNL     1       7.886  -8.767  -9.908  1.00  0.00     0.000 C 
BRANCH  19  20
ATOM     20  C   UNL     1       6.484  -8.170 -10.105  1.00  0.00     0.006 C 
BRANCH  20  21
ATOM     21  C   UNL     1       5.533  -9.143 -10.815  1.00  0.00     0.053 C 
BRANCH  21  22
ATOM     22  C   UNL     1       4.499  -9.694  -9.884  1.00  0.00     0.041 C 
ATOM     23  O   UNL     1       3.558 -10.403 -10.329  1.00  0.00    -0.550 OA
ATOM     24  O   UNL     1       4.563  -9.407  -8.524  1.00  0.00    -0.550 OA
ENDBRANCH  21  22
ENDBRANCH  20  21
ENDBRANCH  19  20
ENDBRANCH  18  19
ENDBRANCH  17  18
ENDBRANCH  16  17
ENDBRANCH  15  16
ENDBRANCH  14  15
ENDBRANCH  13  14
ENDBRANCH   1  13
TORSDOF 20
ENDMDL
MODEL 3
REMARK VINA RESULT:    -4.409      1.133      2.186
REMARK INTER + INTRA:         -10.657
REMARK INTER:                  -9.585
REMARK INTRA:                  -1.073
REMARK UNBOUND:                -1.093
REMARK SMILES CCCCCCCCCCCCCCCCCCCCCC(=O)[O-]
REMARK SMILES IDX 12 1 11 2 10 3 9 4 8 5 7 6 6 7 5 8 4 9 3 10 2 11 1 12 13 13
REMARK SMILES IDX 14 14 15 15 16 16 17 17 18 18 19 19 20 20 21 21 22 22 23 23
REMARK SMILES IDX 24 24
REMARK H PARENT
REMARK Flexibility Score: inf
ROOT
ATOM      1  C   UNL     1       7.676  -3.681  -5.334  1.00  0.00     0.000 C 
ENDROOT
BRANCH   1   2
ATOM      2  C   UNL     1       8.128  -4.207  -6.706  1.00  0.00     0.000 C 
BRANCH   2   3
ATOM      3  C   UNL     1       8.631  -5.658  -6.652  1.00  0.00     0.000 C 
BRANCH   3   4
ATOM      4  C   UNL     1       8.892  -6.198  -8.067  1.00  0.00    -0.000 C 
BRANCH   4   5
ATOM      5  C   UNL     1       7.621  -6.739  -8.744  1.00  0.00    -0.000 C 
BRANCH   5   6
ATOM      6  C   UNL     1       7.678  -8.255  -8.988  1.00  0.00    -0.000 C 
BRANCH   6   7
ATOM      7  C   UNL     1       6.401  -8.800  -9.650  1.00  0.00    -0.000 C 
BRANCH   7   8
ATOM      8  C   UNL     1       6.643  -9.431 -11.038  1.00  0.00    -0.000 C 
BRANCH   8   9
ATOM      9  C   UNL     1       5.367  -9.463 -11.894  1.00  0.00    -0.000 C 
BRANCH   9  10
ATOM     10  C   UNL     1       4.498  -8.225 -11.629  1.00  0.00    -0.000 C 
BRANCH  10  11
ATOM     11  C   UNL     1       3.139  -8.578 -11.004  1.00  0.00    -0.003 C 
ATOM     12  C   UNL     1       2.575  -9.902 -11.523  1.00  0.00     0.004 C 
ENDBRANCH  10  11
ENDBRANCH   9  10
ENDBRANCH   8   9
ENDBRANCH   7   8
ENDBRANCH   6   7
ENDBRANCH   5   6
ENDBRANCH   4   5
ENDBRANCH   3   4
ENDBRANCH   2   3
ENDBRANCH   1   2
BRANCH   1  13
ATOM     13  C   UNL     1       7.721  -4.765  -4.241  1.00  0.00     0.000 C 
BRANCH  13  14
ATOM     14  C   UNL     1       9.020  -4.720  -3.421  1.00  0.00     0.000 C 
BRANCH  14  15
ATOM     15  C   UNL     1       9.125  -5.884  -2.419  1.00  0.00     0.000 C 
BRANCH  15  16
ATOM     16  C   UNL     1       9.037  -7.259  -3.103  1.00  0.00     0.000 C 
BRANCH  16  17
ATOM     17  C   UNL     1       7.936  -8.149  -2.508  1.00  0.00     0.000 C 
BRANCH  17  18
ATOM     18  C   UNL     1       8.539  -9.263  -1.643  1.00  0.00     0.000 C 
BRANCH  18  19
ATOM     19  C   UNL     1       8.697  -8.807  -0.188  1.00  0.00     0.000 C 
BRANCH  19  20
ATOM     20  C   UNL     1       8.171  -9.878   0.781  1.00  0.00     0.006 C 
BRANCH  20  21
ATOM     21  C   UNL     1       6.764  -9.551   1.298  1.00  0.00     0.053 C 
BRANCH  21  22
ATOM     22  C   UNL     1       6.481 -10.218   2.608  1.00  0.00     0.041 C 
ATOM     23  O   UNL     1       5.363 -10.067   3.169  1.00  0.00    -0.550 OA
ATOM     24  O   UNL     1       7.462 -10.991   3.222  1.00  0.00    -0.550 OA
ENDBRANCH  21  22
ENDBRANCH  20  21
ENDBRANCH  19  20
ENDBRANCH  18  19
ENDBRANCH  17  18
ENDBRANCH  16  17
ENDBRANCH  15  16
ENDBRANCH  14  15
ENDBRANCH  13  14
ENDBRANCH   1  13
TORSDOF 20
ENDMDL
MODEL 4
REMARK VINA RESULT:    -4.256      4.614      9.783
REMARK INTER + INTRA:         -10.325
REMARK INTER:                  -9.347
REMARK INTRA:                  -0.978
REMARK UNBOUND:                -1.093
REMARK SMILES CCCCCCCCCCCCCCCCCCCCCC(=O)[O-]
REMARK SMILES IDX 12 1 11 2 10 3 9 4 8 5 7 6 6 7 5 8 4 9 3 10 2 11 1 12 13 13
REMARK SMILES IDX 14 14 15 15 16 16 17 17 18 18 19 19 20 20 21 21 22 22 23 23
REMARK SMILES IDX 24 24
REMARK H PARENT
REMARK Flexibility Score: inf
ROOT
ATOM      1  C   UNL     1       7.756  -4.586  -5.347  1.00  0.00     0.000 C 
ENDROOT
BRANCH   1   2
ATOM      2  C   UNL     1       8.042  -4.183  -3.891  1.00  0.00     0.000 C 
BRANCH   2   3
ATOM      3  C   UNL     1       8.925  -5.201  -3.154  1.00  0.00     0.000 C 
BRANCH   3   4
ATOM      4  C   UNL     1       8.256  -6.584  -3.125  1.00  0.00    -0.000 C 
BRANCH   4   5
ATOM      5  C   UNL     1       8.613  -7.395  -1.868  1.00  0.00    -0.000 C 
BRANCH   5   6
ATOM      6  C   UNL     1       7.682  -8.599  -1.654  1.00  0.00    -0.000 C 
BRANCH   6   7
ATOM      7  C   UNL     1       8.336  -9.718  -0.826  1.00  0.00    -0.000 C 
BRANCH   7   8
ATOM      8  C   UNL     1       8.235  -9.499   0.700  1.00  0.00    -0.000 C 
BRANCH   8   9
ATOM      9  C   UNL     1       8.458 -10.797   1.491  1.00  0.00    -0.000 C 
BRANCH   9  10
ATOM     10  C   UNL     1       7.370 -10.984   2.558  1.00  0.00    -0.000 C 
BRANCH  10  11
ATOM     11  C   UNL     1       6.037 -10.328   2.167  1.00  0.00    -0.003 C 
ATOM     12  C   UNL     1       4.926 -10.593   3.185  1.00  0.00     0.004 C 
ENDBRANCH  10  11
ENDBRANCH   9  10
ENDBRANCH   8   9
ENDBRANCH   7   8
ENDBRANCH   6   7
ENDBRANCH   5   6
ENDBRANCH   4   5
ENDBRANCH   3   4
ENDBRANCH   2   3
ENDBRANCH   1   2
BRANCH   1  13
ATOM     13  C   UNL     1       9.042  -4.864  -6.147  1.00  0.00     0.000 C 
BRANCH  13  14
ATOM     14  C   UNL     1       8.794  -4.899  -7.664  1.00  0.00     0.000 C 
BRANCH  14  15
ATOM     15  C   UNL     1       9.125  -6.269  -8.283  1.00  0.00     0.000 C 
BRANCH  15  16
ATOM     16  C   UNL     1       7.866  -7.045  -8.705  1.00  0.00     0.000 C 
BRANCH  16  17
ATOM     17  C   UNL     1       7.828  -8.471  -8.136  1.00  0.00     0.000 C 
BRANCH  17  18
ATOM     18  C   UNL     1       7.423  -9.481  -9.216  1.00  0.00     0.000 C 
BRANCH  18  19
ATOM     19  C   UNL     1       6.286 -10.386  -8.726  1.00  0.00     0.000 C 
BRANCH  19  20
ATOM     20  C   UNL     1       4.931  -9.670  -8.835  1.00  0.00     0.006 C 
BRANCH  20  21
ATOM     21  C   UNL     1       3.900 -10.494  -9.617  1.00  0.00     0.053 C 
BRANCH  21  22
ATOM     22  C   UNL     1       3.437  -9.785 -10.851  1.00  0.00     0.041 C 
ATOM     23  O   UNL     1       4.035  -8.751 -11.251  1.00  0.00    -0.550 OA
ATOM     24  O   UNL     1       2.328 -10.254 -11.550  1.00  0.00    -0.550 OA
ENDBRANCH  21  22
ENDBRANCH  20  21
ENDBRANCH  19  20
ENDBRANCH  18  19
ENDBRANCH  17  18
ENDBRANCH  16  17
ENDBRANCH  15  16
ENDBRANCH  14  15
ENDBRANCH  13  14
ENDBRANCH   1  13
TORSDOF 20
ENDMDL
MODEL 5
REMARK VINA RESULT:    -3.624      3.936      4.765
REMARK INTER + INTRA:          -8.954
REMARK INTER:                  -7.156
REMARK INTRA:                  -1.798
REMARK UNBOUND:                -1.093
REMARK SMILES CCCCCCCCCCCCCCCCCCCCCC(=O)[O-]
REMARK SMILES IDX 12 1 11 2 10 3 9 4 8 5 7 6 6 7 5 8 4 9 3 10 2 11 1 12 13 13
REMARK SMILES IDX 14 14 15 15 16 16 17 17 18 18 19 19 20 20 21 21 22 22 23 23
REMARK SMILES IDX 24 24
REMARK H PARENT
REMARK Flexibility Score: inf
ROOT
ATOM      1  C   UNL     1       8.563  -5.044  -5.638  1.00  0.00     0.000 C 
ENDROOT
BRANCH   1   2
ATOM      2  C   UNL     1       7.734  -4.337  -6.723  1.00  0.00     0.000 C 
BRANCH   2   3
ATOM      3  C   UNL     1       7.884  -4.989  -8.106  1.00  0.00     0.000 C 
BRANCH   3   4
ATOM      4  C   UNL     1       8.142  -6.498  -7.974  1.00  0.00    -0.000 C 
BRANCH   4   5
ATOM      5  C   UNL     1       8.875  -7.088  -9.190  1.00  0.00    -0.000 C 
BRANCH   5   6
ATOM      6  C   UNL     1       8.503  -8.557  -9.451  1.00  0.00    -0.000 C 
BRANCH   6   7
ATOM      7  C   UNL     1       6.983  -8.793  -9.466  1.00  0.00    -0.000 C 
BRANCH   7   8
ATOM      8  C   UNL     1       6.233  -7.928 -10.502  1.00  0.00    -0.000 C 
BRANCH   8   9
ATOM      9  C   UNL     1       5.298  -8.763 -11.391  1.00  0.00    -0.000 C 
BRANCH   9  10
ATOM     10  C   UNL     1       4.312  -9.576 -10.540  1.00  0.00    -0.000 C 
BRANCH  10  11
ATOM     11  C   UNL     1       2.866  -9.479 -11.053  1.00  0.00    -0.003 C 
ATOM     12  C   UNL     1       2.473  -8.054 -11.447  1.00  0.00     0.004 C 
ENDBRANCH  10  11
ENDBRANCH   9  10
ENDBRANCH   8   9
ENDBRANCH   7   8
ENDBRANCH   6   7
ENDBRANCH   5   6
ENDBRANCH   4   5
ENDBRANCH   3   4
ENDBRANCH   2   3
ENDBRANCH   1   2
BRANCH   1  13
ATOM     13  C   UNL     1       8.718  -4.193  -4.364  1.00  0.00     0.000 C 
BRANCH  13  14
ATOM     14  C   UNL     1       8.978  -5.048  -3.113  1.00  0.00     0.000 C 
BRANCH  14  15
ATOM     15  C   UNL     1       8.557  -6.516  -3.306  1.00  0.00     0.000 C 
BRANCH  15  16
ATOM     16  C   UNL     1       9.043  -7.424  -2.165  1.00  0.00     0.000 C 
BRANCH  16  17
ATOM     17  C   UNL     1       7.892  -8.137  -1.441  1.00  0.00     0.000 C 
BRANCH  17  18
ATOM     18  C   UNL     1       7.629  -9.517  -2.057  1.00  0.00     0.000 C 
BRANCH  18  19
ATOM     19  C   UNL     1       8.913 -10.353  -2.105  1.00  0.00     0.000 C 
BRANCH  19  20
ATOM     20  C   UNL     1       9.125 -10.952  -3.504  1.00  0.00     0.006 C 
BRANCH  20  21
ATOM     21  C   UNL     1       7.864 -10.855  -4.374  1.00  0.00     0.053 C 
BRANCH  21  22
ATOM     22  C   UNL     1       8.150 -10.232  -5.705  1.00  0.00     0.041 C 
ATOM     23  O   UNL     1       8.648  -9.077  -5.771  1.00  0.00    -0.550 OA
ATOM     24  O   UNL     1       7.844 -10.919  -6.876  1.00  0.00    -0.550 OA
ENDBRANCH  21  22
ENDBRANCH  20  21
ENDBRANCH  19  20
ENDBRANCH  18  19
ENDBRANCH  17  18
ENDBRANCH  16  17
ENDBRANCH  15  16
ENDBRANCH  14  15
ENDBRANCH  13  14
ENDBRANCH   1  13
TORSDOF 20
ENDMDL
MODEL 6
REMARK VINA RESULT:    -3.591      4.212     10.430
REMARK INTER + INTRA:          -8.884
REMARK INTER:                  -7.561
REMARK INTRA:                  -1.323
REMARK UNBOUND:                -1.093
REMARK SMILES CCCCCCCCCCCCCCCCCCCCCC(=O)[O-]
REMARK SMILES IDX 12 1 11 2 10 3 9 4 8 5 7 6 6 7 5 8 4 9 3 10 2 11 1 12 13 13
REMARK SMILES IDX 14 14 15 15 16 16 17 17 18 18 19 19 20 20 21 21 22 22 23 23
REMARK SMILES IDX 24 24
REMARK H PARENT
REMARK Flexibility Score: inf
ROOT
ATOM      1  C   UNL     1       7.778  -8.636  -4.065  1.00  0.00     0.000 C 
ENDROOT
BRANCH   1   2
ATOM      2  C   UNL     1       8.129  -9.719  -3.031  1.00  0.00     0.000 C 
BRANCH   2   3
ATOM      3  C   UNL     1       7.903  -9.255  -1.583  1.00  0.00     0.000 C 
BRANCH   3   4
ATOM      4  C   UNL     1       9.122  -9.585  -0.708  1.00  0.00    -0.000 C 
BRANCH   4   5
ATOM      5  C   UNL     1       9.024 -10.966  -0.040  1.00  0.00    -0.000 C 
BRANCH   5   6
ATOM      6  C   UNL     1       9.122 -10.893   1.493  1.00  0.00    -0.000 C 
BRANCH   6   7
ATOM      7  C   UNL     1       7.762 -11.071   2.186  1.00  0.00    -0.000 C 
BRANCH   7   8
ATOM      8  C   UNL     1       6.605 -10.330   1.481  1.00  0.00    -0.000 C 
BRANCH   8   9
ATOM      9  C   UNL     1       5.448 -10.009   2.440  1.00  0.00    -0.000 C 
BRANCH   9  10
ATOM     10  C   UNL     1       5.938  -9.961   3.894  1.00  0.00    -0.000 C 
BRANCH  10  11
ATOM     11  C   UNL     1       4.788 -10.045   4.911  1.00  0.00    -0.003 C 
ATOM     12  C   UNL     1       3.412 -10.096   4.244  1.00  0.00     0.004 C 
ENDBRANCH  10  11
ENDBRANCH   9  10
ENDBRANCH   8   9
ENDBRANCH   7   8
ENDBRANCH   6   7
ENDBRANCH   5   6
ENDBRANCH   4   5
ENDBRANCH   3   4
ENDBRANCH   2   3
ENDBRANCH   1   2
BRANCH   1  13
ATOM     13  C   UNL     1       8.860  -7.544  -4.168  1.00  0.00     0.000 C 
BRANCH  13  14
ATOM     14  C   UNL     1       8.412  -6.212  -3.545  1.00  0.00     0.000 C 
BRANCH  14  15
ATOM     15  C   UNL     1       7.838  -5.238  -4.589  1.00  0.00     0.000 C 
BRANCH  15  16
ATOM     16  C   UNL     1       8.810  -4.980  -5.752  1.00  0.00     0.000 C 
BRANCH  16  17
ATOM     17  C   UNL     1       8.165  -5.203  -7.127  1.00  0.00     0.000 C 
BRANCH  17  18
ATOM     18  C   UNL     1       9.125  -5.938  -8.070  1.00  0.00     0.000 C 
BRANCH  18  19
ATOM     19  C   UNL     1       8.606  -7.342  -8.401  1.00  0.00     0.000 C 
BRANCH  19  20
ATOM     20  C   UNL     1       7.268  -7.269  -9.152  1.00  0.00     0.006 C 
BRANCH  20  21
ATOM     21  C   UNL     1       7.171  -8.317 -10.269  1.00  0.00     0.053 C 
BRANCH  21  22
ATOM     22  C   UNL     1       6.144  -9.364  -9.966  1.00  0.00     0.041 C 
ATOM     23  O   UNL     1       6.460 -10.391  -9.308  1.00  0.00    -0.550 OA
ATOM     24  O   UNL     1       4.841  -9.215 -10.430  1.00  0.00    -0.550 OA
ENDBRANCH  21  22
ENDBRANCH  20  21
ENDBRANCH  19  20
ENDBRANCH  18  19
ENDBRANCH  17  18
ENDBRANCH  16  17
ENDBRANCH  15  16
ENDBRANCH  14  15
ENDBRANCH  13  14
ENDBRANCH   1  13
TORSDOF 20
ENDMDL
MODEL 7
REMARK VINA RESULT:    -3.565      4.889     11.150
REMARK INTER + INTRA:          -8.827
REMARK INTER:                  -7.948
REMARK INTRA:                  -0.879
REMARK UNBOUND:                -1.093
REMARK SMILES CCCCCCCCCCCCCCCCCCCCCC(=O)[O-]
REMARK SMILES IDX 12 1 11 2 10 3 9 4 8 5 7 6 6 7 5 8 4 9 3 10 2 11 1 12 13 13
REMARK SMILES IDX 14 14 15 15 16 16 17 17 18 18 19 19 20 20 21 21 22 22 23 23
REMARK SMILES IDX 24 24
REMARK H PARENT
REMARK Flexibility Score: inf
ROOT
ATOM      1  C   UNL     1       7.795  -8.203  -3.958  1.00  0.00     0.000 C 
ENDROOT
BRANCH   1   2
ATOM      2  C   UNL     1       8.308  -7.068  -3.056  1.00  0.00     0.000 C 
BRANCH   2   3
ATOM      3  C   UNL     1       9.095  -7.583  -1.841  1.00  0.00     0.000 C 
BRANCH   3   4
ATOM      4  C   UNL     1       8.580  -8.963  -1.401  1.00  0.00    -0.000 C 
BRANCH   4   5
ATOM      5  C   UNL     1       8.834  -9.249   0.088  1.00  0.00    -0.000 C 
BRANCH   5   6
ATOM      6  C   UNL     1       7.539  -9.533   0.867  1.00  0.00    -0.000 C 
BRANCH   6   7
ATOM      7  C   UNL     1       7.690 -10.686   1.873  1.00  0.00    -0.000 C 
BRANCH   7   8
ATOM      8  C   UNL     1       6.393 -11.005   2.648  1.00  0.00    -0.000 C 
BRANCH   8   9
ATOM      9  C   UNL     1       6.515 -10.682   4.146  1.00  0.00    -0.000 C 
BRANCH   9  10
ATOM     10  C   UNL     1       5.301  -9.880   4.635  1.00  0.00    -0.000 C 
BRANCH  10  11
ATOM     11  C   UNL     1       4.045 -10.126   3.784  1.00  0.00    -0.003 C 
ATOM     12  C   UNL     1       2.868  -9.240   4.196  1.00  0.00     0.004 C 
ENDBRANCH  10  11
ENDBRANCH   9  10
ENDBRANCH   8   9
ENDBRANCH   7   8
ENDBRANCH   6   7
ENDBRANCH   5   6
ENDBRANCH   4   5
ENDBRANCH   3   4
ENDBRANCH   2   3
ENDBRANCH   1   2
BRANCH   1  13
ATOM     13  C   UNL     1       8.565  -8.295  -5.289  1.00  0.00     0.000 C 
BRANCH  13  14
ATOM     14  C   UNL     1       8.033  -9.414  -6.199  1.00  0.00     0.000 C 
BRANCH  14  15
ATOM     15  C   UNL     1       8.590  -9.322  -7.631  1.00  0.00     0.000 C 
BRANCH  15  16
ATOM     16  C   UNL     1       7.865  -8.263  -8.479  1.00  0.00     0.000 C 
BRANCH  16  17
ATOM     17  C   UNL     1       8.342  -8.241  -9.938  1.00  0.00     0.000 C 
BRANCH  17  18
ATOM     18  C   UNL     1       7.308  -8.896 -10.862  1.00  0.00     0.000 C 
BRANCH  18  19
ATOM     19  C   UNL     1       5.960  -8.172 -10.782  1.00  0.00     0.000 C 
BRANCH  19  20
ATOM     20  C   UNL     1       5.052  -8.571 -11.957  1.00  0.00     0.006 C 
BRANCH  20  21
ATOM     21  C   UNL     1       3.746  -7.767 -11.980  1.00  0.00     0.053 C 
BRANCH  21  22
ATOM     22  C   UNL     1       2.596  -8.552 -11.430  1.00  0.00     0.041 C 
ATOM     23  O   UNL     1       2.752  -9.757 -11.098  1.00  0.00    -0.550 OA
ATOM     24  O   UNL     1       1.344  -7.958 -11.305  1.00  0.00    -0.550 OA
ENDBRANCH  21  22
ENDBRANCH  20  21
ENDBRANCH  19  20
ENDBRANCH  18  19
ENDBRANCH  17  18
ENDBRANCH  16  17
ENDBRANCH  15  16
ENDBRANCH  14  15
ENDBRANCH  13  14
ENDBRANCH   1  13
TORSDOF 20
ENDMDL
MODEL 8
REMARK VINA RESULT:    -3.432      3.974      9.453
REMARK INTER + INTRA:          -8.537
REMARK INTER:                  -7.434
REMARK INTRA:                  -1.103
REMARK UNBOUND:                -1.093
REMARK SMILES CCCCCCCCCCCCCCCCCCCCCC(=O)[O-]
REMARK SMILES IDX 12 1 11 2 10 3 9 4 8 5 7 6 6 7 5 8 4 9 3 10 2 11 1 12 13 13
REMARK SMILES IDX 14 14 15 15 16 16 17 17 18 18 19 19 20 20 21 21 22 22 23 23
REMARK SMILES IDX 24 24
REMARK H PARENT
REMARK Flexibility Score: inf
ROOT
ATOM      1  C   UNL     1       8.431  -4.489  -6.194  1.00  0.00     0.000 C 
ENDROOT
BRANCH   1   2
ATOM      2  C   UNL     1       9.086  -4.012  -4.887  1.00  0.00     0.000 C 
BRANCH   2   3
ATOM      3  C   UNL     1       8.354  -4.517  -3.635  1.00  0.00     0.000 C 
BRANCH   3   4
ATOM      4  C   UNL     1       9.093  -5.713  -3.015  1.00  0.00    -0.000 C 
BRANCH   4   5
ATOM      5  C   UNL     1       8.237  -6.990  -2.975  1.00  0.00    -0.000 C 
BRANCH   5   6
ATOM      6  C   UNL     1       9.065  -8.251  -2.680  1.00  0.00    -0.000 C 
BRANCH   6   7
ATOM      7  C   UNL     1       8.192  -9.480  -2.380  1.00  0.00    -0.000 C 
BRANCH   7   8
ATOM      8  C   UNL     1       8.609 -10.239  -1.101  1.00  0.00    -0.000 C 
BRANCH   8   9
ATOM      9  C   UNL     1       8.390  -9.403   0.170  1.00  0.00    -0.000 C 
BRANCH   9  10
ATOM     10  C   UNL     1       6.995  -9.656   0.760  1.00  0.00    -0.000 C 
BRANCH  10  11
ATOM     11  C   UNL     1       7.049 -10.251   2.176  1.00  0.00    -0.003 C 
ATOM     12  C   UNL     1       5.667 -10.367   2.821  1.00  0.00     0.004 C 
ENDBRANCH  10  11
ENDBRANCH   9  10
ENDBRANCH   8   9
ENDBRANCH   7   8
ENDBRANCH   6   7
ENDBRANCH   5   6
ENDBRANCH   4   5
ENDBRANCH   3   4
ENDBRANCH   2   3
ENDBRANCH   1   2
BRANCH   1  13
ATOM     13  C   UNL     1       8.871  -5.910  -6.592  1.00  0.00     0.000 C 
BRANCH  13  14
ATOM     14  C   UNL     1       9.064  -6.063  -8.109  1.00  0.00     0.000 C 
BRANCH  14  15
ATOM     15  C   UNL     1       8.241  -7.224  -8.694  1.00  0.00     0.000 C 
BRANCH  15  16
ATOM     16  C   UNL     1       9.125  -8.333  -9.289  1.00  0.00     0.000 C 
BRANCH  16  17
ATOM     17  C   UNL     1       8.980  -8.454 -10.813  1.00  0.00     0.000 C 
BRANCH  17  18
ATOM     18  C   UNL     1       7.503  -8.538 -11.218  1.00  0.00     0.000 C 
BRANCH  18  19
ATOM     19  C   UNL     1       7.113  -9.974 -11.585  1.00  0.00     0.000 C 
BRANCH  19  20
ATOM     20  C   UNL     1       7.103 -10.874 -10.339  1.00  0.00     0.006 C 
BRANCH  20  21
ATOM     21  C   UNL     1       5.682 -11.125  -9.815  1.00  0.00     0.053 C 
BRANCH  21  22
ATOM     22  C   UNL     1       5.077  -9.888  -9.228  1.00  0.00     0.041 C 
ATOM     23  O   UNL     1       4.090  -9.339  -9.785  1.00  0.00    -0.550 OA
ATOM     24  O   UNL     1       5.618  -9.329  -8.074  1.00  0.00    -0.550 OA
ENDBRANCH  21  22
ENDBRANCH  20  21
ENDBRANCH  19  20
ENDBRANCH  18  19
ENDBRANCH  17  18
ENDBRANCH  16  17
ENDBRANCH  15  16
ENDBRANCH  14  15
ENDBRANCH  13  14
ENDBRANCH   1  13
TORSDOF 20
ENDMDL
MODEL 9
REMARK VINA RESULT:    -2.708      3.953     10.342
REMARK INTER + INTRA:          -6.968
REMARK INTER:                  -5.466
REMARK INTRA:                  -1.502
REMARK UNBOUND:                -1.093
REMARK SMILES CCCCCCCCCCCCCCCCCCCCCC(=O)[O-]
REMARK SMILES IDX 12 1 11 2 10 3 9 4 8 5 7 6 6 7 5 8 4 9 3 10 2 11 1 12 13 13
REMARK SMILES IDX 14 14 15 15 16 16 17 17 18 18 19 19 20 20 21 21 22 22 23 23
REMARK SMILES IDX 24 24
REMARK H PARENT
REMARK Flexibility Score: inf
ROOT
ATOM      1  C   UNL     1       8.086  -9.036  -3.721  1.00  0.00     0.000 C 
ENDROOT
BRANCH   1   2
ATOM      2  C   UNL     1       8.290  -7.917  -2.687  1.00  0.00     0.000 C 
BRANCH   2   3
ATOM      3  C   UNL     1       7.848  -8.323  -1.273  1.00  0.00     0.000 C 
BRANCH   3   4
ATOM      4  C   UNL     1       8.771  -9.413  -0.704  1.00  0.00    -0.000 C 
BRANCH   4   5
ATOM      5  C   UNL     1       8.020 -10.445   0.153  1.00  0.00    -0.000 C 
BRANCH   5   6
ATOM      6  C   UNL     1       8.820 -10.887   1.389  1.00  0.00    -0.000 C 
BRANCH   6   7
ATOM      7  C   UNL     1       7.959 -10.962   2.661  1.00  0.00    -0.000 C 
BRANCH   7   8
ATOM      8  C   UNL     1       6.542 -10.376   2.484  1.00  0.00    -0.000 C 
BRANCH   8   9
ATOM      9  C   UNL     1       5.851 -10.107   3.830  1.00  0.00    -0.000 C 
BRANCH   9  10
ATOM     10  C   UNL     1       4.582 -10.959   3.976  1.00  0.00    -0.000 C 
BRANCH  10  11
ATOM     11  C   UNL     1       3.297 -10.116   3.964  1.00  0.00    -0.003 C 
ATOM     12  C   UNL     1       3.451  -8.793   4.716  1.00  0.00     0.004 C 
ENDBRANCH  10  11
ENDBRANCH   9  10
ENDBRANCH   8   9
ENDBRANCH   7   8
ENDBRANCH   6   7
ENDBRANCH   5   6
ENDBRANCH   4   5
ENDBRANCH   3   4
ENDBRANCH   2   3
ENDBRANCH   1   2
BRANCH   1  13
ATOM     13  C   UNL     1       8.074  -8.510  -5.168  1.00  0.00     0.000 C 
BRANCH  13  14
ATOM     14  C   UNL     1       9.040  -9.282  -6.082  1.00  0.00     0.000 C 
BRANCH  14  15
ATOM     15  C   UNL     1       8.316  -9.986  -7.243  1.00  0.00     0.000 C 
BRANCH  15  16
ATOM     16  C   UNL     1       8.819  -9.521  -8.620  1.00  0.00     0.000 C 
BRANCH  16  17
ATOM     17  C   UNL     1       7.799  -8.645  -9.361  1.00  0.00     0.000 C 
BRANCH  17  18
ATOM     18  C   UNL     1       8.451  -7.352  -9.865  1.00  0.00     0.000 C 
BRANCH  18  19
ATOM     19  C   UNL     1       9.125  -6.591  -8.717  1.00  0.00     0.000 C 
BRANCH  19  20
ATOM     20  C   UNL     1       8.077  -5.999  -7.762  1.00  0.00     0.006 C 
BRANCH  20  21
ATOM     21  C   UNL     1       8.699  -5.039  -6.739  1.00  0.00     0.053 C 
BRANCH  21  22
ATOM     22  C   UNL     1       7.730  -3.988  -6.297  1.00  0.00     0.041 C 
ATOM     23  O   UNL     1       7.434  -3.034  -7.065  1.00  0.00    -0.550 OA
ATOM     24  O   UNL     1       7.169  -4.049  -5.025  1.00  0.00    -0.550 OA
ENDBRANCH  21  22
ENDBRANCH  20  21
ENDBRANCH  19  20
ENDBRANCH  18  19
ENDBRANCH  17  18
ENDBRANCH  16  17
ENDBRANCH  15  16
ENDBRANCH  14  15
ENDBRANCH  13  14
ENDBRANCH   1  13
TORSDOF 20
ENDMDL
