MODEL 1
REMARK VINA RESULT:    -7.003      0.000      0.000
REMARK INTER + INTRA:          -8.788
REMARK INTER:                  -8.027
REMARK INTRA:                  -0.762
REMARK UNBOUND:                -0.762
REMARK SMILES C=C(C)[C@@H]1CC[C@@]2(C(=O)[O-])CC[C@]3(C)[C@@H](CC[C@@H]4[C@]5(C)CC[C@H](O)C(C)(C)[C@@H]5CC[C@]43C)[C@@H]12
REMARK SMILES IDX 7 1 6 2 33 3 11 4 5 5 15 6 4 7 12 8 16 9 13 10 17 11 31 12
REMARK SMILES IDX 14 13 18 14 30 15 32 16 19 17 29 18 21 19 20 20 28 21 22 22
REMARK SMILES IDX 25 23 23 24 26 25 27 26 8 27 9 28 10 29 2 30 3 31 1 32 24 33
REMARK H PARENT 24 34
REMARK Flexibility Score: inf
ROOT
ATOM      1  C   UNL     1      27.963  15.950 -52.364  1.00  0.00     0.014 C 
ATOM      2  C   UNL     1      28.336  17.379 -52.838  1.00  0.00     0.014 C 
ATOM      3  C   UNL     1      29.059  15.000 -52.960  1.00  0.00     0.012 C 
ATOM      4  C   UNL     1      26.547  15.587 -52.886  1.00  0.00     0.014 C 
ATOM      5  C   UNL     1      29.402  17.251 -53.917  1.00  0.00     0.009 C 
ATOM      6  C   UNL     1      28.500  13.787 -53.798  1.00  0.00     0.000 C 
ATOM      7  C   UNL     1      30.071  15.887 -53.733  1.00  0.00     0.018 C 
ATOM      8  C   UNL     1      26.172  14.088 -52.808  1.00  0.00     0.008 C 
ATOM      9  C   UNL     1      28.123  14.164 -55.278  1.00  0.00     0.005 C 
ATOM     10  C   UNL     1      27.330  13.027 -53.059  1.00  0.00    -0.024 C 
ATOM     11  C   UNL     1      27.066  13.244 -55.912  1.00  0.00     0.005 C 
ATOM     12  C   UNL     1      26.850  11.689 -53.907  1.00  0.00    -0.024 C 
ATOM     13  C   UNL     1      27.819  12.580 -51.644  1.00  0.00     0.012 C 
ATOM     14  C   UNL     1      27.304  11.804 -55.415  1.00  0.00     0.002 C 
ATOM     15  C   UNL     1      27.537  10.373 -53.421  1.00  0.00     0.008 C 
ATOM     16  C   UNL     1      25.308  11.497 -53.721  1.00  0.00     0.012 C 
ATOM     17  C   UNL     1      27.007  10.613 -56.428  1.00  0.00    -0.026 C 
ATOM     18  C   UNL     1      27.193   9.127 -54.259  1.00  0.00     0.005 C 
ATOM     19  C   UNL     1      25.518  10.582 -56.873  1.00  0.00     0.010 C 
ATOM     20  C   UNL     1      27.879  10.888 -57.703  1.00  0.00     0.012 C 
ATOM     21  C   UNL     1      27.466   9.224 -55.792  1.00  0.00     0.003 C 
ATOM     22  C   UNL     1      25.172   9.370 -57.739  1.00  0.00     0.033 C 
ATOM     23  C   UNL     1      26.956   7.910 -56.568  1.00  0.00    -0.006 C 
ATOM     24  C   UNL     1      25.459   8.049 -57.002  1.00  0.00     0.120 C 
ATOM     25  C   UNL     1      27.088   6.629 -55.685  1.00  0.00     0.014 C 
ATOM     26  C   UNL     1      27.836   7.600 -57.825  1.00  0.00     0.014 C 
ENDROOT
BRANCH   1  27
ATOM     27  C   UNL     1      27.976  15.938 -50.835  1.00  0.00     0.048 C 
ATOM     28  O   UNL     1      29.013  15.590 -50.210  1.00  0.00    -0.550 OA
ATOM     29  O   UNL     1      26.862  16.337 -50.102  1.00  0.00    -0.550 OA
ENDBRANCH   1  27
BRANCH   7  30
ATOM     30  C   UNL     1      31.438  15.958 -53.046  1.00  0.00    -0.077 C 
ATOM     31  C   UNL     1      31.935  14.771 -52.259  1.00  0.00     0.039 C 
ATOM     32  C   UNL     1      32.209  17.058 -53.088  1.00  0.00     0.008 C 
ENDBRANCH   7  30
BRANCH  24  33
ATOM     33  O   UNL     1      24.612   7.948 -55.884  1.00  0.00    -0.393 OA
ATOM     34  H   UNL     1      24.634   7.000 -55.586  1.00  0.00     0.210 HD
ENDBRANCH  24  33
TORSDOF 3
ENDMDL
MODEL 2
REMARK VINA RESULT:    -6.776      4.245      6.150
REMARK INTER + INTRA:          -8.527
REMARK INTER:                  -7.900
REMARK INTRA:                  -0.627
REMARK UNBOUND:                -0.762
REMARK SMILES C=C(C)[C@@H]1CC[C@@]2(C(=O)[O-])CC[C@]3(C)[C@@H](CC[C@@H]4[C@]5(C)CC[C@H](O)C(C)(C)[C@@H]5CC[C@]43C)[C@@H]12
REMARK SMILES IDX 7 1 6 2 33 3 11 4 5 5 15 6 4 7 12 8 16 9 13 10 17 11 31 12
REMARK SMILES IDX 14 13 18 14 30 15 32 16 19 17 29 18 21 19 20 20 28 21 22 22
REMARK SMILES IDX 25 23 23 24 26 25 27 26 8 27 9 28 10 29 2 30 3 31 1 32 24 33
REMARK H PARENT 24 34
REMARK Flexibility Score: inf
ROOT
ATOM      1  C   UNL     1      28.182  14.905 -52.161  1.00  0.00     0.014 C 
ATOM      2  C   UNL     1      27.679  15.463 -53.518  1.00  0.00     0.014 C 
ATOM      3  C   UNL     1      29.747  14.976 -52.220  1.00  0.00     0.012 C 
ATOM      4  C   UNL     1      27.682  13.446 -51.987  1.00  0.00     0.014 C 
ATOM      5  C   UNL     1      28.875  15.559 -54.455  1.00  0.00     0.009 C 
ATOM      6  C   UNL     1      30.484  13.616 -51.914  1.00  0.00     0.000 C 
ATOM      7  C   UNL     1      30.132  15.608 -53.584  1.00  0.00     0.018 C 
ATOM      8  C   UNL     1      28.378  12.631 -50.871  1.00  0.00     0.008 C 
ATOM      9  C   UNL     1      30.552  12.644 -53.149  1.00  0.00     0.005 C 
ATOM     10  C   UNL     1      29.926  12.901 -50.622  1.00  0.00    -0.024 C 
ATOM     11  C   UNL     1      30.693  11.160 -52.774  1.00  0.00     0.005 C 
ATOM     12  C   UNL     1      30.800  11.543 -50.259  1.00  0.00    -0.024 C 
ATOM     13  C   UNL     1      30.001  13.889 -49.413  1.00  0.00     0.012 C 
ATOM     14  C   UNL     1      31.597  11.049 -51.530  1.00  0.00     0.002 C 
ATOM     15  C   UNL     1      31.922  11.797 -49.203  1.00  0.00     0.008 C 
ATOM     16  C   UNL     1      29.837  10.467 -49.655  1.00  0.00     0.012 C 
ATOM     17  C   UNL     1      32.558   9.785 -51.423  1.00  0.00    -0.026 C 
ATOM     18  C   UNL     1      32.822  10.579 -48.924  1.00  0.00     0.005 C 
ATOM     19  C   UNL     1      31.765   8.449 -51.393  1.00  0.00     0.010 C 
ATOM     20  C   UNL     1      33.438   9.788 -52.722  1.00  0.00     0.012 C 
ATOM     21  C   UNL     1      33.522   9.933 -50.160  1.00  0.00     0.003 C 
ATOM     22  C   UNL     1      32.653   7.226 -51.155  1.00  0.00     0.033 C 
ATOM     23  C   UNL     1      34.333   8.605 -49.754  1.00  0.00    -0.006 C 
ATOM     24  C   UNL     1      33.421   7.335 -49.825  1.00  0.00     0.120 C 
ATOM     25  C   UNL     1      34.917   8.702 -48.309  1.00  0.00     0.014 C 
ATOM     26  C   UNL     1      35.591   8.393 -50.661  1.00  0.00     0.014 C 
ENDROOT
BRANCH   1  27
ATOM     27  C   UNL     1      27.618  15.787 -51.046  1.00  0.00     0.048 C 
ATOM     28  O   UNL     1      26.456  15.587 -50.603  1.00  0.00    -0.550 OA
ATOM     29  O   UNL     1      28.379  16.805 -50.478  1.00  0.00    -0.550 OA
ENDBRANCH   1  27
BRANCH   7  30
ATOM     30  C   UNL     1      30.726  17.011 -53.437  1.00  0.00    -0.077 C 
ATOM     31  C   UNL     1      32.188  17.167 -53.101  1.00  0.00     0.039 C 
ATOM     32  C   UNL     1      29.984  18.125 -53.564  1.00  0.00     0.008 C 
ENDBRANCH   7  30
BRANCH  24  33
ATOM     33  O   UNL     1      32.503   7.328 -48.759  1.00  0.00    -0.393 OA
ATOM     34  H   UNL     1      31.891   6.559 -48.906  1.00  0.00     0.210 HD
ENDBRANCH  24  33
TORSDOF 3
ENDMDL
MODEL 3
REMARK VINA RESULT:    -6.424      3.692      8.080
REMARK INTER + INTRA:          -8.124
REMARK INTER:                  -7.356
REMARK INTRA:                  -0.768
REMARK UNBOUND:                -0.762
REMARK SMILES C=C(C)[C@@H]1CC[C@@]2(C(=O)[O-])CC[C@]3(C)[C@@H](CC[C@@H]4[C@]5(C)CC[C@H](O)C(C)(C)[C@@H]5CC[C@]43C)[C@@H]12
REMARK SMILES IDX 7 1 6 2 33 3 11 4 5 5 15 6 4 7 12 8 16 9 13 10 17 11 31 12
REMARK SMILES IDX 14 13 18 14 30 15 32 16 19 17 29 18 21 19 20 20 28 21 22 22
REMARK SMILES IDX 25 23 23 24 26 25 27 26 8 27 9 28 10 29 2 30 3 31 1 32 24 33
REMARK H PARENT 24 34
REMARK Flexibility Score: inf
ROOT
ATOM      1  C   UNL     1      33.008   9.576 -53.415  1.00  0.00     0.014 C 
ATOM      2  C   UNL     1      33.458   8.792 -54.675  1.00  0.00     0.014 C 
ATOM      3  C   UNL     1      31.448   9.699 -53.520  1.00  0.00     0.012 C 
ATOM      4  C   UNL     1      33.692  10.969 -53.404  1.00  0.00     0.014 C 
ATOM      5  C   UNL     1      32.278   8.732 -55.635  1.00  0.00     0.009 C 
ATOM      6  C   UNL     1      30.891  11.170 -53.408  1.00  0.00     0.000 C 
ATOM      7  C   UNL     1      31.009   8.955 -54.809  1.00  0.00     0.018 C 
ATOM      8  C   UNL     1      33.088  12.001 -52.421  1.00  0.00     0.008 C 
ATOM      9  C   UNL     1      30.974  11.979 -54.755  1.00  0.00     0.005 C 
ATOM     10  C   UNL     1      31.514  11.964 -52.195  1.00  0.00    -0.024 C 
ATOM     11  C   UNL     1      31.023  13.505 -54.570  1.00  0.00     0.005 C 
ATOM     12  C   UNL     1      30.820  13.458 -52.032  1.00  0.00    -0.024 C 
ATOM     13  C   UNL     1      31.287  11.155 -50.878  1.00  0.00     0.012 C 
ATOM     14  C   UNL     1      30.119  13.887 -53.381  1.00  0.00     0.002 C 
ATOM     15  C   UNL     1      29.654  13.485 -50.993  1.00  0.00     0.008 C 
ATOM     16  C   UNL     1      31.904  14.469 -51.531  1.00  0.00     0.012 C 
ATOM     17  C   UNL     1      29.330  15.266 -53.464  1.00  0.00    -0.026 C 
ATOM     18  C   UNL     1      28.917  14.834 -50.897  1.00  0.00     0.005 C 
ATOM     19  C   UNL     1      30.291  16.483 -53.570  1.00  0.00     0.010 C 
ATOM     20  C   UNL     1      28.482  15.213 -54.782  1.00  0.00     0.012 C 
ATOM     21  C   UNL     1      28.332  15.403 -52.226  1.00  0.00     0.003 C 
ATOM     22  C   UNL     1      29.567  17.830 -53.514  1.00  0.00     0.033 C 
ATOM     23  C   UNL     1      27.695  16.865 -52.015  1.00  0.00    -0.006 C 
ATOM     24  C   UNL     1      28.767  17.988 -52.208  1.00  0.00     0.120 C 
ATOM     25  C   UNL     1      27.076  17.027 -50.590  1.00  0.00     0.014 C 
ATOM     26  C   UNL     1      26.493  17.120 -52.984  1.00  0.00     0.014 C 
ENDROOT
BRANCH   1  27
ATOM     27  C   UNL     1      33.430   8.776 -52.182  1.00  0.00     0.048 C 
ATOM     28  O   UNL     1      32.638   7.949 -51.658  1.00  0.00    -0.550 OA
ATOM     29  O   UNL     1      34.701   8.919 -51.631  1.00  0.00    -0.550 OA
ENDBRANCH   1  27
BRANCH   7  30
ATOM     30  C   UNL     1      30.233   7.669 -54.512  1.00  0.00    -0.077 C 
ATOM     31  C   UNL     1      29.450   7.555 -53.228  1.00  0.00     0.039 C 
ATOM     32  C   UNL     1      30.246   6.612 -55.342  1.00  0.00     0.008 C 
ENDBRANCH   7  30
BRANCH  24  33
ATOM     33  O   UNL     1      29.657  18.012 -51.120  1.00  0.00    -0.393 OA
ATOM     34  H   UNL     1      30.561  17.806 -51.478  1.00  0.00     0.210 HD
ENDBRANCH  24  33
TORSDOF 3
ENDMDL
MODEL 4
REMARK VINA RESULT:    -6.344      3.861      7.999
REMARK INTER + INTRA:          -8.033
REMARK INTER:                  -7.432
REMARK INTRA:                  -0.601
REMARK UNBOUND:                -0.762
REMARK SMILES C=C(C)[C@@H]1CC[C@@]2(C(=O)[O-])CC[C@]3(C)[C@@H](CC[C@@H]4[C@]5(C)CC[C@H](O)C(C)(C)[C@@H]5CC[C@]43C)[C@@H]12
REMARK SMILES IDX 7 1 6 2 33 3 11 4 5 5 15 6 4 7 12 8 16 9 13 10 17 11 31 12
REMARK SMILES IDX 14 13 18 14 30 15 32 16 19 17 29 18 21 19 20 20 28 21 22 22
REMARK SMILES IDX 25 23 23 24 26 25 27 26 8 27 9 28 10 29 2 30 3 31 1 32 24 33
REMARK H PARENT 24 34
REMARK Flexibility Score: inf
ROOT
ATOM      1  C   UNL     1      28.899  14.191 -53.588  1.00  0.00     0.014 C 
ATOM      2  C   UNL     1      30.289  13.773 -54.135  1.00  0.00     0.014 C 
ATOM      3  C   UNL     1      29.171  15.336 -52.552  1.00  0.00     0.012 C 
ATOM      4  C   UNL     1      28.220  12.965 -52.920  1.00  0.00     0.014 C 
ATOM      5  C   UNL     1      31.351  14.404 -53.246  1.00  0.00     0.009 C 
ATOM      6  C   UNL     1      28.552  15.097 -51.122  1.00  0.00     0.000 C 
ATOM      7  C   UNL     1      30.701  15.597 -52.540  1.00  0.00     0.018 C 
ATOM      8  C   UNL     1      27.002  13.286 -52.022  1.00  0.00     0.008 C 
ATOM      9  C   UNL     1      29.422  14.159 -50.207  1.00  0.00     0.005 C 
ATOM     10  C   UNL     1      27.043  14.638 -51.184  1.00  0.00    -0.024 C 
ATOM     11  C   UNL     1      28.625  13.437 -49.108  1.00  0.00     0.005 C 
ATOM     12  C   UNL     1      26.387  14.515 -49.669  1.00  0.00    -0.024 C 
ATOM     13  C   UNL     1      26.221  15.680 -52.008  1.00  0.00     0.012 C 
ATOM     14  C   UNL     1      27.530  14.388 -48.586  1.00  0.00     0.002 C 
ATOM     15  C   UNL     1      25.611  15.797 -49.229  1.00  0.00     0.008 C 
ATOM     16  C   UNL     1      25.364  13.331 -49.654  1.00  0.00     0.012 C 
ATOM     17  C   UNL     1      27.156  14.310 -47.041  1.00  0.00    -0.026 C 
ATOM     18  C   UNL     1      25.080  15.755 -47.783  1.00  0.00     0.005 C 
ATOM     19  C   UNL     1      26.614  12.909 -46.641  1.00  0.00     0.010 C 
ATOM     20  C   UNL     1      28.490  14.548 -46.251  1.00  0.00     0.012 C 
ATOM     21  C   UNL     1      26.132  15.474 -46.665  1.00  0.00     0.003 C 
ATOM     22  C   UNL     1      26.120  12.845 -45.195  1.00  0.00     0.033 C 
ATOM     23  C   UNL     1      25.437  15.338 -45.221  1.00  0.00    -0.006 C 
ATOM     24  C   UNL     1      24.996  13.864 -44.936  1.00  0.00     0.120 C 
ATOM     25  C   UNL     1      24.178  16.254 -45.095  1.00  0.00     0.014 C 
ATOM     26  C   UNL     1      26.382  15.829 -44.074  1.00  0.00     0.014 C 
ENDROOT
BRANCH   1  27
ATOM     27  C   UNL     1      28.054  14.681 -54.764  1.00  0.00     0.048 C 
ATOM     28  O   UNL     1      28.069  15.896 -55.095  1.00  0.00    -0.550 OA
ATOM     29  O   UNL     1      27.276  13.799 -55.510  1.00  0.00    -0.550 OA
ENDBRANCH   1  27
BRANCH   7  30
ATOM     30  C   UNL     1      31.073  16.951 -53.150  1.00  0.00    -0.077 C 
ATOM     31  C   UNL     1      32.522  17.364 -53.215  1.00  0.00     0.039 C 
ATOM     32  C   UNL     1      30.148  17.813 -53.607  1.00  0.00     0.008 C 
ENDBRANCH   7  30
BRANCH  24  33
ATOM     33  O   UNL     1      23.875  13.526 -45.716  1.00  0.00    -0.393 OA
ATOM     34  H   UNL     1      23.862  12.536 -45.794  1.00  0.00     0.210 HD
ENDBRANCH  24  33
TORSDOF 3
ENDMDL
MODEL 5
REMARK VINA RESULT:    -6.303      4.279      6.354
REMARK INTER + INTRA:          -7.985
REMARK INTER:                  -7.490
REMARK INTRA:                  -0.495
REMARK UNBOUND:                -0.762
REMARK SMILES C=C(C)[C@@H]1CC[C@@]2(C(=O)[O-])CC[C@]3(C)[C@@H](CC[C@@H]4[C@]5(C)CC[C@H](O)C(C)(C)[C@@H]5CC[C@]43C)[C@@H]12
REMARK SMILES IDX 7 1 6 2 33 3 11 4 5 5 15 6 4 7 12 8 16 9 13 10 17 11 31 12
REMARK SMILES IDX 14 13 18 14 30 15 32 16 19 17 29 18 21 19 20 20 28 21 22 22
REMARK SMILES IDX 25 23 23 24 26 25 27 26 8 27 9 28 10 29 2 30 3 31 1 32 24 33
REMARK H PARENT 24 34
REMARK Flexibility Score: inf
ROOT
ATOM      1  C   UNL     1      27.890  13.872 -53.331  1.00  0.00     0.014 C 
ATOM      2  C   UNL     1      27.539  14.717 -54.584  1.00  0.00     0.014 C 
ATOM      3  C   UNL     1      29.254  14.435 -52.802  1.00  0.00     0.012 C 
ATOM      4  C   UNL     1      28.005  12.377 -53.734  1.00  0.00     0.014 C 
ATOM      5  C   UNL     1      28.774  15.519 -54.968  1.00  0.00     0.009 C 
ATOM      6  C   UNL     1      30.388  13.355 -52.614  1.00  0.00     0.000 C 
ATOM      7  C   UNL     1      29.656  15.618 -53.722  1.00  0.00     0.018 C 
ATOM      8  C   UNL     1      28.689  11.458 -52.695  1.00  0.00     0.008 C 
ATOM      9  C   UNL     1      31.138  12.991 -53.949  1.00  0.00     0.005 C 
ATOM     10  C   UNL     1      29.884  12.074 -51.843  1.00  0.00    -0.024 C 
ATOM     11  C   UNL     1      31.781  11.594 -53.946  1.00  0.00     0.005 C 
ATOM     12  C   UNL     1      31.124  11.017 -51.555  1.00  0.00    -0.024 C 
ATOM     13  C   UNL     1      29.261  12.506 -50.477  1.00  0.00     0.012 C 
ATOM     14  C   UNL     1      32.329  11.305 -52.535  1.00  0.00     0.002 C 
ATOM     15  C   UNL     1      31.760  11.185 -50.139  1.00  0.00     0.008 C 
ATOM     16  C   UNL     1      30.574   9.554 -51.640  1.00  0.00     0.012 C 
ATOM     17  C   UNL     1      33.669  10.454 -52.420  1.00  0.00    -0.026 C 
ATOM     18  C   UNL     1      32.987  10.289 -49.880  1.00  0.00     0.005 C 
ATOM     19  C   UNL     1      33.510   9.031 -53.026  1.00  0.00     0.010 C 
ATOM     20  C   UNL     1      34.749  11.213 -53.266  1.00  0.00     0.012 C 
ATOM     21  C   UNL     1      34.159  10.403 -50.903  1.00  0.00     0.003 C 
ATOM     22  C   UNL     1      34.737   8.144 -52.809  1.00  0.00     0.033 C 
ATOM     23  C   UNL     1      35.322   9.336 -50.591  1.00  0.00    -0.006 C 
ATOM     24  C   UNL     1      35.055   7.974 -51.312  1.00  0.00     0.120 C 
ATOM     25  C   UNL     1      35.456   9.057 -49.060  1.00  0.00     0.014 C 
ATOM     26  C   UNL     1      36.731   9.877 -51.005  1.00  0.00     0.014 C 
ENDROOT
BRANCH   1  27
ATOM     27  C   UNL     1      26.768  14.053 -52.308  1.00  0.00     0.048 C 
ATOM     28  O   UNL     1      26.861  14.933 -51.411  1.00  0.00    -0.550 OA
ATOM     29  O   UNL     1      25.614  13.276 -52.359  1.00  0.00    -0.550 OA
ENDBRANCH   1  27
BRANCH   7  30
ATOM     30  C   UNL     1      29.570  16.972 -53.012  1.00  0.00    -0.077 C 
ATOM     31  C   UNL     1      29.060  17.036 -51.594  1.00  0.00     0.039 C 
ATOM     32  C   UNL     1      29.905  18.125 -53.617  1.00  0.00     0.008 C 
ENDBRANCH   7  30
BRANCH  24  33
ATOM     33  O   UNL     1      33.998   7.286 -50.689  1.00  0.00    -0.393 OA
ATOM     34  H   UNL     1      34.405   6.599 -50.098  1.00  0.00     0.210 HD
ENDBRANCH  24  33
TORSDOF 3
ENDMDL
MODEL 6
REMARK VINA RESULT:    -6.148      4.855      7.854
REMARK INTER + INTRA:          -7.808
REMARK INTER:                  -7.411
REMARK INTRA:                  -0.397
REMARK UNBOUND:                -0.762
REMARK SMILES C=C(C)[C@@H]1CC[C@@]2(C(=O)[O-])CC[C@]3(C)[C@@H](CC[C@@H]4[C@]5(C)CC[C@H](O)C(C)(C)[C@@H]5CC[C@]43C)[C@@H]12
REMARK SMILES IDX 7 1 6 2 33 3 11 4 5 5 15 6 4 7 12 8 16 9 13 10 17 11 31 12
REMARK SMILES IDX 14 13 18 14 30 15 32 16 19 17 29 18 21 19 20 20 28 21 22 22
REMARK SMILES IDX 25 23 23 24 26 25 27 26 8 27 9 28 10 29 2 30 3 31 1 32 24 33
REMARK H PARENT 24 34
REMARK Flexibility Score: inf
ROOT
ATOM      1  C   UNL     1      35.031   9.497 -51.674  1.00  0.00     0.014 C 
ATOM      2  C   UNL     1      36.501   9.824 -51.305  1.00  0.00     0.014 C 
ATOM      3  C   UNL     1      34.674  10.427 -52.884  1.00  0.00     0.012 C 
ATOM      4  C   UNL     1      34.118   9.776 -50.449  1.00  0.00     0.014 C 
ATOM      5  C   UNL     1      36.895  11.098 -52.038  1.00  0.00     0.009 C 
ATOM      6  C   UNL     1      33.379  11.305 -52.686  1.00  0.00     0.000 C 
ATOM      7  C   UNL     1      35.945  11.249 -53.228  1.00  0.00     0.018 C 
ATOM      8  C   UNL     1      32.602   9.842 -50.750  1.00  0.00     0.008 C 
ATOM      9  C   UNL     1      33.625  12.611 -51.845  1.00  0.00     0.005 C 
ATOM     10  C   UNL     1      32.156  10.467 -52.143  1.00  0.00    -0.024 C 
ATOM     11  C   UNL     1      32.370  13.150 -51.138  1.00  0.00     0.005 C 
ATOM     12  C   UNL     1      30.783  11.387 -52.063  1.00  0.00    -0.024 C 
ATOM     13  C   UNL     1      31.898   9.256 -53.095  1.00  0.00     0.012 C 
ATOM     14  C   UNL     1      31.152  12.923 -52.054  1.00  0.00     0.002 C 
ATOM     15  C   UNL     1      29.869  11.241 -53.322  1.00  0.00     0.008 C 
ATOM     16  C   UNL     1      29.937  10.931 -50.828  1.00  0.00     0.012 C 
ATOM     17  C   UNL     1      29.997  14.018 -52.036  1.00  0.00    -0.026 C 
ATOM     18  C   UNL     1      28.637  12.165 -53.326  1.00  0.00     0.005 C 
ATOM     19  C   UNL     1      29.349  14.160 -50.631  1.00  0.00     0.010 C 
ATOM     20  C   UNL     1      30.680  15.386 -52.386  1.00  0.00     0.012 C 
ATOM     21  C   UNL     1      28.913  13.692 -53.161  1.00  0.00     0.003 C 
ATOM     22  C   UNL     1      28.147  15.106 -50.614  1.00  0.00     0.033 C 
ATOM     23  C   UNL     1      27.545  14.533 -53.062  1.00  0.00    -0.006 C 
ATOM     24  C   UNL     1      27.046  14.639 -51.583  1.00  0.00     0.120 C 
ATOM     25  C   UNL     1      26.406  13.888 -53.913  1.00  0.00     0.014 C 
ATOM     26  C   UNL     1      27.703  15.970 -53.662  1.00  0.00     0.014 C 
ENDROOT
BRANCH   1  27
ATOM     27  C   UNL     1      34.955   8.018 -52.057  1.00  0.00     0.048 C 
ATOM     28  O   UNL     1      34.758   7.680 -53.254  1.00  0.00    -0.550 OA
ATOM     29  O   UNL     1      35.130   7.017 -51.105  1.00  0.00    -0.550 OA
ENDBRANCH   1  27
BRANCH   7  30
ATOM     30  C   UNL     1      36.565  10.842 -54.568  1.00  0.00    -0.077 C 
ATOM     31  C   UNL     1      37.291  11.875 -55.394  1.00  0.00     0.039 C 
ATOM     32  C   UNL     1      36.461   9.596 -55.060  1.00  0.00     0.008 C 
ENDBRANCH   7  30
BRANCH  24  33
ATOM     33  O   UNL     1      26.538  13.402 -51.145  1.00  0.00    -0.393 OA
ATOM     34  H   UNL     1      26.354  13.491 -50.172  1.00  0.00     0.210 HD
ENDBRANCH  24  33
TORSDOF 3
ENDMDL
MODEL 7
REMARK VINA RESULT:    -5.884      4.616      8.154
REMARK INTER + INTRA:          -7.506
REMARK INTER:                  -7.114
REMARK INTRA:                  -0.391
REMARK UNBOUND:                -0.762
REMARK SMILES C=C(C)[C@@H]1CC[C@@]2(C(=O)[O-])CC[C@]3(C)[C@@H](CC[C@@H]4[C@]5(C)CC[C@H](O)C(C)(C)[C@@H]5CC[C@]43C)[C@@H]12
REMARK SMILES IDX 7 1 6 2 33 3 11 4 5 5 15 6 4 7 12 8 16 9 13 10 17 11 31 12
REMARK SMILES IDX 14 13 18 14 30 15 32 16 19 17 29 18 21 19 20 20 28 21 22 22
REMARK SMILES IDX 25 23 23 24 26 25 27 26 8 27 9 28 10 29 2 30 3 31 1 32 24 33
REMARK H PARENT 24 34
REMARK Flexibility Score: inf
ROOT
ATOM      1  C   UNL     1      32.722   8.588 -51.736  1.00  0.00     0.014 C 
ATOM      2  C   UNL     1      32.451   7.390 -50.790  1.00  0.00     0.014 C 
ATOM      3  C   UNL     1      32.857   9.846 -50.810  1.00  0.00     0.012 C 
ATOM      4  C   UNL     1      31.539   8.735 -52.731  1.00  0.00     0.014 C 
ATOM      5  C   UNL     1      32.123   7.947 -49.412  1.00  0.00     0.009 C 
ATOM      6  C   UNL     1      31.912  11.051 -51.186  1.00  0.00     0.000 C 
ATOM      7  C   UNL     1      32.706   9.361 -49.343  1.00  0.00     0.018 C 
ATOM      8  C   UNL     1      31.478  10.077 -53.500  1.00  0.00     0.008 C 
ATOM      9  C   UNL     1      30.445  10.895 -50.640  1.00  0.00     0.005 C 
ATOM     10  C   UNL     1      31.943  11.388 -52.728  1.00  0.00    -0.024 C 
ATOM     11  C   UNL     1      29.389  11.674 -51.444  1.00  0.00     0.005 C 
ATOM     12  C   UNL     1      31.039  12.731 -53.071  1.00  0.00    -0.024 C 
ATOM     13  C   UNL     1      33.419  11.646 -53.169  1.00  0.00     0.012 C 
ATOM     14  C   UNL     1      30.007  13.008 -51.907  1.00  0.00     0.002 C 
ATOM     15  C   UNL     1      31.883  14.044 -53.127  1.00  0.00     0.008 C 
ATOM     16  C   UNL     1      30.375  12.551 -54.476  1.00  0.00     0.012 C 
ATOM     17  C   UNL     1      29.055  14.282 -51.975  1.00  0.00    -0.026 C 
ATOM     18  C   UNL     1      31.055  15.326 -53.337  1.00  0.00     0.005 C 
ATOM     19  C   UNL     1      27.882  14.080 -52.975  1.00  0.00     0.010 C 
ATOM     20  C   UNL     1      28.437  14.449 -50.543  1.00  0.00     0.012 C 
ATOM     21  C   UNL     1      29.907  15.587 -52.314  1.00  0.00     0.003 C 
ATOM     22  C   UNL     1      27.028  15.335 -53.163  1.00  0.00     0.033 C 
ATOM     23  C   UNL     1      29.046  16.887 -52.710  1.00  0.00    -0.006 C 
ATOM     24  C   UNL     1      27.869  16.520 -53.673  1.00  0.00     0.120 C 
ATOM     25  C   UNL     1      29.925  17.972 -53.409  1.00  0.00     0.014 C 
ATOM     26  C   UNL     1      28.477  17.613 -51.446  1.00  0.00     0.014 C 
ENDROOT
BRANCH   1  27
ATOM     27  C   UNL     1      34.016   8.307 -52.500  1.00  0.00     0.048 C 
ATOM     28  O   UNL     1      35.029   9.034 -52.324  1.00  0.00    -0.550 OA
ATOM     29  O   UNL     1      34.115   7.232 -53.379  1.00  0.00    -0.550 OA
ENDBRANCH   1  27
BRANCH   7  30
ATOM     30  C   UNL     1      34.015   9.451 -48.555  1.00  0.00    -0.077 C 
ATOM     31  C   UNL     1      33.990   9.939 -47.128  1.00  0.00     0.039 C 
ATOM     32  C   UNL     1      35.205   9.140 -49.097  1.00  0.00     0.008 C 
ENDBRANCH   7  30
BRANCH  24  33
ATOM     33  O   UNL     1      28.359  16.221 -54.957  1.00  0.00    -0.393 OA
ATOM     34  H   UNL     1      28.908  16.997 -55.248  1.00  0.00     0.210 HD
ENDBRANCH  24  33
TORSDOF 3
ENDMDL
MODEL 8
REMARK VINA RESULT:    -5.724      4.542      8.326
REMARK INTER + INTRA:          -7.323
REMARK INTER:                  -6.581
REMARK INTRA:                  -0.741
REMARK UNBOUND:                -0.762
REMARK SMILES C=C(C)[C@@H]1CC[C@@]2(C(=O)[O-])CC[C@]3(C)[C@@H](CC[C@@H]4[C@]5(C)CC[C@H](O)C(C)(C)[C@@H]5CC[C@]43C)[C@@H]12
REMARK SMILES IDX 7 1 6 2 33 3 11 4 5 5 15 6 4 7 12 8 16 9 13 10 17 11 31 12
REMARK SMILES IDX 14 13 18 14 30 15 32 16 19 17 29 18 21 19 20 20 28 21 22 22
REMARK SMILES IDX 25 23 23 24 26 25 27 26 8 27 9 28 10 29 2 30 3 31 1 32 24 33
REMARK H PARENT 24 34
REMARK Flexibility Score: inf
ROOT
ATOM      1  C   UNL     1      34.491   9.240 -52.369  1.00  0.00     0.014 C 
ATOM      2  C   UNL     1      35.020   8.292 -53.477  1.00  0.00     0.014 C 
ATOM      3  C   UNL     1      32.937   9.039 -52.337  1.00  0.00     0.012 C 
ATOM      4  C   UNL     1      34.873  10.704 -52.718  1.00  0.00     0.014 C 
ATOM      5  C   UNL     1      33.824   7.797 -54.278  1.00  0.00     0.009 C 
ATOM      6  C   UNL     1      32.095  10.365 -52.479  1.00  0.00     0.000 C 
ATOM      7  C   UNL     1      32.587   7.956 -53.392  1.00  0.00     0.018 C 
ATOM      8  C   UNL     1      34.126  11.796 -51.915  1.00  0.00     0.008 C 
ATOM      9  C   UNL     1      31.931  10.852 -53.966  1.00  0.00     0.005 C 
ATOM     10  C   UNL     1      32.609  11.515 -51.527  1.00  0.00    -0.024 C 
ATOM     11  C   UNL     1      31.674  12.362 -54.108  1.00  0.00     0.005 C 
ATOM     12  C   UNL     1      31.632  12.848 -51.609  1.00  0.00    -0.024 C 
ATOM     13  C   UNL     1      32.631  10.993 -50.055  1.00  0.00     0.012 C 
ATOM     14  C   UNL     1      30.781  12.823 -52.939  1.00  0.00     0.002 C 
ATOM     15  C   UNL     1      30.548  12.887 -50.485  1.00  0.00     0.008 C 
ATOM     16  C   UNL     1      32.511  14.132 -51.443  1.00  0.00     0.012 C 
ATOM     17  C   UNL     1      29.720  13.974 -53.227  1.00  0.00    -0.026 C 
ATOM     18  C   UNL     1      29.555  14.059 -50.597  1.00  0.00     0.005 C 
ATOM     19  C   UNL     1      30.401  15.295 -53.681  1.00  0.00     0.010 C 
ATOM     20  C   UNL     1      28.827  13.467 -54.412  1.00  0.00     0.012 C 
ATOM     21  C   UNL     1      28.789  14.194 -51.950  1.00  0.00     0.003 C 
ATOM     22  C   UNL     1      29.420  16.458 -53.834  1.00  0.00     0.033 C 
ATOM     23  C   UNL     1      27.877  15.519 -51.984  1.00  0.00    -0.006 C 
ATOM     24  C   UNL     1      28.681  16.751 -52.515  1.00  0.00     0.120 C 
ATOM     25  C   UNL     1      27.322  15.876 -50.568  1.00  0.00     0.014 C 
ATOM     26  C   UNL     1      26.594  15.318 -52.858  1.00  0.00     0.014 C 
ENDROOT
BRANCH   1  27
ATOM     27  C   UNL     1      35.140   8.832 -51.046  1.00  0.00     0.048 C 
ATOM     28  O   UNL     1      34.588   7.977 -50.303  1.00  0.00    -0.550 OA
ATOM     29  O   UNL     1      36.362   9.367 -50.647  1.00  0.00    -0.550 OA
ENDBRANCH   1  27
BRANCH   7  30
ATOM     30  C   UNL     1      32.112   6.646 -52.756  1.00  0.00    -0.077 C 
ATOM     31  C   UNL     1      32.496   5.332 -53.389  1.00  0.00     0.039 C 
ATOM     32  C   UNL     1      31.330   6.619 -51.663  1.00  0.00     0.008 C 
ENDBRANCH   7  30
BRANCH  24  33
ATOM     33  O   UNL     1      29.609  17.186 -51.552  1.00  0.00    -0.393 OA
ATOM     34  H   UNL     1      29.681  16.466 -50.870  1.00  0.00     0.210 HD
ENDBRANCH  24  33
TORSDOF 3
ENDMDL
