MODEL 1
REMARK VINA RESULT:    -5.063      0.000      0.000
REMARK INTER + INTRA:          -6.100
REMARK INTER:                  -5.803
REMARK INTRA:                  -0.298
REMARK UNBOUND:                -0.298
REMARK SMILES COc1ccc(C(C)=O)c(O)c1
REMARK SMILES IDX 6 1 10 2 12 3 3 4 4 5 5 6 7 7 8 8 9 9 11 10 2 12 1 13
REMARK H PARENT 11 11
REMARK Flexibility Score: inf
ROOT
ATOM      1  C   UNL     1      72.607  34.243  55.267  1.00  0.00     0.059 A 
ATOM      2  C   UNL     1      72.925  33.413  54.166  1.00  0.00     0.130 A 
ATOM      3  C   UNL     1      73.713  33.911  53.117  1.00  0.00     0.093 A 
ATOM      4  C   UNL     1      74.181  35.236  53.137  1.00  0.00     0.122 A 
ATOM      5  C   UNL     1      73.849  36.058  54.216  1.00  0.00     0.047 A 
ATOM      6  C   UNL     1      73.070  35.571  55.266  1.00  0.00     0.019 A 
ENDROOT
BRANCH   1   7
ATOM      7  C   UNL     1      71.791  33.769  56.416  1.00  0.00     0.163 C 
ATOM      8  C   UNL     1      70.439  34.333  56.729  1.00  0.00     0.093 C 
ATOM      9  O   UNL     1      72.243  32.856  57.160  1.00  0.00    -0.294 OA
ENDBRANCH   1   7
BRANCH   2  10
ATOM     10  O   UNL     1      72.445  32.106  54.095  1.00  0.00    -0.507 OA
ATOM     11  H   UNL     1      71.455  31.897  54.156  1.00  0.00     0.293 HD
ENDBRANCH   2  10
BRANCH   4  12
ATOM     12  O   UNL     1      74.971  35.773  52.108  1.00  0.00    -0.497 OA
ATOM     13  C   UNL     1      76.370  35.550  51.969  1.00  0.00     0.278 C 
ENDBRANCH   4  12
TORSDOF 3
ENDMDL
MODEL 2
REMARK VINA RESULT:    -4.183      2.364      3.741
REMARK INTER + INTRA:          -5.092
REMARK INTER:                  -4.769
REMARK INTRA:                  -0.324
REMARK UNBOUND:                -0.298
REMARK SMILES COc1ccc(C(C)=O)c(O)c1
REMARK SMILES IDX 6 1 10 2 12 3 3 4 4 5 5 6 7 7 8 8 9 9 11 10 2 12 1 13
REMARK H PARENT 11 11
REMARK Flexibility Score: inf
ROOT
ATOM      1  C   UNL     1      74.982  34.876  52.718  1.00  0.00     0.059 A 
ATOM      2  C   UNL     1      75.779  33.717  52.568  1.00  0.00     0.130 A 
ATOM      3  C   UNL     1      76.984  33.782  51.852  1.00  0.00     0.093 A 
ATOM      4  C   UNL     1      77.405  34.987  51.264  1.00  0.00     0.122 A 
ATOM      5  C   UNL     1      76.607  36.125  51.398  1.00  0.00     0.047 A 
ATOM      6  C   UNL     1      75.409  36.072  52.112  1.00  0.00     0.019 A 
ENDROOT
BRANCH   1   7
ATOM      7  C   UNL     1      73.704  34.875  53.479  1.00  0.00     0.163 C 
ATOM      8  C   UNL     1      73.483  35.740  54.682  1.00  0.00     0.093 C 
ATOM      9  O   UNL     1      72.763  34.123  53.105  1.00  0.00    -0.294 OA
ENDBRANCH   1   7
BRANCH   2  10
ATOM     10  O   UNL     1      75.371  32.496  53.105  1.00  0.00    -0.507 OA
ATOM     11  H   UNL     1      75.094  31.720  52.516  1.00  0.00     0.293 HD
ENDBRANCH   2  10
BRANCH   4  12
ATOM     12  O   UNL     1      78.603  35.095  50.540  1.00  0.00    -0.497 OA
ATOM     13  C   UNL     1      79.864  34.619  50.996  1.00  0.00     0.278 C 
ENDBRANCH   4  12
TORSDOF 3
ENDMDL
MODEL 3
REMARK VINA RESULT:    -4.178      2.264      5.639
REMARK INTER + INTRA:          -5.086
REMARK INTER:                  -4.755
REMARK INTRA:                  -0.331
REMARK UNBOUND:                -0.298
REMARK SMILES COc1ccc(C(C)=O)c(O)c1
REMARK SMILES IDX 6 1 10 2 12 3 3 4 4 5 5 6 7 7 8 8 9 9 11 10 2 12 1 13
REMARK H PARENT 11 11
REMARK Flexibility Score: inf
ROOT
ATOM      1  C   UNL     1      76.769  34.865  51.844  1.00  0.00     0.059 A 
ATOM      2  C   UNL     1      76.191  33.624  52.202  1.00  0.00     0.130 A 
ATOM      3  C   UNL     1      74.892  33.583  52.733  1.00  0.00     0.093 A 
ATOM      4  C   UNL     1      74.160  34.766  52.931  1.00  0.00     0.122 A 
ATOM      5  C   UNL     1      74.742  35.990  52.594  1.00  0.00     0.047 A 
ATOM      6  C   UNL     1      76.030  36.042  52.061  1.00  0.00     0.019 A 
ENDROOT
BRANCH   1   7
ATOM      7  C   UNL     1      78.134  34.973  51.261  1.00  0.00     0.163 C 
ATOM      8  C   UNL     1      78.460  35.920  50.147  1.00  0.00     0.093 C 
ATOM      9  O   UNL     1      79.059  34.246  51.716  1.00  0.00    -0.294 OA
ENDBRANCH   1   7
BRANCH   2  10
ATOM     10  O   UNL     1      76.904  32.435  52.055  1.00  0.00    -0.507 OA
ATOM     11  H   UNL     1      76.551  31.666  51.498  1.00  0.00     0.293 HD
ENDBRANCH   2  10
BRANCH   4  12
ATOM     12  O   UNL     1      72.860  34.769  53.459  1.00  0.00    -0.497 OA
ATOM     13  C   UNL     1      72.283  33.688  54.183  1.00  0.00     0.278 C 
ENDBRANCH   4  12
TORSDOF 3
ENDMDL
MODEL 4
REMARK VINA RESULT:    -4.035     15.935     16.433
REMARK INTER + INTRA:          -4.922
REMARK INTER:                  -4.637
REMARK INTRA:                  -0.285
REMARK UNBOUND:                -0.298
REMARK SMILES COc1ccc(C(C)=O)c(O)c1
REMARK SMILES IDX 6 1 10 2 12 3 3 4 4 5 5 6 7 7 8 8 9 9 11 10 2 12 1 13
REMARK H PARENT 11 11
REMARK Flexibility Score: inf
ROOT
ATOM      1  C   UNL     1      84.624  30.620  64.800  1.00  0.00     0.059 A 
ATOM      2  C   UNL     1      84.514  32.004  64.524  1.00  0.00     0.130 A 
ATOM      3  C   UNL     1      85.621  32.846  64.714  1.00  0.00     0.093 A 
ATOM      4  C   UNL     1      86.840  32.333  65.191  1.00  0.00     0.122 A 
ATOM      5  C   UNL     1      86.938  30.970  65.479  1.00  0.00     0.047 A 
ATOM      6  C   UNL     1      85.845  30.124  65.290  1.00  0.00     0.019 A 
ENDROOT
BRANCH   1   7
ATOM      7  C   UNL     1      83.493  29.674  64.604  1.00  0.00     0.163 C 
ATOM      8  C   UNL     1      83.700  28.206  64.387  1.00  0.00     0.093 C 
ATOM      9  O   UNL     1      82.310  30.113  64.621  1.00  0.00    -0.294 OA
ENDBRANCH   1   7
BRANCH   2  10
ATOM     10  O   UNL     1      83.309  32.552  64.087  1.00  0.00    -0.507 OA
ATOM     11  H   UNL     1      82.415  32.182  64.387  1.00  0.00     0.293 HD
ENDBRANCH   2  10
BRANCH   4  12
ATOM     12  O   UNL     1      87.970  33.140  65.394  1.00  0.00    -0.497 OA
ATOM     13  C   UNL     1      87.991  34.553  65.224  1.00  0.00     0.278 C 
ENDBRANCH   4  12
TORSDOF 3
ENDMDL
MODEL 5
REMARK VINA RESULT:    -3.976      2.832      6.231
REMARK INTER + INTRA:          -4.855
REMARK INTER:                  -4.519
REMARK INTRA:                  -0.336
REMARK UNBOUND:                -0.298
REMARK SMILES COc1ccc(C(C)=O)c(O)c1
REMARK SMILES IDX 6 1 10 2 12 3 3 4 4 5 5 6 7 7 8 8 9 9 11 10 2 12 1 13
REMARK H PARENT 11 11
REMARK Flexibility Score: inf
ROOT
ATOM      1  C   UNL     1      77.884  34.636  51.637  1.00  0.00     0.059 A 
ATOM      2  C   UNL     1      77.076  33.539  52.017  1.00  0.00     0.130 A 
ATOM      3  C   UNL     1      75.738  33.748  52.385  1.00  0.00     0.093 A 
ATOM      4  C   UNL     1      75.191  35.043  52.395  1.00  0.00     0.122 A 
ATOM      5  C   UNL     1      75.997  36.125  52.037  1.00  0.00     0.047 A 
ATOM      6  C   UNL     1      77.327  35.927  51.665  1.00  0.00     0.019 A 
ENDROOT
BRANCH   1   7
ATOM      7  C   UNL     1      79.304  34.477  51.221  1.00  0.00     0.163 C 
ATOM      8  C   UNL     1      79.819  34.979  49.907  1.00  0.00     0.093 C 
ATOM      9  O   UNL     1      80.114  33.901  51.998  1.00  0.00    -0.294 OA
ENDBRANCH   1   7
BRANCH   2  10
ATOM     10  O   UNL     1      77.598  32.246  52.056  1.00  0.00    -0.507 OA
ATOM     11  H   UNL     1      78.071  31.886  52.877  1.00  0.00     0.293 HD
ENDBRANCH   2  10
BRANCH   4  12
ATOM     12  O   UNL     1      73.858  35.295  52.756  1.00  0.00    -0.497 OA
ATOM     13  C   UNL     1      72.919  34.290  53.121  1.00  0.00     0.278 C 
ENDBRANCH   4  12
TORSDOF 3
ENDMDL
MODEL 6
REMARK VINA RESULT:    -3.442     16.675     17.133
REMARK INTER + INTRA:          -4.243
REMARK INTER:                  -3.994
REMARK INTRA:                  -0.250
REMARK UNBOUND:                -0.298
REMARK SMILES COc1ccc(C(C)=O)c(O)c1
REMARK SMILES IDX 6 1 10 2 12 3 3 4 4 5 5 6 7 7 8 8 9 9 11 10 2 12 1 13
REMARK H PARENT 11 11
REMARK Flexibility Score: inf
ROOT
ATOM      1  C   UNL     1      84.976  30.194  65.117  1.00  0.00     0.059 A 
ATOM      2  C   UNL     1      86.328  29.779  65.124  1.00  0.00     0.130 A 
ATOM      3  C   UNL     1      87.337  30.682  65.495  1.00  0.00     0.093 A 
ATOM      4  C   UNL     1      87.020  32.006  65.847  1.00  0.00     0.122 A 
ATOM      5  C   UNL     1      85.686  32.416  65.820  1.00  0.00     0.047 A 
ATOM      6  C   UNL     1      84.676  31.525  65.458  1.00  0.00     0.019 A 
ENDROOT
BRANCH   1   7
ATOM      7  C   UNL     1      83.861  29.279  64.750  1.00  0.00     0.163 C 
ATOM      8  C   UNL     1      82.500  29.780  64.375  1.00  0.00     0.093 C 
ATOM      9  O   UNL     1      84.059  28.033  64.749  1.00  0.00    -0.294 OA
ENDBRANCH   1   7
BRANCH   2  10
ATOM     10  O   UNL     1      86.681  28.485  64.743  1.00  0.00    -0.507 OA
ATOM     11  H   UNL     1      86.318  28.060  63.898  1.00  0.00     0.293 HD
ENDBRANCH   2  10
BRANCH   4  12
ATOM     12  O   UNL     1      87.998  32.940  66.223  1.00  0.00    -0.497 OA
ATOM     13  C   UNL     1      88.124  34.242  65.663  1.00  0.00     0.278 C 
ENDBRANCH   4  12
TORSDOF 3
ENDMDL
MODEL 7
REMARK VINA RESULT:    -3.281     16.760     17.523
REMARK INTER + INTRA:          -4.059
REMARK INTER:                  -3.732
REMARK INTRA:                  -0.327
REMARK UNBOUND:                -0.298
REMARK SMILES COc1ccc(C(C)=O)c(O)c1
REMARK SMILES IDX 6 1 10 2 12 3 3 4 4 5 5 6 7 7 8 8 9 9 11 10 2 12 1 13
REMARK H PARENT 11 11
REMARK Flexibility Score: inf
ROOT
ATOM      1  C   UNL     1      86.595  32.458  65.550  1.00  0.00     0.059 A 
ATOM      2  C   UNL     1      86.645  31.106  65.966  1.00  0.00     0.130 A 
ATOM      3  C   UNL     1      85.646  30.209  65.556  1.00  0.00     0.093 A 
ATOM      4  C   UNL     1      84.581  30.641  64.747  1.00  0.00     0.122 A 
ATOM      5  C   UNL     1      84.525  31.980  64.355  1.00  0.00     0.047 A 
ATOM      6  C   UNL     1      85.516  32.879  64.752  1.00  0.00     0.019 A 
ENDROOT
BRANCH   1   7
ATOM      7  C   UNL     1      87.632  33.452  65.937  1.00  0.00     0.163 C 
ATOM      8  C   UNL     1      88.118  34.513  64.998  1.00  0.00     0.093 C 
ATOM      9  O   UNL     1      88.125  33.410  67.097  1.00  0.00    -0.294 OA
ENDBRANCH   1   7
BRANCH   2  10
ATOM     10  O   UNL     1      87.666  30.653  66.801  1.00  0.00    -0.507 OA
ATOM     11  H   UNL     1      88.566  31.116  66.843  1.00  0.00     0.293 HD
ENDBRANCH   2  10
BRANCH   4  12
ATOM     12  O   UNL     1      83.563  29.777  64.316  1.00  0.00    -0.497 OA
ATOM     13  C   UNL     1      83.620  28.358  64.405  1.00  0.00     0.278 C 
ENDBRANCH   4  12
TORSDOF 3
ENDMDL
MODEL 8
REMARK VINA RESULT:    -3.010      3.530      6.849
REMARK INTER + INTRA:          -3.748
REMARK INTER:                  -3.404
REMARK INTRA:                  -0.344
REMARK UNBOUND:                -0.298
REMARK SMILES COc1ccc(C(C)=O)c(O)c1
REMARK SMILES IDX 6 1 10 2 12 3 3 4 4 5 5 6 7 7 8 8 9 9 11 10 2 12 1 13
REMARK H PARENT 11 11
REMARK Flexibility Score: inf
ROOT
ATOM      1  C   UNL     1      78.582  33.931  51.775  1.00  0.00     0.059 A 
ATOM      2  C   UNL     1      78.604  35.339  51.640  1.00  0.00     0.130 A 
ATOM      3  C   UNL     1      77.415  36.074  51.762  1.00  0.00     0.093 A 
ATOM      4  C   UNL     1      76.191  35.425  52.002  1.00  0.00     0.122 A 
ATOM      5  C   UNL     1      76.171  34.033  52.115  1.00  0.00     0.047 A 
ATOM      6  C   UNL     1      77.349  33.293  52.000  1.00  0.00     0.019 A 
ENDROOT
BRANCH   1   7
ATOM      7  C   UNL     1      79.811  33.099  51.673  1.00  0.00     0.163 C 
ATOM      8  C   UNL     1      80.129  32.010  52.652  1.00  0.00     0.093 C 
ATOM      9  O   UNL     1      80.622  33.307  50.729  1.00  0.00    -0.294 OA
ENDBRANCH   1   7
BRANCH   2  10
ATOM     10  O   UNL     1      79.794  36.012  51.363  1.00  0.00    -0.507 OA
ATOM     11  H   UNL     1      80.066  36.845  51.871  1.00  0.00     0.293 HD
ENDBRANCH   2  10
BRANCH   4  12
ATOM     12  O   UNL     1      74.980  36.122  52.129  1.00  0.00    -0.497 OA
ATOM     13  C   UNL     1      73.812  35.597  52.751  1.00  0.00     0.278 C 
ENDBRANCH   4  12
TORSDOF 3
ENDMDL
MODEL 9
REMARK VINA RESULT:    -2.984     16.518     17.012
REMARK INTER + INTRA:          -3.718
REMARK INTER:                  -3.455
REMARK INTRA:                  -0.262
REMARK UNBOUND:                -0.298
REMARK SMILES COc1ccc(C(C)=O)c(O)c1
REMARK SMILES IDX 6 1 10 2 12 3 3 4 4 5 5 6 7 7 8 8 9 9 11 10 2 12 1 13
REMARK H PARENT 11 11
REMARK Flexibility Score: inf
ROOT
ATOM      1  C   UNL     1      84.777  30.528  65.192  1.00  0.00     0.059 A 
ATOM      2  C   UNL     1      84.567  29.162  64.887  1.00  0.00     0.130 A 
ATOM      3  C   UNL     1      85.665  28.309  64.702  1.00  0.00     0.093 A 
ATOM      4  C   UNL     1      86.979  28.798  64.801  1.00  0.00     0.122 A 
ATOM      5  C   UNL     1      87.182  30.150  65.083  1.00  0.00     0.047 A 
ATOM      6  C   UNL     1      86.097  31.007  65.274  1.00  0.00     0.019 A 
ENDROOT
BRANCH   1   7
ATOM      7  C   UNL     1      83.654  31.479  65.415  1.00  0.00     0.163 C 
ATOM      8  C   UNL     1      83.291  31.989  66.776  1.00  0.00     0.093 C 
ATOM      9  O   UNL     1      82.978  31.879  64.428  1.00  0.00    -0.294 OA
ENDBRANCH   1   7
BRANCH   2  10
ATOM     10  O   UNL     1      83.277  28.653  64.743  1.00  0.00    -0.507 OA
ATOM     11  H   UNL     1      82.775  28.242  65.522  1.00  0.00     0.293 HD
ENDBRANCH   2  10
BRANCH   4  12
ATOM     12  O   UNL     1      88.105  27.978  64.623  1.00  0.00    -0.497 OA
ATOM     13  C   UNL     1      88.051  26.569  64.431  1.00  0.00     0.278 C 
ENDBRANCH   4  12
TORSDOF 3
ENDMDL
