MODEL 1
REMARK VINA RESULT:    23.306      0.000      0.000
REMARK INTER + INTRA:          34.036
REMARK INTER:                  31.481
REMARK INTRA:                   2.556
REMARK UNBOUND:                 2.556
REMARK SMILES O=c1c(-c2ccc(O)cc2)coc2c([C@@H]3O[C@@H](CO)[C@H](O)[C@@H](O)[C@H]3O)c(O)ccc12
REMARK SMILES IDX 3 1 11 2 12 3 13 4 30 5 2 6 1 7 29 8 28 9 26 10 14 11 4 12
REMARK SMILES IDX 5 13 6 14 7 15 10 16 9 17 8 18 15 20 24 21 16 22 22 23 17 24
REMARK SMILES IDX 20 25 25 26 23 28 18 30 19 31 21 33 27 35
REMARK H PARENT 8 19 25 27 23 29 19 32 21 34 27 36
REMARK Flexibility Score: inf
ROOT
ATOM      1  C   UNL     1      36.500   1.333  20.689  1.00  0.00     0.065 A 
ATOM      2  C   UNL     1      35.690   0.893  21.739  1.00  0.00     0.208 A 
ATOM      3  O   UNL     1      35.504  -0.403  21.962  1.00  0.00    -0.463 OA
ATOM      4  C   UNL     1      36.067  -1.362  21.238  1.00  0.00     0.147 A 
ATOM      5  C   UNL     1      36.954  -1.010  20.199  1.00  0.00     0.066 A 
ATOM      6  C   UNL     1      37.144   0.355  19.903  1.00  0.00     0.200 A 
ATOM      7  O   UNL     1      37.854   0.694  18.910  1.00  0.00    -0.288 OA
ATOM      8  C   UNL     1      37.616  -2.015  19.485  1.00  0.00     0.020 A 
ATOM      9  C   UNL     1      37.483  -3.345  19.875  1.00  0.00     0.047 A 
ATOM     10  C   UNL     1      36.629  -3.706  20.921  1.00  0.00     0.125 A 
ATOM     11  C   UNL     1      35.782  -2.728  21.521  1.00  0.00     0.069 A 
ENDROOT
BRANCH   1  12
ATOM     12  C   UNL     1      36.619   2.794  20.405  1.00  0.00    -0.011 A 
ATOM     13  C   UNL     1      35.540   3.659  20.684  1.00  0.00     0.013 A 
ATOM     14  C   UNL     1      35.653   5.036  20.456  1.00  0.00     0.047 A 
ATOM     15  C   UNL     1      36.827   5.572  19.922  1.00  0.00     0.115 A 
ATOM     16  C   UNL     1      37.805   3.347  19.888  1.00  0.00     0.013 A 
ATOM     17  C   UNL     1      37.903   4.721  19.633  1.00  0.00     0.047 A 
BRANCH  15  18
ATOM     18  O   UNL     1      36.916   6.944  19.682  1.00  0.00    -0.508 OA
ATOM     19  H   UNL     1      37.810   7.401  19.558  1.00  0.00     0.293 HD
ENDBRANCH  15  18
ENDBRANCH   1  12
BRANCH  11  20
ATOM     20  C   UNL     1      34.663  -3.097  22.525  1.00  0.00     0.188 C 
ATOM     21  C   UNL     1      35.083  -2.966  24.045  1.00  0.00     0.179 C 
ATOM     22  O   UNL     1      33.438  -2.413  22.278  1.00  0.00    -0.362 OA
ATOM     23  C   UNL     1      34.027  -2.234  24.889  1.00  0.00     0.177 C 
ATOM     24  C   UNL     1      33.445  -1.052  22.692  1.00  0.00     0.176 C 
ATOM     25  C   UNL     1      33.672  -0.887  24.225  1.00  0.00     0.177 C 
BRANCH  21  26
ATOM     26  O   UNL     1      35.420  -4.188  24.663  1.00  0.00    -0.387 OA
ATOM     27  H   UNL     1      34.940  -4.946  24.226  1.00  0.00     0.211 HD
ENDBRANCH  21  26
BRANCH  23  28
ATOM     28  O   UNL     1      32.871  -3.009  25.123  1.00  0.00    -0.387 OA
ATOM     29  H   UNL     1      32.658  -2.990  26.089  1.00  0.00     0.211 HD
ENDBRANCH  23  28
BRANCH  24  30
ATOM     30  C   UNL     1      32.096  -0.435  22.300  1.00  0.00     0.191 C 
BRANCH  30  31
ATOM     31  O   UNL     1      31.465  -1.231  21.332  1.00  0.00    -0.394 OA
ATOM     32  H   UNL     1      31.239  -0.630  20.569  1.00  0.00     0.210 HD
ENDBRANCH  30  31
ENDBRANCH  24  30
BRANCH  25  33
ATOM     33  O   UNL     1      34.725   0.035  24.429  1.00  0.00    -0.388 OA
ATOM     34  H   UNL     1      35.036   0.322  23.531  1.00  0.00     0.211 HD
ENDBRANCH  25  33
ENDBRANCH  11  20
BRANCH  10  35
ATOM     35  O   UNL     1      36.706  -5.030  21.362  1.00  0.00    -0.507 OA
ATOM     36  H   UNL     1      36.127  -5.774  20.985  1.00  0.00     0.293 HD
ENDBRANCH  10  35
TORSDOF 9
ENDMDL
MODEL 2
REMARK VINA RESULT:    23.626     20.078     22.149
REMARK INTER + INTRA:          34.469
REMARK INTER:                  31.871
REMARK INTRA:                   2.598
REMARK UNBOUND:                 2.556
REMARK SMILES O=c1c(-c2ccc(O)cc2)coc2c([C@@H]3O[C@@H](CO)[C@H](O)[C@@H](O)[C@H]3O)c(O)ccc12
REMARK SMILES IDX 3 1 11 2 12 3 13 4 30 5 2 6 1 7 29 8 28 9 26 10 14 11 4 12
REMARK SMILES IDX 5 13 6 14 7 15 10 16 9 17 8 18 15 20 24 21 16 22 22 23 17 24
REMARK SMILES IDX 20 25 25 26 23 28 18 30 19 31 21 33 27 35
REMARK H PARENT 8 19 25 27 23 29 19 32 21 34 27 36
REMARK Flexibility Score: inf
ROOT
ATOM      1  C   UNL     1      21.621   9.003   5.983  1.00  0.00     0.065 A 
ATOM      2  C   UNL     1      21.256   7.701   6.337  1.00  0.00     0.208 A 
ATOM      3  O   UNL     1      22.091   6.685   6.160  1.00  0.00    -0.463 OA
ATOM      4  C   UNL     1      23.315   6.817   5.663  1.00  0.00     0.147 A 
ATOM      5  C   UNL     1      23.792   8.105   5.340  1.00  0.00     0.066 A 
ATOM      6  C   UNL     1      22.920   9.204   5.472  1.00  0.00     0.200 A 
ATOM      7  O   UNL     1      23.289  10.355   5.091  1.00  0.00    -0.288 OA
ATOM      8  C   UNL     1      25.108   8.263   4.892  1.00  0.00     0.020 A 
ATOM      9  C   UNL     1      25.970   7.169   4.875  1.00  0.00     0.047 A 
ATOM     10  C   UNL     1      25.518   5.891   5.219  1.00  0.00     0.125 A 
ATOM     11  C   UNL     1      24.133   5.667   5.469  1.00  0.00     0.069 A 
ENDROOT
BRANCH   1  12
ATOM     12  C   UNL     1      20.628  10.112   6.107  1.00  0.00    -0.011 A 
ATOM     13  C   UNL     1      21.060  11.416   6.423  1.00  0.00     0.013 A 
ATOM     14  C   UNL     1      20.143  12.471   6.505  1.00  0.00     0.047 A 
ATOM     15  C   UNL     1      18.780  12.242   6.303  1.00  0.00     0.115 A 
ATOM     16  C   UNL     1      19.256   9.896   5.882  1.00  0.00     0.013 A 
ATOM     17  C   UNL     1      18.338  10.948   5.995  1.00  0.00     0.047 A 
BRANCH  15  18
ATOM     18  O   UNL     1      17.876  13.300   6.409  1.00  0.00    -0.508 OA
ATOM     19  H   UNL     1      17.341  13.455   7.253  1.00  0.00     0.293 HD
ENDBRANCH  15  18
ENDBRANCH   1  12
BRANCH  11  20
ATOM     20  C   UNL     1      23.534   4.250   5.638  1.00  0.00     0.188 C 
ATOM     21  C   UNL     1      23.478   3.741   7.135  1.00  0.00     0.179 C 
ATOM     22  O   UNL     1      22.268   4.095   5.003  1.00  0.00    -0.362 OA
ATOM     23  C   UNL     1      22.120   3.117   7.497  1.00  0.00     0.177 C 
ATOM     24  C   UNL     1      21.192   4.700   5.710  1.00  0.00     0.176 C 
ATOM     25  C   UNL     1      20.984   4.094   7.130  1.00  0.00     0.177 C 
BRANCH  21  26
ATOM     26  O   UNL     1      24.517   2.854   7.488  1.00  0.00    -0.387 OA
ATOM     27  H   UNL     1      25.121   3.273   8.162  1.00  0.00     0.211 HD
ENDBRANCH  21  26
BRANCH  23  28
ATOM     28  O   UNL     1      21.918   1.852   6.905  1.00  0.00    -0.387 OA
ATOM     29  H   UNL     1      22.459   1.790   6.079  1.00  0.00     0.211 HD
ENDBRANCH  23  28
BRANCH  24  30
ATOM     30  C   UNL     1      19.918   4.512   4.876  1.00  0.00     0.191 C 
BRANCH  30  31
ATOM     31  O   UNL     1      19.098   5.645   4.985  1.00  0.00    -0.394 OA
ATOM     32  H   UNL     1      19.015   6.030   4.069  1.00  0.00     0.210 HD
ENDBRANCH  30  31
ENDBRANCH  24  30
BRANCH  25  33
ATOM     33  O   UNL     1      20.944   5.149   8.071  1.00  0.00    -0.388 OA
ATOM     34  H   UNL     1      21.165   5.983   7.579  1.00  0.00     0.211 HD
ENDBRANCH  25  33
ENDBRANCH  11  20
BRANCH  10  35
ATOM     35  O   UNL     1      26.494   4.899   5.355  1.00  0.00    -0.507 OA
ATOM     36  H   UNL     1      26.910   4.419   4.563  1.00  0.00     0.293 HD
ENDBRANCH  10  35
TORSDOF 9
ENDMDL
MODEL 3
REMARK VINA RESULT:    25.654     19.593     22.028
REMARK INTER + INTRA:          37.208
REMARK INTER:                  37.405
REMARK INTRA:                  -0.197
REMARK UNBOUND:                 2.556
REMARK SMILES O=c1c(-c2ccc(O)cc2)coc2c([C@@H]3O[C@@H](CO)[C@H](O)[C@@H](O)[C@H]3O)c(O)ccc12
REMARK SMILES IDX 3 1 11 2 12 3 13 4 30 5 2 6 1 7 29 8 28 9 26 10 14 11 4 12
REMARK SMILES IDX 5 13 6 14 7 15 10 16 9 17 8 18 15 20 24 21 16 22 22 23 17 24
REMARK SMILES IDX 20 25 25 26 23 28 18 30 19 31 21 33 27 35
REMARK H PARENT 8 19 25 27 23 29 19 32 21 34 27 36
REMARK Flexibility Score: inf
ROOT
ATOM      1  C   UNL     1      21.166   9.202   6.060  1.00  0.00     0.065 A 
ATOM      2  C   UNL     1      22.361   9.353   5.351  1.00  0.00     0.208 A 
ATOM      3  O   UNL     1      23.197   8.334   5.196  1.00  0.00    -0.463 OA
ATOM      4  C   UNL     1      22.970   7.116   5.673  1.00  0.00     0.147 A 
ATOM      5  C   UNL     1      21.756   6.856   6.345  1.00  0.00     0.066 A 
ATOM      6  C   UNL     1      20.862   7.922   6.568  1.00  0.00     0.200 A 
ATOM      7  O   UNL     1      19.816   7.737   7.258  1.00  0.00    -0.288 OA
ATOM      8  C   UNL     1      21.472   5.556   6.780  1.00  0.00     0.020 A 
ATOM      9  C   UNL     1      22.330   4.511   6.449  1.00  0.00     0.047 A 
ATOM     10  C   UNL     1      23.523   4.751   5.759  1.00  0.00     0.125 A 
ATOM     11  C   UNL     1      23.939   6.089   5.496  1.00  0.00     0.069 A 
ENDROOT
BRANCH   1  12
ATOM     12  C   UNL     1      20.289  10.387   6.298  1.00  0.00    -0.011 A 
ATOM     13  C   UNL     1      20.807  11.535   6.933  1.00  0.00     0.013 A 
ATOM     14  C   UNL     1      20.004  12.666   7.127  1.00  0.00     0.047 A 
ATOM     15  C   UNL     1      18.668  12.665   6.720  1.00  0.00     0.115 A 
ATOM     16  C   UNL     1      18.949  10.404   5.870  1.00  0.00     0.013 A 
ATOM     17  C   UNL     1      18.140  11.526   6.094  1.00  0.00     0.047 A 
BRANCH  15  18
ATOM     18  O   UNL     1      17.875  13.792   6.939  1.00  0.00    -0.508 OA
ATOM     19  H   UNL     1      17.787  14.204   7.859  1.00  0.00     0.293 HD
ENDBRANCH  15  18
ENDBRANCH   1  12
BRANCH  11  20
ATOM     20  C   UNL     1      25.342   6.431   4.937  1.00  0.00     0.188 C 
ATOM     21  C   UNL     1      26.027   7.682   5.621  1.00  0.00     0.179 C 
ATOM     22  O   UNL     1      26.228   5.316   4.919  1.00  0.00    -0.362 OA
ATOM     23  C   UNL     1      27.495   7.421   5.995  1.00  0.00     0.177 C 
ATOM     24  C   UNL     1      26.753   4.978   6.197  1.00  0.00     0.176 C 
ATOM     25  C   UNL     1      27.597   6.126   6.828  1.00  0.00     0.177 C 
BRANCH  21  26
ATOM     26  O   UNL     1      25.934   8.876   4.876  1.00  0.00    -0.387 OA
ATOM     27  H   UNL     1      25.416   8.726   4.036  1.00  0.00     0.211 HD
ENDBRANCH  21  26
BRANCH  23  28
ATOM     28  O   UNL     1      28.353   7.378   4.875  1.00  0.00    -0.387 OA
ATOM     29  H   UNL     1      28.093   8.090   4.240  1.00  0.00     0.211 HD
ENDBRANCH  23  28
BRANCH  24  30
ATOM     30  C   UNL     1      27.626   3.727   6.030  1.00  0.00     0.191 C 
BRANCH  30  31
ATOM     31  O   UNL     1      28.484   3.881   4.931  1.00  0.00    -0.394 OA
ATOM     32  H   UNL     1      28.360   3.078   4.353  1.00  0.00     0.210 HD
ENDBRANCH  30  31
ENDBRANCH  24  30
BRANCH  25  33
ATOM     33  O   UNL     1      27.125   6.366   8.139  1.00  0.00    -0.388 OA
ATOM     34  H   UNL     1      27.296   7.324   8.335  1.00  0.00     0.211 HD
ENDBRANCH  25  33
ENDBRANCH  11  20
BRANCH  10  35
ATOM     35  O   UNL     1      24.221   3.626   5.308  1.00  0.00    -0.507 OA
ATOM     36  H   UNL     1      24.977   3.677   4.634  1.00  0.00     0.293 HD
ENDBRANCH  10  35
TORSDOF 9
ENDMDL
