MODEL 1
REMARK VINA RESULT:    -6.407      0.000      0.000
REMARK INTER + INTRA:         -11.508
REMARK INTER:                  -9.779
REMARK INTRA:                  -1.729
REMARK UNBOUND:                -1.729
REMARK SMILES CC(=O)CCC=C(C)CCC=C(C)CCC=C(C)C
REMARK SMILES IDX 10 1 11 2 12 3 13 4 14 5 15 6 16 7 18 8 17 9 19 10 9 11 7 12
REMARK SMILES IDX 6 13 8 14 5 15 4 16 2 17 3 18 1 19
REMARK H PARENT
REMARK Flexibility Score: inf
ROOT
ATOM      1  C   UNL     1       6.263  20.494   3.726  1.00  0.00     0.032 C 
ENDROOT
BRANCH   1   2
ATOM      2  C   UNL     1       6.259  19.457   4.824  1.00  0.00    -0.028 C 
ATOM      3  C   UNL     1       6.624  19.663   6.112  1.00  0.00    -0.077 C 
ATOM      4  C   UNL     1       6.405  18.537   7.093  1.00  0.00     0.039 C 
BRANCH   3   5
ATOM      5  C   UNL     1       7.216  20.967   6.621  1.00  0.00     0.034 C 
BRANCH   5   6
ATOM      6  C   UNL     1       6.324  21.641   7.676  1.00  0.00     0.032 C 
BRANCH   6   7
ATOM      7  C   UNL     1       5.172  22.386   7.046  1.00  0.00    -0.028 C 
ATOM      8  C   UNL     1       3.455  20.709   7.771  1.00  0.00     0.039 C 
ATOM      9  C   UNL     1       3.885  21.972   7.062  1.00  0.00    -0.080 C 
ATOM     10  C   UNL     1       2.856  22.803   6.340  1.00  0.00     0.039 C 
ENDBRANCH   6   7
ENDBRANCH   5   6
ENDBRANCH   3   5
ENDBRANCH   1   2
BRANCH   1  11
ATOM     11  C   UNL     1       4.864  21.058   3.447  1.00  0.00     0.034 C 
BRANCH  11  12
ATOM     12  C   UNL     1       4.652  21.258   1.961  1.00  0.00    -0.077 C 
ATOM     13  C   UNL     1       4.309  22.484   1.506  1.00  0.00    -0.028 C 
ATOM     14  C   UNL     1       4.854  20.089   1.026  1.00  0.00     0.039 C 
BRANCH  13  15
ATOM     15  C   UNL     1       4.023  22.811   0.061  1.00  0.00     0.035 C 
BRANCH  15  16
ATOM     16  C   UNL     1       3.164  24.081  -0.044  1.00  0.00     0.079 C 
BRANCH  16  17
ATOM     17  C   UNL     1       3.785  25.309   0.582  1.00  0.00     0.130 C 
ATOM     18  O   UNL     1       4.766  25.801   0.045  1.00  0.00    -0.300 OA
ATOM     19  C   UNL     1       3.253  25.947   1.836  1.00  0.00     0.087 C 
ENDBRANCH  16  17
ENDBRANCH  15  16
ENDBRANCH  13  15
ENDBRANCH  11  12
ENDBRANCH   1  11
TORSDOF 9
ENDMDL
MODEL 2
REMARK VINA RESULT:    -6.175      2.142      3.330
REMARK INTER + INTRA:         -11.153
REMARK INTER:                  -8.758
REMARK INTRA:                  -2.395
REMARK UNBOUND:                -1.729
REMARK SMILES CC(=O)CCC=C(C)CCC=C(C)CCC=C(C)C
REMARK SMILES IDX 10 1 11 2 12 3 13 4 14 5 15 6 16 7 18 8 17 9 19 10 9 11 7 12
REMARK SMILES IDX 6 13 8 14 5 15 4 16 2 17 3 18 1 19
REMARK H PARENT
REMARK Flexibility Score: inf
ROOT
ATOM      1  C   UNL     1       6.886  21.026   3.911  1.00  0.00     0.032 C 
ENDROOT
BRANCH   1   2
ATOM      2  C   UNL     1       6.623  21.563   5.298  1.00  0.00    -0.028 C 
ATOM      3  C   UNL     1       6.671  20.850   6.448  1.00  0.00    -0.077 C 
ATOM      4  C   UNL     1       6.526  21.602   7.748  1.00  0.00     0.039 C 
BRANCH   3   5
ATOM      5  C   UNL     1       6.888  19.347   6.497  1.00  0.00     0.034 C 
BRANCH   5   6
ATOM      6  C   UNL     1       5.852  18.636   7.383  1.00  0.00     0.032 C 
BRANCH   6   7
ATOM      7  C   UNL     1       4.564  18.369   6.640  1.00  0.00    -0.028 C 
ATOM      8  C   UNL     1       3.331  20.259   7.735  1.00  0.00     0.039 C 
ATOM      9  C   UNL     1       3.421  19.074   6.801  1.00  0.00    -0.080 C 
ATOM     10  C   UNL     1       2.202  18.649   6.024  1.00  0.00     0.039 C 
ENDBRANCH   6   7
ENDBRANCH   5   6
ENDBRANCH   3   5
ENDBRANCH   1   2
BRANCH   1  11
ATOM     11  C   UNL     1       5.691  20.248   3.347  1.00  0.00     0.034 C 
BRANCH  11  12
ATOM     12  C   UNL     1       4.546  21.183   3.021  1.00  0.00    -0.077 C 
ATOM     13  C   UNL     1       3.514  21.284   3.890  1.00  0.00    -0.028 C 
ATOM     14  C   UNL     1       4.599  21.996   1.749  1.00  0.00     0.039 C 
BRANCH  13  15
ATOM     15  C   UNL     1       2.291  22.140   3.669  1.00  0.00     0.035 C 
BRANCH  15  16
ATOM     16  C   UNL     1       1.915  22.886   4.958  1.00  0.00     0.079 C 
BRANCH  16  17
ATOM     17  C   UNL     1       2.932  23.911   5.407  1.00  0.00     0.130 C 
ATOM     18  O   UNL     1       3.148  24.869   4.681  1.00  0.00    -0.300 OA
ATOM     19  C   UNL     1       3.691  23.800   6.701  1.00  0.00     0.087 C 
ENDBRANCH  16  17
ENDBRANCH  15  16
ENDBRANCH  13  15
ENDBRANCH  11  12
ENDBRANCH   1  11
TORSDOF 9
ENDMDL
MODEL 3
REMARK VINA RESULT:    -6.088      1.193      1.528
REMARK INTER + INTRA:         -11.021
REMARK INTER:                  -9.064
REMARK INTRA:                  -1.957
REMARK UNBOUND:                -1.729
REMARK SMILES CC(=O)CCC=C(C)CCC=C(C)CCC=C(C)C
REMARK SMILES IDX 10 1 11 2 12 3 13 4 14 5 15 6 16 7 18 8 17 9 19 10 9 11 7 12
REMARK SMILES IDX 6 13 8 14 5 15 4 16 2 17 3 18 1 19
REMARK H PARENT
REMARK Flexibility Score: inf
ROOT
ATOM      1  C   UNL     1       6.037  20.920   3.760  1.00  0.00     0.032 C 
ENDROOT
BRANCH   1   2
ATOM      2  C   UNL     1       6.139  19.749   4.708  1.00  0.00    -0.028 C 
ATOM      3  C   UNL     1       6.603  19.793   5.979  1.00  0.00    -0.077 C 
ATOM      4  C   UNL     1       6.484  18.543   6.815  1.00  0.00     0.039 C 
BRANCH   3   5
ATOM      5  C   UNL     1       7.209  21.035   6.610  1.00  0.00     0.034 C 
BRANCH   5   6
ATOM      6  C   UNL     1       6.301  21.645   7.691  1.00  0.00     0.032 C 
BRANCH   6   7
ATOM      7  C   UNL     1       5.104  22.344   7.091  1.00  0.00    -0.028 C 
ATOM      8  C   UNL     1       3.480  20.579   7.823  1.00  0.00     0.039 C 
ATOM      9  C   UNL     1       3.838  21.870   7.123  1.00  0.00    -0.080 C 
ATOM     10  C   UNL     1       2.759  22.661   6.431  1.00  0.00     0.039 C 
ENDBRANCH   6   7
ENDBRANCH   5   6
ENDBRANCH   3   5
ENDBRANCH   1   2
BRANCH   1  11
ATOM     11  C   UNL     1       5.412  20.533   2.414  1.00  0.00     0.034 C 
BRANCH  11  12
ATOM     12  C   UNL     1       4.484  21.622   1.919  1.00  0.00    -0.077 C 
ATOM     13  C   UNL     1       3.515  22.082   2.742  1.00  0.00    -0.028 C 
ATOM     14  C   UNL     1       4.682  22.182   0.530  1.00  0.00     0.039 C 
BRANCH  13  15
ATOM     15  C   UNL     1       2.497  23.128   2.362  1.00  0.00     0.035 C 
BRANCH  15  16
ATOM     16  C   UNL     1       2.677  24.392   3.218  1.00  0.00     0.079 C 
BRANCH  16  17
ATOM     17  C   UNL     1       3.142  25.607   2.447  1.00  0.00     0.130 C 
ATOM     18  O   UNL     1       3.477  26.599   3.076  1.00  0.00    -0.300 OA
ATOM     19  C   UNL     1       3.204  25.651   0.945  1.00  0.00     0.087 C 
ENDBRANCH  16  17
ENDBRANCH  15  16
ENDBRANCH  13  15
ENDBRANCH  11  12
ENDBRANCH   1  11
TORSDOF 9
ENDMDL
MODEL 4
REMARK VINA RESULT:    -6.086      1.749      2.418
REMARK INTER + INTRA:         -11.018
REMARK INTER:                  -9.368
REMARK INTRA:                  -1.651
REMARK UNBOUND:                -1.729
REMARK SMILES CC(=O)CCC=C(C)CCC=C(C)CCC=C(C)C
REMARK SMILES IDX 10 1 11 2 12 3 13 4 14 5 15 6 16 7 18 8 17 9 19 10 9 11 7 12
REMARK SMILES IDX 6 13 8 14 5 15 4 16 2 17 3 18 1 19
REMARK H PARENT
REMARK Flexibility Score: inf
ROOT
ATOM      1  C   UNL     1       6.448  20.724   3.600  1.00  0.00     0.032 C 
ENDROOT
BRANCH   1   2
ATOM      2  C   UNL     1       6.473  21.383   4.959  1.00  0.00    -0.028 C 
ATOM      3  C   UNL     1       6.690  20.758   6.141  1.00  0.00    -0.077 C 
ATOM      4  C   UNL     1       6.827  21.616   7.374  1.00  0.00     0.039 C 
BRANCH   3   5
ATOM      5  C   UNL     1       6.827  19.251   6.283  1.00  0.00     0.034 C 
BRANCH   5   6
ATOM      6  C   UNL     1       5.799  18.661   7.262  1.00  0.00     0.032 C 
BRANCH   6   7
ATOM      7  C   UNL     1       4.442  18.496   6.620  1.00  0.00    -0.028 C 
ATOM      8  C   UNL     1       3.466  20.514   7.743  1.00  0.00     0.039 C 
ATOM      9  C   UNL     1       3.381  19.304   6.841  1.00  0.00    -0.080 C 
ATOM     10  C   UNL     1       2.076  18.974   6.165  1.00  0.00     0.039 C 
ENDBRANCH   6   7
ENDBRANCH   5   6
ENDBRANCH   3   5
ENDBRANCH   1   2
BRANCH   1  11
ATOM     11  C   UNL     1       5.021  20.439   3.113  1.00  0.00     0.034 C 
BRANCH  11  12
ATOM     12  C   UNL     1       4.859  20.838   1.662  1.00  0.00    -0.077 C 
ATOM     13  C   UNL     1       4.858  22.152   1.339  1.00  0.00    -0.028 C 
ATOM     14  C   UNL     1       4.728  19.760   0.612  1.00  0.00     0.039 C 
BRANCH  13  15
ATOM     15  C   UNL     1       4.660  22.688  -0.057  1.00  0.00     0.035 C 
BRANCH  15  16
ATOM     16  C   UNL     1       3.395  23.559  -0.125  1.00  0.00     0.079 C 
BRANCH  16  17
ATOM     17  C   UNL     1       2.152  22.898   0.427  1.00  0.00     0.130 C 
ATOM     18  O   UNL     1       1.771  21.858  -0.086  1.00  0.00    -0.300 OA
ATOM     19  C   UNL     1       1.363  23.467   1.575  1.00  0.00     0.087 C 
ENDBRANCH  16  17
ENDBRANCH  15  16
ENDBRANCH  13  15
ENDBRANCH  11  12
ENDBRANCH   1  11
TORSDOF 9
ENDMDL
MODEL 5
REMARK VINA RESULT:    -5.971      2.595      3.251
REMARK INTER + INTRA:         -10.842
REMARK INTER:                  -8.793
REMARK INTRA:                  -2.049
REMARK UNBOUND:                -1.729
REMARK SMILES CC(=O)CCC=C(C)CCC=C(C)CCC=C(C)C
REMARK SMILES IDX 10 1 11 2 12 3 13 4 14 5 15 6 16 7 18 8 17 9 19 10 9 11 7 12
REMARK SMILES IDX 6 13 8 14 5 15 4 16 2 17 3 18 1 19
REMARK H PARENT
REMARK Flexibility Score: inf
ROOT
ATOM      1  C   UNL     1       5.978  20.820   3.918  1.00  0.00     0.032 C 
ENDROOT
BRANCH   1   2
ATOM      2  C   UNL     1       6.082  19.682   4.906  1.00  0.00    -0.028 C 
ATOM      3  C   UNL     1       6.547  19.772   6.175  1.00  0.00    -0.077 C 
ATOM      4  C   UNL     1       6.429  18.552   7.054  1.00  0.00     0.039 C 
BRANCH   3   5
ATOM      5  C   UNL     1       7.154  21.036   6.760  1.00  0.00     0.034 C 
BRANCH   5   6
ATOM      6  C   UNL     1       6.212  21.728   7.759  1.00  0.00     0.032 C 
BRANCH   6   7
ATOM      7  C   UNL     1       5.070  22.429   7.063  1.00  0.00    -0.028 C 
ATOM      8  C   UNL     1       3.359  20.742   7.778  1.00  0.00     0.039 C 
ATOM      9  C   UNL     1       3.791  21.990   7.044  1.00  0.00    -0.080 C 
ATOM     10  C   UNL     1       2.775  22.776   6.258  1.00  0.00     0.039 C 
ENDBRANCH   6   7
ENDBRANCH   5   6
ENDBRANCH   3   5
ENDBRANCH   1   2
BRANCH   1  11
ATOM     11  C   UNL     1       5.715  20.331   2.487  1.00  0.00     0.034 C 
BRANCH  11  12
ATOM     12  C   UNL     1       4.472  20.981   1.918  1.00  0.00    -0.077 C 
ATOM     13  C   UNL     1       3.530  21.451   2.766  1.00  0.00    -0.028 C 
ATOM     14  C   UNL     1       4.330  21.110   0.419  1.00  0.00     0.039 C 
BRANCH  13  15
ATOM     15  C   UNL     1       2.227  22.077   2.335  1.00  0.00     0.035 C 
BRANCH  15  16
ATOM     16  C   UNL     1       1.037  21.302   2.921  1.00  0.00     0.079 C 
BRANCH  16  17
ATOM     17  C   UNL     1       1.025  19.828   2.584  1.00  0.00     0.130 C 
ATOM     18  O   UNL     1       0.956  19.024   3.501  1.00  0.00    -0.300 OA
ATOM     19  C   UNL     1       1.100  19.308   1.174  1.00  0.00     0.087 C 
ENDBRANCH  16  17
ENDBRANCH  15  16
ENDBRANCH  13  15
ENDBRANCH  11  12
ENDBRANCH   1  11
TORSDOF 9
ENDMDL
MODEL 6
REMARK VINA RESULT:    -5.901      2.154      4.031
REMARK INTER + INTRA:         -10.736
REMARK INTER:                  -8.679
REMARK INTRA:                  -2.057
REMARK UNBOUND:                -1.729
REMARK SMILES CC(=O)CCC=C(C)CCC=C(C)CCC=C(C)C
REMARK SMILES IDX 10 1 11 2 12 3 13 4 14 5 15 6 16 7 18 8 17 9 19 10 9 11 7 12
REMARK SMILES IDX 6 13 8 14 5 15 4 16 2 17 3 18 1 19
REMARK H PARENT
REMARK Flexibility Score: inf
ROOT
ATOM      1  C   UNL     1       5.825  18.677   7.436  1.00  0.00     0.032 C 
ENDROOT
BRANCH   1   2
ATOM      2  C   UNL     1       4.444  18.268   6.982  1.00  0.00    -0.028 C 
ATOM      3  C   UNL     1       3.376  19.090   6.848  1.00  0.00    -0.077 C 
ATOM      4  C   UNL     1       2.121  18.518   6.237  1.00  0.00     0.039 C 
BRANCH   3   5
ATOM      5  C   UNL     1       3.385  20.554   7.256  1.00  0.00     0.034 C 
BRANCH   5   6
ATOM      6  C   UNL     1       2.917  21.480   6.122  1.00  0.00     0.032 C 
BRANCH   6   7
ATOM      7  C   UNL     1       3.528  22.857   6.231  1.00  0.00    -0.028 C 
ATOM      8  C   UNL     1       1.519  23.857   7.348  1.00  0.00     0.039 C 
ATOM      9  C   UNL     1       2.908  23.936   6.758  1.00  0.00    -0.080 C 
ATOM     10  C   UNL     1       3.633  25.257   6.746  1.00  0.00     0.039 C 
ENDBRANCH   6   7
ENDBRANCH   5   6
ENDBRANCH   3   5
ENDBRANCH   1   2
BRANCH   1  11
ATOM     11  C   UNL     1       6.818  18.778   6.272  1.00  0.00     0.034 C 
BRANCH  11  12
ATOM     12  C   UNL     1       6.637  20.082   5.523  1.00  0.00    -0.077 C 
ATOM     13  C   UNL     1       6.244  20.046   4.229  1.00  0.00    -0.028 C 
ATOM     14  C   UNL     1       6.875  21.386   6.247  1.00  0.00     0.039 C 
BRANCH  13  15
ATOM     15  C   UNL     1       6.071  21.263   3.355  1.00  0.00     0.035 C 
BRANCH  15  16
ATOM     16  C   UNL     1       4.682  21.260   2.697  1.00  0.00     0.079 C 
BRANCH  16  17
ATOM     17  C   UNL     1       4.706  21.151   1.189  1.00  0.00     0.130 C 
ATOM     18  O   UNL     1       4.817  22.177   0.535  1.00  0.00    -0.300 OA
ATOM     19  C   UNL     1       4.593  19.840   0.460  1.00  0.00     0.087 C 
ENDBRANCH  16  17
ENDBRANCH  15  16
ENDBRANCH  13  15
ENDBRANCH  11  12
ENDBRANCH   1  11
TORSDOF 9
ENDMDL
MODEL 7
REMARK VINA RESULT:    -5.755      2.447      5.004
REMARK INTER + INTRA:         -10.512
REMARK INTER:                  -8.141
REMARK INTRA:                  -2.371
REMARK UNBOUND:                -1.729
REMARK SMILES CC(=O)CCC=C(C)CCC=C(C)CCC=C(C)C
REMARK SMILES IDX 10 1 11 2 12 3 13 4 14 5 15 6 16 7 18 8 17 9 19 10 9 11 7 12
REMARK SMILES IDX 6 13 8 14 5 15 4 16 2 17 3 18 1 19
REMARK H PARENT
REMARK Flexibility Score: inf
ROOT
ATOM      1  C   UNL     1       2.428  21.527   3.251  1.00  0.00     0.032 C 
ENDROOT
BRANCH   1   2
ATOM      2  C   UNL     1       2.979  20.815   2.038  1.00  0.00    -0.028 C 
ATOM      3  C   UNL     1       4.288  20.694   1.714  1.00  0.00    -0.077 C 
ATOM      4  C   UNL     1       4.643  19.814   0.541  1.00  0.00     0.039 C 
BRANCH   3   5
ATOM      5  C   UNL     1       5.410  21.375   2.480  1.00  0.00     0.034 C 
BRANCH   5   6
ATOM      6  C   UNL     1       6.129  20.414   3.441  1.00  0.00     0.032 C 
BRANCH   6   7
ATOM      7  C   UNL     1       6.430  21.067   4.769  1.00  0.00    -0.028 C 
ATOM      8  C   UNL     1       6.233  18.932   6.068  1.00  0.00     0.039 C 
ATOM      9  C   UNL     1       6.460  20.421   5.956  1.00  0.00    -0.080 C 
ATOM     10  C   UNL     1       6.724  21.226   7.203  1.00  0.00     0.039 C 
ENDBRANCH   6   7
ENDBRANCH   5   6
ENDBRANCH   3   5
ENDBRANCH   1   2
BRANCH   1  11
ATOM     11  C   UNL     1       2.453  20.649   4.508  1.00  0.00     0.034 C 
BRANCH  11  12
ATOM     12  C   UNL     1       2.907  21.448   5.712  1.00  0.00    -0.077 C 
ATOM     13  C   UNL     1       3.333  22.719   5.534  1.00  0.00    -0.028 C 
ATOM     14  C   UNL     1       2.846  20.813   7.082  1.00  0.00     0.039 C 
BRANCH  13  15
ATOM     15  C   UNL     1       3.854  23.608   6.635  1.00  0.00     0.035 C 
BRANCH  15  16
ATOM     16  C   UNL     1       2.839  24.715   6.959  1.00  0.00     0.079 C 
BRANCH  16  17
ATOM     17  C   UNL     1       3.261  26.098   6.516  1.00  0.00     0.130 C 
ATOM     18  O   UNL     1       3.697  26.236   5.384  1.00  0.00    -0.300 OA
ATOM     19  C   UNL     1       3.172  27.307   7.407  1.00  0.00     0.087 C 
ENDBRANCH  16  17
ENDBRANCH  15  16
ENDBRANCH  13  15
ENDBRANCH  11  12
ENDBRANCH   1  11
TORSDOF 9
ENDMDL
MODEL 8
REMARK VINA RESULT:    -5.719      2.361      6.668
REMARK INTER + INTRA:         -10.458
REMARK INTER:                  -8.222
REMARK INTRA:                  -2.236
REMARK UNBOUND:                -1.729
REMARK SMILES CC(=O)CCC=C(C)CCC=C(C)CCC=C(C)C
REMARK SMILES IDX 10 1 11 2 12 3 13 4 14 5 15 6 16 7 18 8 17 9 19 10 9 11 7 12
REMARK SMILES IDX 6 13 8 14 5 15 4 16 2 17 3 18 1 19
REMARK H PARENT
REMARK Flexibility Score: inf
ROOT
ATOM      1  C   UNL     1       2.974  23.441   5.139  1.00  0.00     0.032 C 
ENDROOT
BRANCH   1   2
ATOM      2  C   UNL     1       2.198  22.381   4.395  1.00  0.00    -0.028 C 
ATOM      3  C   UNL     1       2.724  21.292   3.784  1.00  0.00    -0.077 C 
ATOM      4  C   UNL     1       1.766  20.270   3.224  1.00  0.00     0.039 C 
BRANCH   3   5
ATOM      5  C   UNL     1       4.217  21.039   3.657  1.00  0.00     0.034 C 
BRANCH   5   6
ATOM      6  C   UNL     1       4.664  20.900   2.193  1.00  0.00     0.032 C 
BRANCH   6   7
ATOM      7  C   UNL     1       4.729  22.237   1.495  1.00  0.00    -0.028 C 
ATOM      8  C   UNL     1       2.750  21.771   0.028  1.00  0.00     0.039 C 
ATOM      9  C   UNL     1       3.892  22.635   0.510  1.00  0.00    -0.080 C 
ATOM     10  C   UNL     1       4.121  23.982  -0.125  1.00  0.00     0.039 C 
ENDBRANCH   6   7
ENDBRANCH   5   6
ENDBRANCH   3   5
ENDBRANCH   1   2
BRANCH   1  11
ATOM     11  C   UNL     1       2.888  23.272   6.661  1.00  0.00     0.034 C 
BRANCH  11  12
ATOM     12  C   UNL     1       3.869  22.223   7.141  1.00  0.00    -0.077 C 
ATOM     13  C   UNL     1       5.194  22.494   7.096  1.00  0.00    -0.028 C 
ATOM     14  C   UNL     1       3.342  20.915   7.681  1.00  0.00     0.039 C 
BRANCH  13  15
ATOM     15  C   UNL     1       6.278  21.527   7.498  1.00  0.00     0.035 C 
BRANCH  15  16
ATOM     16  C   UNL     1       6.814  20.776   6.269  1.00  0.00     0.079 C 
BRANCH  16  17
ATOM     17  C   UNL     1       6.483  19.301   6.244  1.00  0.00     0.130 C 
ATOM     18  O   UNL     1       6.407  18.742   5.161  1.00  0.00    -0.300 OA
ATOM     19  C   UNL     1       6.238  18.495   7.490  1.00  0.00     0.087 C 
ENDBRANCH  16  17
ENDBRANCH  15  16
ENDBRANCH  13  15
ENDBRANCH  11  12
ENDBRANCH   1  11
TORSDOF 9
ENDMDL
MODEL 9
REMARK VINA RESULT:    -5.644      1.953      4.538
REMARK INTER + INTRA:         -10.342
REMARK INTER:                  -8.663
REMARK INTRA:                  -1.679
REMARK UNBOUND:                -1.729
REMARK SMILES CC(=O)CCC=C(C)CCC=C(C)CCC=C(C)C
REMARK SMILES IDX 10 1 11 2 12 3 13 4 14 5 15 6 16 7 18 8 17 9 19 10 9 11 7 12
REMARK SMILES IDX 6 13 8 14 5 15 4 16 2 17 3 18 1 19
REMARK H PARENT
REMARK Flexibility Score: inf
ROOT
ATOM      1  C   UNL     1       5.957  21.979   7.313  1.00  0.00     0.032 C 
ENDROOT
BRANCH   1   2
ATOM      2  C   UNL     1       4.561  21.565   7.715  1.00  0.00    -0.028 C 
ATOM      3  C   UNL     1       3.436  21.747   6.982  1.00  0.00    -0.077 C 
ATOM      4  C   UNL     1       2.158  21.126   7.491  1.00  0.00     0.039 C 
BRANCH   3   5
ATOM      5  C   UNL     1       3.401  22.516   5.672  1.00  0.00     0.034 C 
BRANCH   5   6
ATOM      6  C   UNL     1       2.246  23.529   5.620  1.00  0.00     0.032 C 
BRANCH   6   7
ATOM      7  C   UNL     1       2.459  24.676   6.579  1.00  0.00    -0.028 C 
ATOM      8  C   UNL     1       3.515  26.158   4.854  1.00  0.00     0.039 C 
ATOM      9  C   UNL     1       3.044  25.852   6.257  1.00  0.00    -0.080 C 
ATOM     10  C   UNL     1       3.233  26.879   7.342  1.00  0.00     0.039 C 
ENDBRANCH   6   7
ENDBRANCH   5   6
ENDBRANCH   3   5
ENDBRANCH   1   2
BRANCH   1  11
ATOM     11  C   UNL     1       6.867  20.777   7.031  1.00  0.00     0.034 C 
BRANCH  11  12
ATOM     12  C   UNL     1       6.509  20.131   5.710  1.00  0.00    -0.077 C 
ATOM     13  C   UNL     1       6.526  20.882   4.586  1.00  0.00    -0.028 C 
ATOM     14  C   UNL     1       6.169  18.659   5.679  1.00  0.00     0.039 C 
BRANCH  13  15
ATOM     15  C   UNL     1       6.148  20.379   3.215  1.00  0.00     0.035 C 
BRANCH  15  16
ATOM     16  C   UNL     1       4.934  21.150   2.673  1.00  0.00     0.079 C 
BRANCH  16  17
ATOM     17  C   UNL     1       4.761  21.068   1.174  1.00  0.00     0.130 C 
ATOM     18  O   UNL     1       4.723  22.109   0.537  1.00  0.00    -0.300 OA
ATOM     19  C   UNL     1       4.628  19.765   0.434  1.00  0.00     0.087 C 
ENDBRANCH  16  17
ENDBRANCH  15  16
ENDBRANCH  13  15
ENDBRANCH  11  12
ENDBRANCH   1  11
TORSDOF 9
ENDMDL
