MODEL 1
REMARK VINA RESULT:    -5.595      0.000      0.000
REMARK INTER + INTRA:         -10.061
REMARK INTER:                  -8.539
REMARK INTRA:                  -1.523
REMARK UNBOUND:                -1.523
REMARK SMILES OC[C@@H]1O[C@@](CO)(O[C@@H]2O[C@H](CO)[C@H](O)[C@@H](O)[C@@H]2O)[C@@H](O)[C@@H]1O
REMARK SMILES IDX 8 1 9 2 11 3 14 4 10 5 16 6 18 7 12 8 13 9 15 11 17 13 19 15
REMARK SMILES IDX 5 17 20 18 4 19 22 20 3 21 6 22 7 23 21 25 23 27 2 29 1 30
REMARK H PARENT 13 10 15 12 17 14 19 16 7 24 21 26 23 28 1 31
REMARK Flexibility Score: inf
ROOT
ATOM      1  O   UNL     1      40.556  40.057  24.016  1.00  0.00    -0.313 OA
ENDROOT
BRANCH   1   2
ATOM      2  C   UNL     1      40.597  39.886  22.602  1.00  0.00     0.285 C 
ATOM      3  C   UNL     1      40.232  37.511  22.629  1.00  0.00     0.178 C 
ATOM      4  C   UNL     1      41.690  37.231  22.190  1.00  0.00     0.177 C 
ATOM      5  O   UNL     1      39.768  38.795  22.211  1.00  0.00    -0.341 OA
ATOM      6  C   UNL     1      42.628  38.378  22.606  1.00  0.00     0.179 C 
ATOM      7  C   UNL     1      42.048  39.708  22.104  1.00  0.00     0.202 C 
BRANCH   3   8
ATOM      8  C   UNL     1      39.947  37.228  24.119  1.00  0.00     0.191 C 
BRANCH   8   9
ATOM      9  O   UNL     1      39.894  35.847  24.339  1.00  0.00    -0.394 OA
ATOM     10  H   UNL     1      39.206  35.707  25.042  1.00  0.00     0.210 HD
ENDBRANCH   8   9
ENDBRANCH   3   8
BRANCH   4  11
ATOM     11  O   UNL     1      42.146  35.985  22.659  1.00  0.00    -0.387 OA
ATOM     12  H   UNL     1      43.026  36.122  23.098  1.00  0.00     0.211 HD
ENDBRANCH   4  11
BRANCH   6  13
ATOM     13  O   UNL     1      43.925  38.170  22.102  1.00  0.00    -0.387 OA
ATOM     14  H   UNL     1      44.517  37.947  22.868  1.00  0.00     0.211 HD
ENDBRANCH   6  13
BRANCH   7  15
ATOM     15  O   UNL     1      42.844  40.778  22.544  1.00  0.00    -0.385 OA
ATOM     16  H   UNL     1      43.720  40.695  22.083  1.00  0.00     0.211 HD
ENDBRANCH   7  15
ENDBRANCH   1   2
BRANCH   1  17
ATOM     17  C   UNL     1      40.149  41.338  24.519  1.00  0.00     0.224 C 
ATOM     18  C   UNL     1      39.517  41.297  25.941  1.00  0.00     0.208 C 
ATOM     19  O   UNL     1      41.348  42.089  24.618  1.00  0.00    -0.337 OA
ATOM     20  C   UNL     1      40.674  41.614  26.847  1.00  0.00     0.180 C 
ATOM     21  C   UNL     1      41.565  42.471  25.959  1.00  0.00     0.179 C 
BRANCH  17  22
ATOM     22  C   UNL     1      39.268  42.127  23.508  1.00  0.00     0.225 C 
BRANCH  22  23
ATOM     23  O   UNL     1      39.941  43.203  22.909  1.00  0.00    -0.391 OA
ATOM     24  H   UNL     1      40.299  42.882  22.041  1.00  0.00     0.210 HD
ENDBRANCH  22  23
ENDBRANCH  17  22
BRANCH  18  25
ATOM     25  O   UNL     1      38.961  40.055  26.286  1.00  0.00    -0.385 OA
ATOM     26  H   UNL     1      39.102  39.450  25.513  1.00  0.00     0.211 HD
ENDBRANCH  18  25
BRANCH  20  27
ATOM     27  O   UNL     1      40.254  42.286  28.007  1.00  0.00    -0.387 OA
ATOM     28  H   UNL     1      40.808  43.107  28.074  1.00  0.00     0.211 HD
ENDBRANCH  20  27
BRANCH  21  29
ATOM     29  C   UNL     1      41.322  43.984  26.089  1.00  0.00     0.191 C 
BRANCH  29  30
ATOM     30  O   UNL     1      41.563  44.618  24.863  1.00  0.00    -0.394 OA
ATOM     31  H   UNL     1      42.172  45.378  25.061  1.00  0.00     0.210 HD
ENDBRANCH  29  30
ENDBRANCH  21  29
ENDBRANCH   1  17
TORSDOF 13
ENDMDL
MODEL 2
REMARK VINA RESULT:    -5.431      1.605      5.668
REMARK INTER + INTRA:          -9.811
REMARK INTER:                  -8.480
REMARK INTRA:                  -1.332
REMARK UNBOUND:                -1.523
REMARK SMILES OC[C@@H]1O[C@@](CO)(O[C@@H]2O[C@H](CO)[C@H](O)[C@@H](O)[C@@H]2O)[C@@H](O)[C@@H]1O
REMARK SMILES IDX 8 1 9 2 11 3 14 4 10 5 16 6 18 7 12 8 13 9 15 11 17 13 19 15
REMARK SMILES IDX 5 17 20 18 4 19 22 20 3 21 6 22 7 23 21 25 23 27 2 29 1 30
REMARK H PARENT 13 10 15 12 17 14 19 16 7 24 21 26 23 28 1 31
REMARK Flexibility Score: inf
ROOT
ATOM      1  O   UNL     1      39.987  40.705  23.307  1.00  0.00    -0.313 OA
ENDROOT
BRANCH   1   2
ATOM      2  C   UNL     1      40.692  40.928  24.525  1.00  0.00     0.285 C 
ATOM      3  C   UNL     1      38.821  41.828  25.734  1.00  0.00     0.178 C 
ATOM      4  C   UNL     1      39.431  43.251  25.718  1.00  0.00     0.177 C 
ATOM      5  O   UNL     1      39.810  40.805  25.638  1.00  0.00    -0.341 OA
ATOM      6  C   UNL     1      40.380  43.438  24.521  1.00  0.00     0.179 C 
ATOM      7  C   UNL     1      41.407  42.297  24.512  1.00  0.00     0.202 C 
BRANCH   3   8
ATOM      8  C   UNL     1      37.650  41.624  24.750  1.00  0.00     0.191 C 
BRANCH   8   9
ATOM      9  O   UNL     1      37.256  40.280  24.751  1.00  0.00    -0.394 OA
ATOM     10  H   UNL     1      38.084  39.752  24.902  1.00  0.00     0.210 HD
ENDBRANCH   8   9
ENDBRANCH   3   8
BRANCH   4  11
ATOM     11  O   UNL     1      38.436  44.246  25.758  1.00  0.00    -0.387 OA
ATOM     12  H   UNL     1      38.253  44.464  26.709  1.00  0.00     0.211 HD
ENDBRANCH   4  11
BRANCH   6  13
ATOM     13  O   UNL     1      41.018  44.692  24.581  1.00  0.00    -0.387 OA
ATOM     14  H   UNL     1      41.914  44.597  24.163  1.00  0.00     0.211 HD
ENDBRANCH   6  13
BRANCH   7  15
ATOM     15  O   UNL     1      42.232  42.400  23.381  1.00  0.00    -0.385 OA
ATOM     16  H   UNL     1      41.671  42.174  22.593  1.00  0.00     0.211 HD
ENDBRANCH   7  15
ENDBRANCH   1   2
BRANCH   1  17
ATOM     17  C   UNL     1      39.963  39.368  22.788  1.00  0.00     0.224 C 
ATOM     18  C   UNL     1      41.270  38.939  22.060  1.00  0.00     0.208 C 
ATOM     19  O   UNL     1      39.830  38.535  23.929  1.00  0.00    -0.337 OA
ATOM     20  C   UNL     1      42.045  38.218  23.127  1.00  0.00     0.180 C 
ATOM     21  C   UNL     1      40.944  37.674  24.026  1.00  0.00     0.179 C 
BRANCH  17  22
ATOM     22  C   UNL     1      38.695  39.078  21.935  1.00  0.00     0.225 C 
BRANCH  22  23
ATOM     23  O   UNL     1      37.748  38.284  22.602  1.00  0.00    -0.391 OA
ATOM     24  H   UNL     1      38.235  37.755  23.286  1.00  0.00     0.210 HD
ENDBRANCH  22  23
ENDBRANCH  17  22
BRANCH  18  25
ATOM     25  O   UNL     1      42.025  40.010  21.557  1.00  0.00    -0.385 OA
ATOM     26  H   UNL     1      41.391  40.624  21.105  1.00  0.00     0.211 HD
ENDBRANCH  18  25
BRANCH  20  27
ATOM     27  O   UNL     1      42.855  37.207  22.585  1.00  0.00    -0.387 OA
ATOM     28  H   UNL     1      43.486  37.653  21.962  1.00  0.00     0.211 HD
ENDBRANCH  20  27
BRANCH  21  29
ATOM     29  C   UNL     1      40.495  36.243  23.682  1.00  0.00     0.191 C 
BRANCH  29  30
ATOM     30  O   UNL     1      39.166  36.047  24.079  1.00  0.00    -0.394 OA
ATOM     31  H   UNL     1      39.167  35.236  24.654  1.00  0.00     0.210 HD
ENDBRANCH  29  30
ENDBRANCH  21  29
ENDBRANCH   1  17
TORSDOF 13
ENDMDL
MODEL 3
REMARK VINA RESULT:    -5.301      1.644      2.217
REMARK INTER + INTRA:          -9.613
REMARK INTER:                  -7.732
REMARK INTRA:                  -1.882
REMARK UNBOUND:                -1.523
REMARK SMILES OC[C@@H]1O[C@@](CO)(O[C@@H]2O[C@H](CO)[C@H](O)[C@@H](O)[C@@H]2O)[C@@H](O)[C@@H]1O
REMARK SMILES IDX 8 1 9 2 11 3 14 4 10 5 16 6 18 7 12 8 13 9 15 11 17 13 19 15
REMARK SMILES IDX 5 17 20 18 4 19 22 20 3 21 6 22 7 23 21 25 23 27 2 29 1 30
REMARK H PARENT 13 10 15 12 17 14 19 16 7 24 21 26 23 28 1 31
REMARK Flexibility Score: inf
ROOT
ATOM      1  O   UNL     1      40.499  41.321  25.008  1.00  0.00    -0.313 OA
ENDROOT
BRANCH   1   2
ATOM      2  C   UNL     1      40.041  41.616  23.692  1.00  0.00     0.285 C 
ATOM      3  C   UNL     1      39.119  39.440  23.256  1.00  0.00     0.178 C 
ATOM      4  C   UNL     1      40.241  39.113  22.240  1.00  0.00     0.177 C 
ATOM      5  O   UNL     1      38.885  40.842  23.384  1.00  0.00    -0.341 OA
ATOM      6  C   UNL     1      41.519  39.915  22.542  1.00  0.00     0.179 C 
ATOM      7  C   UNL     1      41.164  41.405  22.652  1.00  0.00     0.202 C 
BRANCH   3   8
ATOM      8  C   UNL     1      39.264  38.730  24.618  1.00  0.00     0.191 C 
BRANCH   8   9
ATOM      9  O   UNL     1      38.336  39.252  25.528  1.00  0.00    -0.394 OA
ATOM     10  H   UNL     1      37.820  38.474  25.869  1.00  0.00     0.210 HD
ENDBRANCH   8   9
ENDBRANCH   3   8
BRANCH   4  11
ATOM     11  O   UNL     1      40.494  37.731  22.170  1.00  0.00    -0.387 OA
ATOM     12  H   UNL     1      39.698  37.251  22.520  1.00  0.00     0.211 HD
ENDBRANCH   4  11
BRANCH   6  13
ATOM     13  O   UNL     1      42.491  39.699  21.548  1.00  0.00    -0.387 OA
ATOM     14  H   UNL     1      42.693  40.575  21.125  1.00  0.00     0.211 HD
ENDBRANCH   6  13
BRANCH   7  15
ATOM     15  O   UNL     1      42.300  42.146  23.010  1.00  0.00    -0.385 OA
ATOM     16  H   UNL     1      41.996  43.076  23.181  1.00  0.00     0.211 HD
ENDBRANCH   7  15
ENDBRANCH   1   2
BRANCH   1  17
ATOM     17  C   UNL     1      40.742  42.425  25.891  1.00  0.00     0.224 C 
ATOM     18  C   UNL     1      40.192  42.226  27.334  1.00  0.00     0.208 C 
ATOM     19  O   UNL     1      42.154  42.508  25.992  1.00  0.00    -0.337 OA
ATOM     20  C   UNL     1      41.382  41.712  28.094  1.00  0.00     0.180 C 
ATOM     21  C   UNL     1      42.550  42.322  27.333  1.00  0.00     0.179 C 
BRANCH  17  22
ATOM     22  C   UNL     1      40.306  43.788  25.281  1.00  0.00     0.225 C 
BRANCH  22  23
ATOM     23  O   UNL     1      41.385  44.562  24.826  1.00  0.00    -0.391 OA
ATOM     24  H   UNL     1      41.105  44.988  23.974  1.00  0.00     0.210 HD
ENDBRANCH  22  23
ENDBRANCH  17  22
BRANCH  18  25
ATOM     25  O   UNL     1      39.131  41.312  27.422  1.00  0.00    -0.385 OA
ATOM     26  H   UNL     1      39.473  40.518  27.909  1.00  0.00     0.211 HD
ENDBRANCH  18  25
BRANCH  20  27
ATOM     27  O   UNL     1      41.345  42.104  29.442  1.00  0.00    -0.387 OA
ATOM     28  H   UNL     1      40.405  42.360  29.636  1.00  0.00     0.211 HD
ENDBRANCH  20  27
BRANCH  21  29
ATOM     29  C   UNL     1      43.039  43.668  27.898  1.00  0.00     0.191 C 
BRANCH  29  30
ATOM     30  O   UNL     1      43.593  44.446  26.873  1.00  0.00    -0.394 OA
ATOM     31  H   UNL     1      43.690  43.843  26.090  1.00  0.00     0.210 HD
ENDBRANCH  29  30
ENDBRANCH  21  29
ENDBRANCH   1  17
TORSDOF 13
ENDMDL
MODEL 4
REMARK VINA RESULT:    -5.211      1.858      2.830
REMARK INTER + INTRA:          -9.476
REMARK INTER:                  -7.548
REMARK INTRA:                  -1.928
REMARK UNBOUND:                -1.523
REMARK SMILES OC[C@@H]1O[C@@](CO)(O[C@@H]2O[C@H](CO)[C@H](O)[C@@H](O)[C@@H]2O)[C@@H](O)[C@@H]1O
REMARK SMILES IDX 8 1 9 2 11 3 14 4 10 5 16 6 18 7 12 8 13 9 15 11 17 13 19 15
REMARK SMILES IDX 5 17 20 18 4 19 22 20 3 21 6 22 7 23 21 25 23 27 2 29 1 30
REMARK H PARENT 13 10 15 12 17 14 19 16 7 24 21 26 23 28 1 31
REMARK Flexibility Score: inf
ROOT
ATOM      1  O   UNL     1      40.035  40.055  24.529  1.00  0.00    -0.313 OA
ENDROOT
BRANCH   1   2
ATOM      2  C   UNL     1      40.667  39.344  23.470  1.00  0.00     0.285 C 
ATOM      3  C   UNL     1      38.638  38.715  22.347  1.00  0.00     0.178 C 
ATOM      4  C   UNL     1      38.811  37.232  22.758  1.00  0.00     0.177 C 
ATOM      5  O   UNL     1      39.879  39.416  22.285  1.00  0.00    -0.341 OA
ATOM      6  C   UNL     1      39.644  37.103  24.046  1.00  0.00     0.179 C 
ATOM      7  C   UNL     1      40.956  37.881  23.875  1.00  0.00     0.202 C 
BRANCH   3   8
ATOM      8  C   UNL     1      37.559  39.477  23.143  1.00  0.00     0.191 C 
BRANCH   8   9
ATOM      9  O   UNL     1      37.708  40.856  22.948  1.00  0.00    -0.394 OA
ATOM     10  H   UNL     1      38.233  41.187  23.724  1.00  0.00     0.210 HD
ENDBRANCH   8   9
ENDBRANCH   3   8
BRANCH   4  11
ATOM     11  O   UNL     1      37.572  36.574  22.868  1.00  0.00    -0.387 OA
ATOM     12  H   UNL     1      37.162  36.826  23.736  1.00  0.00     0.211 HD
ENDBRANCH   4  11
BRANCH   6  13
ATOM     13  O   UNL     1      39.893  35.751  24.346  1.00  0.00    -0.387 OA
ATOM     14  H   UNL     1      40.210  35.309  23.515  1.00  0.00     0.211 HD
ENDBRANCH   6  13
BRANCH   7  15
ATOM     15  O   UNL     1      41.695  37.848  25.068  1.00  0.00    -0.385 OA
ATOM     16  H   UNL     1      41.228  37.221  25.680  1.00  0.00     0.211 HD
ENDBRANCH   7  15
ENDBRANCH   1   2
BRANCH   1  17
ATOM     17  C   UNL     1      40.632  41.289  24.951  1.00  0.00     0.224 C 
ATOM     18  C   UNL     1      39.713  42.176  25.842  1.00  0.00     0.208 C 
ATOM     19  O   UNL     1      41.739  40.905  25.750  1.00  0.00    -0.337 OA
ATOM     20  C   UNL     1      40.126  41.814  27.241  1.00  0.00     0.180 C 
ATOM     21  C   UNL     1      41.581  41.405  27.060  1.00  0.00     0.179 C 
BRANCH  17  22
ATOM     22  C   UNL     1      41.253  42.090  23.771  1.00  0.00     0.225 C 
BRANCH  22  23
ATOM     23  O   UNL     1      40.300  42.538  22.843  1.00  0.00    -0.391 OA
ATOM     24  H   UNL     1      39.640  43.090  23.339  1.00  0.00     0.210 HD
ENDBRANCH  22  23
ENDBRANCH  17  22
BRANCH  18  25
ATOM     25  O   UNL     1      38.341  41.935  25.668  1.00  0.00    -0.385 OA
ATOM     26  H   UNL     1      37.891  42.818  25.651  1.00  0.00     0.211 HD
ENDBRANCH  18  25
BRANCH  20  27
ATOM     27  O   UNL     1      39.970  42.896  28.123  1.00  0.00    -0.387 OA
ATOM     28  H   UNL     1      39.404  42.572  28.871  1.00  0.00     0.211 HD
ENDBRANCH  20  27
BRANCH  21  29
ATOM     29  C   UNL     1      42.591  42.543  27.282  1.00  0.00     0.191 C 
BRANCH  29  30
ATOM     30  O   UNL     1      42.843  42.703  28.651  1.00  0.00    -0.394 OA
ATOM     31  H   UNL     1      43.729  42.284  28.819  1.00  0.00     0.210 HD
ENDBRANCH  29  30
ENDBRANCH  21  29
ENDBRANCH   1  17
TORSDOF 13
ENDMDL
MODEL 5
REMARK VINA RESULT:    -5.204      1.537      6.111
REMARK INTER + INTRA:          -9.466
REMARK INTER:                  -7.624
REMARK INTRA:                  -1.842
REMARK UNBOUND:                -1.523
REMARK SMILES OC[C@@H]1O[C@@](CO)(O[C@@H]2O[C@H](CO)[C@H](O)[C@@H](O)[C@@H]2O)[C@@H](O)[C@@H]1O
REMARK SMILES IDX 8 1 9 2 11 3 14 4 10 5 16 6 18 7 12 8 13 9 15 11 17 13 19 15
REMARK SMILES IDX 5 17 20 18 4 19 22 20 3 21 6 22 7 23 21 25 23 27 2 29 1 30
REMARK H PARENT 13 10 15 12 17 14 19 16 7 24 21 26 23 28 1 31
REMARK Flexibility Score: inf
ROOT
ATOM      1  O   UNL     1      39.932  40.558  24.044  1.00  0.00    -0.313 OA
ENDROOT
BRANCH   1   2
ATOM      2  C   UNL     1      38.918  41.555  23.965  1.00  0.00     0.285 C 
ATOM      3  C   UNL     1      40.305  43.379  24.690  1.00  0.00     0.178 C 
ATOM      4  C   UNL     1      39.567  43.466  26.048  1.00  0.00     0.177 C 
ATOM      5  O   UNL     1      39.492  42.823  23.657  1.00  0.00    -0.341 OA
ATOM      6  C   UNL     1      38.943  42.113  26.432  1.00  0.00     0.179 C 
ATOM      7  C   UNL     1      38.084  41.607  25.265  1.00  0.00     0.202 C 
BRANCH   3   8
ATOM      8  C   UNL     1      41.704  42.732  24.763  1.00  0.00     0.191 C 
BRANCH   8   9
ATOM      9  O   UNL     1      42.152  42.421  23.473  1.00  0.00    -0.394 OA
ATOM     10  H   UNL     1      41.336  42.347  22.910  1.00  0.00     0.210 HD
ENDBRANCH   8   9
ENDBRANCH   3   8
BRANCH   4  11
ATOM     11  O   UNL     1      40.404  43.964  27.064  1.00  0.00    -0.387 OA
ATOM     12  H   UNL     1      39.993  44.792  27.427  1.00  0.00     0.211 HD
ENDBRANCH   4  11
BRANCH   6  13
ATOM     13  O   UNL     1      38.178  42.232  27.608  1.00  0.00    -0.387 OA
ATOM     14  H   UNL     1      38.779  42.557  28.329  1.00  0.00     0.211 HD
ENDBRANCH   6  13
BRANCH   7  15
ATOM     15  O   UNL     1      37.571  40.334  25.560  1.00  0.00    -0.385 OA
ATOM     16  H   UNL     1      37.034  40.050  24.775  1.00  0.00     0.211 HD
ENDBRANCH   7  15
ENDBRANCH   1   2
BRANCH   1  17
ATOM     17  C   UNL     1      39.721  39.337  23.322  1.00  0.00     0.224 C 
ATOM     18  C   UNL     1      40.956  38.850  22.509  1.00  0.00     0.208 C 
ATOM     19  O   UNL     1      39.470  38.361  24.320  1.00  0.00    -0.337 OA
ATOM     20  C   UNL     1      41.619  37.869  23.434  1.00  0.00     0.180 C 
ATOM     21  C   UNL     1      40.450  37.349  24.258  1.00  0.00     0.179 C 
BRANCH  17  22
ATOM     22  C   UNL     1      38.426  39.365  22.459  1.00  0.00     0.225 C 
BRANCH  22  23
ATOM     23  O   UNL     1      37.380  38.606  23.005  1.00  0.00    -0.391 OA
ATOM     24  H   UNL     1      36.595  38.710  22.406  1.00  0.00     0.210 HD
ENDBRANCH  22  23
ENDBRANCH  17  22
BRANCH  18  25
ATOM     25  O   UNL     1      41.855  39.872  22.166  1.00  0.00    -0.385 OA
ATOM     26  H   UNL     1      42.638  39.438  21.740  1.00  0.00     0.211 HD
ENDBRANCH  18  25
BRANCH  20  27
ATOM     27  O   UNL     1      42.280  36.853  22.724  1.00  0.00    -0.387 OA
ATOM     28  H   UNL     1      42.330  36.070  23.332  1.00  0.00     0.211 HD
ENDBRANCH  20  27
BRANCH  21  29
ATOM     29  C   UNL     1      39.805  36.067  23.703  1.00  0.00     0.191 C 
BRANCH  29  30
ATOM     30  O   UNL     1      38.421  36.093  23.917  1.00  0.00    -0.394 OA
ATOM     31  H   UNL     1      38.176  37.050  24.019  1.00  0.00     0.210 HD
ENDBRANCH  29  30
ENDBRANCH  21  29
ENDBRANCH   1  17
TORSDOF 13
ENDMDL
MODEL 6
REMARK VINA RESULT:    -5.176      1.625      6.112
REMARK INTER + INTRA:          -9.422
REMARK INTER:                  -7.739
REMARK INTRA:                  -1.683
REMARK UNBOUND:                -1.523
REMARK SMILES OC[C@@H]1O[C@@](CO)(O[C@@H]2O[C@H](CO)[C@H](O)[C@@H](O)[C@@H]2O)[C@@H](O)[C@@H]1O
REMARK SMILES IDX 8 1 9 2 11 3 14 4 10 5 16 6 18 7 12 8 13 9 15 11 17 13 19 15
REMARK SMILES IDX 5 17 20 18 4 19 22 20 3 21 6 22 7 23 21 25 23 27 2 29 1 30
REMARK H PARENT 13 10 15 12 17 14 19 16 7 24 21 26 23 28 1 31
REMARK Flexibility Score: inf
ROOT
ATOM      1  O   UNL     1      40.621  41.099  24.944  1.00  0.00    -0.313 OA
ENDROOT
BRANCH   1   2
ATOM      2  C   UNL     1      39.452  41.876  25.181  1.00  0.00     0.285 C 
ATOM      3  C   UNL     1      40.598  43.775  26.106  1.00  0.00     0.178 C 
ATOM      4  C   UNL     1      40.061  43.471  27.526  1.00  0.00     0.177 C 
ATOM      5  O   UNL     1      39.751  43.266  25.077  1.00  0.00    -0.341 OA
ATOM      6  C   UNL     1      39.738  41.975  27.692  1.00  0.00     0.179 C 
ATOM      7  C   UNL     1      38.818  41.529  26.546  1.00  0.00     0.202 C 
BRANCH   3   8
ATOM      8  C   UNL     1      42.083  43.412  25.894  1.00  0.00     0.191 C 
BRANCH   8   9
ATOM      9  O   UNL     1      42.424  43.577  24.546  1.00  0.00    -0.394 OA
ATOM     10  H   UNL     1      43.103  44.303  24.522  1.00  0.00     0.210 HD
ENDBRANCH   8   9
ENDBRANCH   3   8
BRANCH   4  11
ATOM     11  O   UNL     1      40.938  43.931  28.525  1.00  0.00    -0.387 OA
ATOM     12  H   UNL     1      40.397  44.356  29.242  1.00  0.00     0.211 HD
ENDBRANCH   4  11
BRANCH   6  13
ATOM     13  O   UNL     1      39.142  41.729  28.944  1.00  0.00    -0.387 OA
ATOM     14  H   UNL     1      39.856  41.774  29.634  1.00  0.00     0.211 HD
ENDBRANCH   6  13
BRANCH   7  15
ATOM     15  O   UNL     1      38.578  40.149  26.630  1.00  0.00    -0.385 OA
ATOM     16  H   UNL     1      38.025  40.001  27.441  1.00  0.00     0.211 HD
ENDBRANCH   7  15
ENDBRANCH   1   2
BRANCH   1  17
ATOM     17  C   UNL     1      40.626  40.237  23.798  1.00  0.00     0.224 C 
ATOM     18  C   UNL     1      41.319  38.863  24.031  1.00  0.00     0.208 C 
ATOM     19  O   UNL     1      39.258  39.972  23.534  1.00  0.00    -0.337 OA
ATOM     20  C   UNL     1      40.177  37.948  24.374  1.00  0.00     0.180 C 
ATOM     21  C   UNL     1      39.009  38.587  23.638  1.00  0.00     0.179 C 
BRANCH  17  22
ATOM     22  C   UNL     1      41.148  40.946  22.515  1.00  0.00     0.225 C 
BRANCH  22  23
ATOM     23  O   UNL     1      42.491  41.343  22.608  1.00  0.00    -0.391 OA
ATOM     24  H   UNL     1      42.954  41.011  21.796  1.00  0.00     0.210 HD
ENDBRANCH  22  23
ENDBRANCH  17  22
BRANCH  18  25
ATOM     25  O   UNL     1      42.263  38.866  25.071  1.00  0.00    -0.385 OA
ATOM     26  H   UNL     1      42.192  39.745  25.524  1.00  0.00     0.211 HD
ENDBRANCH  18  25
BRANCH  20  27
ATOM     27  O   UNL     1      40.427  36.629  23.958  1.00  0.00    -0.387 OA
ATOM     28  H   UNL     1      39.714  36.399  23.308  1.00  0.00     0.211 HD
ENDBRANCH  20  27
BRANCH  21  29
ATOM     29  C   UNL     1      38.762  38.021  22.229  1.00  0.00     0.191 C 
BRANCH  29  30
ATOM     30  O   UNL     1      37.900  36.918  22.298  1.00  0.00    -0.394 OA
ATOM     31  H   UNL     1      37.124  37.138  21.717  1.00  0.00     0.210 HD
ENDBRANCH  29  30
ENDBRANCH  21  29
ENDBRANCH   1  17
TORSDOF 13
ENDMDL
MODEL 7
REMARK VINA RESULT:    -5.117     12.763     15.952
REMARK INTER + INTRA:          -9.332
REMARK INTER:                  -7.597
REMARK INTRA:                  -1.735
REMARK UNBOUND:                -1.523
REMARK SMILES OC[C@@H]1O[C@@](CO)(O[C@@H]2O[C@H](CO)[C@H](O)[C@@H](O)[C@@H]2O)[C@@H](O)[C@@H]1O
REMARK SMILES IDX 8 1 9 2 11 3 14 4 10 5 16 6 18 7 12 8 13 9 15 11 17 13 19 15
REMARK SMILES IDX 5 17 20 18 4 19 22 20 3 21 6 22 7 23 21 25 23 27 2 29 1 30
REMARK H PARENT 13 10 15 12 17 14 19 16 7 24 21 26 23 28 1 31
REMARK Flexibility Score: inf
ROOT
ATOM      1  O   UNL     1      49.247  28.752  16.770  1.00  0.00    -0.313 OA
ENDROOT
BRANCH   1   2
ATOM      2  C   UNL     1      50.291  28.416  15.863  1.00  0.00     0.285 C 
ATOM      3  C   UNL     1      50.164  26.041  16.205  1.00  0.00     0.178 C 
ATOM      4  C   UNL     1      51.514  26.027  16.963  1.00  0.00     0.177 C 
ATOM      5  O   UNL     1      50.057  27.132  15.291  1.00  0.00    -0.341 OA
ATOM      6  C   UNL     1      51.804  27.392  17.613  1.00  0.00     0.179 C 
ATOM      7  C   UNL     1      51.673  28.492  16.550  1.00  0.00     0.202 C 
BRANCH   3   8
ATOM      8  C   UNL     1      48.922  25.894  17.110  1.00  0.00     0.191 C 
BRANCH   8   9
ATOM      9  O   UNL     1      47.758  25.994  16.339  1.00  0.00    -0.394 OA
ATOM     10  H   UNL     1      47.124  25.325  16.711  1.00  0.00     0.210 HD
ENDBRANCH   8   9
ENDBRANCH   3   8
BRANCH   4  11
ATOM     11  O   UNL     1      51.577  24.978  17.898  1.00  0.00    -0.387 OA
ATOM     12  H   UNL     1      50.988  24.244  17.581  1.00  0.00     0.211 HD
ENDBRANCH   4  11
BRANCH   6  13
ATOM     13  O   UNL     1      53.084  27.404  18.198  1.00  0.00    -0.387 OA
ATOM     14  H   UNL     1      53.141  28.203  18.786  1.00  0.00     0.211 HD
ENDBRANCH   6  13
BRANCH   7  15
ATOM     15  O   UNL     1      51.851  29.754  17.138  1.00  0.00    -0.385 OA
ATOM     16  H   UNL     1      51.073  29.905  17.737  1.00  0.00     0.211 HD
ENDBRANCH   7  15
ENDBRANCH   1   2
BRANCH   1  17
ATOM     17  C   UNL     1      48.383  29.842  16.417  1.00  0.00     0.224 C 
ATOM     18  C   UNL     1      47.674  30.518  17.627  1.00  0.00     0.208 C 
ATOM     19  O   UNL     1      49.240  30.814  15.841  1.00  0.00    -0.337 OA
ATOM     20  C   UNL     1      48.564  31.686  17.946  1.00  0.00     0.180 C 
ATOM     21  C   UNL     1      49.189  32.005  16.595  1.00  0.00     0.179 C 
BRANCH  17  22
ATOM     22  C   UNL     1      47.383  29.472  15.284  1.00  0.00     0.225 C 
BRANCH  22  23
ATOM     23  O   UNL     1      46.586  28.358  15.590  1.00  0.00    -0.391 OA
ATOM     24  H   UNL     1      46.559  28.276  16.578  1.00  0.00     0.210 HD
ENDBRANCH  22  23
ENDBRANCH  17  22
BRANCH  18  25
ATOM     25  O   UNL     1      47.545  29.689  18.752  1.00  0.00    -0.385 OA
ATOM     26  H   UNL     1      48.438  29.295  18.926  1.00  0.00     0.211 HD
ENDBRANCH  18  25
BRANCH  20  27
ATOM     27  O   UNL     1      47.835  32.762  18.478  1.00  0.00    -0.387 OA
ATOM     28  H   UNL     1      47.979  32.742  19.460  1.00  0.00     0.211 HD
ENDBRANCH  20  27
BRANCH  21  29
ATOM     29  C   UNL     1      48.434  33.074  15.786  1.00  0.00     0.191 C 
BRANCH  29  30
ATOM     30  O   UNL     1      48.778  34.354  16.240  1.00  0.00    -0.394 OA
ATOM     31  H   UNL     1      47.997  34.935  16.043  1.00  0.00     0.210 HD
ENDBRANCH  29  30
ENDBRANCH  21  29
ENDBRANCH   1  17
TORSDOF 13
ENDMDL
MODEL 8
REMARK VINA RESULT:    -5.096     15.299     19.023
REMARK INTER + INTRA:          -9.300
REMARK INTER:                  -7.498
REMARK INTRA:                  -1.801
REMARK UNBOUND:                -1.523
REMARK SMILES OC[C@@H]1O[C@@](CO)(O[C@@H]2O[C@H](CO)[C@H](O)[C@@H](O)[C@@H]2O)[C@@H](O)[C@@H]1O
REMARK SMILES IDX 8 1 9 2 11 3 14 4 10 5 16 6 18 7 12 8 13 9 15 11 17 13 19 15
REMARK SMILES IDX 5 17 20 18 4 19 22 20 3 21 6 22 7 23 21 25 23 27 2 29 1 30
REMARK H PARENT 13 10 15 12 17 14 19 16 7 24 21 26 23 28 1 31
REMARK Flexibility Score: inf
ROOT
ATOM      1  O   UNL     1      50.494  26.849  14.531  1.00  0.00    -0.313 OA
ENDROOT
BRANCH   1   2
ATOM      2  C   UNL     1      50.473  25.441  14.321  1.00  0.00     0.285 C 
ATOM      3  C   UNL     1      52.521  25.347  13.068  1.00  0.00     0.178 C 
ATOM      4  C   UNL     1      51.761  25.037  11.754  1.00  0.00     0.177 C 
ATOM      5  O   UNL     1      51.801  24.934  14.229  1.00  0.00    -0.341 OA
ATOM      6  C   UNL     1      50.322  25.581  11.800  1.00  0.00     0.179 C 
ATOM      7  C   UNL     1      49.634  25.075  13.076  1.00  0.00     0.202 C 
BRANCH   3   8
ATOM      8  C   UNL     1      53.051  26.792  13.174  1.00  0.00     0.191 C 
BRANCH   8   9
ATOM      9  O   UNL     1      53.507  27.037  14.474  1.00  0.00    -0.394 OA
ATOM     10  H   UNL     1      53.291  26.220  14.999  1.00  0.00     0.210 HD
ENDBRANCH   8   9
ENDBRANCH   3   8
BRANCH   4  11
ATOM     11  O   UNL     1      52.461  25.501  10.625  1.00  0.00    -0.387 OA
ATOM     12  H   UNL     1      53.414  25.238  10.721  1.00  0.00     0.211 HD
ENDBRANCH   4  11
BRANCH   6  13
ATOM     13  O   UNL     1      49.606  25.194  10.652  1.00  0.00    -0.387 OA
ATOM     14  H   UNL     1      49.884  25.787   9.906  1.00  0.00     0.211 HD
ENDBRANCH   6  13
BRANCH   7  15
ATOM     15  O   UNL     1      48.348  25.627  13.181  1.00  0.00    -0.385 OA
ATOM     16  H   UNL     1      47.746  24.900  13.489  1.00  0.00     0.211 HD
ENDBRANCH   7  15
ENDBRANCH   1   2
BRANCH   1  17
ATOM     17  C   UNL     1      49.704  27.373  15.608  1.00  0.00     0.224 C 
ATOM     18  C   UNL     1      50.426  28.450  16.469  1.00  0.00     0.208 C 
ATOM     19  O   UNL     1      48.605  28.012  14.979  1.00  0.00    -0.337 OA
ATOM     20  C   UNL     1      49.966  29.747  15.865  1.00  0.00     0.180 C 
ATOM     21  C   UNL     1      48.598  29.384  15.305  1.00  0.00     0.179 C 
BRANCH  17  22
ATOM     22  C   UNL     1      49.066  26.255  16.483  1.00  0.00     0.225 C 
BRANCH  22  23
ATOM     23  O   UNL     1      47.707  26.041  16.205  1.00  0.00    -0.391 OA
ATOM     24  H   UNL     1      47.280  25.723  17.042  1.00  0.00     0.210 HD
ENDBRANCH  22  23
ENDBRANCH  17  22
BRANCH  18  25
ATOM     25  O   UNL     1      51.826  28.371  16.430  1.00  0.00    -0.385 OA
ATOM     26  H   UNL     1      52.079  28.168  15.493  1.00  0.00     0.211 HD
ENDBRANCH  18  25
BRANCH  20  27
ATOM     27  O   UNL     1      49.907  30.773  16.823  1.00  0.00    -0.387 OA
ATOM     28  H   UNL     1      50.700  31.350  16.667  1.00  0.00     0.211 HD
ENDBRANCH  20  27
BRANCH  21  29
ATOM     29  C   UNL     1      47.427  29.660  16.264  1.00  0.00     0.191 C 
BRANCH  29  30
ATOM     30  O   UNL     1      47.079  31.017  16.220  1.00  0.00    -0.394 OA
ATOM     31  H   UNL     1      46.784  31.195  15.288  1.00  0.00     0.210 HD
ENDBRANCH  29  30
ENDBRANCH  21  29
ENDBRANCH   1  17
TORSDOF 13
ENDMDL
MODEL 9
REMARK VINA RESULT:    -5.006      1.577      6.203
REMARK INTER + INTRA:          -9.162
REMARK INTER:                  -7.497
REMARK INTRA:                  -1.665
REMARK UNBOUND:                -1.523
REMARK SMILES OC[C@@H]1O[C@@](CO)(O[C@@H]2O[C@H](CO)[C@H](O)[C@@H](O)[C@@H]2O)[C@@H](O)[C@@H]1O
REMARK SMILES IDX 8 1 9 2 11 3 14 4 10 5 16 6 18 7 12 8 13 9 15 11 17 13 19 15
REMARK SMILES IDX 5 17 20 18 4 19 22 20 3 21 6 22 7 23 21 25 23 27 2 29 1 30
REMARK H PARENT 13 10 15 12 17 14 19 16 7 24 21 26 23 28 1 31
REMARK Flexibility Score: inf
ROOT
ATOM      1  O   UNL     1      40.092  40.921  25.343  1.00  0.00    -0.313 OA
ENDROOT
BRANCH   1   2
ATOM      2  C   UNL     1      39.043  41.815  25.700  1.00  0.00     0.285 C 
ATOM      3  C   UNL     1      40.476  43.597  26.438  1.00  0.00     0.178 C 
ATOM      4  C   UNL     1      40.087  43.364  27.919  1.00  0.00     0.177 C 
ATOM      5  O   UNL     1      39.463  43.166  25.530  1.00  0.00    -0.341 OA
ATOM      6  C   UNL     1      39.640  41.910  28.157  1.00  0.00     0.179 C 
ATOM      7  C   UNL     1      38.548  41.548  27.140  1.00  0.00     0.202 C 
BRANCH   3   8
ATOM      8  C   UNL     1      41.880  43.084  26.057  1.00  0.00     0.191 C 
BRANCH   8   9
ATOM      9  O   UNL     1      42.121  43.322  24.699  1.00  0.00    -0.394 OA
ATOM     10  H   UNL     1      42.393  42.448  24.311  1.00  0.00     0.210 HD
ENDBRANCH   8   9
ENDBRANCH   3   8
BRANCH   4  11
ATOM     11  O   UNL     1      41.121  43.744  28.795  1.00  0.00    -0.387 OA
ATOM     12  H   UNL     1      41.589  42.922  29.098  1.00  0.00     0.211 HD
ENDBRANCH   4  11
BRANCH   6  13
ATOM     13  O   UNL     1      39.180  41.739  29.476  1.00  0.00    -0.387 OA
ATOM     14  H   UNL     1      39.596  40.912  29.837  1.00  0.00     0.211 HD
ENDBRANCH   6  13
BRANCH   7  15
ATOM     15  O   UNL     1      38.185  40.200  27.283  1.00  0.00    -0.385 OA
ATOM     16  H   UNL     1      39.020  39.693  27.459  1.00  0.00     0.211 HD
ENDBRANCH   7  15
ENDBRANCH   1   2
BRANCH   1  17
ATOM     17  C   UNL     1      39.920  40.135  24.155  1.00  0.00     0.224 C 
ATOM     18  C   UNL     1      40.356  40.850  22.843  1.00  0.00     0.208 C 
ATOM     19  O   UNL     1      40.780  39.020  24.327  1.00  0.00    -0.337 OA
ATOM     20  C   UNL     1      41.762  40.365  22.631  1.00  0.00     0.180 C 
ATOM     21  C   UNL     1      41.745  38.997  23.298  1.00  0.00     0.179 C 
BRANCH  17  22
ATOM     22  C   UNL     1      38.494  39.522  24.042  1.00  0.00     0.225 C 
BRANCH  22  23
ATOM     23  O   UNL     1      38.290  38.431  24.901  1.00  0.00    -0.391 OA
ATOM     24  H   UNL     1      39.184  38.090  25.164  1.00  0.00     0.210 HD
ENDBRANCH  22  23
ENDBRANCH  17  22
BRANCH  18  25
ATOM     25  O   UNL     1      40.336  42.252  22.921  1.00  0.00    -0.385 OA
ATOM     26  H   UNL     1      39.466  42.550  22.552  1.00  0.00     0.211 HD
ENDBRANCH  18  25
BRANCH  20  27
ATOM     27  O   UNL     1      42.088  40.302  21.266  1.00  0.00    -0.387 OA
ATOM     28  H   UNL     1      42.455  39.394  21.105  1.00  0.00     0.211 HD
ENDBRANCH  20  27
BRANCH  21  29
ATOM     29  C   UNL     1      41.425  37.832  22.344  1.00  0.00     0.191 C 
BRANCH  29  30
ATOM     30  O   UNL     1      42.485  37.638  21.450  1.00  0.00    -0.394 OA
ATOM     31  H   UNL     1      42.684  38.530  21.059  1.00  0.00     0.210 HD
ENDBRANCH  29  30
ENDBRANCH  21  29
ENDBRANCH   1  17
TORSDOF 13
ENDMDL
