MODEL 1
REMARK VINA RESULT:    -7.522      0.000      0.000
REMARK INTER + INTRA:         -12.267
REMARK INTER:                 -10.160
REMARK INTRA:                  -2.107
REMARK UNBOUND:                -2.107
REMARK SMILES CC[C@@H](CC[C@@H](C)[C@@H]1CC[C@H]2[C@@H]3CC(=O)C4=CC(=O)CC[C@@]4(C)[C@H]3CC[C@]21C)C(C)C
REMARK SMILES IDX 4 1 3 2 2 3 1 4 29 5 30 6 31 7 5 8 6 9 7 10 8 11 9 12 27 13
REMARK SMILES IDX 10 14 11 15 26 16 28 17 12 18 25 19 24 20 13 21 22 22 14 23
REMARK SMILES IDX 16 24 21 25 23 26 15 27 17 28 20 29 18 30 19 31
REMARK H PARENT
REMARK Flexibility Score: inf
ROOT
ATOM      1  C   UNL     1      13.416  -8.783  59.396  1.00  0.00     0.004 C 
ENDROOT
BRANCH   1   2
ATOM      2  C   UNL     1      13.328  -7.284  59.817  1.00  0.00    -0.009 C 
BRANCH   2   3
ATOM      3  C   UNL     1      14.657  -6.784  60.451  1.00  0.00     0.000 C 
ATOM      4  C   UNL     1      15.902  -7.140  59.635  1.00  0.00     0.004 C 
ENDBRANCH   2   3
BRANCH   2   5
ATOM      5  C   UNL     1      12.100  -6.959  60.744  1.00  0.00    -0.014 C 
ATOM      6  C   UNL     1      12.511  -6.089  61.947  1.00  0.00     0.007 C 
ATOM      7  C   UNL     1      10.958  -6.247  59.994  1.00  0.00     0.007 C 
ENDBRANCH   2   5
ENDBRANCH   1   2
BRANCH   1   8
ATOM      8  C   UNL     1      12.167  -9.619  59.756  1.00  0.00     0.004 C 
BRANCH   8   9
ATOM      9  C   UNL     1      12.487 -10.848  60.656  1.00  0.00    -0.011 C 
ATOM     10  C   UNL     1      11.985 -12.151  59.992  1.00  0.00     0.008 C 
BRANCH   9  11
ATOM     11  C   UNL     1      14.016 -10.853  61.049  1.00  0.00    -0.002 C 
ATOM     12  C   UNL     1      14.688 -12.225  60.852  1.00  0.00     0.005 C 
ATOM     13  C   UNL     1      14.425 -10.433  62.505  1.00  0.00    -0.026 C 
ATOM     14  C   UNL     1      14.909 -12.825  62.243  1.00  0.00     0.005 C 
ATOM     15  C   UNL     1      14.433 -11.783  63.271  1.00  0.00    -0.001 C 
ATOM     16  C   UNL     1      15.860  -9.764  62.464  1.00  0.00     0.007 C 
ATOM     17  C   UNL     1      13.428  -9.430  63.142  1.00  0.00     0.012 C 
ATOM     18  C   UNL     1      15.238 -11.833  64.614  1.00  0.00     0.004 C 
ATOM     19  C   UNL     1      16.897 -10.341  63.441  1.00  0.00     0.005 C 
ATOM     20  C   UNL     1      16.253 -10.679  64.789  1.00  0.00     0.003 C 
ATOM     21  C   UNL     1      14.303 -11.838  65.844  1.00  0.00     0.085 C 
ATOM     22  C   UNL     1      17.268 -10.966  65.967  1.00  0.00    -0.000 C 
ATOM     23  C   UNL     1      15.093 -11.851  67.123  1.00  0.00     0.159 C 
ATOM     24  C   UNL     1      16.574 -11.750  67.093  1.00  0.00     0.005 C 
ATOM     25  C   UNL     1      18.503 -11.787  65.487  1.00  0.00     0.020 C 
ATOM     26  C   UNL     1      17.736  -9.607  66.550  1.00  0.00     0.017 C 
ATOM     27  O   UNL     1      14.484 -11.985  68.219  1.00  0.00    -0.295 OA
ATOM     28  C   UNL     1      17.294 -12.423  68.006  1.00  0.00     0.055 C 
ATOM     29  C   UNL     1      19.473 -12.131  66.633  1.00  0.00     0.081 C 
ATOM     30  C   UNL     1      18.749 -12.592  67.865  1.00  0.00     0.156 C 
ATOM     31  O   UNL     1      19.400 -13.140  68.795  1.00  0.00    -0.295 OA
ENDBRANCH   9  11
ENDBRANCH   8   9
ENDBRANCH   1   8
TORSDOF 6
ENDMDL
MODEL 2
REMARK VINA RESULT:    -7.491      3.002      8.490
REMARK INTER + INTRA:         -12.226
REMARK INTER:                 -10.665
REMARK INTRA:                  -1.560
REMARK UNBOUND:                -2.107
REMARK SMILES CC[C@@H](CC[C@@H](C)[C@@H]1CC[C@H]2[C@@H]3CC(=O)C4=CC(=O)CC[C@@]4(C)[C@H]3CC[C@]21C)C(C)C
REMARK SMILES IDX 4 1 3 2 2 3 1 4 29 5 30 6 31 7 5 8 6 9 7 10 8 11 9 12 27 13
REMARK SMILES IDX 10 14 11 15 26 16 28 17 12 18 25 19 24 20 13 21 22 22 14 23
REMARK SMILES IDX 16 24 21 25 23 26 15 27 17 28 20 29 18 30 19 31
REMARK H PARENT
REMARK Flexibility Score: inf
ROOT
ATOM      1  C   UNL     1      22.137 -11.856  66.268  1.00  0.00     0.004 C 
ENDROOT
BRANCH   1   2
ATOM      2  C   UNL     1      22.805 -12.503  65.016  1.00  0.00    -0.009 C 
BRANCH   2   3
ATOM      3  C   UNL     1      23.818 -13.615  65.413  1.00  0.00     0.000 C 
ATOM      4  C   UNL     1      24.929 -13.132  66.349  1.00  0.00     0.004 C 
ENDBRANCH   2   3
BRANCH   2   5
ATOM      5  C   UNL     1      23.463 -11.459  64.042  1.00  0.00    -0.014 C 
ATOM      6  C   UNL     1      24.110 -12.147  62.824  1.00  0.00     0.007 C 
ATOM      7  C   UNL     1      22.462 -10.404  63.532  1.00  0.00     0.007 C 
ENDBRANCH   2   5
ENDBRANCH   1   2
BRANCH   1   8
ATOM      8  C   UNL     1      21.289 -12.835  67.112  1.00  0.00     0.004 C 
BRANCH   8   9
ATOM      9  C   UNL     1      19.840 -12.329  67.371  1.00  0.00    -0.011 C 
ATOM     10  C   UNL     1      19.606 -12.103  68.883  1.00  0.00     0.008 C 
BRANCH   9  11
ATOM     11  C   UNL     1      19.528 -11.078  66.459  1.00  0.00    -0.002 C 
ATOM     12  C   UNL     1      19.050  -9.851  67.258  1.00  0.00     0.005 C 
ATOM     13  C   UNL     1      18.467 -11.224  65.312  1.00  0.00    -0.026 C 
ATOM     14  C   UNL     1      17.548  -9.701  67.003  1.00  0.00     0.005 C 
ATOM     15  C   UNL     1      17.143 -10.796  66.000  1.00  0.00    -0.001 C 
ATOM     16  C   UNL     1      18.859 -10.253  64.123  1.00  0.00     0.007 C 
ATOM     17  C   UNL     1      18.374 -12.670  64.762  1.00  0.00     0.012 C 
ATOM     18  C   UNL     1      15.962 -10.366  65.065  1.00  0.00     0.004 C 
ATOM     19  C   UNL     1      17.749  -9.311  63.633  1.00  0.00     0.005 C 
ATOM     20  C   UNL     1      16.392 -10.021  63.619  1.00  0.00     0.003 C 
ATOM     21  C   UNL     1      14.864 -11.450  64.992  1.00  0.00     0.085 C 
ATOM     22  C   UNL     1      15.245  -9.269  62.832  1.00  0.00    -0.000 C 
ATOM     23  C   UNL     1      13.757 -11.035  64.063  1.00  0.00     0.159 C 
ATOM     24  C   UNL     1      13.865  -9.780  63.278  1.00  0.00     0.005 C 
ATOM     25  C   UNL     1      15.294  -7.727  63.061  1.00  0.00     0.020 C 
ATOM     26  C   UNL     1      15.404  -9.580  61.321  1.00  0.00     0.017 C 
ATOM     27  O   UNL     1      12.720 -11.749  63.987  1.00  0.00    -0.295 OA
ATOM     28  C   UNL     1      12.757  -9.058  63.043  1.00  0.00     0.055 C 
ATOM     29  C   UNL     1      14.147  -6.982  62.353  1.00  0.00     0.081 C 
ATOM     30  C   UNL     1      12.830  -7.683  62.522  1.00  0.00     0.156 C 
ATOM     31  O   UNL     1      11.766  -7.081  62.218  1.00  0.00    -0.295 OA
ENDBRANCH   9  11
ENDBRANCH   8   9
ENDBRANCH   1   8
TORSDOF 6
ENDMDL
MODEL 3
REMARK VINA RESULT:    -7.316      1.465      1.823
REMARK INTER + INTRA:         -11.989
REMARK INTER:                  -9.891
REMARK INTRA:                  -2.098
REMARK UNBOUND:                -2.107
REMARK SMILES CC[C@@H](CC[C@@H](C)[C@@H]1CC[C@H]2[C@@H]3CC(=O)C4=CC(=O)CC[C@@]4(C)[C@H]3CC[C@]21C)C(C)C
REMARK SMILES IDX 4 1 3 2 2 3 1 4 29 5 30 6 31 7 5 8 6 9 7 10 8 11 9 12 27 13
REMARK SMILES IDX 10 14 11 15 26 16 28 17 12 18 25 19 24 20 13 21 22 22 14 23
REMARK SMILES IDX 16 24 21 25 23 26 15 27 17 28 20 29 18 30 19 31
REMARK H PARENT
REMARK Flexibility Score: inf
ROOT
ATOM      1  C   UNL     1      14.137  -9.554  60.213  1.00  0.00     0.004 C 
ENDROOT
BRANCH   1   2
ATOM      2  C   UNL     1      13.530  -8.188  60.656  1.00  0.00    -0.009 C 
BRANCH   2   3
ATOM      3  C   UNL     1      14.627  -7.201  61.149  1.00  0.00     0.000 C 
ATOM      4  C   UNL     1      16.024  -7.511  60.604  1.00  0.00     0.004 C 
ENDBRANCH   2   3
BRANCH   2   5
ATOM      5  C   UNL     1      12.374  -8.324  61.714  1.00  0.00    -0.014 C 
ATOM      6  C   UNL     1      12.569  -7.355  62.896  1.00  0.00     0.007 C 
ATOM      7  C   UNL     1      10.978  -8.082  61.108  1.00  0.00     0.007 C 
ENDBRANCH   2   5
ENDBRANCH   1   2
BRANCH   1   8
ATOM      8  C   UNL     1      13.221 -10.772  60.472  1.00  0.00     0.004 C 
BRANCH   8   9
ATOM      9  C   UNL     1      13.783 -11.747  61.547  1.00  0.00    -0.011 C 
ATOM     10  C   UNL     1      13.455 -13.212  61.175  1.00  0.00     0.008 C 
BRANCH   9  11
ATOM     11  C   UNL     1      15.315 -11.456  61.800  1.00  0.00    -0.002 C 
ATOM     12  C   UNL     1      16.220 -12.661  61.483  1.00  0.00     0.005 C 
ATOM     13  C   UNL     1      15.772 -11.001  63.230  1.00  0.00    -0.026 C 
ATOM     14  C   UNL     1      16.689 -13.240  62.820  1.00  0.00     0.005 C 
ATOM     15  C   UNL     1      16.120 -12.342  63.932  1.00  0.00    -0.001 C 
ATOM     16  C   UNL     1      17.038 -10.058  63.090  1.00  0.00     0.007 C 
ATOM     17  C   UNL     1      14.664 -10.234  63.998  1.00  0.00     0.012 C 
ATOM     18  C   UNL     1      17.046 -12.264  65.194  1.00  0.00     0.004 C 
ATOM     19  C   UNL     1      18.257 -10.441  63.942  1.00  0.00     0.005 C 
ATOM     20  C   UNL     1      17.827 -10.935  65.327  1.00  0.00     0.003 C 
ATOM     21  C   UNL     1      16.254 -12.487  66.501  1.00  0.00     0.085 C 
ATOM     22  C   UNL     1      18.987 -11.044  66.395  1.00  0.00    -0.000 C 
ATOM     23  C   UNL     1      17.152 -12.375  67.702  1.00  0.00     0.159 C 
ATOM     24  C   UNL     1      18.574 -11.979  67.543  1.00  0.00     0.005 C 
ATOM     25  C   UNL     1      20.308 -11.589  65.769  1.00  0.00     0.020 C 
ATOM     26  C   UNL     1      19.234  -9.634  66.993  1.00  0.00     0.017 C 
ATOM     27  O   UNL     1      16.691 -12.655  68.842  1.00  0.00    -0.295 OA
ATOM     28  C   UNL     1      19.497 -12.518  68.356  1.00  0.00     0.055 C 
ATOM     29  C   UNL     1      21.433 -11.761  66.807  1.00  0.00     0.081 C 
ATOM     30  C   UNL     1      20.937 -12.389  68.078  1.00  0.00     0.156 C 
ATOM     31  O   UNL     1      21.770 -12.820  68.920  1.00  0.00    -0.295 OA
ENDBRANCH   9  11
ENDBRANCH   8   9
ENDBRANCH   1   8
TORSDOF 6
ENDMDL
MODEL 4
REMARK VINA RESULT:    -7.291      2.980      5.551
REMARK INTER + INTRA:         -11.955
REMARK INTER:                  -9.870
REMARK INTRA:                  -2.086
REMARK UNBOUND:                -2.107
REMARK SMILES CC[C@@H](CC[C@@H](C)[C@@H]1CC[C@H]2[C@@H]3CC(=O)C4=CC(=O)CC[C@@]4(C)[C@H]3CC[C@]21C)C(C)C
REMARK SMILES IDX 4 1 3 2 2 3 1 4 29 5 30 6 31 7 5 8 6 9 7 10 8 11 9 12 27 13
REMARK SMILES IDX 10 14 11 15 26 16 28 17 12 18 25 19 24 20 13 21 22 22 14 23
REMARK SMILES IDX 16 24 21 25 23 26 15 27 17 28 20 29 18 30 19 31
REMARK H PARENT
REMARK Flexibility Score: inf
ROOT
ATOM      1  C   UNL     1      11.549  -2.474  59.831  1.00  0.00     0.004 C 
ENDROOT
BRANCH   1   2
ATOM      2  C   UNL     1      11.384  -2.187  61.355  1.00  0.00    -0.009 C 
BRANCH   2   3
ATOM      3  C   UNL     1      12.734  -1.790  62.017  1.00  0.00     0.000 C 
ATOM      4  C   UNL     1      13.882  -1.613  61.020  1.00  0.00     0.004 C 
ENDBRANCH   2   3
BRANCH   2   5
ATOM      5  C   UNL     1      10.686  -3.353  62.146  1.00  0.00    -0.014 C 
ATOM      6  C   UNL     1      11.447  -3.697  63.440  1.00  0.00     0.007 C 
ATOM      7  C   UNL     1       9.222  -3.035  62.509  1.00  0.00     0.007 C 
ENDBRANCH   2   5
ENDBRANCH   1   2
BRANCH   1   8
ATOM      8  C   UNL     1      11.178  -3.915  59.412  1.00  0.00     0.004 C 
BRANCH   8   9
ATOM      9  C   UNL     1      12.393  -4.737  58.893  1.00  0.00    -0.011 C 
ATOM     10  C   UNL     1      13.139  -3.961  57.783  1.00  0.00     0.008 C 
BRANCH   9  11
ATOM     11  C   UNL     1      13.299  -5.196  60.103  1.00  0.00    -0.002 C 
ATOM     12  C   UNL     1      14.803  -5.173  59.775  1.00  0.00     0.005 C 
ATOM     13  C   UNL     1      13.064  -6.617  60.727  1.00  0.00    -0.026 C 
ATOM     14  C   UNL     1      15.255  -6.628  59.620  1.00  0.00     0.005 C 
ATOM     15  C   UNL     1      14.038  -7.519  59.921  1.00  0.00    -0.001 C 
ATOM     16  C   UNL     1      13.435  -6.570  62.267  1.00  0.00     0.007 C 
ATOM     17  C   UNL     1      11.598  -7.101  60.583  1.00  0.00     0.012 C 
ATOM     18  C   UNL     1      14.427  -8.895  60.563  1.00  0.00     0.004 C 
ATOM     19  C   UNL     1      14.418  -7.646  62.753  1.00  0.00     0.005 C 
ATOM     20  C   UNL     1      14.136  -8.992  62.079  1.00  0.00     0.003 C 
ATOM     21  C   UNL     1      13.719 -10.076  59.863  1.00  0.00     0.085 C 
ATOM     22  C   UNL     1      14.857 -10.238  62.734  1.00  0.00    -0.000 C 
ATOM     23  C   UNL     1      14.077 -11.383  60.513  1.00  0.00     0.159 C 
ATOM     24  C   UNL     1      14.916 -11.408  61.738  1.00  0.00     0.005 C 
ATOM     25  C   UNL     1      16.313  -9.901  63.181  1.00  0.00     0.020 C 
ATOM     26  C   UNL     1      14.025 -10.696  63.959  1.00  0.00     0.017 C 
ATOM     27  O   UNL     1      13.685 -12.459  59.986  1.00  0.00    -0.295 OA
ATOM     28  C   UNL     1      15.785 -12.417  61.914  1.00  0.00     0.055 C 
ATOM     29  C   UNL     1      17.054 -11.119  63.765  1.00  0.00     0.081 C 
ATOM     30  C   UNL     1      16.831 -12.359  62.948  1.00  0.00     0.156 C 
ATOM     31  O   UNL     1      17.558 -13.369  63.148  1.00  0.00    -0.295 OA
ENDBRANCH   9  11
ENDBRANCH   8   9
ENDBRANCH   1   8
TORSDOF 6
ENDMDL
MODEL 5
REMARK VINA RESULT:    -7.291      1.913      3.362
REMARK INTER + INTRA:         -11.955
REMARK INTER:                  -9.826
REMARK INTRA:                  -2.129
REMARK UNBOUND:                -2.107
REMARK SMILES CC[C@@H](CC[C@@H](C)[C@@H]1CC[C@H]2[C@@H]3CC(=O)C4=CC(=O)CC[C@@]4(C)[C@H]3CC[C@]21C)C(C)C
REMARK SMILES IDX 4 1 3 2 2 3 1 4 29 5 30 6 31 7 5 8 6 9 7 10 8 11 9 12 27 13
REMARK SMILES IDX 10 14 11 15 26 16 28 17 12 18 25 19 24 20 13 21 22 22 14 23
REMARK SMILES IDX 16 24 21 25 23 26 15 27 17 28 20 29 18 30 19 31
REMARK H PARENT
REMARK Flexibility Score: inf
ROOT
ATOM      1  C   UNL     1      12.663 -10.217  62.148  1.00  0.00     0.004 C 
ENDROOT
BRANCH   1   2
ATOM      2  C   UNL     1      12.390  -9.769  60.679  1.00  0.00    -0.009 C 
BRANCH   2   3
ATOM      3  C   UNL     1      12.230 -10.988  59.726  1.00  0.00     0.000 C 
ATOM      4  C   UNL     1      13.519 -11.373  58.996  1.00  0.00     0.004 C 
ENDBRANCH   2   3
BRANCH   2   5
ATOM      5  C   UNL     1      13.448  -8.748  60.122  1.00  0.00    -0.014 C 
ATOM      6  C   UNL     1      12.774  -7.479  59.565  1.00  0.00     0.007 C 
ATOM      7  C   UNL     1      14.485  -8.327  61.180  1.00  0.00     0.007 C 
ENDBRANCH   2   5
ENDBRANCH   1   2
BRANCH   1   8
ATOM      8  C   UNL     1      12.266 -11.679  62.451  1.00  0.00     0.004 C 
BRANCH   8   9
ATOM      9  C   UNL     1      13.457 -12.550  62.947  1.00  0.00    -0.011 C 
ATOM     10  C   UNL     1      13.361 -13.981  62.368  1.00  0.00     0.008 C 
BRANCH   9  11
ATOM     11  C   UNL     1      14.826 -11.814  62.667  1.00  0.00    -0.002 C 
ATOM     12  C   UNL     1      15.765 -12.613  61.745  1.00  0.00     0.005 C 
ATOM     13  C   UNL     1      15.733 -11.414  63.883  1.00  0.00    -0.026 C 
ATOM     14  C   UNL     1      16.893 -13.169  62.619  1.00  0.00     0.005 C 
ATOM     15  C   UNL     1      16.663 -12.645  64.048  1.00  0.00    -0.001 C 
ATOM     16  C   UNL     1      16.542 -10.103  63.513  1.00  0.00     0.007 C 
ATOM     17  C   UNL     1      14.919 -11.146  65.176  1.00  0.00     0.012 C 
ATOM     18  C   UNL     1      17.995 -12.428  64.844  1.00  0.00     0.004 C 
ATOM     19  C   UNL     1      18.063 -10.173  63.719  1.00  0.00     0.005 C 
ATOM     20  C   UNL     1      18.409 -10.945  64.995  1.00  0.00     0.003 C 
ATOM     21  C   UNL     1      17.930 -13.053  66.255  1.00  0.00     0.085 C 
ATOM     22  C   UNL     1      19.906 -10.803  65.484  1.00  0.00    -0.000 C 
ATOM     23  C   UNL     1      19.202 -12.805  67.016  1.00  0.00     0.159 C 
ATOM     24  C   UNL     1      20.271 -11.955  66.435  1.00  0.00     0.005 C 
ATOM     25  C   UNL     1      20.913 -10.812  64.293  1.00  0.00     0.020 C 
ATOM     26  C   UNL     1      20.039  -9.474  66.272  1.00  0.00     0.017 C 
ATOM     27  O   UNL     1      19.364 -13.357  68.138  1.00  0.00    -0.295 OA
ATOM     28  C   UNL     1      21.556 -12.262  66.679  1.00  0.00     0.055 C 
ATOM     29  C   UNL     1      22.381 -10.737  64.752  1.00  0.00     0.081 C 
ATOM     30  C   UNL     1      22.654 -11.642  65.919  1.00  0.00     0.156 C 
ATOM     31  O   UNL     1      23.846 -11.880  66.251  1.00  0.00    -0.295 OA
ENDBRANCH   9  11
ENDBRANCH   8   9
ENDBRANCH   1   8
TORSDOF 6
ENDMDL
MODEL 6
REMARK VINA RESULT:    -7.282      1.638      2.666
REMARK INTER + INTRA:         -11.944
REMARK INTER:                 -10.730
REMARK INTRA:                  -1.214
REMARK UNBOUND:                -2.107
REMARK SMILES CC[C@@H](CC[C@@H](C)[C@@H]1CC[C@H]2[C@@H]3CC(=O)C4=CC(=O)CC[C@@]4(C)[C@H]3CC[C@]21C)C(C)C
REMARK SMILES IDX 4 1 3 2 2 3 1 4 29 5 30 6 31 7 5 8 6 9 7 10 8 11 9 12 27 13
REMARK SMILES IDX 10 14 11 15 26 16 28 17 12 18 25 19 24 20 13 21 22 22 14 23
REMARK SMILES IDX 16 24 21 25 23 26 15 27 17 28 20 29 18 30 19 31
REMARK H PARENT
REMARK Flexibility Score: inf
ROOT
ATOM      1  C   UNL     1      13.021  -8.586  60.394  1.00  0.00     0.004 C 
ENDROOT
BRANCH   1   2
ATOM      2  C   UNL     1      13.336  -7.069  60.565  1.00  0.00    -0.009 C 
BRANCH   2   3
ATOM      3  C   UNL     1      14.797  -6.833  61.042  1.00  0.00     0.000 C 
ATOM      4  C   UNL     1      15.829  -6.871  59.912  1.00  0.00     0.004 C 
ENDBRANCH   2   3
BRANCH   2   5
ATOM      5  C   UNL     1      12.310  -6.311  61.484  1.00  0.00    -0.014 C 
ATOM      6  C   UNL     1      10.859  -6.732  61.183  1.00  0.00     0.007 C 
ATOM      7  C   UNL     1      12.581  -6.527  62.986  1.00  0.00     0.007 C 
ENDBRANCH   2   5
ENDBRANCH   1   2
BRANCH   1   8
ATOM      8  C   UNL     1      14.117  -9.528  60.944  1.00  0.00     0.004 C 
BRANCH   8   9
ATOM      9  C   UNL     1      13.842 -10.008  62.399  1.00  0.00    -0.011 C 
ATOM     10  C   UNL     1      12.343 -10.335  62.588  1.00  0.00     0.008 C 
BRANCH   9  11
ATOM     11  C   UNL     1      14.829 -11.180  62.783  1.00  0.00    -0.002 C 
ATOM     12  C   UNL     1      14.193 -12.223  63.721  1.00  0.00     0.005 C 
ATOM     13  C   UNL     1      16.193 -10.826  63.473  1.00  0.00    -0.026 C 
ATOM     14  C   UNL     1      14.803 -12.014  65.110  1.00  0.00     0.005 C 
ATOM     15  C   UNL     1      15.849 -10.893  64.986  1.00  0.00    -0.001 C 
ATOM     16  C   UNL     1      17.274 -11.907  63.061  1.00  0.00     0.007 C 
ATOM     17  C   UNL     1      16.718  -9.422  63.077  1.00  0.00     0.012 C 
ATOM     18  C   UNL     1      17.049 -11.059  65.980  1.00  0.00     0.004 C 
ATOM     19  C   UNL     1      18.035 -12.571  64.219  1.00  0.00     0.005 C 
ATOM     20  C   UNL     1      18.357 -11.553  65.318  1.00  0.00     0.003 C 
ATOM     21  C   UNL     1      17.359  -9.746  66.731  1.00  0.00     0.085 C 
ATOM     22  C   UNL     1      19.411 -12.035  66.394  1.00  0.00    -0.000 C 
ATOM     23  C   UNL     1      18.533  -9.915  67.653  1.00  0.00     0.159 C 
ATOM     24  C   UNL     1      19.297 -11.188  67.672  1.00  0.00     0.005 C 
ATOM     25  C   UNL     1      19.210 -13.533  66.779  1.00  0.00     0.020 C 
ATOM     26  C   UNL     1      20.833 -11.830  65.811  1.00  0.00     0.017 C 
ATOM     27  O   UNL     1      18.840  -8.974  68.436  1.00  0.00    -0.295 OA
ATOM     28  C   UNL     1      19.805 -11.628  68.835  1.00  0.00     0.055 C 
ATOM     29  C   UNL     1      20.187 -14.004  67.872  1.00  0.00     0.081 C 
ATOM     30  C   UNL     1      20.322 -12.999  68.980  1.00  0.00     0.156 C 
ATOM     31  O   UNL     1      20.884 -13.337  70.056  1.00  0.00    -0.295 OA
ENDBRANCH   9  11
ENDBRANCH   8   9
ENDBRANCH   1   8
TORSDOF 6
ENDMDL
MODEL 7
REMARK VINA RESULT:    -7.258      3.689      6.285
REMARK INTER + INTRA:         -11.911
REMARK INTER:                 -10.211
REMARK INTRA:                  -1.700
REMARK UNBOUND:                -2.107
REMARK SMILES CC[C@@H](CC[C@@H](C)[C@@H]1CC[C@H]2[C@@H]3CC(=O)C4=CC(=O)CC[C@@]4(C)[C@H]3CC[C@]21C)C(C)C
REMARK SMILES IDX 4 1 3 2 2 3 1 4 29 5 30 6 31 7 5 8 6 9 7 10 8 11 9 12 27 13
REMARK SMILES IDX 10 14 11 15 26 16 28 17 12 18 25 19 24 20 13 21 22 22 14 23
REMARK SMILES IDX 16 24 21 25 23 26 15 27 17 28 20 29 18 30 19 31
REMARK H PARENT
REMARK Flexibility Score: inf
ROOT
ATOM      1  C   UNL     1       8.784  -7.058  56.740  1.00  0.00     0.004 C 
ENDROOT
BRANCH   1   2
ATOM      2  C   UNL     1       7.404  -7.112  57.464  1.00  0.00    -0.009 C 
BRANCH   2   3
ATOM      3  C   UNL     1       7.008  -8.568  57.843  1.00  0.00     0.000 C 
ATOM      4  C   UNL     1       6.775  -8.774  59.342  1.00  0.00     0.004 C 
ENDBRANCH   2   3
BRANCH   2   5
ATOM      5  C   UNL     1       6.247  -6.397  56.675  1.00  0.00    -0.014 C 
ATOM      6  C   UNL     1       5.186  -7.403  56.188  1.00  0.00     0.007 C 
ATOM      7  C   UNL     1       5.543  -5.306  57.505  1.00  0.00     0.007 C 
ENDBRANCH   2   5
ENDBRANCH   1   2
BRANCH   1   8
ATOM      8  C   UNL     1       8.993  -8.171  55.687  1.00  0.00     0.004 C 
BRANCH   8   9
ATOM      9  C   UNL     1      10.318  -8.963  55.885  1.00  0.00    -0.011 C 
ATOM     10  C   UNL     1      11.025  -9.184  54.527  1.00  0.00     0.008 C 
BRANCH   9  11
ATOM     11  C   UNL     1      11.208  -8.272  56.990  1.00  0.00    -0.002 C 
ATOM     12  C   UNL     1      12.622  -7.917  56.493  1.00  0.00     0.005 C 
ATOM     13  C   UNL     1      11.456  -9.026  58.343  1.00  0.00    -0.026 C 
ATOM     14  C   UNL     1      13.592  -8.910  57.139  1.00  0.00     0.005 C 
ATOM     15  C   UNL     1      12.766  -9.814  58.071  1.00  0.00    -0.001 C 
ATOM     16  C   UNL     1      11.634  -7.960  59.502  1.00  0.00     0.007 C 
ATOM     17  C   UNL     1      10.293  -9.980  58.720  1.00  0.00     0.012 C 
ATOM     18  C   UNL     1      13.572 -10.306  59.322  1.00  0.00     0.004 C 
ATOM     19  C   UNL     1      12.893  -8.115  60.369  1.00  0.00     0.005 C 
ATOM     20  C   UNL     1      13.194  -9.592  60.641  1.00  0.00     0.003 C 
ATOM     21  C   UNL     1      13.421 -11.828  59.540  1.00  0.00     0.085 C 
ATOM     22  C   UNL     1      14.258  -9.865  61.779  1.00  0.00    -0.000 C 
ATOM     23  C   UNL     1      14.172 -12.275  60.763  1.00  0.00     0.159 C 
ATOM     24  C   UNL     1      14.839 -11.281  61.641  1.00  0.00     0.005 C 
ATOM     25  C   UNL     1      15.436  -8.845  61.733  1.00  0.00     0.020 C 
ATOM     26  C   UNL     1      13.540  -9.776  63.151  1.00  0.00     0.017 C 
ATOM     27  O   UNL     1      14.258 -13.508  61.014  1.00  0.00    -0.295 OA
ATOM     28  C   UNL     1      15.998 -11.609  62.236  1.00  0.00     0.055 C 
ATOM     29  C   UNL     1      16.515  -9.131  62.795  1.00  0.00     0.081 C 
ATOM     30  C   UNL     1      16.845 -10.593  62.883  1.00  0.00     0.156 C 
ATOM     31  O   UNL     1      17.871 -10.958  63.518  1.00  0.00    -0.295 OA
ENDBRANCH   9  11
ENDBRANCH   8   9
ENDBRANCH   1   8
TORSDOF 6
ENDMDL
MODEL 8
REMARK VINA RESULT:    -7.242      3.615      6.258
REMARK INTER + INTRA:         -11.888
REMARK INTER:                 -10.063
REMARK INTRA:                  -1.826
REMARK UNBOUND:                -2.107
REMARK SMILES CC[C@@H](CC[C@@H](C)[C@@H]1CC[C@H]2[C@@H]3CC(=O)C4=CC(=O)CC[C@@]4(C)[C@H]3CC[C@]21C)C(C)C
REMARK SMILES IDX 4 1 3 2 2 3 1 4 29 5 30 6 31 7 5 8 6 9 7 10 8 11 9 12 27 13
REMARK SMILES IDX 10 14 11 15 26 16 28 17 12 18 25 19 24 20 13 21 22 22 14 23
REMARK SMILES IDX 16 24 21 25 23 26 15 27 17 28 20 29 18 30 19 31
REMARK H PARENT
REMARK Flexibility Score: inf
ROOT
ATOM      1  C   UNL     1       8.443  -7.282  56.616  1.00  0.00     0.004 C 
ENDROOT
BRANCH   1   2
ATOM      2  C   UNL     1       7.076  -7.865  57.087  1.00  0.00    -0.009 C 
BRANCH   2   3
ATOM      3  C   UNL     1       5.886  -7.266  56.285  1.00  0.00     0.000 C 
ATOM      4  C   UNL     1       4.884  -6.497  57.149  1.00  0.00     0.004 C 
ENDBRANCH   2   3
BRANCH   2   5
ATOM      5  C   UNL     1       6.836  -7.738  58.636  1.00  0.00    -0.014 C 
ATOM      6  C   UNL     1       6.642  -9.117  59.295  1.00  0.00     0.007 C 
ATOM      7  C   UNL     1       7.983  -7.007  59.360  1.00  0.00     0.007 C 
ENDBRANCH   2   5
ENDBRANCH   1   2
BRANCH   1   8
ATOM      8  C   UNL     1       9.103  -8.065  55.458  1.00  0.00     0.004 C 
BRANCH   8   9
ATOM      9  C   UNL     1      10.212  -9.048  55.933  1.00  0.00    -0.011 C 
ATOM     10  C   UNL     1      10.964  -9.644  54.720  1.00  0.00     0.008 C 
BRANCH   9  11
ATOM     11  C   UNL     1      11.136  -8.351  57.007  1.00  0.00    -0.002 C 
ATOM     12  C   UNL     1      12.545  -8.028  56.475  1.00  0.00     0.005 C 
ATOM     13  C   UNL     1      11.400  -9.085  58.369  1.00  0.00    -0.026 C 
ATOM     14  C   UNL     1      13.512  -9.025  57.119  1.00  0.00     0.005 C 
ATOM     15  C   UNL     1      12.691  -9.898  58.085  1.00  0.00    -0.001 C 
ATOM     16  C   UNL     1      11.618  -8.001  59.504  1.00  0.00     0.007 C 
ATOM     17  C   UNL     1      10.230 -10.013  58.787  1.00  0.00     0.012 C 
ATOM     18  C   UNL     1      13.515 -10.381  59.328  1.00  0.00     0.004 C 
ATOM     19  C   UNL     1      12.892  -8.161  60.348  1.00  0.00     0.005 C 
ATOM     20  C   UNL     1      13.175  -9.637  60.641  1.00  0.00     0.003 C 
ATOM     21  C   UNL     1      13.344 -11.895  59.577  1.00  0.00     0.085 C 
ATOM     22  C   UNL     1      14.258  -9.906  61.762  1.00  0.00    -0.000 C 
ATOM     23  C   UNL     1      14.113 -12.333  60.793  1.00  0.00     0.159 C 
ATOM     24  C   UNL     1      14.814 -11.334  61.638  1.00  0.00     0.005 C 
ATOM     25  C   UNL     1      15.451  -8.906  61.673  1.00  0.00     0.020 C 
ATOM     26  C   UNL     1      13.570  -9.780  63.146  1.00  0.00     0.017 C 
ATOM     27  O   UNL     1      14.184 -13.562  61.065  1.00  0.00    -0.295 OA
ATOM     28  C   UNL     1      15.980 -11.669  62.215  1.00  0.00     0.055 C 
ATOM     29  C   UNL     1      16.547  -9.190  62.718  1.00  0.00     0.081 C 
ATOM     30  C   UNL     1      16.855 -10.656  62.826  1.00  0.00     0.156 C 
ATOM     31  O   UNL     1      17.888 -11.025  63.447  1.00  0.00    -0.295 OA
ENDBRANCH   9  11
ENDBRANCH   8   9
ENDBRANCH   1   8
TORSDOF 6
ENDMDL
MODEL 9
REMARK VINA RESULT:    -7.113      4.558      9.601
REMARK INTER + INTRA:         -11.714
REMARK INTER:                  -9.955
REMARK INTRA:                  -1.760
REMARK UNBOUND:                -2.107
REMARK SMILES CC[C@@H](CC[C@@H](C)[C@@H]1CC[C@H]2[C@@H]3CC(=O)C4=CC(=O)CC[C@@]4(C)[C@H]3CC[C@]21C)C(C)C
REMARK SMILES IDX 4 1 3 2 2 3 1 4 29 5 30 6 31 7 5 8 6 9 7 10 8 11 9 12 27 13
REMARK SMILES IDX 10 14 11 15 26 16 28 17 12 18 25 19 24 20 13 21 22 22 14 23
REMARK SMILES IDX 16 24 21 25 23 26 15 27 17 28 20 29 18 30 19 31
REMARK H PARENT
REMARK Flexibility Score: inf
ROOT
ATOM      1  C   UNL     1      16.026  -9.652  63.519  1.00  0.00     0.004 C 
ENDROOT
BRANCH   1   2
ATOM      2  C   UNL     1      15.207 -10.975  63.418  1.00  0.00    -0.009 C 
BRANCH   2   3
ATOM      3  C   UNL     1      15.207 -11.757  64.762  1.00  0.00     0.000 C 
ATOM      4  C   UNL     1      16.130 -11.157  65.825  1.00  0.00     0.004 C 
ENDBRANCH   2   3
BRANCH   2   5
ATOM      5  C   UNL     1      15.645 -11.899  62.224  1.00  0.00    -0.014 C 
ATOM      6  C   UNL     1      16.854 -12.777  62.599  1.00  0.00     0.007 C 
ATOM      7  C   UNL     1      14.509 -12.817  61.731  1.00  0.00     0.007 C 
ENDBRANCH   2   5
ENDBRANCH   1   2
BRANCH   1   8
ATOM      8  C   UNL     1      15.960  -8.766  62.254  1.00  0.00     0.004 C 
BRANCH   8   9
ATOM      9  C   UNL     1      14.511  -8.355  61.864  1.00  0.00    -0.011 C 
ATOM     10  C   UNL     1      14.354  -6.817  61.902  1.00  0.00     0.008 C 
BRANCH   9  11
ATOM     11  C   UNL     1      14.102  -9.028  60.496  1.00  0.00    -0.002 C 
ATOM     12  C   UNL     1      14.283  -8.094  59.284  1.00  0.00     0.005 C 
ATOM     13  C   UNL     1      12.645  -9.587  60.333  1.00  0.00    -0.026 C 
ATOM     14  C   UNL     1      12.886  -7.657  58.837  1.00  0.00     0.005 C 
ATOM     15  C   UNL     1      11.870  -8.381  59.737  1.00  0.00    -0.001 C 
ATOM     16  C   UNL     1      12.675 -10.822  59.341  1.00  0.00     0.007 C 
ATOM     17  C   UNL     1      12.024 -10.046  61.678  1.00  0.00     0.012 C 
ATOM     18  C   UNL     1      10.518  -8.694  59.009  1.00  0.00     0.004 C 
ATOM     19  C   UNL     1      11.684 -10.765  58.168  1.00  0.00     0.005 C 
ATOM     20  C   UNL     1      10.341 -10.179  58.612  1.00  0.00     0.003 C 
ATOM     21  C   UNL     1       9.298  -8.278  59.860  1.00  0.00     0.085 C 
ATOM     22  C   UNL     1       9.150 -10.372  57.589  1.00  0.00    -0.000 C 
ATOM     23  C   UNL     1       8.011  -8.617  59.161  1.00  0.00     0.159 C 
ATOM     24  C   UNL     1       8.027  -9.364  57.878  1.00  0.00     0.005 C 
ATOM     25  C   UNL     1       9.612 -10.182  56.112  1.00  0.00     0.020 C 
ATOM     26  C   UNL     1       8.571 -11.799  57.778  1.00  0.00     0.017 C 
ATOM     27  O   UNL     1       6.920  -8.229  59.661  1.00  0.00    -0.295 OA
ATOM     28  C   UNL     1       7.102  -9.080  56.945  1.00  0.00     0.055 C 
ATOM     29  C   UNL     1       8.454 -10.305  55.104  1.00  0.00     0.081 C 
ATOM     30  C   UNL     1       7.226  -9.572  55.564  1.00  0.00     0.156 C 
ATOM     31  O   UNL     1       6.287  -9.370  54.749  1.00  0.00    -0.295 OA
ENDBRANCH   9  11
ENDBRANCH   8   9
ENDBRANCH   1   8
TORSDOF 6
ENDMDL
