MODEL 1
REMARK VINA RESULT:    -4.579      0.000      0.000
REMARK INTER + INTRA:          -6.382
REMARK INTER:                  -5.918
REMARK INTRA:                  -0.464
REMARK UNBOUND:                -0.464
REMARK SMILES CCO[C@@H]1O[C@@H](CO)[C@@H](O)[C@@H](O)[C@@H]1O
REMARK SMILES IDX 4 1 13 2 11 3 9 4 6 5 5 6 3 7 2 8 1 9 14 10 12 12 7 14 8 15
REMARK SMILES IDX 10 17
REMARK H PARENT 14 11 12 13 8 16 10 18
REMARK Flexibility Score: inf
ROOT
ATOM      1  C   UNL     1      16.432  24.898  51.777  1.00  0.00     0.281 C 
ATOM      2  C   UNL     1      15.233  24.048  52.243  1.00  0.00     0.202 C 
ATOM      3  C   UNL     1      13.906  24.728  51.853  1.00  0.00     0.179 C 
ATOM      4  C   UNL     1      13.920  25.084  50.356  1.00  0.00     0.177 C 
ATOM      5  C   UNL     1      15.195  25.901  50.048  1.00  0.00     0.178 C 
ATOM      6  O   UNL     1      16.361  25.162  50.380  1.00  0.00    -0.341 OA
ENDROOT
BRANCH   1   7
ATOM      7  O   UNL     1      16.504  26.099  52.531  1.00  0.00    -0.350 OA
BRANCH   7   8
ATOM      8  C   UNL     1      17.847  26.511  52.669  1.00  0.00     0.160 C 
ATOM      9  C   UNL     1      18.622  25.437  53.416  1.00  0.00     0.035 C 
ENDBRANCH   7   8
ENDBRANCH   1   7
BRANCH   2  10
ATOM     10  O   UNL     1      15.301  23.876  53.636  1.00  0.00    -0.385 OA
ATOM     11  H   UNL     1      14.369  23.765  53.960  1.00  0.00     0.211 HD
ENDBRANCH   2  10
BRANCH   3  12
ATOM     12  O   UNL     1      12.822  23.875  52.123  1.00  0.00    -0.387 OA
ATOM     13  H   UNL     1      12.579  24.008  53.076  1.00  0.00     0.211 HD
ENDBRANCH   3  12
BRANCH   5  14
ATOM     14  C   UNL     1      15.264  26.320  48.574  1.00  0.00     0.191 C 
BRANCH  14  15
ATOM     15  O   UNL     1      14.007  26.206  47.965  1.00  0.00    -0.394 OA
ATOM     16  H   UNL     1      13.934  25.266  47.657  1.00  0.00     0.210 HD
ENDBRANCH  14  15
ENDBRANCH   5  14
BRANCH   4  17
ATOM     17  O   UNL     1      13.899  23.912  49.579  1.00  0.00    -0.387 OA
ATOM     18  H   UNL     1      13.927  24.194  48.628  1.00  0.00     0.211 HD
ENDBRANCH   4  17
TORSDOF 7
ENDMDL
MODEL 2
REMARK VINA RESULT:    -4.497      2.534      3.823
REMARK INTER + INTRA:          -6.276
REMARK INTER:                  -5.915
REMARK INTRA:                  -0.361
REMARK UNBOUND:                -0.464
REMARK SMILES CCO[C@@H]1O[C@@H](CO)[C@@H](O)[C@@H](O)[C@@H]1O
REMARK SMILES IDX 4 1 13 2 11 3 9 4 6 5 5 6 3 7 2 8 1 9 14 10 12 12 7 14 8 15
REMARK SMILES IDX 10 17
REMARK H PARENT 14 11 12 13 8 16 10 18
REMARK Flexibility Score: inf
ROOT
ATOM      1  C   UNL     1      17.665  25.990  52.476  1.00  0.00     0.281 C 
ATOM      2  C   UNL     1      16.545  25.017  52.057  1.00  0.00     0.202 C 
ATOM      3  C   UNL     1      15.690  24.620  53.277  1.00  0.00     0.179 C 
ATOM      4  C   UNL     1      15.223  25.882  54.023  1.00  0.00     0.177 C 
ATOM      5  C   UNL     1      16.455  26.762  54.337  1.00  0.00     0.178 C 
ATOM      6  O   UNL     1      17.132  27.128  53.145  1.00  0.00    -0.341 OA
ENDROOT
BRANCH   1   7
ATOM      7  O   UNL     1      18.624  25.316  53.279  1.00  0.00    -0.350 OA
BRANCH   7   8
ATOM      8  C   UNL     1      19.915  25.469  52.730  1.00  0.00     0.160 C 
ATOM      9  C   UNL     1      20.905  24.659  53.552  1.00  0.00     0.035 C 
ENDBRANCH   7   8
ENDBRANCH   1   7
BRANCH   2  10
ATOM     10  O   UNL     1      17.117  23.875  51.472  1.00  0.00    -0.385 OA
ATOM     11  H   UNL     1      17.477  24.152  50.589  1.00  0.00     0.211 HD
ENDBRANCH   2  10
BRANCH   3  12
ATOM     12  O   UNL     1      14.571  23.875  52.869  1.00  0.00    -0.387 OA
ATOM     13  H   UNL     1      14.168  24.356  52.099  1.00  0.00     0.211 HD
ENDBRANCH   3  12
BRANCH   5  14
ATOM     14  C   UNL     1      16.070  28.030  55.110  1.00  0.00     0.191 C 
BRANCH  14  15
ATOM     15  O   UNL     1      15.457  28.963  54.262  1.00  0.00    -0.394 OA
ATOM     16  H   UNL     1      14.886  29.529  54.843  1.00  0.00     0.210 HD
ENDBRANCH  14  15
ENDBRANCH   5  14
BRANCH   4  17
ATOM     17  O   UNL     1      14.307  26.601  53.234  1.00  0.00    -0.387 OA
ATOM     18  H   UNL     1      13.507  26.767  53.797  1.00  0.00     0.211 HD
ENDBRANCH   4  17
TORSDOF 7
ENDMDL
MODEL 3
REMARK VINA RESULT:    -4.449      9.639     11.020
REMARK INTER + INTRA:          -6.214
REMARK INTER:                  -5.844
REMARK INTRA:                  -0.370
REMARK UNBOUND:                -0.464
REMARK SMILES CCO[C@@H]1O[C@@H](CO)[C@@H](O)[C@@H](O)[C@@H]1O
REMARK SMILES IDX 4 1 13 2 11 3 9 4 6 5 5 6 3 7 2 8 1 9 14 10 12 12 7 14 8 15
REMARK SMILES IDX 10 17
REMARK H PARENT 14 11 12 13 8 16 10 18
REMARK Flexibility Score: inf
ROOT
ATOM      1  C   UNL     1      23.237  31.723  54.693  1.00  0.00     0.281 C 
ATOM      2  C   UNL     1      24.089  30.518  54.248  1.00  0.00     0.202 C 
ATOM      3  C   UNL     1      23.860  30.218  52.753  1.00  0.00     0.179 C 
ATOM      4  C   UNL     1      24.049  31.501  51.926  1.00  0.00     0.177 C 
ATOM      5  C   UNL     1      23.157  32.615  52.520  1.00  0.00     0.178 C 
ATOM      6  O   UNL     1      23.492  32.861  53.878  1.00  0.00    -0.341 OA
ENDROOT
BRANCH   1   7
ATOM      7  O   UNL     1      21.859  31.377  54.687  1.00  0.00    -0.350 OA
BRANCH   7   8
ATOM      8  C   UNL     1      21.195  31.996  55.768  1.00  0.00     0.160 C 
ATOM      9  C   UNL     1      19.754  31.513  55.810  1.00  0.00     0.035 C 
ENDBRANCH   7   8
ENDBRANCH   1   7
BRANCH   2  10
ATOM     10  O   UNL     1      23.751  29.398  55.027  1.00  0.00    -0.385 OA
ATOM     11  H   UNL     1      24.592  29.063  55.433  1.00  0.00     0.211 HD
ENDBRANCH   2  10
BRANCH   3  12
ATOM     12  O   UNL     1      24.761  29.236  52.309  1.00  0.00    -0.387 OA
ATOM     13  H   UNL     1      25.149  29.563  51.456  1.00  0.00     0.211 HD
ENDBRANCH   3  12
BRANCH   5  14
ATOM     14  C   UNL     1      23.269  33.923  51.726  1.00  0.00     0.191 C 
BRANCH  14  15
ATOM     15  O   UNL     1      24.235  34.767  52.292  1.00  0.00    -0.394 OA
ATOM     16  H   UNL     1      25.115  34.414  51.999  1.00  0.00     0.210 HD
ENDBRANCH  14  15
ENDBRANCH   5  14
BRANCH   4  17
ATOM     17  O   UNL     1      25.397  31.900  51.951  1.00  0.00    -0.387 OA
ATOM     18  H   UNL     1      25.689  31.879  52.900  1.00  0.00     0.211 HD
ENDBRANCH   4  17
TORSDOF 7
ENDMDL
MODEL 4
REMARK VINA RESULT:    -4.404      1.939      4.034
REMARK INTER + INTRA:          -6.155
REMARK INTER:                  -5.715
REMARK INTRA:                  -0.440
REMARK UNBOUND:                -0.464
REMARK SMILES CCO[C@@H]1O[C@@H](CO)[C@@H](O)[C@@H](O)[C@@H]1O
REMARK SMILES IDX 4 1 13 2 11 3 9 4 6 5 5 6 3 7 2 8 1 9 14 10 12 12 7 14 8 15
REMARK SMILES IDX 10 17
REMARK H PARENT 14 11 12 13 8 16 10 18
REMARK Flexibility Score: inf
ROOT
ATOM      1  C   UNL     1      13.969  26.217  50.764  1.00  0.00     0.281 C 
ATOM      2  C   UNL     1      13.843  25.039  51.751  1.00  0.00     0.202 C 
ATOM      3  C   UNL     1      15.166  24.830  52.514  1.00  0.00     0.179 C 
ATOM      4  C   UNL     1      15.631  26.161  53.130  1.00  0.00     0.177 C 
ATOM      5  C   UNL     1      15.671  27.238  52.023  1.00  0.00     0.178 C 
ATOM      6  O   UNL     1      14.391  27.402  51.430  1.00  0.00    -0.341 OA
ENDROOT
BRANCH   1   7
ATOM      7  O   UNL     1      14.850  25.875  49.703  1.00  0.00    -0.350 OA
BRANCH   7   8
ATOM      8  C   UNL     1      14.440  26.499  48.506  1.00  0.00     0.160 C 
ATOM      9  C   UNL     1      15.550  27.416  48.017  1.00  0.00     0.035 C 
ENDBRANCH   7   8
ENDBRANCH   1   7
BRANCH   2  10
ATOM     10  O   UNL     1      13.501  23.875  51.043  1.00  0.00    -0.385 OA
ATOM     11  H   UNL     1      13.289  24.153  50.113  1.00  0.00     0.211 HD
ENDBRANCH   2  10
BRANCH   3  12
ATOM     12  O   UNL     1      14.998  23.875  53.530  1.00  0.00    -0.387 OA
ATOM     13  H   UNL     1      15.104  22.982  53.109  1.00  0.00     0.211 HD
ENDBRANCH   3  12
BRANCH   5  14
ATOM     14  C   UNL     1      16.157  28.591  52.558  1.00  0.00     0.191 C 
BRANCH  14  15
ATOM     15  O   UNL     1      15.081  29.353  53.035  1.00  0.00    -0.394 OA
ATOM     16  H   UNL     1      15.287  30.296  52.804  1.00  0.00     0.210 HD
ENDBRANCH  14  15
ENDBRANCH   5  14
BRANCH   4  17
ATOM     17  O   UNL     1      14.751  26.555  54.154  1.00  0.00    -0.387 OA
ATOM     18  H   UNL     1      13.940  25.989  54.073  1.00  0.00     0.211 HD
ENDBRANCH   4  17
TORSDOF 7
ENDMDL
MODEL 5
REMARK VINA RESULT:    -4.373      2.200      2.703
REMARK INTER + INTRA:          -6.116
REMARK INTER:                  -5.752
REMARK INTRA:                  -0.364
REMARK UNBOUND:                -0.464
REMARK SMILES CCO[C@@H]1O[C@@H](CO)[C@@H](O)[C@@H](O)[C@@H]1O
REMARK SMILES IDX 4 1 13 2 11 3 9 4 6 5 5 6 3 7 2 8 1 9 14 10 12 12 7 14 8 15
REMARK SMILES IDX 10 17
REMARK H PARENT 14 11 12 13 8 16 10 18
REMARK Flexibility Score: inf
ROOT
ATOM      1  C   UNL     1      15.288  27.089  51.424  1.00  0.00     0.281 C 
ATOM      2  C   UNL     1      14.719  25.905  52.232  1.00  0.00     0.202 C 
ATOM      3  C   UNL     1      13.502  25.294  51.508  1.00  0.00     0.179 C 
ATOM      4  C   UNL     1      13.864  24.982  50.046  1.00  0.00     0.177 C 
ATOM      5  C   UNL     1      14.449  26.255  49.393  1.00  0.00     0.178 C 
ATOM      6  O   UNL     1      15.603  26.697  50.093  1.00  0.00    -0.341 OA
ENDROOT
BRANCH   1   7
ATOM      7  O   UNL     1      14.377  28.179  51.444  1.00  0.00    -0.350 OA
BRANCH   7   8
ATOM      8  C   UNL     1      15.062  29.383  51.711  1.00  0.00     0.160 C 
ATOM      9  C   UNL     1      14.287  30.542  51.103  1.00  0.00     0.035 C 
ENDBRANCH   7   8
ENDBRANCH   1   7
BRANCH   2  10
ATOM     10  O   UNL     1      14.350  26.352  53.512  1.00  0.00    -0.385 OA
ATOM     11  H   UNL     1      14.050  25.555  54.021  1.00  0.00     0.211 HD
ENDBRANCH   2  10
BRANCH   3  12
ATOM     12  O   UNL     1      13.092  24.115  52.153  1.00  0.00    -0.387 OA
ATOM     13  H   UNL     1      13.860  23.801  52.698  1.00  0.00     0.211 HD
ENDBRANCH   3  12
BRANCH   5  14
ATOM     14  C   UNL     1      14.808  26.029  47.919  1.00  0.00     0.191 C 
BRANCH  14  15
ATOM     15  O   UNL     1      13.860  25.202  47.298  1.00  0.00    -0.394 OA
ATOM     16  H   UNL     1      13.105  25.793  47.041  1.00  0.00     0.210 HD
ENDBRANCH  14  15
ENDBRANCH   5  14
BRANCH   4  17
ATOM     17  O   UNL     1      14.804  23.937  49.992  1.00  0.00    -0.387 OA
ATOM     18  H   UNL     1      14.301  23.104  49.796  1.00  0.00     0.211 HD
ENDBRANCH   4  17
TORSDOF 7
ENDMDL
MODEL 6
REMARK VINA RESULT:    -4.316      9.434     11.643
REMARK INTER + INTRA:          -6.042
REMARK INTER:                  -5.615
REMARK INTRA:                  -0.426
REMARK UNBOUND:                -0.464
REMARK SMILES CCO[C@@H]1O[C@@H](CO)[C@@H](O)[C@@H](O)[C@@H]1O
REMARK SMILES IDX 4 1 13 2 11 3 9 4 6 5 5 6 3 7 2 8 1 9 14 10 12 12 7 14 8 15
REMARK SMILES IDX 10 17
REMARK H PARENT 14 11 12 13 8 16 10 18
REMARK Flexibility Score: inf
ROOT
ATOM      1  C   UNL     1      22.050  32.788  52.111  1.00  0.00     0.281 C 
ATOM      2  C   UNL     1      23.030  33.953  51.871  1.00  0.00     0.202 C 
ATOM      3  C   UNL     1      24.125  33.970  52.957  1.00  0.00     0.179 C 
ATOM      4  C   UNL     1      24.769  32.578  53.073  1.00  0.00     0.177 C 
ATOM      5  C   UNL     1      23.655  31.526  53.275  1.00  0.00     0.178 C 
ATOM      6  O   UNL     1      22.739  31.545  52.190  1.00  0.00    -0.341 OA
ENDROOT
BRANCH   1   7
ATOM      7  O   UNL     1      21.278  33.030  53.278  1.00  0.00    -0.350 OA
BRANCH   7   8
ATOM      8  C   UNL     1      20.039  32.359  53.193  1.00  0.00     0.160 C 
ATOM      9  C   UNL     1      19.814  31.564  54.469  1.00  0.00     0.035 C 
ENDBRANCH   7   8
ENDBRANCH   1   7
BRANCH   2  10
ATOM     10  O   UNL     1      22.320  35.165  51.877  1.00  0.00    -0.385 OA
ATOM     11  H   UNL     1      22.681  35.717  51.135  1.00  0.00     0.211 HD
ENDBRANCH   2  10
BRANCH   3  12
ATOM     12  O   UNL     1      25.110  34.920  52.643  1.00  0.00    -0.387 OA
ATOM     13  H   UNL     1      24.651  35.796  52.552  1.00  0.00     0.211 HD
ENDBRANCH   3  12
BRANCH   5  14
ATOM     14  C   UNL     1      24.226  30.111  53.429  1.00  0.00     0.191 C 
BRANCH  14  15
ATOM     15  O   UNL     1      24.616  29.593  52.186  1.00  0.00    -0.394 OA
ATOM     16  H   UNL     1      24.481  30.324  51.528  1.00  0.00     0.210 HD
ENDBRANCH  14  15
ENDBRANCH   5  14
BRANCH   4  17
ATOM     17  O   UNL     1      25.503  32.286  51.910  1.00  0.00    -0.387 OA
ATOM     18  H   UNL     1      25.785  33.153  51.519  1.00  0.00     0.211 HD
ENDBRANCH   4  17
TORSDOF 7
ENDMDL
MODEL 7
REMARK VINA RESULT:    -4.303      8.153      9.914
REMARK INTER + INTRA:          -6.025
REMARK INTER:                  -5.627
REMARK INTRA:                  -0.399
REMARK UNBOUND:                -0.464
REMARK SMILES CCO[C@@H]1O[C@@H](CO)[C@@H](O)[C@@H](O)[C@@H]1O
REMARK SMILES IDX 4 1 13 2 11 3 9 4 6 5 5 6 3 7 2 8 1 9 14 10 12 12 7 14 8 15
REMARK SMILES IDX 10 17
REMARK H PARENT 14 11 12 13 8 16 10 18
REMARK Flexibility Score: inf
ROOT
ATOM      1  C   UNL     1      23.636  31.556  52.035  1.00  0.00     0.281 C 
ATOM      2  C   UNL     1      23.312  30.084  52.363  1.00  0.00     0.202 C 
ATOM      3  C   UNL     1      22.236  30.001  53.464  1.00  0.00     0.179 C 
ATOM      4  C   UNL     1      21.028  30.873  53.083  1.00  0.00     0.177 C 
ATOM      5  C   UNL     1      21.525  32.299  52.753  1.00  0.00     0.178 C 
ATOM      6  O   UNL     1      22.459  32.274  51.683  1.00  0.00    -0.341 OA
ENDROOT
BRANCH   1   7
ATOM      7  O   UNL     1      24.310  32.164  53.128  1.00  0.00    -0.350 OA
BRANCH   7   8
ATOM      8  C   UNL     1      25.342  33.004  52.660  1.00  0.00     0.160 C 
ATOM      9  C   UNL     1      25.150  34.398  53.237  1.00  0.00     0.035 C 
ENDBRANCH   7   8
ENDBRANCH   1   7
BRANCH   2  10
ATOM     10  O   UNL     1      24.486  29.433  52.778  1.00  0.00    -0.385 OA
ATOM     11  H   UNL     1      24.837  28.938  51.992  1.00  0.00     0.211 HD
ENDBRANCH   2  10
BRANCH   3  12
ATOM     12  O   UNL     1      21.819  28.671  53.639  1.00  0.00    -0.387 OA
ATOM     13  H   UNL     1      22.632  28.135  53.833  1.00  0.00     0.211 HD
ENDBRANCH   3  12
BRANCH   5  14
ATOM     14  C   UNL     1      20.368  33.239  52.391  1.00  0.00     0.191 C 
BRANCH  14  15
ATOM     15  O   UNL     1      19.133  32.649  52.697  1.00  0.00    -0.394 OA
ATOM     16  H   UNL     1      19.200  32.344  53.639  1.00  0.00     0.210 HD
ENDBRANCH  14  15
ENDBRANCH   5  14
BRANCH   4  17
ATOM     17  O   UNL     1      20.365  30.325  51.971  1.00  0.00    -0.387 OA
ATOM     18  H   UNL     1      20.979  29.658  51.566  1.00  0.00     0.211 HD
ENDBRANCH   4  17
TORSDOF 7
ENDMDL
MODEL 8
REMARK VINA RESULT:    -4.272      2.350      4.100
REMARK INTER + INTRA:          -5.985
REMARK INTER:                  -5.600
REMARK INTRA:                  -0.384
REMARK UNBOUND:                -0.464
REMARK SMILES CCO[C@@H]1O[C@@H](CO)[C@@H](O)[C@@H](O)[C@@H]1O
REMARK SMILES IDX 4 1 13 2 11 3 9 4 6 5 5 6 3 7 2 8 1 9 14 10 12 12 7 14 8 15
REMARK SMILES IDX 10 17
REMARK H PARENT 14 11 12 13 8 16 10 18
REMARK Flexibility Score: inf
ROOT
ATOM      1  C   UNL     1      15.667  26.157  54.023  1.00  0.00     0.281 C 
ATOM      2  C   UNL     1      14.903  25.620  52.796  1.00  0.00     0.202 C 
ATOM      3  C   UNL     1      15.645  25.986  51.495  1.00  0.00     0.179 C 
ATOM      4  C   UNL     1      17.119  25.558  51.594  1.00  0.00     0.177 C 
ATOM      5  C   UNL     1      17.725  26.146  52.888  1.00  0.00     0.178 C 
ATOM      6  O   UNL     1      17.013  25.695  54.031  1.00  0.00    -0.341 OA
ENDROOT
BRANCH   1   7
ATOM      7  O   UNL     1      15.603  27.575  54.057  1.00  0.00    -0.350 OA
BRANCH   7   8
ATOM      8  C   UNL     1      15.754  28.039  55.382  1.00  0.00     0.160 C 
ATOM      9  C   UNL     1      16.153  29.506  55.353  1.00  0.00     0.035 C 
ENDBRANCH   7   8
ENDBRANCH   1   7
BRANCH   2  10
ATOM     10  O   UNL     1      13.606  26.159  52.785  1.00  0.00    -0.385 OA
ATOM     11  H   UNL     1      13.013  25.498  53.228  1.00  0.00     0.211 HD
ENDBRANCH   2  10
BRANCH   3  12
ATOM     12  O   UNL     1      15.044  25.353  50.395  1.00  0.00    -0.387 OA
ATOM     13  H   UNL     1      15.632  24.595  50.140  1.00  0.00     0.211 HD
ENDBRANCH   3  12
BRANCH   5  14
ATOM     14  C   UNL     1      19.208  25.785  53.041  1.00  0.00     0.191 C 
BRANCH  14  15
ATOM     15  O   UNL     1      19.356  24.559  53.705  1.00  0.00    -0.394 OA
ATOM     16  H   UNL     1      19.126  23.857  53.042  1.00  0.00     0.210 HD
ENDBRANCH  14  15
ENDBRANCH   5  14
BRANCH   4  17
ATOM     17  O   UNL     1      17.216  24.155  51.611  1.00  0.00    -0.387 OA
ATOM     18  H   UNL     1      16.669  23.835  52.376  1.00  0.00     0.211 HD
ENDBRANCH   4  17
TORSDOF 7
ENDMDL
MODEL 9
REMARK VINA RESULT:    -4.255      2.482      4.224
REMARK INTER + INTRA:          -5.963
REMARK INTER:                  -5.520
REMARK INTRA:                  -0.443
REMARK UNBOUND:                -0.464
REMARK SMILES CCO[C@@H]1O[C@@H](CO)[C@@H](O)[C@@H](O)[C@@H]1O
REMARK SMILES IDX 4 1 13 2 11 3 9 4 6 5 5 6 3 7 2 8 1 9 14 10 12 12 7 14 8 15
REMARK SMILES IDX 10 17
REMARK H PARENT 14 11 12 13 8 16 10 18
REMARK Flexibility Score: inf
ROOT
ATOM      1  C   UNL     1      14.332  26.007  51.904  1.00  0.00     0.281 C 
ATOM      2  C   UNL     1      14.974  25.774  53.287  1.00  0.00     0.202 C 
ATOM      3  C   UNL     1      16.297  26.557  53.406  1.00  0.00     0.179 C 
ATOM      4  C   UNL     1      16.071  28.029  53.023  1.00  0.00     0.177 C 
ATOM      5  C   UNL     1      15.393  28.087  51.635  1.00  0.00     0.178 C 
ATOM      6  O   UNL     1      14.153  27.395  51.649  1.00  0.00    -0.341 OA
ENDROOT
BRANCH   1   7
ATOM      7  O   UNL     1      15.113  25.388  50.892  1.00  0.00    -0.350 OA
BRANCH   7   8
ATOM      8  C   UNL     1      14.277  24.727  49.966  1.00  0.00     0.160 C 
ATOM      9  C   UNL     1      14.309  25.476  48.643  1.00  0.00     0.035 C 
ENDBRANCH   7   8
ENDBRANCH   1   7
BRANCH   2  10
ATOM     10  O   UNL     1      15.204  24.400  53.466  1.00  0.00    -0.385 OA
ATOM     11  H   UNL     1      14.814  23.936  52.680  1.00  0.00     0.211 HD
ENDBRANCH   2  10
BRANCH   3  12
ATOM     12  O   UNL     1      16.791  26.483  54.719  1.00  0.00    -0.387 OA
ATOM     13  H   UNL     1      17.747  26.751  54.685  1.00  0.00     0.211 HD
ENDBRANCH   3  12
BRANCH   5  14
ATOM     14  C   UNL     1      15.162  29.530  51.170  1.00  0.00     0.191 C 
BRANCH  14  15
ATOM     15  O   UNL     1      14.000  30.059  51.750  1.00  0.00    -0.394 OA
ATOM     16  H   UNL     1      14.305  30.670  52.471  1.00  0.00     0.210 HD
ENDBRANCH  14  15
ENDBRANCH   5  14
BRANCH   4  17
ATOM     17  O   UNL     1      15.259  28.661  53.982  1.00  0.00    -0.387 OA
ATOM     18  H   UNL     1      14.327  28.625  53.642  1.00  0.00     0.211 HD
ENDBRANCH   4  17
TORSDOF 7
ENDMDL
