MODEL 1
REMARK VINA RESULT:    -7.822      0.000      0.000
REMARK INTER + INTRA:          -9.597
REMARK INTER:                  -9.423
REMARK INTRA:                  -0.174
REMARK UNBOUND:                -0.174
REMARK SMILES O=c1c(O)c(-c2ccc(O)c(O)c2)oc2cc(O)cc(O)c12
REMARK SMILES IDX 5 1 3 2 2 3 1 4 22 5 20 6 19 7 17 8 16 9 15 10 14 11 6 12
REMARK SMILES IDX 7 13 8 14 9 15 13 16 11 17 10 18 12 20 4 22 21 24 18 26
REMARK H PARENT 10 19 12 21 4 23 21 25 18 27
REMARK Flexibility Score: inf
ROOT
ATOM      1  C   UNL     1       6.942   4.800   2.245  1.00  0.00     0.180 A 
ATOM      2  C   UNL     1       8.253   4.381   1.959  1.00  0.00     0.208 A 
ATOM      3  C   UNL     1       8.832   3.371   2.742  1.00  0.00     0.238 A 
ATOM      4  O   UNL     1       9.985   2.963   2.447  1.00  0.00    -0.285 OA
ATOM      5  C   UNL     1       8.100   2.803   3.813  1.00  0.00     0.111 A 
ATOM      6  C   UNL     1       8.603   1.802   4.699  1.00  0.00     0.134 A 
ATOM      7  C   UNL     1       7.746   1.220   5.641  1.00  0.00     0.093 A 
ATOM      8  C   UNL     1       6.424   1.650   5.774  1.00  0.00     0.123 A 
ATOM      9  C   UNL     1       5.941   2.668   4.955  1.00  0.00     0.094 A 
ATOM     10  C   UNL     1       6.761   3.243   3.981  1.00  0.00     0.146 A 
ATOM     11  O   UNL     1       6.258   4.203   3.214  1.00  0.00    -0.452 OA
ENDROOT
BRANCH   1  12
ATOM     12  C   UNL     1       6.274   5.876   1.479  1.00  0.00     0.025 A 
ATOM     13  C   UNL     1       5.926   7.097   2.082  1.00  0.00     0.016 A 
ATOM     14  C   UNL     1       5.275   8.089   1.345  1.00  0.00     0.051 A 
ATOM     15  C   UNL     1       4.948   7.872  -0.000  1.00  0.00     0.157 A 
ATOM     16  C   UNL     1       5.925   5.655   0.137  1.00  0.00     0.062 A 
ATOM     17  C   UNL     1       5.272   6.647  -0.605  1.00  0.00     0.158 A 
BRANCH  15  18
ATOM     18  O   UNL     1       4.300   8.865  -0.733  1.00  0.00    -0.504 OA
ATOM     19  H   UNL     1       4.817   9.568  -1.248  1.00  0.00     0.293 HD
ENDBRANCH  15  18
BRANCH  17  20
ATOM     20  O   UNL     1       4.955   6.396  -1.940  1.00  0.00    -0.504 OA
ATOM     21  H   UNL     1       5.635   6.026  -2.593  1.00  0.00     0.293 HD
ENDBRANCH  17  20
ENDBRANCH   1  12
BRANCH   2  22
ATOM     22  O   UNL     1       8.950   4.939   0.883  1.00  0.00    -0.502 OA
ATOM     23  H   UNL     1       9.074   4.452   0.004  1.00  0.00     0.293 HD
ENDBRANCH   2  22
BRANCH   6  24
ATOM     24  O   UNL     1       9.932   1.368   4.710  1.00  0.00    -0.507 OA
ATOM     25  H   UNL     1      10.725   1.937   4.455  1.00  0.00     0.293 HD
ENDBRANCH   6  24
BRANCH   8  26
ATOM     26  O   UNL     1       5.582   1.076   6.724  1.00  0.00    -0.508 OA
ATOM     27  H   UNL     1       5.601   1.369   7.695  1.00  0.00     0.293 HD
ENDBRANCH   8  26
TORSDOF 6
ENDMDL
MODEL 2
REMARK VINA RESULT:    -7.757      2.441      4.596
REMARK INTER + INTRA:          -9.518
REMARK INTER:                  -9.205
REMARK INTRA:                  -0.313
REMARK UNBOUND:                -0.174
REMARK SMILES O=c1c(O)c(-c2ccc(O)c(O)c2)oc2cc(O)cc(O)c12
REMARK SMILES IDX 5 1 3 2 2 3 1 4 22 5 20 6 19 7 17 8 16 9 15 10 14 11 6 12
REMARK SMILES IDX 7 13 8 14 9 15 13 16 11 17 10 18 12 20 4 22 21 24 18 26
REMARK H PARENT 10 19 12 21 4 23 21 25 18 27
REMARK Flexibility Score: inf
ROOT
ATOM      1  C   UNL     1       6.529   6.388  -0.692  1.00  0.00     0.180 A 
ATOM      2  C   UNL     1       5.637   6.916   0.257  1.00  0.00     0.208 A 
ATOM      3  C   UNL     1       5.733   6.492   1.592  1.00  0.00     0.238 A 
ATOM      4  O   UNL     1       4.968   7.009   2.447  1.00  0.00    -0.285 OA
ATOM      5  C   UNL     1       6.708   5.533   1.958  1.00  0.00     0.111 A 
ATOM      6  C   UNL     1       6.868   5.000   3.273  1.00  0.00     0.134 A 
ATOM      7  C   UNL     1       7.949   4.154   3.548  1.00  0.00     0.093 A 
ATOM      8  C   UNL     1       8.837   3.769   2.541  1.00  0.00     0.123 A 
ATOM      9  C   UNL     1       8.654   4.235   1.242  1.00  0.00     0.094 A 
ATOM     10  C   UNL     1       7.607   5.109   0.943  1.00  0.00     0.146 A 
ATOM     11  O   UNL     1       7.474   5.539  -0.306  1.00  0.00    -0.452 OA
ENDROOT
BRANCH   1  12
ATOM     12  C   UNL     1       6.473   6.768  -2.122  1.00  0.00     0.025 A 
ATOM     13  C   UNL     1       7.110   7.927  -2.598  1.00  0.00     0.016 A 
ATOM     14  C   UNL     1       7.023   8.278  -3.947  1.00  0.00     0.051 A 
ATOM     15  C   UNL     1       6.288   7.486  -4.839  1.00  0.00     0.157 A 
ATOM     16  C   UNL     1       5.719   5.988  -3.015  1.00  0.00     0.062 A 
ATOM     17  C   UNL     1       5.630   6.337  -4.368  1.00  0.00     0.158 A 
BRANCH  15  18
ATOM     18  O   UNL     1       6.204   7.838  -6.184  1.00  0.00    -0.504 OA
ATOM     19  H   UNL     1       5.341   8.178  -6.592  1.00  0.00     0.293 HD
ENDBRANCH  15  18
BRANCH  17  20
ATOM     20  O   UNL     1       4.884   5.531  -5.227  1.00  0.00    -0.504 OA
ATOM     21  H   UNL     1       5.320   4.863  -5.851  1.00  0.00     0.293 HD
ENDBRANCH  17  20
ENDBRANCH   1  12
BRANCH   2  22
ATOM     22  O   UNL     1       4.697   7.879  -0.121  1.00  0.00    -0.502 OA
ATOM     23  H   UNL     1       3.794   7.964   0.330  1.00  0.00     0.293 HD
ENDBRANCH   2  22
BRANCH   6  24
ATOM     24  O   UNL     1       5.985   5.248   4.328  1.00  0.00    -0.507 OA
ATOM     25  H   UNL     1       5.970   6.095   4.878  1.00  0.00     0.293 HD
ENDBRANCH   6  24
BRANCH   8  26
ATOM     26  O   UNL     1       9.901   2.914   2.821  1.00  0.00    -0.508 OA
ATOM     27  H   UNL     1      10.859   3.177   2.618  1.00  0.00     0.293 HD
ENDBRANCH   8  26
TORSDOF 6
ENDMDL
MODEL 3
REMARK VINA RESULT:    -7.474      1.550      7.221
REMARK INTER + INTRA:          -9.178
REMARK INTER:                  -8.998
REMARK INTRA:                  -0.180
REMARK UNBOUND:                -0.174
REMARK SMILES O=c1c(O)c(-c2ccc(O)c(O)c2)oc2cc(O)cc(O)c12
REMARK SMILES IDX 5 1 3 2 2 3 1 4 22 5 20 6 19 7 17 8 16 9 15 10 14 11 6 12
REMARK SMILES IDX 7 13 8 14 9 15 13 16 11 17 10 18 12 20 4 22 21 24 18 26
REMARK H PARENT 10 19 12 21 4 23 21 25 18 27
REMARK Flexibility Score: inf
ROOT
ATOM      1  C   UNL     1       5.791   5.382   2.247  1.00  0.00     0.180 A 
ATOM      2  C   UNL     1       5.634   6.707   2.690  1.00  0.00     0.208 A 
ATOM      3  C   UNL     1       5.451   7.726   1.741  1.00  0.00     0.238 A 
ATOM      4  O   UNL     1       5.256   8.901   2.145  1.00  0.00    -0.285 OA
ATOM      5  C   UNL     1       5.445   7.409   0.361  1.00  0.00     0.111 A 
ATOM      6  C   UNL     1       5.308   8.366  -0.690  1.00  0.00     0.134 A 
ATOM      7  C   UNL     1       5.185   7.926  -2.014  1.00  0.00     0.093 A 
ATOM      8  C   UNL     1       5.259   6.568  -2.331  1.00  0.00     0.123 A 
ATOM      9  C   UNL     1       5.452   5.631  -1.319  1.00  0.00     0.094 A 
ATOM     10  C   UNL     1       5.542   6.036   0.015  1.00  0.00     0.146 A 
ATOM     11  O   UNL     1       5.715   5.109   0.950  1.00  0.00    -0.452 OA
ENDROOT
BRANCH   1  12
ATOM     12  C   UNL     1       6.013   4.259   3.186  1.00  0.00     0.025 A 
ATOM     13  C   UNL     1       5.017   3.852   4.090  1.00  0.00     0.016 A 
ATOM     14  C   UNL     1       5.258   2.806   4.983  1.00  0.00     0.051 A 
ATOM     15  C   UNL     1       6.501   2.159   4.997  1.00  0.00     0.157 A 
ATOM     16  C   UNL     1       7.265   3.623   3.218  1.00  0.00     0.062 A 
ATOM     17  C   UNL     1       7.510   2.573   4.113  1.00  0.00     0.158 A 
BRANCH  15  18
ATOM     18  O   UNL     1       6.738   1.114   5.888  1.00  0.00    -0.504 OA
ATOM     19  H   UNL     1       7.625   0.624   5.909  1.00  0.00     0.293 HD
ENDBRANCH  15  18
BRANCH  17  20
ATOM     20  O   UNL     1       8.761   1.956   4.105  1.00  0.00    -0.504 OA
ATOM     21  H   UNL     1       9.572   2.391   3.684  1.00  0.00     0.293 HD
ENDBRANCH  17  20
ENDBRANCH   1  12
BRANCH   2  22
ATOM     22  O   UNL     1       5.621   6.994   4.057  1.00  0.00    -0.502 OA
ATOM     23  H   UNL     1       5.579   7.941   4.414  1.00  0.00     0.293 HD
ENDBRANCH   2  22
BRANCH   6  24
ATOM     24  O   UNL     1       5.316   9.750  -0.490  1.00  0.00    -0.507 OA
ATOM     25  H   UNL     1       6.093  10.272  -0.114  1.00  0.00     0.293 HD
ENDBRANCH   6  24
BRANCH   8  26
ATOM     26  O   UNL     1       5.150   6.140  -3.652  1.00  0.00    -0.508 OA
ATOM     27  H   UNL     1       4.422   6.489  -4.264  1.00  0.00     0.293 HD
ENDBRANCH   8  26
TORSDOF 6
ENDMDL
MODEL 4
REMARK VINA RESULT:    -7.351     12.024     13.821
REMARK INTER + INTRA:          -9.029
REMARK INTER:                  -9.180
REMARK INTRA:                   0.151
REMARK UNBOUND:                -0.174
REMARK SMILES O=c1c(O)c(-c2ccc(O)c(O)c2)oc2cc(O)cc(O)c12
REMARK SMILES IDX 5 1 3 2 2 3 1 4 22 5 20 6 19 7 17 8 16 9 15 10 14 11 6 12
REMARK SMILES IDX 7 13 8 14 9 15 13 16 11 17 10 18 12 20 4 22 21 24 18 26
REMARK H PARENT 10 19 12 21 4 23 21 25 18 27
REMARK Flexibility Score: inf
ROOT
ATOM      1  C   UNL     1       1.843  -7.837   3.810  1.00  0.00     0.180 A 
ATOM      2  C   UNL     1       1.858  -8.872   4.762  1.00  0.00     0.208 A 
ATOM      3  C   UNL     1       1.307  -8.637   6.032  1.00  0.00     0.238 A 
ATOM      4  O   UNL     1       1.274  -9.583   6.860  1.00  0.00    -0.285 OA
ATOM      5  C   UNL     1       0.764  -7.366   6.339  1.00  0.00     0.111 A 
ATOM      6  C   UNL     1       0.217  -7.003   7.607  1.00  0.00     0.134 A 
ATOM      7  C   UNL     1      -0.410  -5.761   7.760  1.00  0.00     0.093 A 
ATOM      8  C   UNL     1      -0.452  -4.842   6.708  1.00  0.00     0.123 A 
ATOM      9  C   UNL     1       0.132  -5.163   5.485  1.00  0.00     0.094 A 
ATOM     10  C   UNL     1       0.733  -6.408   5.292  1.00  0.00     0.146 A 
ATOM     11  O   UNL     1       1.269  -6.678   4.107  1.00  0.00    -0.452 OA
ENDROOT
BRANCH   1  12
ATOM     12  C   UNL     1       2.428  -8.002   2.459  1.00  0.00     0.025 A 
ATOM     13  C   UNL     1       2.272  -9.196   1.734  1.00  0.00     0.016 A 
ATOM     14  C   UNL     1       2.852  -9.336   0.472  1.00  0.00     0.051 A 
ATOM     15  C   UNL     1       3.609  -8.294  -0.080  1.00  0.00     0.157 A 
ATOM     16  C   UNL     1       3.205  -6.968   1.912  1.00  0.00     0.062 A 
ATOM     17  C   UNL     1       3.789  -7.106   0.647  1.00  0.00     0.158 A 
BRANCH  15  18
ATOM     18  O   UNL     1       4.185  -8.437  -1.340  1.00  0.00    -0.504 OA
ATOM     19  H   UNL     1       5.169  -8.251  -1.499  1.00  0.00     0.293 HD
ENDBRANCH  15  18
BRANCH  17  20
ATOM     20  O   UNL     1       4.541  -6.052   0.130  1.00  0.00    -0.504 OA
ATOM     21  H   UNL     1       5.068  -5.425   0.726  1.00  0.00     0.293 HD
ENDBRANCH  17  20
ENDBRANCH   1  12
BRANCH   2  22
ATOM     22  O   UNL     1       2.379 -10.125   4.430  1.00  0.00    -0.502 OA
ATOM     23  H   UNL     1       3.371 -10.286   4.300  1.00  0.00     0.293 HD
ENDBRANCH   2  22
BRANCH   6  24
ATOM     24  O   UNL     1       0.287  -7.811   8.747  1.00  0.00    -0.507 OA
ATOM     25  H   UNL     1      -0.460  -8.403   9.078  1.00  0.00     0.293 HD
ENDBRANCH   6  24
BRANCH   8  26
ATOM     26  O   UNL     1      -1.065  -3.602   6.872  1.00  0.00    -0.508 OA
ATOM     27  H   UNL     1      -1.369  -3.051   6.077  1.00  0.00     0.293 HD
ENDBRANCH   8  26
TORSDOF 6
ENDMDL
MODEL 5
REMARK VINA RESULT:    -7.230     12.468     14.084
REMARK INTER + INTRA:          -8.883
REMARK INTER:                  -8.561
REMARK INTRA:                  -0.322
REMARK UNBOUND:                -0.174
REMARK SMILES O=c1c(O)c(-c2ccc(O)c(O)c2)oc2cc(O)cc(O)c12
REMARK SMILES IDX 5 1 3 2 2 3 1 4 22 5 20 6 19 7 17 8 16 9 15 10 14 11 6 12
REMARK SMILES IDX 7 13 8 14 9 15 13 16 11 17 10 18 12 20 4 22 21 24 18 26
REMARK H PARENT 10 19 12 21 4 23 21 25 18 27
REMARK Flexibility Score: inf
ROOT
ATOM      1  C   UNL     1      -2.163  -4.424   7.374  1.00  0.00     0.180 A 
ATOM      2  C   UNL     1      -2.561  -5.630   7.977  1.00  0.00     0.208 A 
ATOM      3  C   UNL     1      -1.976  -6.832   7.549  1.00  0.00     0.238 A 
ATOM      4  O   UNL     1      -2.295  -7.901   8.130  1.00  0.00    -0.285 OA
ATOM      5  C   UNL     1      -1.013  -6.815   6.511  1.00  0.00     0.111 A 
ATOM      6  C   UNL     1      -0.385  -7.977   5.969  1.00  0.00     0.134 A 
ATOM      7  C   UNL     1       0.648  -7.832   5.034  1.00  0.00     0.093 A 
ATOM      8  C   UNL     1       1.030  -6.569   4.574  1.00  0.00     0.123 A 
ATOM      9  C   UNL     1       0.382  -5.433   5.052  1.00  0.00     0.094 A 
ATOM     10  C   UNL     1      -0.627  -5.543   6.012  1.00  0.00     0.146 A 
ATOM     11  O   UNL     1      -1.211  -4.434   6.449  1.00  0.00    -0.452 OA
ENDROOT
BRANCH   1  12
ATOM     12  C   UNL     1      -2.754  -3.120   7.756  1.00  0.00     0.025 A 
ATOM     13  C   UNL     1      -2.185  -2.326   8.766  1.00  0.00     0.016 A 
ATOM     14  C   UNL     1      -2.773  -1.111   9.125  1.00  0.00     0.051 A 
ATOM     15  C   UNL     1      -3.945  -0.678   8.491  1.00  0.00     0.157 A 
ATOM     16  C   UNL     1      -3.940  -2.693   7.138  1.00  0.00     0.062 A 
ATOM     17  C   UNL     1      -4.533  -1.475   7.496  1.00  0.00     0.158 A 
BRANCH  15  18
ATOM     18  O   UNL     1      -4.529   0.536   8.851  1.00  0.00    -0.504 OA
ATOM     19  H   UNL     1      -5.535   0.647   8.901  1.00  0.00     0.293 HD
ENDBRANCH  15  18
BRANCH  17  20
ATOM     20  O   UNL     1      -5.703  -1.077   6.850  1.00  0.00    -0.504 OA
ATOM     21  H   UNL     1      -5.983  -0.105   6.796  1.00  0.00     0.293 HD
ENDBRANCH  17  20
ENDBRANCH   1  12
BRANCH   2  22
ATOM     22  O   UNL     1      -3.497  -5.621   9.015  1.00  0.00    -0.502 OA
ATOM     23  H   UNL     1      -4.470  -5.864   8.873  1.00  0.00     0.293 HD
ENDBRANCH   2  22
BRANCH   6  24
ATOM     24  O   UNL     1      -0.754  -9.286   6.292  1.00  0.00    -0.507 OA
ATOM     25  H   UNL     1      -0.148  -9.961   6.735  1.00  0.00     0.293 HD
ENDBRANCH   6  24
BRANCH   8  26
ATOM     26  O   UNL     1       2.048  -6.435   3.633  1.00  0.00    -0.508 OA
ATOM     27  H   UNL     1       2.160  -7.097   2.874  1.00  0.00     0.293 HD
ENDBRANCH   8  26
TORSDOF 6
ENDMDL
MODEL 6
REMARK VINA RESULT:    -7.136      1.572      6.521
REMARK INTER + INTRA:          -8.770
REMARK INTER:                  -8.910
REMARK INTRA:                   0.140
REMARK UNBOUND:                -0.174
REMARK SMILES O=c1c(O)c(-c2ccc(O)c(O)c2)oc2cc(O)cc(O)c12
REMARK SMILES IDX 5 1 3 2 2 3 1 4 22 5 20 6 19 7 17 8 16 9 15 10 14 11 6 12
REMARK SMILES IDX 7 13 8 14 9 15 13 16 11 17 10 18 12 20 4 22 21 24 18 26
REMARK H PARENT 10 19 12 21 4 23 21 25 18 27
REMARK Flexibility Score: inf
ROOT
ATOM      1  C   UNL     1       6.242   4.606   3.524  1.00  0.00     0.180 A 
ATOM      2  C   UNL     1       7.485   4.220   2.992  1.00  0.00     0.208 A 
ATOM      3  C   UNL     1       7.892   4.750   1.757  1.00  0.00     0.238 A 
ATOM      4  O   UNL     1       9.028   4.444   1.313  1.00  0.00    -0.285 OA
ATOM      5  C   UNL     1       7.044   5.645   1.061  1.00  0.00     0.111 A 
ATOM      6  C   UNL     1       7.336   6.212  -0.216  1.00  0.00     0.134 A 
ATOM      7  C   UNL     1       6.484   7.186  -0.751  1.00  0.00     0.093 A 
ATOM      8  C   UNL     1       5.317   7.566  -0.085  1.00  0.00     0.123 A 
ATOM      9  C   UNL     1       4.993   6.976   1.134  1.00  0.00     0.094 A 
ATOM     10  C   UNL     1       5.840   6.028   1.710  1.00  0.00     0.146 A 
ATOM     11  O   UNL     1       5.499   5.497   2.879  1.00  0.00    -0.452 OA
ENDROOT
BRANCH   1  12
ATOM     12  C   UNL     1       5.734   4.070   4.808  1.00  0.00     0.025 A 
ATOM     13  C   UNL     1       5.145   4.909   5.769  1.00  0.00     0.016 A 
ATOM     14  C   UNL     1       4.695   4.385   6.983  1.00  0.00     0.051 A 
ATOM     15  C   UNL     1       4.839   3.019   7.262  1.00  0.00     0.157 A 
ATOM     16  C   UNL     1       5.897   2.706   5.099  1.00  0.00     0.062 A 
ATOM     17  C   UNL     1       5.447   2.177   6.316  1.00  0.00     0.158 A 
BRANCH  15  18
ATOM     18  O   UNL     1       4.388   2.499   8.473  1.00  0.00    -0.504 OA
ATOM     19  H   UNL     1       3.402   2.469   8.704  1.00  0.00     0.293 HD
ENDBRANCH  15  18
BRANCH  17  20
ATOM     20  O   UNL     1       5.613   0.815   6.564  1.00  0.00    -0.504 OA
ATOM     21  H   UNL     1       4.857   0.152   6.445  1.00  0.00     0.293 HD
ENDBRANCH  17  20
ENDBRANCH   1  12
BRANCH   2  22
ATOM     22  O   UNL     1       8.316   3.352   3.706  1.00  0.00    -0.502 OA
ATOM     23  H   UNL     1       7.996   2.458   4.057  1.00  0.00     0.293 HD
ENDBRANCH   2  22
BRANCH   6  24
ATOM     24  O   UNL     1       8.426   5.834  -1.006  1.00  0.00    -0.507 OA
ATOM     25  H   UNL     1       9.370   6.172  -0.883  1.00  0.00     0.293 HD
ENDBRANCH   6  24
BRANCH   8  26
ATOM     26  O   UNL     1       4.468   8.526  -0.631  1.00  0.00    -0.508 OA
ATOM     27  H   UNL     1       4.824   9.288  -1.197  1.00  0.00     0.293 HD
ENDBRANCH   8  26
TORSDOF 6
ENDMDL
MODEL 7
REMARK VINA RESULT:    -7.037      1.470      3.075
REMARK INTER + INTRA:          -8.651
REMARK INTER:                  -8.445
REMARK INTRA:                  -0.206
REMARK UNBOUND:                -0.174
REMARK SMILES O=c1c(O)c(-c2ccc(O)c(O)c2)oc2cc(O)cc(O)c12
REMARK SMILES IDX 5 1 3 2 2 3 1 4 22 5 20 6 19 7 17 8 16 9 15 10 14 11 6 12
REMARK SMILES IDX 7 13 8 14 9 15 13 16 11 17 10 18 12 20 4 22 21 24 18 26
REMARK H PARENT 10 19 12 21 4 23 21 25 18 27
REMARK Flexibility Score: inf
ROOT
ATOM      1  C   UNL     1       6.064   4.655   3.623  1.00  0.00     0.180 A 
ATOM      2  C   UNL     1       5.165   4.410   4.675  1.00  0.00     0.208 A 
ATOM      3  C   UNL     1       5.405   3.329   5.539  1.00  0.00     0.238 A 
ATOM      4  O   UNL     1       4.628   3.148   6.511  1.00  0.00    -0.285 OA
ATOM      5  C   UNL     1       6.532   2.498   5.330  1.00  0.00     0.111 A 
ATOM      6  C   UNL     1       6.852   1.351   6.118  1.00  0.00     0.134 A 
ATOM      7  C   UNL     1       8.061   0.679   5.902  1.00  0.00     0.093 A 
ATOM      8  C   UNL     1       8.931   1.073   4.882  1.00  0.00     0.123 A 
ATOM      9  C   UNL     1       8.600   2.153   4.069  1.00  0.00     0.094 A 
ATOM     10  C   UNL     1       7.418   2.866   4.283  1.00  0.00     0.146 A 
ATOM     11  O   UNL     1       7.146   3.897   3.492  1.00  0.00    -0.452 OA
ENDROOT
BRANCH   1  12
ATOM     12  C   UNL     1       5.863   5.759   2.657  1.00  0.00     0.025 A 
ATOM     13  C   UNL     1       5.991   7.104   3.044  1.00  0.00     0.016 A 
ATOM     14  C   UNL     1       5.773   8.129   2.121  1.00  0.00     0.051 A 
ATOM     15  C   UNL     1       5.411   7.828   0.801  1.00  0.00     0.157 A 
ATOM     16  C   UNL     1       5.478   5.462   1.339  1.00  0.00     0.062 A 
ATOM     17  C   UNL     1       5.259   6.488   0.410  1.00  0.00     0.158 A 
BRANCH  15  18
ATOM     18  O   UNL     1       5.195   8.853  -0.118  1.00  0.00    -0.504 OA
ATOM     19  H   UNL     1       4.717   9.708   0.142  1.00  0.00     0.293 HD
ENDBRANCH  15  18
BRANCH  17  20
ATOM     20  O   UNL     1       4.892   6.154  -0.893  1.00  0.00    -0.504 OA
ATOM     21  H   UNL     1       5.324   6.586  -1.700  1.00  0.00     0.293 HD
ENDBRANCH  17  20
ENDBRANCH   1  12
BRANCH   2  22
ATOM     22  O   UNL     1       4.071   5.256   4.877  1.00  0.00    -0.502 OA
ATOM     23  H   UNL     1       3.282   4.997   5.456  1.00  0.00     0.293 HD
ENDBRANCH   2  22
BRANCH   6  24
ATOM     24  O   UNL     1       6.009   0.821   7.100  1.00  0.00    -0.507 OA
ATOM     25  H   UNL     1       5.000   0.847   7.067  1.00  0.00     0.293 HD
ENDBRANCH   6  24
BRANCH   8  26
ATOM     26  O   UNL     1      10.125   0.389   4.664  1.00  0.00    -0.508 OA
ATOM     27  H   UNL     1      10.146  -0.500   4.177  1.00  0.00     0.293 HD
ENDBRANCH   8  26
TORSDOF 6
ENDMDL
MODEL 8
REMARK VINA RESULT:    -6.993     12.706     14.408
REMARK INTER + INTRA:          -8.598
REMARK INTER:                  -8.359
REMARK INTRA:                  -0.239
REMARK UNBOUND:                -0.174
REMARK SMILES O=c1c(O)c(-c2ccc(O)c(O)c2)oc2cc(O)cc(O)c12
REMARK SMILES IDX 5 1 3 2 2 3 1 4 22 5 20 6 19 7 17 8 16 9 15 10 14 11 6 12
REMARK SMILES IDX 7 13 8 14 9 15 13 16 11 17 10 18 12 20 4 22 21 24 18 26
REMARK H PARENT 10 19 12 21 4 23 21 25 18 27
REMARK Flexibility Score: inf
ROOT
ATOM      1  C   UNL     1      -2.338  -5.439   6.637  1.00  0.00     0.180 A 
ATOM      2  C   UNL     1      -2.367  -6.546   7.503  1.00  0.00     0.208 A 
ATOM      3  C   UNL     1      -1.424  -7.572   7.329  1.00  0.00     0.238 A 
ATOM      4  O   UNL     1      -1.420  -8.533   8.140  1.00  0.00    -0.285 OA
ATOM      5  C   UNL     1      -0.477  -7.487   6.280  1.00  0.00     0.111 A 
ATOM      6  C   UNL     1       0.498  -8.488   5.985  1.00  0.00     0.134 A 
ATOM      7  C   UNL     1       1.469  -8.239   5.007  1.00  0.00     0.093 A 
ATOM      8  C   UNL     1       1.460  -7.054   4.268  1.00  0.00     0.123 A 
ATOM      9  C   UNL     1       0.477  -6.097   4.508  1.00  0.00     0.094 A 
ATOM     10  C   UNL     1      -0.483  -6.300   5.501  1.00  0.00     0.146 A 
ATOM     11  O   UNL     1      -1.396  -5.358   5.704  1.00  0.00    -0.452 OA
ENDROOT
BRANCH   1  12
ATOM     12  C   UNL     1      -3.314  -4.331   6.743  1.00  0.00     0.025 A 
ATOM     13  C   UNL     1      -4.667  -4.512   6.408  1.00  0.00     0.016 A 
ATOM     14  C   UNL     1      -5.565  -3.445   6.493  1.00  0.00     0.051 A 
ATOM     15  C   UNL     1      -5.124  -2.179   6.900  1.00  0.00     0.157 A 
ATOM     16  C   UNL     1      -2.872  -3.055   7.129  1.00  0.00     0.062 A 
ATOM     17  C   UNL     1      -3.769  -1.983   7.215  1.00  0.00     0.158 A 
BRANCH  15  18
ATOM     18  O   UNL     1      -6.022  -1.118   6.985  1.00  0.00    -0.504 OA
ATOM     19  H   UNL     1      -5.709  -0.154   6.972  1.00  0.00     0.293 HD
ENDBRANCH  15  18
BRANCH  17  20
ATOM     20  O   UNL     1      -3.295  -0.735   7.616  1.00  0.00    -0.504 OA
ATOM     21  H   UNL     1      -3.419  -0.391   8.560  1.00  0.00     0.293 HD
ENDBRANCH  17  20
ENDBRANCH   1  12
BRANCH   2  22
ATOM     22  O   UNL     1      -3.296  -6.599   8.545  1.00  0.00    -0.502 OA
ATOM     23  H   UNL     1      -3.426  -7.425   9.117  1.00  0.00     0.293 HD
ENDBRANCH   2  22
BRANCH   6  24
ATOM     24  O   UNL     1       0.539  -9.743   6.600  1.00  0.00    -0.507 OA
ATOM     25  H   UNL     1       1.156  -9.991   7.360  1.00  0.00     0.293 HD
ENDBRANCH   6  24
BRANCH   8  26
ATOM     26  O   UNL     1       2.421  -6.821   3.287  1.00  0.00    -0.508 OA
ATOM     27  H   UNL     1       2.393  -5.992   2.704  1.00  0.00     0.293 HD
ENDBRANCH   8  26
TORSDOF 6
ENDMDL
