MODEL 1
REMARK VINA RESULT:    -4.348      0.000      0.000
REMARK INTER + INTRA:          -4.475
REMARK INTER:                  -4.475
REMARK INTRA:                   0.000
REMARK UNBOUND:                 0.000
REMARK SMILES C[C@H]1CC[C@H]2C(C)(C)[C@@H]3C[C@]12CC[C@]3(C)O
REMARK SMILES IDX 1 1 2 2 3 3 4 4 5 5 11 6 12 7 13 8 14 9 9 10 10 11 6 12 7 13
REMARK SMILES IDX 8 14 15 15 16 16
REMARK H PARENT 16 17
REMARK Flexibility Score: inf
ROOT
ATOM      1  C   UNL     1     118.480 120.220 112.163  1.00  0.00     0.008 C 
ATOM      2  C   UNL     1     117.718 118.905 111.949  1.00  0.00    -0.008 C 
ATOM      3  C   UNL     1     118.540 117.645 112.376  1.00  0.00     0.004 C 
ATOM      4  C   UNL     1     117.522 116.618 112.948  1.00  0.00     0.005 C 
ATOM      5  C   UNL     1     116.203 117.236 112.538  1.00  0.00     0.001 C 
ATOM      6  C   UNL     1     116.404 118.731 112.744  1.00  0.00    -0.023 C 
ATOM      7  C   UNL     1     116.584 119.239 114.229  1.00  0.00     0.010 C 
ATOM      8  C   UNL     1     115.393 119.057 115.202  1.00  0.00     0.036 C 
ATOM      9  C   UNL     1     113.990 118.929 114.532  1.00  0.00     0.065 C 
ATOM     10  C   UNL     1     114.111 118.343 113.085  1.00  0.00     0.027 C 
ATOM     11  C   UNL     1     115.070 119.237 112.240  1.00  0.00     0.014 C 
ATOM     12  C   UNL     1     114.763 116.893 112.991  1.00  0.00    -0.026 C 
ATOM     13  C   UNL     1     114.015 116.110 111.875  1.00  0.00     0.012 C 
ATOM     14  C   UNL     1     114.756 115.969 114.233  1.00  0.00     0.012 C 
ATOM     15  C   UNL     1     113.296 120.316 114.502  1.00  0.00     0.042 C 
ENDROOT
BRANCH   9  16
ATOM     16  O   UNL     1     113.167 118.075 115.292  1.00  0.00    -0.390 OA
ATOM     17  H   UNL     1     112.923 118.542 116.134  1.00  0.00     0.211 HD
ENDBRANCH   9  16
TORSDOF 1
ENDMDL
MODEL 2
REMARK VINA RESULT:    -4.323      2.149      3.848
REMARK INTER + INTRA:          -4.449
REMARK INTER:                  -4.449
REMARK INTRA:                   0.000
REMARK UNBOUND:                 0.000
REMARK SMILES C[C@H]1CC[C@H]2C(C)(C)[C@@H]3C[C@]12CC[C@]3(C)O
REMARK SMILES IDX 1 1 2 2 3 3 4 4 5 5 11 6 12 7 13 8 14 9 9 10 10 11 6 12 7 13
REMARK SMILES IDX 8 14 15 15 16 16
REMARK H PARENT 16 17
REMARK Flexibility Score: inf
ROOT
ATOM      1  C   UNL     1     119.960 114.811 112.064  1.00  0.00     0.008 C 
ATOM      2  C   UNL     1     118.630 115.556 111.884  1.00  0.00    -0.008 C 
ATOM      3  C   UNL     1     117.388 114.697 112.286  1.00  0.00     0.004 C 
ATOM      4  C   UNL     1     116.345 115.675 112.899  1.00  0.00     0.005 C 
ATOM      5  C   UNL     1     116.938 117.019 112.535  1.00  0.00     0.001 C 
ATOM      6  C   UNL     1     118.437 116.837 112.727  1.00  0.00    -0.023 C 
ATOM      7  C   UNL     1     118.956 116.613 114.202  1.00  0.00     0.010 C 
ATOM      8  C   UNL     1     118.757 117.764 115.218  1.00  0.00     0.036 C 
ATOM      9  C   UNL     1     118.601 119.188 114.601  1.00  0.00     0.065 C 
ATOM     10  C   UNL     1     118.009 119.109 113.153  1.00  0.00     0.027 C 
ATOM     11  C   UNL     1     118.917 118.198 112.270  1.00  0.00     0.014 C 
ATOM     12  C   UNL     1     116.571 118.435 113.041  1.00  0.00    -0.026 C 
ATOM     13  C   UNL     1     115.770 119.209 111.957  1.00  0.00     0.012 C 
ATOM     14  C   UNL     1     115.653 118.381 114.287  1.00  0.00     0.012 C 
ATOM     15  C   UNL     1     119.975 119.908 114.590  1.00  0.00     0.042 C 
ENDROOT
BRANCH   9  16
ATOM     16  O   UNL     1     117.736 119.967 115.394  1.00  0.00    -0.390 OA
ATOM     17  H   UNL     1     117.467 120.767 114.870  1.00  0.00     0.211 HD
ENDBRANCH   9  16
TORSDOF 1
ENDMDL
MODEL 3
REMARK VINA RESULT:    -4.277      2.234      4.008
REMARK INTER + INTRA:          -4.402
REMARK INTER:                  -4.402
REMARK INTRA:                   0.000
REMARK UNBOUND:                 0.000
REMARK SMILES C[C@H]1CC[C@H]2C(C)(C)[C@@H]3C[C@]12CC[C@]3(C)O
REMARK SMILES IDX 1 1 2 2 3 3 4 4 5 5 11 6 12 7 13 8 14 9 9 10 10 11 6 12 7 13
REMARK SMILES IDX 8 14 15 15 16 16
REMARK H PARENT 16 17
REMARK Flexibility Score: inf
ROOT
ATOM      1  C   UNL     1     113.054 118.513 112.036  1.00  0.00     0.008 C 
ATOM      2  C   UNL     1     114.414 117.819 111.875  1.00  0.00    -0.008 C 
ATOM      3  C   UNL     1     115.612 118.703 112.352  1.00  0.00     0.004 C 
ATOM      4  C   UNL     1     116.666 117.736 112.965  1.00  0.00     0.005 C 
ATOM      5  C   UNL     1     116.132 116.389 112.530  1.00  0.00     0.001 C 
ATOM      6  C   UNL     1     114.622 116.514 112.675  1.00  0.00    -0.023 C 
ATOM      7  C   UNL     1     114.046 116.664 114.139  1.00  0.00     0.010 C 
ATOM      8  C   UNL     1     114.250 115.482 115.118  1.00  0.00     0.036 C 
ATOM      9  C   UNL     1     114.474 114.088 114.454  1.00  0.00     0.065 C 
ATOM     10  C   UNL     1     115.112 114.242 113.032  1.00  0.00     0.027 C 
ATOM     11  C   UNL     1     114.204 115.157 112.152  1.00  0.00     0.014 C 
ATOM     12  C   UNL     1     116.529 114.967 112.996  1.00  0.00    -0.026 C 
ATOM     13  C   UNL     1     117.393 114.262 111.912  1.00  0.00     0.012 C 
ATOM     14  C   UNL     1     117.402 115.004 114.274  1.00  0.00     0.012 C 
ATOM     15  C   UNL     1     113.127 113.325 114.367  1.00  0.00     0.042 C 
ENDROOT
BRANCH   9  16
ATOM     16  O   UNL     1     115.338 113.308 115.247  1.00  0.00    -0.390 OA
ATOM     17  H   UNL     1     114.826 112.969 116.028  1.00  0.00     0.211 HD
ENDBRANCH   9  16
TORSDOF 1
ENDMDL
MODEL 4
REMARK VINA RESULT:    -4.235      2.774      5.462
REMARK INTER + INTRA:          -4.359
REMARK INTER:                  -4.359
REMARK INTRA:                   0.000
REMARK UNBOUND:                 0.000
REMARK SMILES C[C@H]1CC[C@H]2C(C)(C)[C@@H]3C[C@]12CC[C@]3(C)O
REMARK SMILES IDX 1 1 2 2 3 3 4 4 5 5 11 6 12 7 13 8 14 9 9 10 10 11 6 12 7 13
REMARK SMILES IDX 8 14 15 15 16 16
REMARK H PARENT 16 17
REMARK Flexibility Score: inf
ROOT
ATOM      1  C   UNL     1     114.573 113.249 111.993  1.00  0.00     0.008 C 
ATOM      2  C   UNL     1     115.281 114.606 111.878  1.00  0.00    -0.008 C 
ATOM      3  C   UNL     1     114.387 115.805 112.331  1.00  0.00     0.004 C 
ATOM      4  C   UNL     1     115.333 116.845 112.996  1.00  0.00     0.005 C 
ATOM      5  C   UNL     1     116.694 116.306 112.612  1.00  0.00     0.001 C 
ATOM      6  C   UNL     1     116.553 114.796 112.735  1.00  0.00    -0.023 C 
ATOM      7  C   UNL     1     116.338 114.204 114.184  1.00  0.00     0.010 C 
ATOM      8  C   UNL     1     117.478 114.388 115.214  1.00  0.00     0.036 C 
ATOM      9  C   UNL     1     118.900 114.610 114.612  1.00  0.00     0.065 C 
ATOM     10  C   UNL     1     118.811 115.265 113.192  1.00  0.00     0.027 C 
ATOM     11  C   UNL     1     117.929 114.374 112.264  1.00  0.00     0.014 C 
ATOM     12  C   UNL     1     118.098 116.688 113.142  1.00  0.00    -0.026 C 
ATOM     13  C   UNL     1     118.854 117.559 112.100  1.00  0.00     0.012 C 
ATOM     14  C   UNL     1     118.013 117.547 114.428  1.00  0.00     0.012 C 
ATOM     15  C   UNL     1     119.658 113.258 114.542  1.00  0.00     0.042 C 
ENDROOT
BRANCH   9  16
ATOM     16  O   UNL     1     119.652 115.459 115.448  1.00  0.00    -0.390 OA
ATOM     17  H   UNL     1     119.573 116.388 115.104  1.00  0.00     0.211 HD
ENDBRANCH   9  16
TORSDOF 1
ENDMDL
MODEL 5
REMARK VINA RESULT:    -3.870      1.619      2.609
REMARK INTER + INTRA:          -3.984
REMARK INTER:                  -3.984
REMARK INTRA:                   0.000
REMARK UNBOUND:                 0.000
REMARK SMILES C[C@H]1CC[C@H]2C(C)(C)[C@@H]3C[C@]12CC[C@]3(C)O
REMARK SMILES IDX 1 1 2 2 3 3 4 4 5 5 11 6 12 7 13 8 14 9 9 10 10 11 6 12 7 13
REMARK SMILES IDX 8 14 15 15 16 16
REMARK H PARENT 16 17
REMARK Flexibility Score: inf
ROOT
ATOM      1  C   UNL     1     118.519 120.288 112.150  1.00  0.00     0.008 C 
ATOM      2  C   UNL     1     118.754 118.904 112.769  1.00  0.00    -0.008 C 
ATOM      3  C   UNL     1     119.352 118.972 114.212  1.00  0.00     0.004 C 
ATOM      4  C   UNL     1     118.750 117.776 115.004  1.00  0.00     0.005 C 
ATOM      5  C   UNL     1     118.108 116.970 113.896  1.00  0.00     0.001 C 
ATOM      6  C   UNL     1     117.506 118.014 112.967  1.00  0.00    -0.023 C 
ATOM      7  C   UNL     1     116.299 118.869 113.524  1.00  0.00     0.010 C 
ATOM      8  C   UNL     1     114.988 118.123 113.872  1.00  0.00     0.036 C 
ATOM      9  C   UNL     1     114.773 116.763 113.139  1.00  0.00     0.065 C 
ATOM     10  C   UNL     1     116.143 116.110 112.756  1.00  0.00     0.027 C 
ATOM     11  C   UNL     1     116.967 117.107 111.882  1.00  0.00     0.014 C 
ATOM     12  C   UNL     1     117.111 115.789 113.979  1.00  0.00    -0.026 C 
ATOM     13  C   UNL     1     117.832 114.446 113.671  1.00  0.00     0.012 C 
ATOM     14  C   UNL     1     116.519 115.634 115.401  1.00  0.00     0.012 C 
ATOM     15  C   UNL     1     113.899 116.980 111.876  1.00  0.00     0.042 C 
ENDROOT
BRANCH   9  16
ATOM     16  O   UNL     1     114.072 115.870 113.974  1.00  0.00    -0.390 OA
ATOM     17  H   UNL     1     114.547 115.816 114.844  1.00  0.00     0.211 HD
ENDBRANCH   9  16
TORSDOF 1
ENDMDL
MODEL 6
REMARK VINA RESULT:    -3.835      1.718      3.298
REMARK INTER + INTRA:          -3.947
REMARK INTER:                  -3.947
REMARK INTRA:                   0.000
REMARK UNBOUND:                 0.000
REMARK SMILES C[C@H]1CC[C@H]2C(C)(C)[C@@H]3C[C@]12CC[C@]3(C)O
REMARK SMILES IDX 1 1 2 2 3 3 4 4 5 5 11 6 12 7 13 8 14 9 9 10 10 11 6 12 7 13
REMARK SMILES IDX 8 14 15 15 16 16
REMARK H PARENT 16 17
REMARK Flexibility Score: inf
ROOT
ATOM      1  C   UNL     1     118.110 114.183 111.919  1.00  0.00     0.008 C 
ATOM      2  C   UNL     1     116.707 114.803 111.877  1.00  0.00    -0.008 C 
ATOM      3  C   UNL     1     115.624 113.915 112.571  1.00  0.00     0.004 C 
ATOM      4  C   UNL     1     114.604 114.886 113.233  1.00  0.00     0.005 C 
ATOM      5  C   UNL     1     115.009 116.212 112.626  1.00  0.00     0.001 C 
ATOM      6  C   UNL     1     116.530 116.163 112.589  1.00  0.00    -0.023 C 
ATOM      7  C   UNL     1     117.289 116.165 113.975  1.00  0.00     0.010 C 
ATOM      8  C   UNL     1     117.146 117.417 114.873  1.00  0.00     0.036 C 
ATOM      9  C   UNL     1     116.768 118.738 114.133  1.00  0.00     0.065 C 
ATOM     10  C   UNL     1     115.970 118.435 112.820  1.00  0.00     0.027 C 
ATOM     11  C   UNL     1     116.809 117.486 111.909  1.00  0.00     0.014 C 
ATOM     12  C   UNL     1     114.598 117.651 113.023  1.00  0.00    -0.026 C 
ATOM     13  C   UNL     1     113.572 118.223 112.004  1.00  0.00     0.012 C 
ATOM     14  C   UNL     1     113.892 117.689 114.400  1.00  0.00     0.012 C 
ATOM     15  C   UNL     1     118.053 119.546 113.815  1.00  0.00     0.042 C 
ENDROOT
BRANCH   9  16
ATOM     16  O   UNL     1     115.969 119.547 114.964  1.00  0.00    -0.390 OA
ATOM     17  H   UNL     1     115.046 119.181 114.964  1.00  0.00     0.211 HD
ENDBRANCH   9  16
TORSDOF 1
ENDMDL
MODEL 7
REMARK VINA RESULT:    -3.825      2.616      5.117
REMARK INTER + INTRA:          -3.937
REMARK INTER:                  -3.937
REMARK INTRA:                   0.000
REMARK UNBOUND:                 0.000
REMARK SMILES C[C@H]1CC[C@H]2C(C)(C)[C@@H]3C[C@]12CC[C@]3(C)O
REMARK SMILES IDX 1 1 2 2 3 3 4 4 5 5 11 6 12 7 13 8 14 9 9 10 10 11 6 12 7 13
REMARK SMILES IDX 8 14 15 15 16 16
REMARK H PARENT 16 17
REMARK Flexibility Score: inf
ROOT
ATOM      1  C   UNL     1     114.032 116.351 111.937  1.00  0.00     0.008 C 
ATOM      2  C   UNL     1     115.040 117.233 112.687  1.00  0.00    -0.008 C 
ATOM      3  C   UNL     1     114.569 117.610 114.129  1.00  0.00     0.004 C 
ATOM      4  C   UNL     1     115.846 117.671 115.016  1.00  0.00     0.005 C 
ATOM      5  C   UNL     1     116.942 117.619 113.974  1.00  0.00     0.001 C 
ATOM      6  C   UNL     1     116.437 116.623 112.940  1.00  0.00    -0.023 C 
ATOM      7  C   UNL     1     116.309 115.114 113.391  1.00  0.00     0.010 C 
ATOM      8  C   UNL     1     117.607 114.365 113.779  1.00  0.00     0.036 C 
ATOM      9  C   UNL     1     118.924 114.941 113.171  1.00  0.00     0.065 C 
ATOM     10  C   UNL     1     118.783 116.473 112.878  1.00  0.00     0.027 C 
ATOM     11  C   UNL     1     117.564 116.710 111.933  1.00  0.00     0.014 C 
ATOM     12  C   UNL     1     118.462 117.382 114.146  1.00  0.00    -0.026 C 
ATOM     13  C   UNL     1     119.242 118.717 113.978  1.00  0.00     0.012 C 
ATOM     14  C   UNL     1     118.808 116.866 115.564  1.00  0.00     0.012 C 
ATOM     15  C   UNL     1     119.285 114.169 111.875  1.00  0.00     0.042 C 
ENDROOT
BRANCH   9  16
ATOM     16  O   UNL     1     119.993 114.756 114.070  1.00  0.00    -0.390 OA
ATOM     17  H   UNL     1     120.499 113.947 113.794  1.00  0.00     0.211 HD
ENDBRANCH   9  16
TORSDOF 1
ENDMDL
MODEL 8
REMARK VINA RESULT:    -3.480      2.294      3.934
REMARK INTER + INTRA:          -3.582
REMARK INTER:                  -3.582
REMARK INTRA:                   0.000
REMARK UNBOUND:                 0.000
REMARK SMILES C[C@H]1CC[C@H]2C(C)(C)[C@@H]3C[C@]12CC[C@]3(C)O
REMARK SMILES IDX 1 1 2 2 3 3 4 4 5 5 11 6 12 7 13 8 14 9 9 10 10 11 6 12 7 13
REMARK SMILES IDX 8 14 15 15 16 16
REMARK H PARENT 16 17
REMARK Flexibility Score: inf
ROOT
ATOM      1  C   UNL     1     115.620 119.320 111.923  1.00  0.00     0.008 C 
ATOM      2  C   UNL     1     116.941 118.539 111.979  1.00  0.00    -0.008 C 
ATOM      3  C   UNL     1     118.047 119.266 112.811  1.00  0.00     0.004 C 
ATOM      4  C   UNL     1     118.880 118.157 113.516  1.00  0.00     0.005 C 
ATOM      5  C   UNL     1     118.385 116.912 112.813  1.00  0.00     0.001 C 
ATOM      6  C   UNL     1     116.890 117.143 112.640  1.00  0.00    -0.023 C 
ATOM      7  C   UNL     1     116.007 117.181 113.950  1.00  0.00     0.010 C 
ATOM      8  C   UNL     1     115.919 115.889 114.797  1.00  0.00     0.036 C 
ATOM      9  C   UNL     1     116.211 114.561 114.032  1.00  0.00     0.065 C 
ATOM     10  C   UNL     1     117.161 114.814 112.813  1.00  0.00     0.027 C 
ATOM     11  C   UNL     1     116.527 115.888 111.875  1.00  0.00     0.014 C 
ATOM     12  C   UNL     1     118.587 115.421 113.176  1.00  0.00    -0.026 C 
ATOM     13  C   UNL     1     119.634 114.769 112.229  1.00  0.00     0.012 C 
ATOM     14  C   UNL     1     119.149 115.250 114.608  1.00  0.00     0.012 C 
ATOM     15  C   UNL     1     114.877 113.923 113.561  1.00  0.00     0.042 C 
ENDROOT
BRANCH   9  16
ATOM     16  O   UNL     1     116.828 113.632 114.893  1.00  0.00    -0.390 OA
ATOM     17  H   UNL     1     117.059 112.822 114.366  1.00  0.00     0.211 HD
ENDBRANCH   9  16
TORSDOF 1
ENDMDL
