MODEL 1
REMARK VINA RESULT:    -5.537      0.000      0.000
REMARK INTER + INTRA:          -6.902
REMARK INTER:                  -6.670
REMARK INTRA:                  -0.232
REMARK UNBOUND:                -0.232
REMARK SMILES Oc1cc(O)c2cc(O)c(-c3ccc(O)c(O)c3)[o+]c2c1.[Cl-]
REMARK SMILES IDX 10 1 19 2 20 3 21 4 2 5 3 6 4 7 6 8 7 9 8 10 11 11 12 12
REMARK SMILES IDX 13 13 14 14 18 15 16 16 15 17 17 19 9 21 1 23 5 25
REMARK H PARENT 15 18 17 20 9 22 1 24 5 26
REMARK Flexibility Score: inf
ROOT
ATOM      1  C   UNL     1      -4.453  91.307 -14.746  1.00  0.00     0.402 A 
ATOM      2  O   UNL     1      -4.144  92.380 -14.021  1.00  0.00    -0.202 OA
ATOM      3  C   UNL     1      -4.330  92.451 -12.707  1.00  0.00     0.368 A 
ATOM      4  C   UNL     1      -3.977  93.622 -12.033  1.00  0.00     0.162 A 
ATOM      5  C   UNL     1      -4.164  93.725 -10.651  1.00  0.00     0.128 A 
ATOM      6  C   UNL     1      -4.708  92.652  -9.942  1.00  0.00     0.093 A 
ATOM      7  C   UNL     1      -5.071  91.468 -10.594  1.00  0.00     0.136 A 
ATOM      8  C   UNL     1      -4.879  91.357 -11.996  1.00  0.00     0.125 A 
ATOM      9  C   UNL     1      -5.202  90.204 -12.731  1.00  0.00     0.078 A 
ATOM     10  C   UNL     1      -4.980  90.168 -14.111  1.00  0.00     0.223 A 
ENDROOT
BRANCH   1  11
ATOM     11  C   UNL     1      -4.208  91.354 -16.205  1.00  0.00     0.087 A 
ATOM     12  C   UNL     1      -2.895  91.508 -16.680  1.00  0.00     0.022 A 
ATOM     13  C   UNL     1      -2.642  91.574 -18.053  1.00  0.00     0.051 A 
ATOM     14  C   UNL     1      -3.700  91.504 -18.969  1.00  0.00     0.157 A 
ATOM     15  C   UNL     1      -5.268  91.304 -17.128  1.00  0.00     0.068 A 
ATOM     16  C   UNL     1      -5.015  91.373 -18.506  1.00  0.00     0.158 A 
BRANCH  14  17
ATOM     17  O   UNL     1      -3.451  91.568 -20.339  1.00  0.00    -0.504 OA
ATOM     18  H   UNL     1      -2.518  91.719 -20.702  1.00  0.00     0.293 HD
ENDBRANCH  14  17
BRANCH  16  19
ATOM     19  O   UNL     1      -6.066  91.318 -19.421  1.00  0.00    -0.504 OA
ATOM     20  H   UNL     1      -6.304  92.112 -20.002  1.00  0.00     0.293 HD
ENDBRANCH  16  19
ENDBRANCH   1  11
BRANCH  10  21
ATOM     21  O   UNL     1      -5.253  89.006 -14.833  1.00  0.00    -0.500 OA
ATOM     22  H   UNL     1      -5.009  88.919 -15.814  1.00  0.00     0.294 HD
ENDBRANCH  10  21
BRANCH   5  23
ATOM     23  O   UNL     1      -3.813  94.890  -9.972  1.00  0.00    -0.507 OA
ATOM     24  H   UNL     1      -3.738  94.912  -8.962  1.00  0.00     0.293 HD
ENDBRANCH   5  23
BRANCH   7  25
ATOM     25  O   UNL     1      -5.612  90.442  -9.813  1.00  0.00    -0.507 OA
ATOM     26  H   UNL     1      -6.469  90.518  -9.285  1.00  0.00     0.293 HD
ENDBRANCH   7  25
TORSDOF 6
ENDMDL
MODEL 2
REMARK VINA RESULT:    -5.511      4.530      6.686
REMARK INTER + INTRA:          -6.871
REMARK INTER:                  -6.674
REMARK INTRA:                  -0.197
REMARK UNBOUND:                -0.232
REMARK SMILES Oc1cc(O)c2cc(O)c(-c3ccc(O)c(O)c3)[o+]c2c1.[Cl-]
REMARK SMILES IDX 10 1 19 2 20 3 21 4 2 5 3 6 4 7 6 8 7 9 8 10 11 11 12 12
REMARK SMILES IDX 13 13 14 14 18 15 16 16 15 17 17 19 9 21 1 23 5 25
REMARK H PARENT 15 18 17 20 9 22 1 24 5 26
REMARK Flexibility Score: inf
ROOT
ATOM      1  C   UNL     1      -8.271  90.272 -13.877  1.00  0.00     0.402 A 
ATOM      2  O   UNL     1      -7.771  91.278 -14.590  1.00  0.00    -0.202 OA
ATOM      3  C   UNL     1      -6.471  91.434 -14.820  1.00  0.00     0.368 A 
ATOM      4  C   UNL     1      -6.041  92.526 -15.578  1.00  0.00     0.162 A 
ATOM      5  C   UNL     1      -4.679  92.716 -15.834  1.00  0.00     0.128 A 
ATOM      6  C   UNL     1      -3.745  91.810 -15.327  1.00  0.00     0.093 A 
ATOM      7  C   UNL     1      -4.150  90.708 -14.564  1.00  0.00     0.136 A 
ATOM      8  C   UNL     1      -5.531  90.510 -14.305  1.00  0.00     0.125 A 
ATOM      9  C   UNL     1      -6.029  89.427 -13.561  1.00  0.00     0.078 A 
ATOM     10  C   UNL     1      -7.405  89.296 -13.352  1.00  0.00     0.223 A 
ENDROOT
BRANCH   1  11
ATOM     11  C   UNL     1      -9.737  90.214 -13.682  1.00  0.00     0.087 A 
ATOM     12  C   UNL     1     -10.473  89.179 -14.282  1.00  0.00     0.022 A 
ATOM     13  C   UNL     1     -11.860  89.115 -14.127  1.00  0.00     0.051 A 
ATOM     14  C   UNL     1     -12.533  90.093 -13.383  1.00  0.00     0.157 A 
ATOM     15  C   UNL     1     -10.419  91.205 -12.953  1.00  0.00     0.068 A 
ATOM     16  C   UNL     1     -11.812  91.142 -12.799  1.00  0.00     0.158 A 
BRANCH  14  17
ATOM     17  O   UNL     1     -13.916  90.032 -13.225  1.00  0.00    -0.504 OA
ATOM     18  H   UNL     1     -14.470  90.866 -13.073  1.00  0.00     0.293 HD
ENDBRANCH  14  17
BRANCH  16  19
ATOM     19  O   UNL     1     -12.486  92.122 -12.072  1.00  0.00    -0.504 OA
ATOM     20  H   UNL     1     -13.422  91.968 -11.716  1.00  0.00     0.293 HD
ENDBRANCH  16  19
ENDBRANCH   1  11
BRANCH  10  21
ATOM     21  O   UNL     1      -7.905  88.194 -12.656  1.00  0.00    -0.500 OA
ATOM     22  H   UNL     1      -8.396  88.299 -11.776  1.00  0.00     0.294 HD
ENDBRANCH  10  21
BRANCH   5  23
ATOM     23  O   UNL     1      -4.244  93.801 -16.590  1.00  0.00    -0.507 OA
ATOM     24  H   UNL     1      -3.271  94.086 -16.597  1.00  0.00     0.293 HD
ENDBRANCH   5  23
BRANCH   7  25
ATOM     25  O   UNL     1      -3.152  89.850 -14.091  1.00  0.00    -0.507 OA
ATOM     26  H   UNL     1      -3.269  89.211 -13.319  1.00  0.00     0.293 HD
ENDBRANCH   7  25
TORSDOF 6
ENDMDL
MODEL 3
REMARK VINA RESULT:    -5.459      9.910     11.928
REMARK INTER + INTRA:          -6.808
REMARK INTER:                  -6.509
REMARK INTRA:                  -0.299
REMARK UNBOUND:                -0.232
REMARK SMILES Oc1cc(O)c2cc(O)c(-c3ccc(O)c(O)c3)[o+]c2c1.[Cl-]
REMARK SMILES IDX 10 1 19 2 20 3 21 4 2 5 3 6 4 7 6 8 7 9 8 10 11 11 12 12
REMARK SMILES IDX 13 13 14 14 18 15 16 16 15 17 17 19 9 21 1 23 5 25
REMARK H PARENT 15 18 17 20 9 22 1 24 5 26
REMARK Flexibility Score: inf
ROOT
ATOM      1  C   UNL     1      -7.645  83.644  -8.742  1.00  0.00     0.402 A 
ATOM      2  O   UNL     1      -8.544  82.672  -8.869  1.00  0.00    -0.202 OA
ATOM      3  C   UNL     1      -9.851  82.895  -8.964  1.00  0.00     0.368 A 
ATOM      4  C   UNL     1     -10.719  81.808  -9.091  1.00  0.00     0.162 A 
ATOM      5  C   UNL     1     -12.099  82.013  -9.191  1.00  0.00     0.128 A 
ATOM      6  C   UNL     1     -12.611  83.312  -9.162  1.00  0.00     0.093 A 
ATOM      7  C   UNL     1     -11.763  84.419  -9.034  1.00  0.00     0.136 A 
ATOM      8  C   UNL     1     -10.361  84.215  -8.936  1.00  0.00     0.125 A 
ATOM      9  C   UNL     1      -9.435  85.265  -8.820  1.00  0.00     0.078 A 
ATOM     10  C   UNL     1      -8.068  84.985  -8.733  1.00  0.00     0.223 A 
ENDROOT
BRANCH   1  11
ATOM     11  C   UNL     1      -6.218  83.266  -8.635  1.00  0.00     0.087 A 
ATOM     12  C   UNL     1      -5.577  83.338  -7.386  1.00  0.00     0.022 A 
ATOM     13  C   UNL     1      -4.225  83.005  -7.265  1.00  0.00     0.051 A 
ATOM     14  C   UNL     1      -3.492  82.610  -8.391  1.00  0.00     0.157 A 
ATOM     15  C   UNL     1      -5.472  82.888  -9.766  1.00  0.00     0.068 A 
ATOM     16  C   UNL     1      -4.114  82.555  -9.644  1.00  0.00     0.158 A 
BRANCH  14  17
ATOM     17  O   UNL     1      -2.144  82.275  -8.273  1.00  0.00    -0.504 OA
ATOM     18  H   UNL     1      -1.413  82.966  -8.394  1.00  0.00     0.293 HD
ENDBRANCH  14  17
BRANCH  16  19
ATOM     19  O   UNL     1      -3.377  82.176 -10.765  1.00  0.00    -0.504 OA
ATOM     20  H   UNL     1      -2.654  81.469 -10.709  1.00  0.00     0.293 HD
ENDBRANCH  16  19
ENDBRANCH   1  11
BRANCH  10  21
ATOM     21  O   UNL     1      -7.144  86.028  -8.667  1.00  0.00    -0.500 OA
ATOM     22  H   UNL     1      -7.428  86.979  -8.458  1.00  0.00     0.294 HD
ENDBRANCH  10  21
BRANCH   5  23
ATOM     23  O   UNL     1     -12.970  80.934  -9.318  1.00  0.00    -0.507 OA
ATOM     24  H   UNL     1     -13.963  81.031  -9.141  1.00  0.00     0.293 HD
ENDBRANCH   5  23
BRANCH   7  25
ATOM     25  O   UNL     1     -12.355  85.685  -9.010  1.00  0.00    -0.507 OA
ATOM     26  H   UNL     1     -11.879  86.532  -8.736  1.00  0.00     0.293 HD
ENDBRANCH   7  25
TORSDOF 6
ENDMDL
MODEL 4
REMARK VINA RESULT:    -5.457      5.265      6.270
REMARK INTER + INTRA:          -6.806
REMARK INTER:                  -6.468
REMARK INTRA:                  -0.337
REMARK UNBOUND:                -0.232
REMARK SMILES Oc1cc(O)c2cc(O)c(-c3ccc(O)c(O)c3)[o+]c2c1.[Cl-]
REMARK SMILES IDX 10 1 19 2 20 3 21 4 2 5 3 6 4 7 6 8 7 9 8 10 11 11 12 12
REMARK SMILES IDX 13 13 14 14 18 15 16 16 15 17 17 19 9 21 1 23 5 25
REMARK H PARENT 15 18 17 20 9 22 1 24 5 26
REMARK Flexibility Score: inf
ROOT
ATOM      1  C   UNL     1      -8.689  90.228 -13.782  1.00  0.00     0.402 A 
ATOM      2  O   UNL     1      -9.222  91.420 -13.524  1.00  0.00    -0.202 OA
ATOM      3  C   UNL     1     -10.529  91.619 -13.380  1.00  0.00     0.368 A 
ATOM      4  C   UNL     1     -10.995  92.908 -13.113  1.00  0.00     0.162 A 
ATOM      5  C   UNL     1     -12.364  93.147 -12.960  1.00  0.00     0.128 A 
ATOM      6  C   UNL     1     -13.270  92.090 -13.076  1.00  0.00     0.093 A 
ATOM      7  C   UNL     1     -12.829  90.789 -13.344  1.00  0.00     0.136 A 
ATOM      8  C   UNL     1     -11.439  90.542 -13.497  1.00  0.00     0.125 A 
ATOM      9  C   UNL     1     -10.906  89.268 -13.753  1.00  0.00     0.078 A 
ATOM     10  C   UNL     1      -9.524  89.102 -13.887  1.00  0.00     0.223 A 
ENDROOT
BRANCH   1  11
ATOM     11  C   UNL     1      -7.219  90.138 -13.931  1.00  0.00     0.087 A 
ATOM     12  C   UNL     1      -6.406  90.157 -12.786  1.00  0.00     0.022 A 
ATOM     13  C   UNL     1      -5.015  90.092 -12.903  1.00  0.00     0.051 A 
ATOM     14  C   UNL     1      -4.417  90.022 -14.168  1.00  0.00     0.157 A 
ATOM     15  C   UNL     1      -6.612  90.088 -15.199  1.00  0.00     0.068 A 
ATOM     16  C   UNL     1      -5.216  90.024 -15.318  1.00  0.00     0.158 A 
BRANCH  14  17
ATOM     17  O   UNL     1      -3.030  89.955 -14.289  1.00  0.00    -0.504 OA
ATOM     18  H   UNL     1      -2.419  90.517 -13.709  1.00  0.00     0.293 HD
ENDBRANCH  14  17
BRANCH  16  19
ATOM     19  O   UNL     1      -4.616  89.970 -16.575  1.00  0.00    -0.504 OA
ATOM     20  H   UNL     1      -4.959  89.349 -17.299  1.00  0.00     0.293 HD
ENDBRANCH  16  19
ENDBRANCH   1  11
BRANCH  10  21
ATOM     21  O   UNL     1      -8.989  87.829 -14.092  1.00  0.00    -0.500 OA
ATOM     22  H   UNL     1      -8.901  87.161 -13.335  1.00  0.00     0.294 HD
ENDBRANCH  10  21
BRANCH   5  23
ATOM     23  O   UNL     1     -12.836  94.430 -12.693  1.00  0.00    -0.507 OA
ATOM     24  H   UNL     1     -12.212  95.228 -12.663  1.00  0.00     0.293 HD
ENDBRANCH   5  23
BRANCH   7  25
ATOM     25  O   UNL     1     -13.800  89.788 -13.448  1.00  0.00    -0.507 OA
ATOM     26  H   UNL     1     -14.710  89.918 -13.864  1.00  0.00     0.293 HD
ENDBRANCH   7  25
TORSDOF 6
ENDMDL
MODEL 5
REMARK VINA RESULT:    -5.388     10.566     12.090
REMARK INTER + INTRA:          -6.722
REMARK INTER:                  -6.532
REMARK INTRA:                  -0.190
REMARK UNBOUND:                -0.232
REMARK SMILES Oc1cc(O)c2cc(O)c(-c3ccc(O)c(O)c3)[o+]c2c1.[Cl-]
REMARK SMILES IDX 10 1 19 2 20 3 21 4 2 5 3 6 4 7 6 8 7 9 8 10 11 11 12 12
REMARK SMILES IDX 13 13 14 14 18 15 16 16 15 17 17 19 9 21 1 23 5 25
REMARK H PARENT 15 18 17 20 9 22 1 24 5 26
REMARK Flexibility Score: inf
ROOT
ATOM      1  C   UNL     1      -8.815  83.440  -8.398  1.00  0.00     0.402 A 
ATOM      2  O   UNL     1      -7.861  83.109  -9.265  1.00  0.00    -0.202 OA
ATOM      3  C   UNL     1      -6.565  83.139  -8.970  1.00  0.00     0.368 A 
ATOM      4  C   UNL     1      -5.637  82.777  -9.949  1.00  0.00     0.162 A 
ATOM      5  C   UNL     1      -4.267  82.801  -9.667  1.00  0.00     0.128 A 
ATOM      6  C   UNL     1      -3.826  83.192  -8.400  1.00  0.00     0.093 A 
ATOM      7  C   UNL     1      -4.736  83.560  -7.402  1.00  0.00     0.136 A 
ATOM      8  C   UNL     1      -6.128  83.533  -7.683  1.00  0.00     0.125 A 
ATOM      9  C   UNL     1      -7.112  83.873  -6.740  1.00  0.00     0.078 A 
ATOM     10  C   UNL     1      -8.464  83.818  -7.090  1.00  0.00     0.223 A 
ENDROOT
BRANCH   1  11
ATOM     11  C   UNL     1     -10.223  83.376  -8.850  1.00  0.00     0.087 A 
ATOM     12  C   UNL     1     -10.992  84.552  -8.882  1.00  0.00     0.022 A 
ATOM     13  C   UNL     1     -12.329  84.512  -9.288  1.00  0.00     0.051 A 
ATOM     14  C   UNL     1     -12.920  83.296  -9.651  1.00  0.00     0.157 A 
ATOM     15  C   UNL     1     -10.827  82.154  -9.197  1.00  0.00     0.068 A 
ATOM     16  C   UNL     1     -12.170  82.114  -9.602  1.00  0.00     0.158 A 
BRANCH  14  17
ATOM     17  O   UNL     1     -14.253  83.253 -10.058  1.00  0.00    -0.504 OA
ATOM     18  H   UNL     1     -14.865  82.492  -9.789  1.00  0.00     0.293 HD
ENDBRANCH  14  17
BRANCH  16  19
ATOM     19  O   UNL     1     -12.766  80.903  -9.951  1.00  0.00    -0.504 OA
ATOM     20  H   UNL     1     -12.922  80.173  -9.266  1.00  0.00     0.293 HD
ENDBRANCH  16  19
ENDBRANCH   1  11
BRANCH  10  21
ATOM     21  O   UNL     1      -9.445  84.107  -6.140  1.00  0.00    -0.500 OA
ATOM     22  H   UNL     1     -10.047  84.918  -6.226  1.00  0.00     0.294 HD
ENDBRANCH  10  21
BRANCH   5  23
ATOM     23  O   UNL     1      -3.336  82.441 -10.638  1.00  0.00    -0.507 OA
ATOM     24  H   UNL     1      -3.158  83.027 -11.445  1.00  0.00     0.293 HD
ENDBRANCH   5  23
BRANCH   7  25
ATOM     25  O   UNL     1      -4.214  83.942  -6.162  1.00  0.00    -0.507 OA
ATOM     26  H   UNL     1      -4.189  84.891  -5.822  1.00  0.00     0.293 HD
ENDBRANCH   7  25
TORSDOF 6
ENDMDL
MODEL 6
REMARK VINA RESULT:    -5.326     10.516     11.861
REMARK INTER + INTRA:          -6.647
REMARK INTER:                  -6.294
REMARK INTRA:                  -0.353
REMARK UNBOUND:                -0.232
REMARK SMILES Oc1cc(O)c2cc(O)c(-c3ccc(O)c(O)c3)[o+]c2c1.[Cl-]
REMARK SMILES IDX 10 1 19 2 20 3 21 4 2 5 3 6 4 7 6 8 7 9 8 10 11 11 12 12
REMARK SMILES IDX 13 13 14 14 18 15 16 16 15 17 17 19 9 21 1 23 5 25
REMARK H PARENT 15 18 17 20 9 22 1 24 5 26
REMARK Flexibility Score: inf
ROOT
ATOM      1  C   UNL     1      -9.458  83.560  -8.797  1.00  0.00     0.402 A 
ATOM      2  O   UNL     1      -9.946  84.788  -8.957  1.00  0.00    -0.202 OA
ATOM      3  C   UNL     1     -11.231  85.039  -9.183  1.00  0.00     0.368 A 
ATOM      4  C   UNL     1     -11.648  86.363  -9.341  1.00  0.00     0.162 A 
ATOM      5  C   UNL     1     -12.994  86.656  -9.583  1.00  0.00     0.128 A 
ATOM      6  C   UNL     1     -13.926  85.619  -9.668  1.00  0.00     0.093 A 
ATOM      7  C   UNL     1     -13.533  84.283  -9.515  1.00  0.00     0.136 A 
ATOM      8  C   UNL     1     -12.169  83.982  -9.266  1.00  0.00     0.125 A 
ATOM      9  C   UNL     1     -11.688  82.674  -9.085  1.00  0.00     0.078 A 
ATOM     10  C   UNL     1     -10.329  82.457  -8.839  1.00  0.00     0.223 A 
ENDROOT
BRANCH   1  11
ATOM     11  C   UNL     1      -8.005  83.410  -8.561  1.00  0.00     0.087 A 
ATOM     12  C   UNL     1      -7.504  83.508  -7.252  1.00  0.00     0.022 A 
ATOM     13  C   UNL     1      -6.133  83.388  -7.008  1.00  0.00     0.051 A 
ATOM     14  C   UNL     1      -5.243  83.186  -8.070  1.00  0.00     0.157 A 
ATOM     15  C   UNL     1      -7.104  83.226  -9.626  1.00  0.00     0.068 A 
ATOM     16  C   UNL     1      -5.728  83.109  -9.381  1.00  0.00     0.158 A 
BRANCH  14  17
ATOM     17  O   UNL     1      -3.875  83.064  -7.830  1.00  0.00    -0.504 OA
ATOM     18  H   UNL     1      -3.370  82.216  -8.057  1.00  0.00     0.293 HD
ENDBRANCH  14  17
BRANCH  16  19
ATOM     19  O   UNL     1      -4.837  82.921 -10.437  1.00  0.00    -0.504 OA
ATOM     20  H   UNL     1      -3.930  82.494 -10.295  1.00  0.00     0.293 HD
ENDBRANCH  16  19
ENDBRANCH   1  11
BRANCH  10  21
ATOM     21  O   UNL     1      -9.858  81.163  -8.610  1.00  0.00    -0.500 OA
ATOM     22  H   UNL     1     -10.321  80.351  -9.002  1.00  0.00     0.294 HD
ENDBRANCH  10  21
BRANCH   5  23
ATOM     23  O   UNL     1     -13.417  87.974  -9.741  1.00  0.00    -0.507 OA
ATOM     24  H   UNL     1     -13.800  88.306 -10.619  1.00  0.00     0.293 HD
ENDBRANCH   5  23
BRANCH   7  25
ATOM     25  O   UNL     1     -14.526  83.304  -9.618  1.00  0.00    -0.507 OA
ATOM     26  H   UNL     1     -15.492  83.442  -9.360  1.00  0.00     0.293 HD
ENDBRANCH   7  25
TORSDOF 6
ENDMDL
MODEL 7
REMARK VINA RESULT:    -5.274      3.372      8.694
REMARK INTER + INTRA:          -6.585
REMARK INTER:                  -6.371
REMARK INTRA:                  -0.215
REMARK UNBOUND:                -0.232
REMARK SMILES Oc1cc(O)c2cc(O)c(-c3ccc(O)c(O)c3)[o+]c2c1.[Cl-]
REMARK SMILES IDX 10 1 19 2 20 3 21 4 2 5 3 6 4 7 6 8 7 9 8 10 11 11 12 12
REMARK SMILES IDX 13 13 14 14 18 15 16 16 15 17 17 19 9 21 1 23 5 25
REMARK H PARENT 15 18 17 20 9 22 1 24 5 26
REMARK Flexibility Score: inf
ROOT
ATOM      1  C   UNL     1      -3.176  91.537 -19.689  1.00  0.00     0.402 A 
ATOM      2  O   UNL     1      -3.809  92.597 -20.187  1.00  0.00    -0.202 OA
ATOM      3  C   UNL     1      -3.815  92.902 -21.481  1.00  0.00     0.368 A 
ATOM      4  C   UNL     1      -4.507  94.038 -21.908  1.00  0.00     0.162 A 
ATOM      5  C   UNL     1      -4.528  94.384 -23.263  1.00  0.00     0.128 A 
ATOM      6  C   UNL     1      -3.854  93.590 -24.193  1.00  0.00     0.093 A 
ATOM      7  C   UNL     1      -3.153  92.447 -23.790  1.00  0.00     0.136 A 
ATOM      8  C   UNL     1      -3.131  92.090 -22.417  1.00  0.00     0.125 A 
ATOM      9  C   UNL     1      -2.466  90.954 -21.925  1.00  0.00     0.078 A 
ATOM     10  C   UNL     1      -2.494  90.665 -20.557  1.00  0.00     0.223 A 
ENDROOT
BRANCH   1  11
ATOM     11  C   UNL     1      -3.234  91.311 -18.228  1.00  0.00     0.087 A 
ATOM     12  C   UNL     1      -2.053  91.387 -17.470  1.00  0.00     0.022 A 
ATOM     13  C   UNL     1      -2.081  91.159 -16.092  1.00  0.00     0.051 A 
ATOM     14  C   UNL     1      -3.286  90.834 -15.455  1.00  0.00     0.157 A 
ATOM     15  C   UNL     1      -4.437  90.965 -17.587  1.00  0.00     0.068 A 
ATOM     16  C   UNL     1      -4.465  90.733 -16.203  1.00  0.00     0.158 A 
BRANCH  14  17
ATOM     17  O   UNL     1      -3.318  90.607 -14.080  1.00  0.00    -0.504 OA
ATOM     18  H   UNL     1      -2.581  90.940 -13.470  1.00  0.00     0.293 HD
ENDBRANCH  14  17
BRANCH  16  19
ATOM     19  O   UNL     1      -5.659  90.396 -15.568  1.00  0.00    -0.504 OA
ATOM     20  H   UNL     1      -6.184  89.571 -15.831  1.00  0.00     0.293 HD
ENDBRANCH  16  19
ENDBRANCH   1  11
BRANCH  10  21
ATOM     21  O   UNL     1      -1.876  89.511 -20.074  1.00  0.00    -0.500 OA
ATOM     22  H   UNL     1      -1.518  89.456 -19.127  1.00  0.00     0.294 HD
ENDBRANCH  10  21
BRANCH   5  23
ATOM     23  O   UNL     1      -5.216  95.515 -23.696  1.00  0.00    -0.507 OA
ATOM     24  H   UNL     1      -5.325  95.724 -24.681  1.00  0.00     0.293 HD
ENDBRANCH   5  23
BRANCH   7  25
ATOM     25  O   UNL     1      -2.501  91.708 -24.783  1.00  0.00    -0.507 OA
ATOM     26  H   UNL     1      -1.755  91.052 -24.608  1.00  0.00     0.293 HD
ENDBRANCH   7  25
TORSDOF 6
ENDMDL
MODEL 8
REMARK VINA RESULT:    -5.255      4.761      6.844
REMARK INTER + INTRA:          -6.563
REMARK INTER:                  -6.346
REMARK INTRA:                  -0.216
REMARK UNBOUND:                -0.232
REMARK SMILES Oc1cc(O)c2cc(O)c(-c3ccc(O)c(O)c3)[o+]c2c1.[Cl-]
REMARK SMILES IDX 10 1 19 2 20 3 21 4 2 5 3 6 4 7 6 8 7 9 8 10 11 11 12 12
REMARK SMILES IDX 13 13 14 14 18 15 16 16 15 17 17 19 9 21 1 23 5 25
REMARK H PARENT 15 18 17 20 9 22 1 24 5 26
REMARK Flexibility Score: inf
ROOT
ATOM      1  C   UNL     1      -8.745  90.058 -13.300  1.00  0.00     0.402 A 
ATOM      2  O   UNL     1      -8.118  91.187 -12.978  1.00  0.00    -0.202 OA
ATOM      3  C   UNL     1      -6.806  91.357 -13.112  1.00  0.00     0.368 A 
ATOM      4  C   UNL     1      -6.238  92.579 -12.743  1.00  0.00     0.162 A 
ATOM      5  C   UNL     1      -4.860  92.784 -12.871  1.00  0.00     0.128 A 
ATOM      6  C   UNL     1      -4.049  91.762 -13.369  1.00  0.00     0.093 A 
ATOM      7  C   UNL     1      -4.594  90.528 -13.745  1.00  0.00     0.136 A 
ATOM      8  C   UNL     1      -5.992  90.316 -13.620  1.00  0.00     0.125 A 
ATOM      9  C   UNL     1      -6.627  89.117 -13.984  1.00  0.00     0.078 A 
ATOM     10  C   UNL     1      -8.010  88.985 -13.836  1.00  0.00     0.223 A 
ENDROOT
BRANCH   1  11
ATOM     11  C   UNL     1     -10.209  89.988 -13.094  1.00  0.00     0.087 A 
ATOM     12  C   UNL     1     -11.046  90.884 -13.780  1.00  0.00     0.022 A 
ATOM     13  C   UNL     1     -12.429  90.849 -13.587  1.00  0.00     0.051 A 
ATOM     14  C   UNL     1     -12.994  89.929 -12.694  1.00  0.00     0.157 A 
ATOM     15  C   UNL     1     -10.778  89.079 -12.184  1.00  0.00     0.068 A 
ATOM     16  C   UNL     1     -12.167  89.045 -11.989  1.00  0.00     0.158 A 
BRANCH  14  17
ATOM     17  O   UNL     1     -14.374  89.889 -12.500  1.00  0.00    -0.504 OA
ATOM     18  H   UNL     1     -14.777  89.563 -11.630  1.00  0.00     0.293 HD
ENDBRANCH  14  17
BRANCH  16  19
ATOM     19  O   UNL     1     -12.731  88.140 -11.090  1.00  0.00    -0.504 OA
ATOM     20  H   UNL     1     -13.491  88.408 -10.476  1.00  0.00     0.293 HD
ENDBRANCH  16  19
ENDBRANCH   1  11
BRANCH  10  21
ATOM     21  O   UNL     1      -8.649  87.812 -14.244  1.00  0.00    -0.500 OA
ATOM     22  H   UNL     1      -9.302  87.804 -15.019  1.00  0.00     0.294 HD
ENDBRANCH  10  21
BRANCH   5  23
ATOM     23  O   UNL     1      -4.287  94.000 -12.506  1.00  0.00    -0.507 OA
ATOM     24  H   UNL     1      -3.460  94.357 -12.970  1.00  0.00     0.293 HD
ENDBRANCH   5  23
BRANCH   7  25
ATOM     25  O   UNL     1      -3.714  89.556 -14.230  1.00  0.00    -0.507 OA
ATOM     26  H   UNL     1      -3.578  89.347 -15.208  1.00  0.00     0.293 HD
ENDBRANCH   7  25
TORSDOF 6
ENDMDL
MODEL 9
REMARK VINA RESULT:    -5.165      1.759      3.548
REMARK INTER + INTRA:          -6.454
REMARK INTER:                  -6.107
REMARK INTRA:                  -0.347
REMARK UNBOUND:                -0.232
REMARK SMILES Oc1cc(O)c2cc(O)c(-c3ccc(O)c(O)c3)[o+]c2c1.[Cl-]
REMARK SMILES IDX 10 1 19 2 20 3 21 4 2 5 3 6 4 7 6 8 7 9 8 10 11 11 12 12
REMARK SMILES IDX 13 13 14 14 18 15 16 16 15 17 17 19 9 21 1 23 5 25
REMARK H PARENT 15 18 17 20 9 22 1 24 5 26
REMARK Flexibility Score: inf
ROOT
ATOM      1  C   UNL     1      -5.554  91.284 -14.451  1.00  0.00     0.402 A 
ATOM      2  O   UNL     1      -6.243  90.240 -13.996  1.00  0.00    -0.202 OA
ATOM      3  C   UNL     1      -6.267  89.884 -12.716  1.00  0.00     0.368 A 
ATOM      4  C   UNL     1      -7.018  88.769 -12.335  1.00  0.00     0.162 A 
ATOM      5  C   UNL     1      -7.059  88.369 -10.995  1.00  0.00     0.128 A 
ATOM      6  C   UNL     1      -6.345  89.088 -10.034  1.00  0.00     0.093 A 
ATOM      7  C   UNL     1      -5.585  90.208 -10.390  1.00  0.00     0.136 A 
ATOM      8  C   UNL     1      -5.542  90.619 -11.748  1.00  0.00     0.125 A 
ATOM      9  C   UNL     1      -4.818  91.737 -12.194  1.00  0.00     0.078 A 
ATOM     10  C   UNL     1      -4.828  92.083 -13.549  1.00  0.00     0.223 A 
ENDROOT
BRANCH   1  11
ATOM     11  C   UNL     1      -5.598  91.573 -15.901  1.00  0.00     0.087 A 
ATOM     12  C   UNL     1      -6.708  92.248 -16.438  1.00  0.00     0.022 A 
ATOM     13  C   UNL     1      -6.779  92.515 -17.808  1.00  0.00     0.051 A 
ATOM     14  C   UNL     1      -5.752  92.097 -18.663  1.00  0.00     0.157 A 
ATOM     15  C   UNL     1      -4.578  91.138 -16.767  1.00  0.00     0.068 A 
ATOM     16  C   UNL     1      -4.652  91.404 -18.143  1.00  0.00     0.158 A 
BRANCH  14  17
ATOM     17  O   UNL     1      -5.819  92.363 -20.029  1.00  0.00    -0.504 OA
ATOM     18  H   UNL     1      -6.170  91.676 -20.686  1.00  0.00     0.293 HD
ENDBRANCH  14  17
BRANCH  16  19
ATOM     19  O   UNL     1      -3.637  90.977 -18.999  1.00  0.00    -0.504 OA
ATOM     20  H   UNL     1      -3.801  90.264 -19.699  1.00  0.00     0.293 HD
ENDBRANCH  16  19
ENDBRANCH   1  11
BRANCH  10  21
ATOM     21  O   UNL     1      -4.150  93.222 -13.985  1.00  0.00    -0.500 OA
ATOM     22  H   UNL     1      -3.146  93.315 -13.882  1.00  0.00     0.294 HD
ENDBRANCH  10  21
BRANCH   5  23
ATOM     23  O   UNL     1      -7.806  87.259 -10.608  1.00  0.00    -0.507 OA
ATOM     24  H   UNL     1      -8.310  87.240  -9.729  1.00  0.00     0.293 HD
ENDBRANCH   5  23
BRANCH   7  25
ATOM     25  O   UNL     1      -4.896  90.871  -9.369  1.00  0.00    -0.507 OA
ATOM     26  H   UNL     1      -3.892  90.885  -9.275  1.00  0.00     0.293 HD
ENDBRANCH   7  25
TORSDOF 6
ENDMDL
