MODEL 1
REMARK VINA RESULT:    -5.698      0.000      0.000
REMARK INTER + INTRA:          -6.991
REMARK INTER:                  -6.697
REMARK INTRA:                  -0.294
REMARK UNBOUND:                -0.294
REMARK SMILES O=c1cc(-c2ccc(O)c(O)c2)oc2cc(O)cc(O)c12
REMARK SMILES IDX 4 1 3 2 2 3 1 4 21 5 19 6 18 7 16 8 15 9 14 10 13 11 5 12
REMARK SMILES IDX 6 13 7 14 8 15 12 16 10 17 9 18 11 20 20 22 17 24
REMARK H PARENT 9 19 11 21 20 23 17 25
REMARK Flexibility Score: inf
ROOT
ATOM      1  C   UNL     1     -32.913 -55.257  67.360  1.00  0.00     0.138 A 
ATOM      2  C   UNL     1     -32.670 -54.485  68.504  1.00  0.00     0.100 A 
ATOM      3  C   UNL     1     -32.539 -53.101  68.387  1.00  0.00     0.197 A 
ATOM      4  O   UNL     1     -32.259 -52.442  69.422  1.00  0.00    -0.289 OA
ATOM      5  C   UNL     1     -32.682 -52.485  67.122  1.00  0.00     0.107 A 
ATOM      6  C   UNL     1     -32.608 -51.079  66.889  1.00  0.00     0.134 A 
ATOM      7  C   UNL     1     -32.649 -50.593  65.575  1.00  0.00     0.093 A 
ATOM      8  C   UNL     1     -32.822 -51.456  64.494  1.00  0.00     0.123 A 
ATOM      9  C   UNL     1     -32.949 -52.828  64.714  1.00  0.00     0.094 A 
ATOM     10  C   UNL     1     -32.878 -53.346  66.008  1.00  0.00     0.146 A 
ATOM     11  O   UNL     1     -32.989 -54.660  66.175  1.00  0.00    -0.456 OA
ENDROOT
BRANCH   1  12
ATOM     12  C   UNL     1     -33.062 -56.733  67.427  1.00  0.00     0.021 A 
ATOM     13  C   UNL     1     -32.939 -57.494  66.255  1.00  0.00     0.016 A 
ATOM     14  C   UNL     1     -33.081 -58.882  66.291  1.00  0.00     0.051 A 
ATOM     15  C   UNL     1     -33.360 -59.540  67.493  1.00  0.00     0.157 A 
ATOM     16  C   UNL     1     -33.357 -57.393  68.635  1.00  0.00     0.062 A 
ATOM     17  C   UNL     1     -33.505 -58.785  68.680  1.00  0.00     0.158 A 
BRANCH  15  18
ATOM     18  O   UNL     1     -33.486 -60.931  67.462  1.00  0.00    -0.504 OA
ATOM     19  H   UNL     1     -32.724 -61.571  67.632  1.00  0.00     0.293 HD
ENDBRANCH  15  18
BRANCH  17  20
ATOM     20  O   UNL     1     -33.799 -59.369  69.914  1.00  0.00    -0.504 OA
ATOM     21  H   UNL     1     -33.380 -59.082  70.787  1.00  0.00     0.293 HD
ENDBRANCH  17  20
ENDBRANCH   1  12
BRANCH   6  22
ATOM     22  O   UNL     1     -32.521 -50.122  67.905  1.00  0.00    -0.507 OA
ATOM     23  H   UNL     1     -31.668 -49.850  68.369  1.00  0.00     0.293 HD
ENDBRANCH   6  22
BRANCH   8  24
ATOM     24  O   UNL     1     -32.874 -50.936  63.202  1.00  0.00    -0.508 OA
ATOM     25  H   UNL     1     -32.612 -51.491  62.396  1.00  0.00     0.293 HD
ENDBRANCH   8  24
TORSDOF 5
ENDMDL
MODEL 2
REMARK VINA RESULT:    -5.646     16.659     19.522
REMARK INTER + INTRA:          -6.930
REMARK INTER:                  -6.615
REMARK INTRA:                  -0.315
REMARK UNBOUND:                -0.294
REMARK SMILES O=c1cc(-c2ccc(O)c(O)c2)oc2cc(O)cc(O)c12
REMARK SMILES IDX 4 1 3 2 2 3 1 4 21 5 19 6 18 7 16 8 15 9 14 10 13 11 5 12
REMARK SMILES IDX 6 13 7 14 8 15 12 16 10 17 9 18 11 20 20 22 17 24
REMARK H PARENT 9 19 11 21 20 23 17 25
REMARK Flexibility Score: inf
ROOT
ATOM      1  C   UNL     1     -20.869 -64.525  56.903  1.00  0.00     0.138 A 
ATOM      2  C   UNL     1     -20.383 -65.288  55.834  1.00  0.00     0.100 A 
ATOM      3  C   UNL     1     -20.945 -66.535  55.563  1.00  0.00     0.197 A 
ATOM      4  O   UNL     1     -20.446 -67.224  54.636  1.00  0.00    -0.289 OA
ATOM      5  C   UNL     1     -22.022 -67.007  56.351  1.00  0.00     0.107 A 
ATOM      6  C   UNL     1     -22.700 -68.246  56.143  1.00  0.00     0.134 A 
ATOM      7  C   UNL     1     -23.675 -68.661  57.059  1.00  0.00     0.093 A 
ATOM      8  C   UNL     1     -24.038 -67.857  58.138  1.00  0.00     0.123 A 
ATOM      9  C   UNL     1     -23.420 -66.621  58.321  1.00  0.00     0.094 A 
ATOM     10  C   UNL     1     -22.420 -66.193  57.445  1.00  0.00     0.146 A 
ATOM     11  O   UNL     1     -21.845 -65.015  57.662  1.00  0.00    -0.456 OA
ENDROOT
BRANCH   1  12
ATOM     12  C   UNL     1     -20.308 -63.190  57.234  1.00  0.00     0.021 A 
ATOM     13  C   UNL     1     -19.507 -62.525  56.293  1.00  0.00     0.016 A 
ATOM     14  C   UNL     1     -18.964 -61.272  56.582  1.00  0.00     0.051 A 
ATOM     15  C   UNL     1     -19.198 -60.660  57.817  1.00  0.00     0.157 A 
ATOM     16  C   UNL     1     -20.532 -62.582  58.483  1.00  0.00     0.062 A 
ATOM     17  C   UNL     1     -19.987 -61.327  58.783  1.00  0.00     0.158 A 
BRANCH  15  18
ATOM     18  O   UNL     1     -18.629 -59.405  58.042  1.00  0.00    -0.504 OA
ATOM     19  H   UNL     1     -18.528 -58.695  57.332  1.00  0.00     0.293 HD
ENDBRANCH  15  18
BRANCH  17  20
ATOM     20  O   UNL     1     -20.252 -60.787  60.044  1.00  0.00    -0.504 OA
ATOM     21  H   UNL     1     -20.357 -59.799  60.224  1.00  0.00     0.293 HD
ENDBRANCH  17  20
ENDBRANCH   1  12
BRANCH   6  22
ATOM     22  O   UNL     1     -22.473 -69.086  55.049  1.00  0.00    -0.507 OA
ATOM     23  H   UNL     1     -22.365 -70.087  55.102  1.00  0.00     0.293 HD
ENDBRANCH   6  22
BRANCH   8  24
ATOM     24  O   UNL     1     -25.024 -68.296  59.020  1.00  0.00    -0.508 OA
ATOM     25  H   UNL     1     -24.810 -68.517  59.986  1.00  0.00     0.293 HD
ENDBRANCH   8  24
TORSDOF 5
ENDMDL
MODEL 3
REMARK VINA RESULT:    -5.611      0.688      1.506
REMARK INTER + INTRA:          -6.889
REMARK INTER:                  -6.591
REMARK INTRA:                  -0.298
REMARK UNBOUND:                -0.294
REMARK SMILES O=c1cc(-c2ccc(O)c(O)c2)oc2cc(O)cc(O)c12
REMARK SMILES IDX 4 1 3 2 2 3 1 4 21 5 19 6 18 7 16 8 15 9 14 10 13 11 5 12
REMARK SMILES IDX 6 13 7 14 8 15 12 16 10 17 9 18 11 20 20 22 17 24
REMARK H PARENT 9 19 11 21 20 23 17 25
REMARK Flexibility Score: inf
ROOT
ATOM      1  C   UNL     1     -32.904 -55.329  67.260  1.00  0.00     0.138 A 
ATOM      2  C   UNL     1     -32.668 -54.598  68.431  1.00  0.00     0.100 A 
ATOM      3  C   UNL     1     -32.542 -53.210  68.365  1.00  0.00     0.197 A 
ATOM      4  O   UNL     1     -32.268 -52.588  69.424  1.00  0.00    -0.289 OA
ATOM      5  C   UNL     1     -32.683 -52.550  67.122  1.00  0.00     0.107 A 
ATOM      6  C   UNL     1     -32.613 -51.135  66.940  1.00  0.00     0.134 A 
ATOM      7  C   UNL     1     -32.652 -50.603  65.645  1.00  0.00     0.093 A 
ATOM      8  C   UNL     1     -32.818 -51.427  64.533  1.00  0.00     0.123 A 
ATOM      9  C   UNL     1     -32.940 -52.806  64.703  1.00  0.00     0.094 A 
ATOM     10  C   UNL     1     -32.872 -53.370  65.978  1.00  0.00     0.146 A 
ATOM     11  O   UNL     1     -32.978 -54.690  66.096  1.00  0.00    -0.456 OA
ENDROOT
BRANCH   1  12
ATOM     12  C   UNL     1     -33.049 -56.807  67.273  1.00  0.00     0.021 A 
ATOM     13  C   UNL     1     -33.756 -57.423  68.318  1.00  0.00     0.016 A 
ATOM     14  C   UNL     1     -33.901 -58.811  68.356  1.00  0.00     0.051 A 
ATOM     15  C   UNL     1     -33.336 -59.615  67.361  1.00  0.00     0.157 A 
ATOM     16  C   UNL     1     -32.468 -57.617  66.279  1.00  0.00     0.062 A 
ATOM     17  C   UNL     1     -32.605 -59.011  66.312  1.00  0.00     0.158 A 
BRANCH  15  18
ATOM     18  O   UNL     1     -33.521 -60.996  67.455  1.00  0.00    -0.504 OA
ATOM     19  H   UNL     1     -33.022 -61.672  66.896  1.00  0.00     0.293 HD
ENDBRANCH  15  18
BRANCH  17  20
ATOM     20  O   UNL     1     -32.000 -59.748  65.293  1.00  0.00    -0.504 OA
ATOM     21  H   UNL     1     -32.500 -60.145  64.510  1.00  0.00     0.293 HD
ENDBRANCH  17  20
ENDBRANCH   1  12
BRANCH   6  22
ATOM     22  O   UNL     1     -32.533 -50.216  67.990  1.00  0.00    -0.507 OA
ATOM     23  H   UNL     1     -31.790 -49.546  68.115  1.00  0.00     0.293 HD
ENDBRANCH   6  22
BRANCH   8  24
ATOM     24  O   UNL     1     -32.867 -50.860  63.260  1.00  0.00    -0.508 OA
ATOM     25  H   UNL     1     -32.249 -50.103  62.993  1.00  0.00     0.293 HD
ENDBRANCH   8  24
TORSDOF 5
ENDMDL
MODEL 4
REMARK VINA RESULT:    -5.576     16.880     19.704
REMARK INTER + INTRA:          -6.848
REMARK INTER:                  -6.553
REMARK INTRA:                  -0.296
REMARK UNBOUND:                -0.294
REMARK SMILES O=c1cc(-c2ccc(O)c(O)c2)oc2cc(O)cc(O)c12
REMARK SMILES IDX 4 1 3 2 2 3 1 4 21 5 19 6 18 7 16 8 15 9 14 10 13 11 5 12
REMARK SMILES IDX 6 13 7 14 8 15 12 16 10 17 9 18 11 20 20 22 17 24
REMARK H PARENT 9 19 11 21 20 23 17 25
REMARK Flexibility Score: inf
ROOT
ATOM      1  C   UNL     1     -21.239 -64.537  57.047  1.00  0.00     0.138 A 
ATOM      2  C   UNL     1     -22.186 -65.103  57.911  1.00  0.00     0.100 A 
ATOM      3  C   UNL     1     -22.748 -66.341  57.603  1.00  0.00     0.197 A 
ATOM      4  O   UNL     1     -23.641 -66.794  58.365  1.00  0.00    -0.289 OA
ATOM      5  C   UNL     1     -22.336 -67.031  56.439  1.00  0.00     0.107 A 
ATOM      6  C   UNL     1     -22.812 -68.318  56.044  1.00  0.00     0.134 A 
ATOM      7  C   UNL     1     -22.418 -68.851  54.810  1.00  0.00     0.093 A 
ATOM      8  C   UNL     1     -21.522 -68.173  53.986  1.00  0.00     0.123 A 
ATOM      9  C   UNL     1     -21.010 -66.938  54.384  1.00  0.00     0.094 A 
ATOM     10  C   UNL     1     -21.409 -66.364  55.593  1.00  0.00     0.146 A 
ATOM     11  O   UNL     1     -20.909 -65.180  55.931  1.00  0.00    -0.456 OA
ENDROOT
BRANCH   1  12
ATOM     12  C   UNL     1     -20.607 -63.222  57.328  1.00  0.00     0.021 A 
ATOM     13  C   UNL     1     -19.852 -62.592  56.327  1.00  0.00     0.016 A 
ATOM     14  C   UNL     1     -19.244 -61.358  56.568  1.00  0.00     0.051 A 
ATOM     15  C   UNL     1     -19.366 -60.733  57.813  1.00  0.00     0.157 A 
ATOM     16  C   UNL     1     -20.718 -62.601  58.585  1.00  0.00     0.062 A 
ATOM     17  C   UNL     1     -20.108 -61.366  58.837  1.00  0.00     0.158 A 
BRANCH  15  18
ATOM     18  O   UNL     1     -18.737 -59.499  57.987  1.00  0.00    -0.504 OA
ATOM     19  H   UNL     1     -18.702 -58.778  57.281  1.00  0.00     0.293 HD
ENDBRANCH  15  18
BRANCH  17  20
ATOM     20  O   UNL     1     -20.261 -60.812  60.110  1.00  0.00    -0.504 OA
ATOM     21  H   UNL     1     -20.116 -61.323  60.969  1.00  0.00     0.293 HD
ENDBRANCH  17  20
ENDBRANCH   1  12
BRANCH   6  22
ATOM     22  O   UNL     1     -23.643 -69.119  56.833  1.00  0.00    -0.507 OA
ATOM     23  H   UNL     1     -24.195 -68.788  57.610  1.00  0.00     0.293 HD
ENDBRANCH   6  22
BRANCH   8  24
ATOM     24  O   UNL     1     -21.142 -68.741  52.771  1.00  0.00    -0.508 OA
ATOM     25  H   UNL     1     -21.825 -68.993  52.067  1.00  0.00     0.293 HD
ENDBRANCH   8  24
TORSDOF 5
ENDMDL
MODEL 5
REMARK VINA RESULT:    -5.291     15.484     18.721
REMARK INTER + INTRA:          -6.513
REMARK INTER:                  -6.211
REMARK INTRA:                  -0.301
REMARK UNBOUND:                -0.294
REMARK SMILES O=c1cc(-c2ccc(O)c(O)c2)oc2cc(O)cc(O)c12
REMARK SMILES IDX 4 1 3 2 2 3 1 4 21 5 19 6 18 7 16 8 15 9 14 10 13 11 5 12
REMARK SMILES IDX 6 13 7 14 8 15 12 16 10 17 9 18 11 20 20 22 17 24
REMARK H PARENT 9 19 11 21 20 23 17 25
REMARK Flexibility Score: inf
ROOT
ATOM      1  C   UNL     1     -22.406 -64.466  56.842  1.00  0.00     0.138 A 
ATOM      2  C   UNL     1     -21.134 -65.029  56.678  1.00  0.00     0.100 A 
ATOM      3  C   UNL     1     -20.867 -66.295  57.199  1.00  0.00     0.197 A 
ATOM      4  O   UNL     1     -19.698 -66.747  57.090  1.00  0.00    -0.289 OA
ATOM      5  C   UNL     1     -21.890 -67.013  57.861  1.00  0.00     0.107 A 
ATOM      6  C   UNL     1     -21.744 -68.328  58.398  1.00  0.00     0.134 A 
ATOM      7  C   UNL     1     -22.793 -68.893  59.135  1.00  0.00     0.093 A 
ATOM      8  C   UNL     1     -24.000 -68.217  59.303  1.00  0.00     0.123 A 
ATOM      9  C   UNL     1     -24.173 -66.954  58.738  1.00  0.00     0.094 A 
ATOM     10  C   UNL     1     -23.135 -66.349  58.026  1.00  0.00     0.146 A 
ATOM     11  O   UNL     1     -23.334 -65.139  57.516  1.00  0.00    -0.456 OA
ENDROOT
BRANCH   1  12
ATOM     12  C   UNL     1     -22.745 -63.123  56.306  1.00  0.00     0.021 A 
ATOM     13  C   UNL     1     -22.187 -62.704  55.088  1.00  0.00     0.016 A 
ATOM     14  C   UNL     1     -22.486 -61.444  54.566  1.00  0.00     0.051 A 
ATOM     15  C   UNL     1     -23.336 -60.571  55.251  1.00  0.00     0.157 A 
ATOM     16  C   UNL     1     -23.590 -62.239  57.003  1.00  0.00     0.062 A 
ATOM     17  C   UNL     1     -23.891 -60.972  56.489  1.00  0.00     0.158 A 
BRANCH  15  18
ATOM     18  O   UNL     1     -23.598 -59.327  54.673  1.00  0.00    -0.504 OA
ATOM     19  H   UNL     1     -23.697 -58.471  55.198  1.00  0.00     0.293 HD
ENDBRANCH  15  18
BRANCH  17  20
ATOM     20  O   UNL     1     -24.736 -60.149  57.238  1.00  0.00    -0.504 OA
ATOM     21  H   UNL     1     -25.030 -60.354  58.182  1.00  0.00     0.293 HD
ENDBRANCH  17  20
ENDBRANCH   1  12
BRANCH   6  22
ATOM     22  O   UNL     1     -20.610 -69.125  58.214  1.00  0.00    -0.507 OA
ATOM     23  H   UNL     1     -19.977 -69.404  58.948  1.00  0.00     0.293 HD
ENDBRANCH   6  22
BRANCH   8  24
ATOM     24  O   UNL     1     -25.027 -68.817  60.030  1.00  0.00    -0.508 OA
ATOM     25  H   UNL     1     -25.399 -69.723  59.772  1.00  0.00     0.293 HD
ENDBRANCH   8  24
TORSDOF 5
ENDMDL
MODEL 6
REMARK VINA RESULT:    -5.290     14.339     16.887
REMARK INTER + INTRA:          -6.512
REMARK INTER:                  -6.247
REMARK INTRA:                  -0.266
REMARK UNBOUND:                -0.294
REMARK SMILES O=c1cc(-c2ccc(O)c(O)c2)oc2cc(O)cc(O)c12
REMARK SMILES IDX 4 1 3 2 2 3 1 4 21 5 19 6 18 7 16 8 15 9 14 10 13 11 5 12
REMARK SMILES IDX 6 13 7 14 8 15 12 16 10 17 9 18 11 20 20 22 17 24
REMARK H PARENT 9 19 11 21 20 23 17 25
REMARK Flexibility Score: inf
ROOT
ATOM      1  C   UNL     1     -25.813 -65.576  56.092  1.00  0.00     0.138 A 
ATOM      2  C   UNL     1     -24.536 -65.969  55.671  1.00  0.00     0.100 A 
ATOM      3  C   UNL     1     -23.416 -65.261  56.109  1.00  0.00     0.197 A 
ATOM      4  O   UNL     1     -22.289 -65.598  55.665  1.00  0.00    -0.289 OA
ATOM      5  C   UNL     1     -23.577 -64.173  56.999  1.00  0.00     0.107 A 
ATOM      6  C   UNL     1     -22.505 -63.402  57.543  1.00  0.00     0.134 A 
ATOM      7  C   UNL     1     -22.792 -62.274  58.323  1.00  0.00     0.093 A 
ATOM      8  C   UNL     1     -24.107 -61.924  58.626  1.00  0.00     0.123 A 
ATOM      9  C   UNL     1     -25.161 -62.700  58.143  1.00  0.00     0.094 A 
ATOM     10  C   UNL     1     -24.909 -63.811  57.336  1.00  0.00     0.146 A 
ATOM     11  O   UNL     1     -25.941 -64.516  56.884  1.00  0.00    -0.456 OA
ENDROOT
BRANCH   1  12
ATOM     12  C   UNL     1     -27.038 -66.296  55.657  1.00  0.00     0.021 A 
ATOM     13  C   UNL     1     -27.628 -65.973  54.426  1.00  0.00     0.016 A 
ATOM     14  C   UNL     1     -28.782 -66.631  53.998  1.00  0.00     0.051 A 
ATOM     15  C   UNL     1     -29.379 -67.614  54.791  1.00  0.00     0.157 A 
ATOM     16  C   UNL     1     -27.645 -67.276  56.463  1.00  0.00     0.062 A 
ATOM     17  C   UNL     1     -28.807 -67.938  56.043  1.00  0.00     0.158 A 
BRANCH  15  18
ATOM     18  O   UNL     1     -30.530 -68.237  54.303  1.00  0.00    -0.504 OA
ATOM     19  H   UNL     1     -30.541 -68.859  53.508  1.00  0.00     0.293 HD
ENDBRANCH  15  18
BRANCH  17  20
ATOM     20  O   UNL     1     -29.354 -68.898  56.898  1.00  0.00    -0.504 OA
ATOM     21  H   UNL     1     -30.317 -69.199  56.864  1.00  0.00     0.293 HD
ENDBRANCH  17  20
ENDBRANCH   1  12
BRANCH   6  22
ATOM     22  O   UNL     1     -21.153 -63.715  57.373  1.00  0.00    -0.507 OA
ATOM     23  H   UNL     1     -20.740 -64.036  56.510  1.00  0.00     0.293 HD
ENDBRANCH   6  22
BRANCH   8  24
ATOM     24  O   UNL     1     -24.354 -60.803  59.417  1.00  0.00    -0.508 OA
ATOM     25  H   UNL     1     -24.216 -60.822  60.420  1.00  0.00     0.293 HD
ENDBRANCH   8  24
TORSDOF 5
ENDMDL
MODEL 7
REMARK VINA RESULT:    -5.290     17.687     19.789
REMARK INTER + INTRA:          -6.512
REMARK INTER:                  -6.222
REMARK INTRA:                  -0.289
REMARK UNBOUND:                -0.294
REMARK SMILES O=c1cc(-c2ccc(O)c(O)c2)oc2cc(O)cc(O)c12
REMARK SMILES IDX 4 1 3 2 2 3 1 4 21 5 19 6 18 7 16 8 15 9 14 10 13 11 5 12
REMARK SMILES IDX 6 13 7 14 8 15 12 16 10 17 9 18 11 20 20 22 17 24
REMARK H PARENT 9 19 11 21 20 23 17 25
REMARK Flexibility Score: inf
ROOT
ATOM      1  C   UNL     1     -20.830 -64.628  57.387  1.00  0.00     0.138 A 
ATOM      2  C   UNL     1     -22.006 -65.228  56.917  1.00  0.00     0.100 A 
ATOM      3  C   UNL     1     -22.367 -66.494  57.378  1.00  0.00     0.197 A 
ATOM      4  O   UNL     1     -23.394 -67.033  56.891  1.00  0.00    -0.289 OA
ATOM      5  C   UNL     1     -21.560 -67.149  58.338  1.00  0.00     0.107 A 
ATOM      6  C   UNL     1     -21.850 -68.425  58.910  1.00  0.00     0.134 A 
ATOM      7  C   UNL     1     -20.918 -69.026  59.765  1.00  0.00     0.093 A 
ATOM      8  C   UNL     1     -19.737 -68.373  60.115  1.00  0.00     0.123 A 
ATOM      9  C   UNL     1     -19.467 -67.104  59.605  1.00  0.00     0.094 A 
ATOM     10  C   UNL     1     -20.361 -66.492  58.723  1.00  0.00     0.146 A 
ATOM     11  O   UNL     1     -20.061 -65.288  58.248  1.00  0.00    -0.456 OA
ENDROOT
BRANCH   1  12
ATOM     12  C   UNL     1     -20.400 -63.281  56.931  1.00  0.00     0.021 A 
ATOM     13  C   UNL     1     -20.386 -62.989  55.558  1.00  0.00     0.016 A 
ATOM     14  C   UNL     1     -19.981 -61.732  55.105  1.00  0.00     0.051 A 
ATOM     15  C   UNL     1     -19.570 -60.746  56.006  1.00  0.00     0.157 A 
ATOM     16  C   UNL     1     -19.974 -62.294  57.838  1.00  0.00     0.062 A 
ATOM     17  C   UNL     1     -19.561 -61.032  57.391  1.00  0.00     0.158 A 
BRANCH  15  18
ATOM     18  O   UNL     1     -19.181 -59.509  55.488  1.00  0.00    -0.504 OA
ATOM     19  H   UNL     1     -19.677 -58.646  55.654  1.00  0.00     0.293 HD
ENDBRANCH  15  18
BRANCH  17  20
ATOM     20  O   UNL     1     -19.150 -60.104  58.351  1.00  0.00    -0.504 OA
ATOM     21  H   UNL     1     -18.623 -60.344  59.178  1.00  0.00     0.293 HD
ENDBRANCH  17  20
ENDBRANCH   1  12
BRANCH   6  22
ATOM     22  O   UNL     1     -23.041 -69.125  58.693  1.00  0.00    -0.507 OA
ATOM     23  H   UNL     1     -23.371 -69.891  59.260  1.00  0.00     0.293 HD
ENDBRANCH   6  22
BRANCH   8  24
ATOM     24  O   UNL     1     -18.839 -68.996  60.981  1.00  0.00    -0.508 OA
ATOM     25  H   UNL     1     -18.443 -69.905  60.770  1.00  0.00     0.293 HD
ENDBRANCH   8  24
TORSDOF 5
ENDMDL
MODEL 8
REMARK VINA RESULT:    -5.270     16.230     18.167
REMARK INTER + INTRA:          -6.489
REMARK INTER:                  -6.178
REMARK INTRA:                  -0.310
REMARK UNBOUND:                -0.294
REMARK SMILES O=c1cc(-c2ccc(O)c(O)c2)oc2cc(O)cc(O)c12
REMARK SMILES IDX 4 1 3 2 2 3 1 4 21 5 19 6 18 7 16 8 15 9 14 10 13 11 5 12
REMARK SMILES IDX 6 13 7 14 8 15 12 16 10 17 9 18 11 20 20 22 17 24
REMARK H PARENT 9 19 11 21 20 23 17 25
REMARK Flexibility Score: inf
ROOT
ATOM      1  C   UNL     1     -25.758 -67.245  56.742  1.00  0.00     0.138 A 
ATOM      2  C   UNL     1     -26.150 -66.265  55.821  1.00  0.00     0.100 A 
ATOM      3  C   UNL     1     -27.504 -65.976  55.655  1.00  0.00     0.197 A 
ATOM      4  O   UNL     1     -27.830 -65.137  54.776  1.00  0.00    -0.289 OA
ATOM      5  C   UNL     1     -28.469 -66.651  56.440  1.00  0.00     0.107 A 
ATOM      6  C   UNL     1     -29.875 -66.411  56.386  1.00  0.00     0.134 A 
ATOM      7  C   UNL     1     -30.743 -67.223  57.126  1.00  0.00     0.093 A 
ATOM      8  C   UNL     1     -30.254 -68.224  57.963  1.00  0.00     0.123 A 
ATOM      9  C   UNL     1     -28.879 -68.434  58.065  1.00  0.00     0.094 A 
ATOM     10  C   UNL     1     -27.989 -67.664  57.314  1.00  0.00     0.146 A 
ATOM     11  O   UNL     1     -26.687 -67.904  57.428  1.00  0.00    -0.456 OA
ENDROOT
BRANCH   1  12
ATOM     12  C   UNL     1     -24.329 -67.591  56.960  1.00  0.00     0.021 A 
ATOM     13  C   UNL     1     -23.396 -67.340  55.942  1.00  0.00     0.016 A 
ATOM     14  C   UNL     1     -22.049 -67.661  56.121  1.00  0.00     0.051 A 
ATOM     15  C   UNL     1     -21.606 -68.248  57.309  1.00  0.00     0.157 A 
ATOM     16  C   UNL     1     -23.887 -68.194  58.151  1.00  0.00     0.062 A 
ATOM     17  C   UNL     1     -22.538 -68.524  58.336  1.00  0.00     0.158 A 
BRANCH  15  18
ATOM     18  O   UNL     1     -20.245 -68.541  57.425  1.00  0.00    -0.504 OA
ATOM     19  H   UNL     1     -19.523 -68.090  56.883  1.00  0.00     0.293 HD
ENDBRANCH  15  18
BRANCH  17  20
ATOM     20  O   UNL     1     -22.175 -69.123  59.544  1.00  0.00    -0.504 OA
ATOM     21  H   UNL     1     -21.373 -69.727  59.656  1.00  0.00     0.293 HD
ENDBRANCH  17  20
ENDBRANCH   1  12
BRANCH   6  22
ATOM     22  O   UNL     1     -30.463 -65.380  55.647  1.00  0.00    -0.507 OA
ATOM     23  H   UNL     1     -30.992 -65.507  54.798  1.00  0.00     0.293 HD
ENDBRANCH   6  22
BRANCH   8  24
ATOM     24  O   UNL     1     -31.148 -69.003  58.697  1.00  0.00    -0.508 OA
ATOM     25  H   UNL     1     -31.291 -69.984  58.487  1.00  0.00     0.293 HD
ENDBRANCH   8  24
TORSDOF 5
ENDMDL
MODEL 9
REMARK VINA RESULT:    -5.261     17.267     18.440
REMARK INTER + INTRA:          -6.478
REMARK INTER:                  -6.172
REMARK INTRA:                  -0.306
REMARK UNBOUND:                -0.294
REMARK SMILES O=c1cc(-c2ccc(O)c(O)c2)oc2cc(O)cc(O)c12
REMARK SMILES IDX 4 1 3 2 2 3 1 4 21 5 19 6 18 7 16 8 15 9 14 10 13 11 5 12
REMARK SMILES IDX 6 13 7 14 8 15 12 16 10 17 9 18 11 20 20 22 17 24
REMARK H PARENT 9 19 11 21 20 23 17 25
REMARK Flexibility Score: inf
ROOT
ATOM      1  C   UNL     1     -24.274 -66.116  56.866  1.00  0.00     0.138 A 
ATOM      2  C   UNL     1     -23.639 -64.873  56.746  1.00  0.00     0.100 A 
ATOM      3  C   UNL     1     -22.351 -64.704  57.255  1.00  0.00     0.197 A 
ATOM      4  O   UNL     1     -21.831 -63.560  57.188  1.00  0.00    -0.289 OA
ATOM      5  C   UNL     1     -21.685 -65.796  57.861  1.00  0.00     0.107 A 
ATOM      6  C   UNL     1     -20.356 -65.751  58.380  1.00  0.00     0.134 A 
ATOM      7  C   UNL     1     -19.844 -66.862  59.062  1.00  0.00     0.093 A 
ATOM      8  C   UNL     1     -20.588 -68.034  59.191  1.00  0.00     0.123 A 
ATOM      9  C   UNL     1     -21.868 -68.107  58.642  1.00  0.00     0.094 A 
ATOM     10  C   UNL     1     -22.420 -67.005  57.985  1.00  0.00     0.146 A 
ATOM     11  O   UNL     1     -23.648 -67.111  57.488  1.00  0.00    -0.456 OA
ENDROOT
BRANCH   1  12
ATOM     12  C   UNL     1     -25.643 -66.351  56.340  1.00  0.00     0.021 A 
ATOM     13  C   UNL     1     -26.084 -65.635  55.217  1.00  0.00     0.016 A 
ATOM     14  C   UNL     1     -27.369 -65.834  54.707  1.00  0.00     0.051 A 
ATOM     15  C   UNL     1     -28.243 -66.742  55.312  1.00  0.00     0.157 A 
ATOM     16  C   UNL     1     -26.528 -67.255  56.957  1.00  0.00     0.062 A 
ATOM     17  C   UNL     1     -27.820 -67.458  56.455  1.00  0.00     0.158 A 
BRANCH  15  18
ATOM     18  O   UNL     1     -29.512 -66.898  54.750  1.00  0.00    -0.504 OA
ATOM     19  H   UNL     1     -30.313 -67.251  55.254  1.00  0.00     0.293 HD
ENDBRANCH  15  18
BRANCH  17  20
ATOM     20  O   UNL     1     -28.641 -68.370  57.122  1.00  0.00    -0.504 OA
ATOM     21  H   UNL     1     -28.317 -69.000  57.841  1.00  0.00     0.293 HD
ENDBRANCH  17  20
ENDBRANCH   1  12
BRANCH   6  22
ATOM     22  O   UNL     1     -19.496 -64.659  58.230  1.00  0.00    -0.507 OA
ATOM     23  H   UNL     1     -19.780 -63.692  58.261  1.00  0.00     0.293 HD
ENDBRANCH   6  22
BRANCH   8  24
ATOM     24  O   UNL     1     -20.040 -69.125  59.863  1.00  0.00    -0.508 OA
ATOM     25  H   UNL     1     -19.314 -69.695  59.445  1.00  0.00     0.293 HD
ENDBRANCH   8  24
TORSDOF 5
ENDMDL
