MODEL 1
REMARK VINA RESULT:    -3.285      0.000      0.000
REMARK INTER + INTRA:          -7.731
REMARK INTER:                  -5.782
REMARK INTRA:                  -1.950
REMARK UNBOUND:                -1.950
REMARK SMILES CCCCCCCCCCCCCC(=O)OC
REMARK SMILES IDX 8 1 7 2 6 3 5 4 4 5 3 6 2 7 1 8 9 9 10 10 11 11 12 12 13 13
REMARK SMILES IDX 14 14 15 15 16 16 17 17
REMARK H PARENT
REMARK Flexibility Score: inf
ROOT
ATOM      1  C   UNL     1     195.148 206.483 214.796  1.00  0.00     0.000 C 
ENDROOT
BRANCH   1   2
ATOM      2  C   UNL     1     194.364 206.952 216.026  1.00  0.00     0.000 C 
BRANCH   2   3
ATOM      3  C   UNL     1     194.544 205.976 217.198  1.00  0.00    -0.000 C 
BRANCH   3   4
ATOM      4  C   UNL     1     195.297 206.599 218.388  1.00  0.00    -0.000 C 
BRANCH   4   5
ATOM      5  C   UNL     1     196.747 206.111 218.569  1.00  0.00    -0.000 C 
BRANCH   5   6
ATOM      6  C   UNL     1     197.286 205.227 217.429  1.00  0.00    -0.000 C 
BRANCH   6   7
ATOM      7  C   UNL     1     198.458 205.861 216.651  1.00  0.00    -0.003 C 
ATOM      8  C   UNL     1     198.705 205.186 215.301  1.00  0.00     0.004 C 
ENDBRANCH   6   7
ENDBRANCH   5   6
ENDBRANCH   4   5
ENDBRANCH   3   4
ENDBRANCH   2   3
ENDBRANCH   1   2
BRANCH   1   9
ATOM      9  C   UNL     1     196.076 207.589 214.278  1.00  0.00     0.000 C 
BRANCH   9  10
ATOM     10  C   UNL     1     196.289 208.673 215.346  1.00  0.00     0.000 C 
BRANCH  10  11
ATOM     11  C   UNL     1     197.516 209.560 215.065  1.00  0.00     0.001 C 
BRANCH  11  12
ATOM     12  C   UNL     1     198.399 209.096 213.894  1.00  0.00     0.012 C 
BRANCH  12  13
ATOM     13  C   UNL     1     199.781 208.608 214.344  1.00  0.00     0.123 C 
BRANCH  13  14
ATOM     14  C   UNL     1     200.603 208.205 213.161  1.00  0.00     0.305 C 
ATOM     15  O   UNL     1     201.126 209.091 212.431  1.00  0.00    -0.252 OA
BRANCH  14  16
ATOM     16  O   UNL     1     200.744 206.849 212.851  1.00  0.00    -0.469 OA
ATOM     17  C   UNL     1     201.764 206.363 211.987  1.00  0.00     0.282 C 
ENDBRANCH  14  16
ENDBRANCH  13  14
ENDBRANCH  12  13
ENDBRANCH  11  12
ENDBRANCH  10  11
ENDBRANCH   9  10
ENDBRANCH   1   9
TORSDOF 13
ENDMDL
MODEL 2
REMARK VINA RESULT:    -3.230      9.026     11.076
REMARK INTER + INTRA:          -7.634
REMARK INTER:                  -5.480
REMARK INTRA:                  -2.154
REMARK UNBOUND:                -1.950
REMARK SMILES CCCCCCCCCCCCCC(=O)OC
REMARK SMILES IDX 8 1 7 2 6 3 5 4 4 5 3 6 2 7 1 8 9 9 10 10 11 11 12 12 13 13
REMARK SMILES IDX 14 14 15 15 16 16 17 17
REMARK H PARENT
REMARK Flexibility Score: inf
ROOT
ATOM      1  C   UNL     1     203.008 200.937 215.408  1.00  0.00     0.000 C 
ENDROOT
BRANCH   1   2
ATOM      2  C   UNL     1     202.078 201.390 216.540  1.00  0.00     0.000 C 
BRANCH   2   3
ATOM      3  C   UNL     1     202.350 200.596 217.826  1.00  0.00    -0.000 C 
BRANCH   3   4
ATOM      4  C   UNL     1     201.060 200.160 218.546  1.00  0.00    -0.000 C 
BRANCH   4   5
ATOM      5  C   UNL     1     200.534 198.767 218.153  1.00  0.00    -0.000 C 
BRANCH   5   6
ATOM      6  C   UNL     1     201.588 197.814 217.560  1.00  0.00    -0.000 C 
BRANCH   6   7
ATOM      7  C   UNL     1     201.283 197.371 216.113  1.00  0.00    -0.003 C 
ATOM      8  C   UNL     1     200.292 198.298 215.409  1.00  0.00     0.004 C 
ENDBRANCH   6   7
ENDBRANCH   5   6
ENDBRANCH   4   5
ENDBRANCH   3   4
ENDBRANCH   2   3
ENDBRANCH   1   2
BRANCH   1   9
ATOM      9  C   UNL     1     204.229 200.193 215.963  1.00  0.00     0.000 C 
BRANCH   9  10
ATOM     10  C   UNL     1     204.508 198.916 215.157  1.00  0.00     0.000 C 
BRANCH  10  11
ATOM     11  C   UNL     1     205.016 197.754 216.031  1.00  0.00     0.001 C 
BRANCH  11  12
ATOM     12  C   UNL     1     205.355 198.133 217.484  1.00  0.00     0.012 C 
BRANCH  12  13
ATOM     13  C   UNL     1     206.817 197.849 217.850  1.00  0.00     0.123 C 
BRANCH  13  14
ATOM     14  C   UNL     1     207.735 198.692 217.020  1.00  0.00     0.305 C 
ATOM     15  O   UNL     1     207.575 199.942 216.984  1.00  0.00    -0.252 OA
BRANCH  14  16
ATOM     16  O   UNL     1     208.731 198.077 216.258  1.00  0.00    -0.469 OA
ATOM     17  C   UNL     1     209.928 197.565 216.831  1.00  0.00     0.282 C 
ENDBRANCH  14  16
ENDBRANCH  13  14
ENDBRANCH  12  13
ENDBRANCH  11  12
ENDBRANCH  10  11
ENDBRANCH   9  10
ENDBRANCH   1   9
TORSDOF 13
ENDMDL
MODEL 3
REMARK VINA RESULT:    -3.166      1.642      3.004
REMARK INTER + INTRA:          -7.522
REMARK INTER:                  -5.531
REMARK INTRA:                  -1.992
REMARK UNBOUND:                -1.950
REMARK SMILES CCCCCCCCCCCCCC(=O)OC
REMARK SMILES IDX 8 1 7 2 6 3 5 4 4 5 3 6 2 7 1 8 9 9 10 10 11 11 12 12 13 13
REMARK SMILES IDX 14 14 15 15 16 16 17 17
REMARK H PARENT
REMARK Flexibility Score: inf
ROOT
ATOM      1  C   UNL     1     195.776 206.743 218.051  1.00  0.00     0.000 C 
ENDROOT
BRANCH   1   2
ATOM      2  C   UNL     1     196.556 205.582 218.679  1.00  0.00     0.000 C 
BRANCH   2   3
ATOM      3  C   UNL     1     195.767 204.269 218.574  1.00  0.00    -0.000 C 
BRANCH   3   4
ATOM      4  C   UNL     1     196.523 203.174 217.800  1.00  0.00    -0.000 C 
BRANCH   4   5
ATOM      5  C   UNL     1     196.717 203.455 216.297  1.00  0.00    -0.000 C 
BRANCH   5   6
ATOM      6  C   UNL     1     198.176 203.674 215.856  1.00  0.00    -0.000 C 
BRANCH   6   7
ATOM      7  C   UNL     1     198.466 205.105 215.356  1.00  0.00    -0.003 C 
ATOM      8  C   UNL     1     199.269 205.931 216.362  1.00  0.00     0.004 C 
ENDBRANCH   6   7
ENDBRANCH   5   6
ENDBRANCH   4   5
ENDBRANCH   3   4
ENDBRANCH   2   3
ENDBRANCH   1   2
BRANCH   1   9
ATOM      9  C   UNL     1     194.478 206.247 217.402  1.00  0.00     0.000 C 
BRANCH   9  10
ATOM     10  C   UNL     1     194.201 206.991 216.087  1.00  0.00     0.000 C 
BRANCH  10  11
ATOM     11  C   UNL     1     195.398 206.964 215.118  1.00  0.00     0.001 C 
BRANCH  11  12
ATOM     12  C   UNL     1     195.947 208.347 214.724  1.00  0.00     0.012 C 
BRANCH  12  13
ATOM     13  C   UNL     1     197.211 208.264 213.860  1.00  0.00     0.123 C 
BRANCH  13  14
ATOM     14  C   UNL     1     198.303 209.098 214.453  1.00  0.00     0.305 C 
ATOM     15  O   UNL     1     198.011 210.108 215.150  1.00  0.00    -0.252 OA
BRANCH  14  16
ATOM     16  O   UNL     1     199.636 208.773 214.189  1.00  0.00    -0.469 OA
ATOM     17  C   UNL     1     200.013 207.841 213.183  1.00  0.00     0.282 C 
ENDBRANCH  14  16
ENDBRANCH  13  14
ENDBRANCH  12  13
ENDBRANCH  11  12
ENDBRANCH  10  11
ENDBRANCH   9  10
ENDBRANCH   1   9
TORSDOF 13
ENDMDL
MODEL 4
REMARK VINA RESULT:    -3.146      4.674      6.753
REMARK INTER + INTRA:          -7.486
REMARK INTER:                  -6.467
REMARK INTRA:                  -1.019
REMARK UNBOUND:                -1.950
REMARK SMILES CCCCCCCCCCCCCC(=O)OC
REMARK SMILES IDX 8 1 7 2 6 3 5 4 4 5 3 6 2 7 1 8 9 9 10 10 11 11 12 12 13 13
REMARK SMILES IDX 14 14 15 15 16 16 17 17
REMARK H PARENT
REMARK Flexibility Score: inf
ROOT
ATOM      1  C   UNL     1     197.138 201.699 217.122  1.00  0.00     0.000 C 
ENDROOT
BRANCH   1   2
ATOM      2  C   UNL     1     198.526 201.072 217.294  1.00  0.00     0.000 C 
BRANCH   2   3
ATOM      3  C   UNL     1     198.626 200.313 218.625  1.00  0.00    -0.000 C 
BRANCH   3   4
ATOM      4  C   UNL     1     200.074 199.945 218.999  1.00  0.00    -0.000 C 
BRANCH   4   5
ATOM      5  C   UNL     1     200.723 198.868 218.109  1.00  0.00    -0.000 C 
BRANCH   5   6
ATOM      6  C   UNL     1     202.099 199.244 217.528  1.00  0.00    -0.000 C 
BRANCH   6   7
ATOM      7  C   UNL     1     202.436 200.746 217.648  1.00  0.00    -0.003 C 
ATOM      8  C   UNL     1     202.149 201.520 216.361  1.00  0.00     0.004 C 
ENDBRANCH   6   7
ENDBRANCH   5   6
ENDBRANCH   4   5
ENDBRANCH   3   4
ENDBRANCH   2   3
ENDBRANCH   1   2
BRANCH   1   9
ATOM      9  C   UNL     1     196.400 201.781 218.464  1.00  0.00     0.000 C 
BRANCH   9  10
ATOM     10  C   UNL     1     195.859 203.197 218.708  1.00  0.00     0.000 C 
BRANCH  10  11
ATOM     11  C   UNL     1     196.498 204.252 217.786  1.00  0.00     0.001 C 
BRANCH  11  12
ATOM     12  C   UNL     1     196.862 205.581 218.473  1.00  0.00     0.012 C 
BRANCH  12  13
ATOM     13  C   UNL     1     195.789 206.661 218.292  1.00  0.00     0.123 C 
BRANCH  13  14
ATOM     14  C   UNL     1     195.572 206.942 216.839  1.00  0.00     0.305 C 
ATOM     15  O   UNL     1     194.422 206.803 216.339  1.00  0.00    -0.252 OA
BRANCH  14  16
ATOM     16  O   UNL     1     196.657 207.311 216.040  1.00  0.00    -0.469 OA
ATOM     17  C   UNL     1     196.631 208.452 215.191  1.00  0.00     0.282 C 
ENDBRANCH  14  16
ENDBRANCH  13  14
ENDBRANCH  12  13
ENDBRANCH  11  12
ENDBRANCH  10  11
ENDBRANCH   9  10
ENDBRANCH   1   9
TORSDOF 13
ENDMDL
MODEL 5
REMARK VINA RESULT:    -3.121      6.449      8.428
REMARK INTER + INTRA:          -7.443
REMARK INTER:                  -6.693
REMARK INTRA:                  -0.750
REMARK UNBOUND:                -1.950
REMARK SMILES CCCCCCCCCCCCCC(=O)OC
REMARK SMILES IDX 8 1 7 2 6 3 5 4 4 5 3 6 2 7 1 8 9 9 10 10 11 11 12 12 13 13
REMARK SMILES IDX 14 14 15 15 16 16 17 17
REMARK H PARENT
REMARK Flexibility Score: inf
ROOT
ATOM      1  C   UNL     1     198.725 200.160 217.211  1.00  0.00     0.000 C 
ENDROOT
BRANCH   1   2
ATOM      2  C   UNL     1     197.903 201.436 216.997  1.00  0.00     0.000 C 
BRANCH   2   3
ATOM      3  C   UNL     1     196.894 201.638 218.137  1.00  0.00    -0.000 C 
BRANCH   3   4
ATOM      4  C   UNL     1     196.175 202.998 218.069  1.00  0.00    -0.000 C 
BRANCH   4   5
ATOM      5  C   UNL     1     196.612 203.908 216.904  1.00  0.00    -0.000 C 
BRANCH   5   6
ATOM      6  C   UNL     1     197.162 205.284 217.322  1.00  0.00    -0.000 C 
BRANCH   6   7
ATOM      7  C   UNL     1     196.787 205.693 218.763  1.00  0.00    -0.003 C 
ATOM      8  C   UNL     1     195.758 206.822 218.807  1.00  0.00     0.004 C 
ENDBRANCH   6   7
ENDBRANCH   5   6
ENDBRANCH   4   5
ENDBRANCH   3   4
ENDBRANCH   2   3
ENDBRANCH   1   2
BRANCH   1   9
ATOM      9  C   UNL     1     199.172 200.031 218.673  1.00  0.00     0.000 C 
BRANCH   9  10
ATOM     10  C   UNL     1     200.704 200.030 218.783  1.00  0.00     0.000 C 
BRANCH  10  11
ATOM     11  C   UNL     1     201.393 200.693 217.575  1.00  0.00     0.001 C 
BRANCH  11  12
ATOM     12  C   UNL     1     202.895 200.388 217.435  1.00  0.00     0.012 C 
BRANCH  12  13
ATOM     13  C   UNL     1     203.174 198.934 217.037  1.00  0.00     0.123 C 
BRANCH  13  14
ATOM     14  C   UNL     1     204.649 198.679 216.995  1.00  0.00     0.305 C 
ATOM     15  O   UNL     1     205.406 199.487 216.390  1.00  0.00    -0.252 OA
BRANCH  14  16
ATOM     16  O   UNL     1     205.164 197.524 217.587  1.00  0.00    -0.469 OA
ATOM     17  C   UNL     1     206.462 197.024 217.288  1.00  0.00     0.282 C 
ENDBRANCH  14  16
ENDBRANCH  13  14
ENDBRANCH  12  13
ENDBRANCH  11  12
ENDBRANCH  10  11
ENDBRANCH   9  10
ENDBRANCH   1   9
TORSDOF 13
ENDMDL
MODEL 6
REMARK VINA RESULT:    -3.115      7.890     10.880
REMARK INTER + INTRA:          -7.432
REMARK INTER:                  -5.644
REMARK INTRA:                  -1.788
REMARK UNBOUND:                -1.950
REMARK SMILES CCCCCCCCCCCCCC(=O)OC
REMARK SMILES IDX 8 1 7 2 6 3 5 4 4 5 3 6 2 7 1 8 9 9 10 10 11 11 12 12 13 13
REMARK SMILES IDX 14 14 15 15 16 16 17 17
REMARK H PARENT
REMARK Flexibility Score: inf
ROOT
ATOM      1  C   UNL     1     204.164 200.453 213.883  1.00  0.00     0.000 C 
ENDROOT
BRANCH   1   2
ATOM      2  C   UNL     1     205.161 201.504 214.385  1.00  0.00     0.000 C 
BRANCH   2   3
ATOM      3  C   UNL     1     206.561 200.897 214.555  1.00  0.00    -0.000 C 
BRANCH   3   4
ATOM      4  C   UNL     1     207.113 201.054 215.984  1.00  0.00    -0.000 C 
BRANCH   4   5
ATOM      5  C   UNL     1     207.054 199.781 216.849  1.00  0.00    -0.000 C 
BRANCH   5   6
ATOM      6  C   UNL     1     205.780 199.628 217.701  1.00  0.00    -0.000 C 
BRANCH   6   7
ATOM      7  C   UNL     1     205.072 198.268 217.522  1.00  0.00    -0.003 C 
ATOM      8  C   UNL     1     205.342 197.637 216.156  1.00  0.00     0.004 C 
ENDBRANCH   6   7
ENDBRANCH   5   6
ENDBRANCH   4   5
ENDBRANCH   3   4
ENDBRANCH   2   3
ENDBRANCH   1   2
BRANCH   1   9
ATOM      9  C   UNL     1     203.051 200.214 214.911  1.00  0.00     0.000 C 
BRANCH   9  10
ATOM     10  C   UNL     1     203.012 201.343 215.952  1.00  0.00     0.000 C 
BRANCH  10  11
ATOM     11  C   UNL     1     201.790 201.257 216.886  1.00  0.00     0.001 C 
BRANCH  11  12
ATOM     12  C   UNL     1     201.761 200.025 217.807  1.00  0.00     0.012 C 
BRANCH  12  13
ATOM     13  C   UNL     1     200.675 200.110 218.886  1.00  0.00     0.123 C 
BRANCH  13  14
ATOM     14  C   UNL     1     199.364 199.632 218.344  1.00  0.00     0.305 C 
ATOM     15  O   UNL     1     199.312 198.554 217.692  1.00  0.00    -0.252 OA
BRANCH  14  16
ATOM     16  O   UNL     1     198.219 200.412 218.529  1.00  0.00    -0.469 OA
ATOM     17  C   UNL     1     197.377 200.278 219.667  1.00  0.00     0.282 C 
ENDBRANCH  14  16
ENDBRANCH  13  14
ENDBRANCH  12  13
ENDBRANCH  11  12
ENDBRANCH  10  11
ENDBRANCH   9  10
ENDBRANCH   1   9
TORSDOF 13
ENDMDL
MODEL 7
REMARK VINA RESULT:    -3.082      9.738     11.923
REMARK INTER + INTRA:          -7.375
REMARK INTER:                  -5.651
REMARK INTRA:                  -1.724
REMARK UNBOUND:                -1.950
REMARK SMILES CCCCCCCCCCCCCC(=O)OC
REMARK SMILES IDX 8 1 7 2 6 3 5 4 4 5 3 6 2 7 1 8 9 9 10 10 11 11 12 12 13 13
REMARK SMILES IDX 14 14 15 15 16 16 17 17
REMARK H PARENT
REMARK Flexibility Score: inf
ROOT
ATOM      1  C   UNL     1     204.648 198.088 217.355  1.00  0.00     0.000 C 
ENDROOT
BRANCH   1   2
ATOM      2  C   UNL     1     204.097 197.835 215.947  1.00  0.00     0.000 C 
BRANCH   2   3
ATOM      3  C   UNL     1     202.591 197.541 215.990  1.00  0.00    -0.000 C 
BRANCH   3   4
ATOM      4  C   UNL     1     201.982 197.727 217.393  1.00  0.00    -0.000 C 
BRANCH   4   5
ATOM      5  C   UNL     1     200.867 198.785 217.484  1.00  0.00    -0.000 C 
BRANCH   5   6
ATOM      6  C   UNL     1     201.171 199.976 218.412  1.00  0.00    -0.000 C 
BRANCH   6   7
ATOM      7  C   UNL     1     202.285 200.906 217.886  1.00  0.00    -0.003 C 
ATOM      8  C   UNL     1     202.102 201.272 216.413  1.00  0.00     0.004 C 
ENDBRANCH   6   7
ENDBRANCH   5   6
ENDBRANCH   4   5
ENDBRANCH   3   4
ENDBRANCH   2   3
ENDBRANCH   1   2
BRANCH   1   9
ATOM      9  C   UNL     1     205.483 199.374 217.398  1.00  0.00     0.000 C 
BRANCH   9  10
ATOM     10  C   UNL     1     205.698 199.937 215.985  1.00  0.00     0.000 C 
BRANCH  10  11
ATOM     11  C   UNL     1     207.007 200.739 215.852  1.00  0.00     0.001 C 
BRANCH  11  12
ATOM     12  C   UNL     1     208.203 200.166 216.633  1.00  0.00     0.012 C 
BRANCH  12  13
ATOM     13  C   UNL     1     208.833 198.946 215.951  1.00  0.00     0.123 C 
BRANCH  13  14
ATOM     14  C   UNL     1     209.333 197.977 216.976  1.00  0.00     0.305 C 
ATOM     15  O   UNL     1     210.164 198.358 217.845  1.00  0.00    -0.252 OA
BRANCH  14  16
ATOM     16  O   UNL     1     208.909 196.646 216.928  1.00  0.00    -0.469 OA
ATOM     17  C   UNL     1     207.703 196.249 216.287  1.00  0.00     0.282 C 
ENDBRANCH  14  16
ENDBRANCH  13  14
ENDBRANCH  12  13
ENDBRANCH  11  12
ENDBRANCH  10  11
ENDBRANCH   9  10
ENDBRANCH   1   9
TORSDOF 13
ENDMDL
MODEL 8
REMARK VINA RESULT:    -3.050      8.264     10.394
REMARK INTER + INTRA:          -7.317
REMARK INTER:                  -5.219
REMARK INTRA:                  -2.098
REMARK UNBOUND:                -1.950
REMARK SMILES CCCCCCCCCCCCCC(=O)OC
REMARK SMILES IDX 8 1 7 2 6 3 5 4 4 5 3 6 2 7 1 8 9 9 10 10 11 11 12 12 13 13
REMARK SMILES IDX 14 14 15 15 16 16 17 17
REMARK H PARENT
REMARK Flexibility Score: inf
ROOT
ATOM      1  C   UNL     1     201.371 197.758 217.700  1.00  0.00     0.000 C 
ENDROOT
BRANCH   1   2
ATOM      2  C   UNL     1     200.128 198.623 217.939  1.00  0.00     0.000 C 
BRANCH   2   3
ATOM      3  C   UNL     1     200.520 200.030 218.412  1.00  0.00    -0.000 C 
BRANCH   3   4
ATOM      4  C   UNL     1     201.982 200.388 218.086  1.00  0.00    -0.000 C 
BRANCH   4   5
ATOM      5  C   UNL     1     202.165 201.386 216.927  1.00  0.00    -0.000 C 
BRANCH   5   6
ATOM      6  C   UNL     1     201.518 200.965 215.594  1.00  0.00    -0.000 C 
BRANCH   6   7
ATOM      7  C   UNL     1     202.495 200.972 214.399  1.00  0.00    -0.003 C 
ATOM      8  C   UNL     1     203.690 201.901 214.619  1.00  0.00     0.004 C 
ENDBRANCH   6   7
ENDBRANCH   5   6
ENDBRANCH   4   5
ENDBRANCH   3   4
ENDBRANCH   2   3
ENDBRANCH   1   2
BRANCH   1   9
ATOM      9  C   UNL     1     201.387 197.199 216.272  1.00  0.00     0.000 C 
BRANCH   9  10
ATOM     10  C   UNL     1     202.755 197.421 215.610  1.00  0.00     0.000 C 
BRANCH  10  11
ATOM     11  C   UNL     1     203.855 197.805 216.617  1.00  0.00     0.001 C 
BRANCH  11  12
ATOM     12  C   UNL     1     204.968 198.706 216.052  1.00  0.00     0.012 C 
BRANCH  12  13
ATOM     13  C   UNL     1     205.701 199.503 217.137  1.00  0.00     0.123 C 
BRANCH  13  14
ATOM     14  C   UNL     1     207.024 199.982 216.628  1.00  0.00     0.305 C 
ATOM     15  O   UNL     1     207.076 200.993 215.876  1.00  0.00    -0.252 OA
BRANCH  14  16
ATOM     16  O   UNL     1     208.184 199.276 216.956  1.00  0.00    -0.469 OA
ATOM     17  C   UNL     1     208.152 197.966 217.510  1.00  0.00     0.282 C 
ENDBRANCH  14  16
ENDBRANCH  13  14
ENDBRANCH  12  13
ENDBRANCH  11  12
ENDBRANCH  10  11
ENDBRANCH   9  10
ENDBRANCH   1   9
TORSDOF 13
ENDMDL
MODEL 9
REMARK VINA RESULT:    -3.024      8.733     11.151
REMARK INTER + INTRA:          -7.271
REMARK INTER:                  -5.978
REMARK INTRA:                  -1.294
REMARK UNBOUND:                -1.950
REMARK SMILES CCCCCCCCCCCCCC(=O)OC
REMARK SMILES IDX 8 1 7 2 6 3 5 4 4 5 3 6 2 7 1 8 9 9 10 10 11 11 12 12 13 13
REMARK SMILES IDX 14 14 15 15 16 16 17 17
REMARK H PARENT
REMARK Flexibility Score: inf
ROOT
ATOM      1  C   UNL     1     204.565 201.434 213.925  1.00  0.00     0.000 C 
ENDROOT
BRANCH   1   2
ATOM      2  C   UNL     1     203.334 202.225 214.383  1.00  0.00     0.000 C 
BRANCH   2   3
ATOM      3  C   UNL     1     202.768 201.653 215.691  1.00  0.00    -0.000 C 
BRANCH   3   4
ATOM      4  C   UNL     1     202.598 200.123 215.653  1.00  0.00    -0.000 C 
BRANCH   4   5
ATOM      5  C   UNL     1     202.305 199.466 217.015  1.00  0.00    -0.000 C 
BRANCH   5   6
ATOM      6  C   UNL     1     201.854 200.435 218.124  1.00  0.00    -0.000 C 
BRANCH   6   7
ATOM      7  C   UNL     1     200.577 199.983 218.864  1.00  0.00    -0.003 C 
ATOM      8  C   UNL     1     199.302 200.274 218.073  1.00  0.00     0.004 C 
ENDBRANCH   6   7
ENDBRANCH   5   6
ENDBRANCH   4   5
ENDBRANCH   3   4
ENDBRANCH   2   3
ENDBRANCH   1   2
BRANCH   1   9
ATOM      9  C   UNL     1     205.817 201.863 214.701  1.00  0.00     0.000 C 
BRANCH   9  10
ATOM     10  C   UNL     1     206.774 200.679 214.900  1.00  0.00     0.000 C 
BRANCH  10  11
ATOM     11  C   UNL     1     207.045 200.368 216.384  1.00  0.00     0.001 C 
BRANCH  11  12
ATOM     12  C   UNL     1     205.955 199.534 217.082  1.00  0.00     0.012 C 
BRANCH  12  13
ATOM     13  C   UNL     1     206.530 198.427 217.973  1.00  0.00     0.123 C 
BRANCH  13  14
ATOM     14  C   UNL     1     206.886 197.228 217.151  1.00  0.00     0.305 C 
ATOM     15  O   UNL     1     205.984 196.605 216.529  1.00  0.00    -0.252 OA
BRANCH  14  16
ATOM     16  O   UNL     1     208.211 196.785 217.121  1.00  0.00    -0.469 OA
ATOM     17  C   UNL     1     209.310 197.668 216.928  1.00  0.00     0.282 C 
ENDBRANCH  14  16
ENDBRANCH  13  14
ENDBRANCH  12  13
ENDBRANCH  11  12
ENDBRANCH  10  11
ENDBRANCH   9  10
ENDBRANCH   1   9
TORSDOF 13
ENDMDL
