MODEL 1
REMARK VINA RESULT:    -4.754      0.000      0.000
REMARK INTER + INTRA:         -13.367
REMARK INTER:                 -10.868
REMARK INTRA:                  -2.499
REMARK UNBOUND:                -2.499
REMARK SMILES CCCCCCCCCCCCCCCCCCCCCCCC(=O)[O-]
REMARK SMILES IDX 13 1 14 2 15 3 16 4 17 5 18 6 19 7 20 8 21 9 22 10 23 11
REMARK SMILES IDX 24 12 25 13 26 14 12 15 11 16 10 17 9 18 8 19 7 20 6 21 5 22
REMARK SMILES IDX 4 23 3 24 2 25 1 26
REMARK H PARENT
REMARK Flexibility Score: inf
ROOT
ATOM      1  C   UNL     1      -2.676 -16.102   5.030  1.00  0.00     0.000 C 
ENDROOT
BRANCH   1   2
ATOM      2  C   UNL     1      -2.734 -16.670   3.600  1.00  0.00     0.000 C 
BRANCH   2   3
ATOM      3  C   UNL     1      -1.840 -17.907   3.420  1.00  0.00     0.000 C 
BRANCH   3   4
ATOM      4  C   UNL     1      -2.556 -19.214   3.794  1.00  0.00     0.000 C 
BRANCH   4   5
ATOM      5  C   UNL     1      -2.039 -19.759   5.134  1.00  0.00     0.000 C 
BRANCH   5   6
ATOM      6  C   UNL     1      -3.069 -19.635   6.271  1.00  0.00     0.000 C 
BRANCH   6   7
ATOM      7  C   UNL     1      -4.499 -20.073   5.906  1.00  0.00     0.000 C 
BRANCH   7   8
ATOM      8  C   UNL     1      -5.564 -19.489   6.846  1.00  0.00     0.000 C 
BRANCH   8   9
ATOM      9  C   UNL     1      -6.956 -19.544   6.199  1.00  0.00     0.000 C 
BRANCH   9  10
ATOM     10  C   UNL     1      -6.897 -19.611   4.662  1.00  0.00     0.006 C 
BRANCH  10  11
ATOM     11  C   UNL     1      -8.144 -19.053   3.957  1.00  0.00     0.053 C 
BRANCH  11  12
ATOM     12  C   UNL     1      -8.884 -20.115   3.203  1.00  0.00     0.041 C 
ATOM     13  O   UNL     1      -8.443 -21.295   3.172  1.00  0.00    -0.550 OA
ATOM     14  O   UNL     1     -10.077 -19.810   2.561  1.00  0.00    -0.550 OA
ENDBRANCH  11  12
ENDBRANCH  10  11
ENDBRANCH   9  10
ENDBRANCH   8   9
ENDBRANCH   7   8
ENDBRANCH   6   7
ENDBRANCH   5   6
ENDBRANCH   4   5
ENDBRANCH   3   4
ENDBRANCH   2   3
ENDBRANCH   1   2
BRANCH   1  15
ATOM     15  C   UNL     1      -4.056 -16.058   5.706  1.00  0.00     0.000 C 
BRANCH  15  16
ATOM     16  C   UNL     1      -5.210 -16.243   4.704  1.00  0.00     0.000 C 
BRANCH  16  17
ATOM     17  C   UNL     1      -6.577 -15.883   5.306  1.00  0.00     0.000 C 
BRANCH  17  18
ATOM     18  C   UNL     1      -6.872 -14.372   5.246  1.00  0.00    -0.000 C 
BRANCH  18  19
ATOM     19  C   UNL     1      -8.373 -14.066   5.104  1.00  0.00    -0.000 C 
BRANCH  19  20
ATOM     20  C   UNL     1      -8.761 -12.716   5.730  1.00  0.00    -0.000 C 
BRANCH  20  21
ATOM     21  C   UNL     1     -10.280 -12.566   5.937  1.00  0.00    -0.000 C 
BRANCH  21  22
ATOM     22  C   UNL     1     -10.760 -11.136   6.248  1.00  0.00    -0.000 C 
BRANCH  22  23
ATOM     23  C   UNL     1     -11.594 -11.048   7.535  1.00  0.00    -0.000 C 
BRANCH  23  24
ATOM     24  C   UNL     1     -12.695  -9.985   7.405  1.00  0.00    -0.000 C 
BRANCH  24  25
ATOM     25  C   UNL     1     -13.972 -10.535   6.754  1.00  0.00    -0.003 C 
ATOM     26  C   UNL     1     -15.245 -10.072   7.464  1.00  0.00     0.004 C 
ENDBRANCH  24  25
ENDBRANCH  23  24
ENDBRANCH  22  23
ENDBRANCH  21  22
ENDBRANCH  20  21
ENDBRANCH  19  20
ENDBRANCH  18  19
ENDBRANCH  17  18
ENDBRANCH  16  17
ENDBRANCH  15  16
ENDBRANCH   1  15
TORSDOF 22
ENDMDL
MODEL 2
REMARK VINA RESULT:    -4.746      3.647     10.501
REMARK INTER + INTRA:         -13.349
REMARK INTER:                 -11.008
REMARK INTRA:                  -2.342
REMARK UNBOUND:                -2.499
REMARK SMILES CCCCCCCCCCCCCCCCCCCCCCCC(=O)[O-]
REMARK SMILES IDX 13 1 14 2 15 3 16 4 17 5 18 6 19 7 20 8 21 9 22 10 23 11
REMARK SMILES IDX 24 12 25 13 26 14 12 15 11 16 10 17 9 18 8 19 7 20 6 21 5 22
REMARK SMILES IDX 4 23 3 24 2 25 1 26
REMARK H PARENT
REMARK Flexibility Score: inf
ROOT
ATOM      1  C   UNL     1      -6.699 -14.577   5.597  1.00  0.00     0.000 C 
ENDROOT
BRANCH   1   2
ATOM      2  C   UNL     1      -7.997 -13.890   5.133  1.00  0.00     0.000 C 
BRANCH   2   3
ATOM      3  C   UNL     1      -8.740 -13.194   6.284  1.00  0.00     0.000 C 
BRANCH   3   4
ATOM      4  C   UNL     1     -10.151 -12.735   5.884  1.00  0.00     0.000 C 
BRANCH   4   5
ATOM      5  C   UNL     1     -10.609 -11.551   6.749  1.00  0.00     0.000 C 
BRANCH   5   6
ATOM      6  C   UNL     1     -11.053 -10.334   5.916  1.00  0.00     0.000 C 
BRANCH   6   7
ATOM      7  C   UNL     1     -12.482  -9.836   6.201  1.00  0.00     0.000 C 
BRANCH   7   8
ATOM      8  C   UNL     1     -13.310 -10.832   7.028  1.00  0.00     0.000 C 
BRANCH   8   9
ATOM      9  C   UNL     1     -14.229 -10.094   8.013  1.00  0.00     0.000 C 
BRANCH   9  10
ATOM     10  C   UNL     1     -13.664 -10.059   9.445  1.00  0.00     0.006 C 
BRANCH  10  11
ATOM     11  C   UNL     1     -12.547  -9.025   9.658  1.00  0.00     0.053 C 
BRANCH  11  12
ATOM     12  C   UNL     1     -11.218  -9.676   9.889  1.00  0.00     0.041 C 
ATOM     13  O   UNL     1     -11.155 -10.887  10.228  1.00  0.00    -0.550 OA
ATOM     14  O   UNL     1     -10.047  -8.953   9.700  1.00  0.00    -0.550 OA
ENDBRANCH  11  12
ENDBRANCH  10  11
ENDBRANCH   9  10
ENDBRANCH   8   9
ENDBRANCH   7   8
ENDBRANCH   6   7
ENDBRANCH   5   6
ENDBRANCH   4   5
ENDBRANCH   3   4
ENDBRANCH   2   3
ENDBRANCH   1   2
BRANCH   1  15
ATOM     15  C   UNL     1      -6.637 -16.059   5.192  1.00  0.00     0.000 C 
BRANCH  15  16
ATOM     16  C   UNL     1      -5.243 -16.476   4.690  1.00  0.00     0.000 C 
BRANCH  16  17
ATOM     17  C   UNL     1      -4.124 -16.097   5.673  1.00  0.00     0.000 C 
BRANCH  17  18
ATOM     18  C   UNL     1      -2.737 -16.057   5.006  1.00  0.00    -0.000 C 
BRANCH  18  19
ATOM     19  C   UNL     1      -2.746 -16.639   3.583  1.00  0.00    -0.000 C 
BRANCH  19  20
ATOM     20  C   UNL     1      -1.844 -17.877   3.446  1.00  0.00    -0.000 C 
BRANCH  20  21
ATOM     21  C   UNL     1      -1.176 -18.284   4.772  1.00  0.00    -0.000 C 
BRANCH  21  22
ATOM     22  C   UNL     1      -1.724 -19.572   5.413  1.00  0.00    -0.000 C 
BRANCH  22  23
ATOM     23  C   UNL     1      -3.160 -19.898   4.974  1.00  0.00    -0.000 C 
BRANCH  23  24
ATOM     24  C   UNL     1      -4.142 -19.736   6.144  1.00  0.00    -0.000 C 
BRANCH  24  25
ATOM     25  C   UNL     1      -5.544 -20.270   5.818  1.00  0.00    -0.003 C 
ATOM     26  C   UNL     1      -6.654 -19.486   6.518  1.00  0.00     0.004 C 
ENDBRANCH  24  25
ENDBRANCH  23  24
ENDBRANCH  22  23
ENDBRANCH  21  22
ENDBRANCH  20  21
ENDBRANCH  19  20
ENDBRANCH  18  19
ENDBRANCH  17  18
ENDBRANCH  16  17
ENDBRANCH  15  16
ENDBRANCH   1  15
TORSDOF 22
ENDMDL
MODEL 3
REMARK VINA RESULT:    -4.621      3.634      8.787
REMARK INTER + INTRA:         -13.064
REMARK INTER:                 -10.294
REMARK INTRA:                  -2.771
REMARK UNBOUND:                -2.499
REMARK SMILES CCCCCCCCCCCCCCCCCCCCCCCC(=O)[O-]
REMARK SMILES IDX 13 1 14 2 15 3 16 4 17 5 18 6 19 7 20 8 21 9 22 10 23 11
REMARK SMILES IDX 24 12 25 13 26 14 12 15 11 16 10 17 9 18 8 19 7 20 6 21 5 22
REMARK SMILES IDX 4 23 3 24 2 25 1 26
REMARK H PARENT
REMARK Flexibility Score: inf
ROOT
ATOM      1  C   UNL     1      -6.973 -19.024   5.530  1.00  0.00     0.000 C 
ENDROOT
BRANCH   1   2
ATOM      2  C   UNL     1      -7.211 -17.672   4.831  1.00  0.00     0.000 C 
BRANCH   2   3
ATOM      3  C   UNL     1      -6.515 -16.506   5.549  1.00  0.00     0.000 C 
BRANCH   3   4
ATOM      4  C   UNL     1      -6.618 -15.186   4.768  1.00  0.00     0.000 C 
BRANCH   4   5
ATOM      5  C   UNL     1      -7.069 -14.039   5.684  1.00  0.00     0.000 C 
BRANCH   5   6
ATOM      6  C   UNL     1      -8.491 -13.542   5.370  1.00  0.00     0.000 C 
BRANCH   6   7
ATOM      7  C   UNL     1      -9.256 -12.953   6.570  1.00  0.00     0.000 C 
BRANCH   7   8
ATOM      8  C   UNL     1     -10.460 -12.096   6.152  1.00  0.00     0.000 C 
BRANCH   8   9
ATOM      9  C   UNL     1     -10.133 -10.600   6.266  1.00  0.00     0.000 C 
BRANCH   9  10
ATOM     10  C   UNL     1     -11.333  -9.762   6.744  1.00  0.00     0.006 C 
BRANCH  10  11
ATOM     11  C   UNL     1     -12.687 -10.213   6.173  1.00  0.00     0.053 C 
BRANCH  11  12
ATOM     12  C   UNL     1     -13.730 -10.342   7.241  1.00  0.00     0.041 C 
ATOM     13  O   UNL     1     -13.423 -10.175   8.451  1.00  0.00    -0.550 OA
ATOM     14  O   UNL     1     -15.048 -10.615   6.896  1.00  0.00    -0.550 OA
ENDBRANCH  11  12
ENDBRANCH  10  11
ENDBRANCH   9  10
ENDBRANCH   8   9
ENDBRANCH   7   8
ENDBRANCH   6   7
ENDBRANCH   5   6
ENDBRANCH   4   5
ENDBRANCH   3   4
ENDBRANCH   2   3
ENDBRANCH   1   2
BRANCH   1  15
ATOM     15  C   UNL     1      -6.129 -18.887   6.808  1.00  0.00     0.000 C 
BRANCH  15  16
ATOM     16  C   UNL     1      -4.778 -19.616   6.704  1.00  0.00     0.000 C 
BRANCH  16  17
ATOM     17  C   UNL     1      -4.359 -19.878   5.248  1.00  0.00     0.000 C 
BRANCH  17  18
ATOM     18  C   UNL     1      -3.199 -18.973   4.792  1.00  0.00    -0.000 C 
BRANCH  18  19
ATOM     19  C   UNL     1      -3.597 -18.033   3.643  1.00  0.00    -0.000 C 
BRANCH  19  20
ATOM     20  C   UNL     1      -2.925 -16.653   3.750  1.00  0.00    -0.000 C 
BRANCH  20  21
ATOM     21  C   UNL     1      -1.884 -16.579   4.882  1.00  0.00    -0.000 C 
BRANCH  21  22
ATOM     22  C   UNL     1      -1.653 -15.173   5.468  1.00  0.00    -0.000 C 
BRANCH  22  23
ATOM     23  C   UNL     1      -1.580 -15.166   7.002  1.00  0.00    -0.000 C 
BRANCH  23  24
ATOM     24  C   UNL     1      -2.855 -15.763   7.616  1.00  0.00    -0.000 C 
BRANCH  24  25
ATOM     25  C   UNL     1      -3.998 -14.742   7.712  1.00  0.00    -0.003 C 
ATOM     26  C   UNL     1      -5.120 -15.196   8.647  1.00  0.00     0.004 C 
ENDBRANCH  24  25
ENDBRANCH  23  24
ENDBRANCH  22  23
ENDBRANCH  21  22
ENDBRANCH  20  21
ENDBRANCH  19  20
ENDBRANCH  18  19
ENDBRANCH  17  18
ENDBRANCH  16  17
ENDBRANCH  15  16
ENDBRANCH   1  15
TORSDOF 22
ENDMDL
MODEL 4
REMARK VINA RESULT:    -4.572      3.117      7.989
REMARK INTER + INTRA:         -12.951
REMARK INTER:                 -10.555
REMARK INTRA:                  -2.396
REMARK UNBOUND:                -2.499
REMARK SMILES CCCCCCCCCCCCCCCCCCCCCCCC(=O)[O-]
REMARK SMILES IDX 13 1 14 2 15 3 16 4 17 5 18 6 19 7 20 8 21 9 22 10 23 11
REMARK SMILES IDX 24 12 25 13 26 14 12 15 11 16 10 17 9 18 8 19 7 20 6 21 5 22
REMARK SMILES IDX 4 23 3 24 2 25 1 26
REMARK H PARENT
REMARK Flexibility Score: inf
ROOT
ATOM      1  C   UNL     1     -11.521 -10.806   6.016  1.00  0.00     0.000 C 
ENDROOT
BRANCH   1   2
ATOM      2  C   UNL     1     -10.321 -10.186   6.755  1.00  0.00     0.000 C 
BRANCH   2   3
ATOM      3  C   UNL     1      -9.047 -11.036   6.628  1.00  0.00     0.000 C 
BRANCH   3   4
ATOM      4  C   UNL     1      -9.319 -12.538   6.796  1.00  0.00     0.000 C 
BRANCH   4   5
ATOM      5  C   UNL     1      -9.019 -13.300   5.497  1.00  0.00     0.000 C 
BRANCH   5   6
ATOM      6  C   UNL     1      -7.527 -13.639   5.329  1.00  0.00     0.000 C 
BRANCH   6   7
ATOM      7  C   UNL     1      -6.931 -14.525   6.439  1.00  0.00     0.000 C 
BRANCH   7   8
ATOM      8  C   UNL     1      -5.627 -15.219   6.017  1.00  0.00     0.000 C 
BRANCH   8   9
ATOM      9  C   UNL     1      -5.917 -16.429   5.117  1.00  0.00     0.000 C 
BRANCH   9  10
ATOM     10  C   UNL     1      -4.655 -16.975   4.425  1.00  0.00     0.006 C 
BRANCH  10  11
ATOM     11  C   UNL     1      -3.359 -16.235   4.798  1.00  0.00     0.053 C 
BRANCH  11  12
ATOM     12  C   UNL     1      -2.139 -17.003   4.391  1.00  0.00     0.041 C 
ATOM     13  O   UNL     1      -2.046 -17.477   3.228  1.00  0.00    -0.550 OA
ATOM     14  O   UNL     1      -1.091 -17.168   5.287  1.00  0.00    -0.550 OA
ENDBRANCH  11  12
ENDBRANCH  10  11
ENDBRANCH   9  10
ENDBRANCH   8   9
ENDBRANCH   7   8
ENDBRANCH   6   7
ENDBRANCH   5   6
ENDBRANCH   4   5
ENDBRANCH   3   4
ENDBRANCH   2   3
ENDBRANCH   1   2
BRANCH   1  15
ATOM     15  C   UNL     1     -12.825 -10.024   6.246  1.00  0.00     0.000 C 
BRANCH  15  16
ATOM     16  C   UNL     1     -13.877 -10.845   7.012  1.00  0.00     0.000 C 
BRANCH  16  17
ATOM     17  C   UNL     1     -15.182 -10.065   7.240  1.00  0.00     0.000 C 
BRANCH  17  18
ATOM     18  C   UNL     1     -15.117  -9.147   8.475  1.00  0.00    -0.000 C 
BRANCH  18  19
ATOM     19  C   UNL     1     -14.268  -9.741   9.611  1.00  0.00    -0.000 C 
BRANCH  19  20
ATOM     20  C   UNL     1     -12.912  -9.032   9.766  1.00  0.00    -0.000 C 
BRANCH  20  21
ATOM     21  C   UNL     1     -11.743 -10.013   9.971  1.00  0.00    -0.000 C 
BRANCH  21  22
ATOM     22  C   UNL     1     -10.446  -9.381  10.511  1.00  0.00    -0.000 C 
BRANCH  22  23
ATOM     23  C   UNL     1      -9.238 -10.328  10.432  1.00  0.00    -0.000 C 
BRANCH  23  24
ATOM     24  C   UNL     1      -9.692 -11.795  10.384  1.00  0.00    -0.000 C 
BRANCH  24  25
ATOM     25  C   UNL     1      -8.638 -12.759  10.946  1.00  0.00    -0.003 C 
ATOM     26  C   UNL     1      -7.651 -13.242   9.884  1.00  0.00     0.004 C 
ENDBRANCH  24  25
ENDBRANCH  23  24
ENDBRANCH  22  23
ENDBRANCH  21  22
ENDBRANCH  20  21
ENDBRANCH  19  20
ENDBRANCH  18  19
ENDBRANCH  17  18
ENDBRANCH  16  17
ENDBRANCH  15  16
ENDBRANCH   1  15
TORSDOF 22
ENDMDL
MODEL 5
REMARK VINA RESULT:    -4.535      3.889     10.366
REMARK INTER + INTRA:         -12.868
REMARK INTER:                  -9.998
REMARK INTRA:                  -2.870
REMARK UNBOUND:                -2.499
REMARK SMILES CCCCCCCCCCCCCCCCCCCCCCCC(=O)[O-]
REMARK SMILES IDX 13 1 14 2 15 3 16 4 17 5 18 6 19 7 20 8 21 9 22 10 23 11
REMARK SMILES IDX 24 12 25 13 26 14 12 15 11 16 10 17 9 18 8 19 7 20 6 21 5 22
REMARK SMILES IDX 4 23 3 24 2 25 1 26
REMARK H PARENT
REMARK Flexibility Score: inf
ROOT
ATOM      1  C   UNL     1      -9.482 -13.315   5.536  1.00  0.00     0.000 C 
ENDROOT
BRANCH   1   2
ATOM      2  C   UNL     1     -10.179 -12.227   6.373  1.00  0.00     0.000 C 
BRANCH   2   3
ATOM      3  C   UNL     1      -9.227 -11.089   6.773  1.00  0.00     0.000 C 
BRANCH   3   4
ATOM      4  C   UNL     1      -9.838  -9.698   6.542  1.00  0.00     0.000 C 
BRANCH   4   5
ATOM      5  C   UNL     1     -11.246  -9.810   5.938  1.00  0.00     0.000 C 
BRANCH   5   6
ATOM      6  C   UNL     1     -12.345  -9.268   6.870  1.00  0.00     0.000 C 
BRANCH   6   7
ATOM      7  C   UNL     1     -13.186 -10.345   7.580  1.00  0.00     0.000 C 
BRANCH   7   8
ATOM      8  C   UNL     1     -13.262 -10.141   9.101  1.00  0.00     0.000 C 
BRANCH   8   9
ATOM      9  C   UNL     1     -11.947  -9.563   9.642  1.00  0.00     0.000 C 
BRANCH   9  10
ATOM     10  C   UNL     1     -10.943 -10.653  10.060  1.00  0.00     0.006 C 
BRANCH  10  11
ATOM     11  C   UNL     1      -9.762 -10.137  10.899  1.00  0.00     0.053 C 
BRANCH  11  12
ATOM     12  C   UNL     1      -8.452 -10.328  10.199  1.00  0.00     0.041 C 
ATOM     13  O   UNL     1      -7.937 -11.474  10.116  1.00  0.00    -0.550 OA
ATOM     14  O   UNL     1      -7.814  -9.243   9.610  1.00  0.00    -0.550 OA
ENDBRANCH  11  12
ENDBRANCH  10  11
ENDBRANCH   9  10
ENDBRANCH   8   9
ENDBRANCH   7   8
ENDBRANCH   6   7
ENDBRANCH   5   6
ENDBRANCH   4   5
ENDBRANCH   3   4
ENDBRANCH   2   3
ENDBRANCH   1   2
BRANCH   1  15
ATOM     15  C   UNL     1      -7.969 -13.388   5.804  1.00  0.00     0.000 C 
BRANCH  15  16
ATOM     16  C   UNL     1      -7.232 -14.277   4.788  1.00  0.00     0.000 C 
BRANCH  16  17
ATOM     17  C   UNL     1      -6.578 -15.504   5.442  1.00  0.00     0.000 C 
BRANCH  17  18
ATOM     18  C   UNL     1      -5.384 -16.043   4.632  1.00  0.00    -0.000 C 
BRANCH  18  19
ATOM     19  C   UNL     1      -4.846 -17.373   5.183  1.00  0.00    -0.000 C 
BRANCH  19  20
ATOM     20  C   UNL     1      -3.346 -17.564   4.903  1.00  0.00    -0.000 C 
BRANCH  20  21
ATOM     21  C   UNL     1      -2.686 -16.315   4.289  1.00  0.00    -0.000 C 
BRANCH  21  22
ATOM     22  C   UNL     1      -1.647 -15.616   5.186  1.00  0.00    -0.000 C 
BRANCH  22  23
ATOM     23  C   UNL     1      -1.507 -16.272   6.568  1.00  0.00    -0.000 C 
BRANCH  23  24
ATOM     24  C   UNL     1      -1.996 -15.327   7.676  1.00  0.00    -0.000 C 
BRANCH  24  25
ATOM     25  C   UNL     1      -3.430 -15.636   8.127  1.00  0.00    -0.003 C 
ATOM     26  C   UNL     1      -4.342 -14.410   8.082  1.00  0.00     0.004 C 
ENDBRANCH  24  25
ENDBRANCH  23  24
ENDBRANCH  22  23
ENDBRANCH  21  22
ENDBRANCH  20  21
ENDBRANCH  19  20
ENDBRANCH  18  19
ENDBRANCH  17  18
ENDBRANCH  16  17
ENDBRANCH  15  16
ENDBRANCH   1  15
TORSDOF 22
ENDMDL
MODEL 6
REMARK VINA RESULT:    -4.493      2.098      5.711
REMARK INTER + INTRA:         -12.772
REMARK INTER:                 -10.197
REMARK INTRA:                  -2.574
REMARK UNBOUND:                -2.499
REMARK SMILES CCCCCCCCCCCCCCCCCCCCCCCC(=O)[O-]
REMARK SMILES IDX 13 1 14 2 15 3 16 4 17 5 18 6 19 7 20 8 21 9 22 10 23 11
REMARK SMILES IDX 24 12 25 13 26 14 12 15 11 16 10 17 9 18 8 19 7 20 6 21 5 22
REMARK SMILES IDX 4 23 3 24 2 25 1 26
REMARK H PARENT
REMARK Flexibility Score: inf
ROOT
ATOM      1  C   UNL     1      -9.126 -12.713   6.200  1.00  0.00     0.000 C 
ENDROOT
BRANCH   1   2
ATOM      2  C   UNL     1      -8.778 -13.674   5.049  1.00  0.00     0.000 C 
BRANCH   2   3
ATOM      3  C   UNL     1      -7.269 -13.947   4.943  1.00  0.00     0.000 C 
BRANCH   3   4
ATOM      4  C   UNL     1      -6.891 -15.362   5.405  1.00  0.00     0.000 C 
BRANCH   4   5
ATOM      5  C   UNL     1      -5.715 -15.322   6.392  1.00  0.00     0.000 C 
BRANCH   5   6
ATOM      6  C   UNL     1      -4.481 -16.092   5.889  1.00  0.00     0.000 C 
BRANCH   6   7
ATOM      7  C   UNL     1      -4.524 -16.492   4.402  1.00  0.00     0.000 C 
BRANCH   7   8
ATOM      8  C   UNL     1      -3.871 -17.855   4.128  1.00  0.00     0.000 C 
BRANCH   8   9
ATOM      9  C   UNL     1      -4.556 -18.964   4.939  1.00  0.00     0.000 C 
BRANCH   9  10
ATOM     10  C   UNL     1      -6.046 -19.128   4.587  1.00  0.00     0.006 C 
BRANCH  10  11
ATOM     11  C   UNL     1      -6.975 -19.240   5.807  1.00  0.00     0.053 C 
BRANCH  11  12
ATOM     12  C   UNL     1      -7.569 -20.609   5.934  1.00  0.00     0.041 C 
ATOM     13  O   UNL     1      -7.553 -21.401   4.954  1.00  0.00    -0.550 OA
ATOM     14  O   UNL     1      -8.113 -21.022   7.143  1.00  0.00    -0.550 OA
ENDBRANCH  11  12
ENDBRANCH  10  11
ENDBRANCH   9  10
ENDBRANCH   8   9
ENDBRANCH   7   8
ENDBRANCH   6   7
ENDBRANCH   5   6
ENDBRANCH   4   5
ENDBRANCH   3   4
ENDBRANCH   2   3
ENDBRANCH   1   2
BRANCH   1  15
ATOM     15  C   UNL     1     -10.611 -12.317   6.212  1.00  0.00     0.000 C 
BRANCH  15  16
ATOM     16  C   UNL     1     -10.818 -10.804   6.395  1.00  0.00     0.000 C 
BRANCH  16  17
ATOM     17  C   UNL     1     -12.201 -10.335   5.915  1.00  0.00     0.000 C 
BRANCH  17  18
ATOM     18  C   UNL     1     -13.331 -10.734   6.882  1.00  0.00    -0.000 C 
BRANCH  18  19
ATOM     19  C   UNL     1     -13.614  -9.656   7.941  1.00  0.00    -0.000 C 
BRANCH  19  20
ATOM     20  C   UNL     1     -13.278 -10.127   9.366  1.00  0.00    -0.000 C 
BRANCH  20  21
ATOM     21  C   UNL     1     -11.904  -9.633   9.855  1.00  0.00    -0.000 C 
BRANCH  21  22
ATOM     22  C   UNL     1     -10.843 -10.732  10.047  1.00  0.00    -0.000 C 
BRANCH  22  23
ATOM     23  C   UNL     1      -9.404 -10.207   9.917  1.00  0.00    -0.000 C 
BRANCH  23  24
ATOM     24  C   UNL     1      -8.481 -11.279   9.318  1.00  0.00    -0.000 C 
BRANCH  24  25
ATOM     25  C   UNL     1      -8.385 -12.534  10.198  1.00  0.00    -0.003 C 
ATOM     26  C   UNL     1      -7.843 -13.747   9.441  1.00  0.00     0.004 C 
ENDBRANCH  24  25
ENDBRANCH  23  24
ENDBRANCH  22  23
ENDBRANCH  21  22
ENDBRANCH  20  21
ENDBRANCH  19  20
ENDBRANCH  18  19
ENDBRANCH  17  18
ENDBRANCH  16  17
ENDBRANCH  15  16
ENDBRANCH   1  15
TORSDOF 22
ENDMDL
MODEL 7
REMARK VINA RESULT:    -4.481      3.485      8.524
REMARK INTER + INTRA:         -12.744
REMARK INTER:                 -10.571
REMARK INTRA:                  -2.173
REMARK UNBOUND:                -2.499
REMARK SMILES CCCCCCCCCCCCCCCCCCCCCCCC(=O)[O-]
REMARK SMILES IDX 13 1 14 2 15 3 16 4 17 5 18 6 19 7 20 8 21 9 22 10 23 11
REMARK SMILES IDX 24 12 25 13 26 14 12 15 11 16 10 17 9 18 8 19 7 20 6 21 5 22
REMARK SMILES IDX 4 23 3 24 2 25 1 26
REMARK H PARENT
REMARK Flexibility Score: inf
ROOT
ATOM      1  C   UNL     1      -3.030 -17.386   3.346  1.00  0.00     0.000 C 
ENDROOT
BRANCH   1   2
ATOM      2  C   UNL     1      -2.720 -16.417   4.502  1.00  0.00     0.000 C 
BRANCH   2   3
ATOM      3  C   UNL     1      -3.900 -16.261   5.473  1.00  0.00     0.000 C 
BRANCH   3   4
ATOM      4  C   UNL     1      -5.247 -16.111   4.748  1.00  0.00     0.000 C 
BRANCH   4   5
ATOM      5  C   UNL     1      -6.258 -15.352   5.620  1.00  0.00     0.000 C 
BRANCH   5   6
ATOM      6  C   UNL     1      -6.842 -14.111   4.921  1.00  0.00     0.000 C 
BRANCH   6   7
ATOM      7  C   UNL     1      -8.376 -13.986   4.989  1.00  0.00     0.000 C 
BRANCH   7   8
ATOM      8  C   UNL     1      -8.846 -12.890   5.958  1.00  0.00     0.000 C 
BRANCH   8   9
ATOM      9  C   UNL     1     -10.287 -12.464   5.645  1.00  0.00     0.000 C 
BRANCH   9  10
ATOM     10  C   UNL     1     -10.856 -11.476   6.679  1.00  0.00     0.006 C 
BRANCH  10  11
ATOM     11  C   UNL     1     -12.049 -10.648   6.174  1.00  0.00     0.053 C 
BRANCH  11  12
ATOM     12  C   UNL     1     -13.063 -10.411   7.251  1.00  0.00     0.041 C 
ATOM     13  O   UNL     1     -12.707 -10.363   8.458  1.00  0.00    -0.550 OA
ATOM     14  O   UNL     1     -14.397 -10.212   6.918  1.00  0.00    -0.550 OA
ENDBRANCH  11  12
ENDBRANCH  10  11
ENDBRANCH   9  10
ENDBRANCH   8   9
ENDBRANCH   7   8
ENDBRANCH   6   7
ENDBRANCH   5   6
ENDBRANCH   4   5
ENDBRANCH   3   4
ENDBRANCH   2   3
ENDBRANCH   1   2
BRANCH   1  15
ATOM     15  C   UNL     1      -1.795 -18.184   2.896  1.00  0.00     0.000 C 
BRANCH  15  16
ATOM     16  C   UNL     1      -0.935 -18.658   4.080  1.00  0.00     0.000 C 
BRANCH  16  17
ATOM     17  C   UNL     1      -1.382 -20.025   4.623  1.00  0.00     0.000 C 
BRANCH  17  18
ATOM     18  C   UNL     1      -2.107 -19.917   5.978  1.00  0.00    -0.000 C 
BRANCH  18  19
ATOM     19  C   UNL     1      -3.432 -20.696   6.004  1.00  0.00    -0.000 C 
BRANCH  19  20
ATOM     20  C   UNL     1      -4.607 -19.881   5.438  1.00  0.00    -0.000 C 
BRANCH  20  21
ATOM     21  C   UNL     1      -5.610 -19.442   6.521  1.00  0.00    -0.000 C 
BRANCH  21  22
ATOM     22  C   UNL     1      -7.094 -19.572   6.129  1.00  0.00    -0.000 C 
BRANCH  22  23
ATOM     23  C   UNL     1      -7.628 -21.007   6.263  1.00  0.00    -0.000 C 
BRANCH  23  24
ATOM     24  C   UNL     1      -8.060 -21.561   4.897  1.00  0.00    -0.000 C 
BRANCH  24  25
ATOM     25  C   UNL     1      -9.399 -20.980   4.420  1.00  0.00    -0.003 C 
ATOM     26  C   UNL     1      -9.254 -20.101   3.178  1.00  0.00     0.004 C 
ENDBRANCH  24  25
ENDBRANCH  23  24
ENDBRANCH  22  23
ENDBRANCH  21  22
ENDBRANCH  20  21
ENDBRANCH  19  20
ENDBRANCH  18  19
ENDBRANCH  17  18
ENDBRANCH  16  17
ENDBRANCH  15  16
ENDBRANCH   1  15
TORSDOF 22
ENDMDL
MODEL 8
REMARK VINA RESULT:    -4.437      3.340      7.028
REMARK INTER + INTRA:         -12.643
REMARK INTER:                  -9.614
REMARK INTRA:                  -3.028
REMARK UNBOUND:                -2.499
REMARK SMILES CCCCCCCCCCCCCCCCCCCCCCCC(=O)[O-]
REMARK SMILES IDX 13 1 14 2 15 3 16 4 17 5 18 6 19 7 20 8 21 9 22 10 23 11
REMARK SMILES IDX 24 12 25 13 26 14 12 15 11 16 10 17 9 18 8 19 7 20 6 21 5 22
REMARK SMILES IDX 4 23 3 24 2 25 1 26
REMARK H PARENT
REMARK Flexibility Score: inf
ROOT
ATOM      1  C   UNL     1      -3.079 -18.303   3.609  1.00  0.00     0.000 C 
ENDROOT
BRANCH   1   2
ATOM      2  C   UNL     1      -2.458 -16.900   3.737  1.00  0.00     0.000 C 
BRANCH   2   3
ATOM      3  C   UNL     1      -1.692 -16.711   5.056  1.00  0.00     0.000 C 
BRANCH   3   4
ATOM      4  C   UNL     1      -1.675 -15.248   5.525  1.00  0.00     0.000 C 
BRANCH   4   5
ATOM      5  C   UNL     1      -2.397 -15.095   6.872  1.00  0.00     0.000 C 
BRANCH   5   6
ATOM      6  C   UNL     1      -3.486 -16.160   7.095  1.00  0.00     0.000 C 
BRANCH   6   7
ATOM      7  C   UNL     1      -4.934 -15.640   7.006  1.00  0.00     0.000 C 
BRANCH   7   8
ATOM      8  C   UNL     1      -5.418 -15.459   5.560  1.00  0.00     0.000 C 
BRANCH   8   9
ATOM      9  C   UNL     1      -6.945 -15.307   5.508  1.00  0.00     0.000 C 
BRANCH   9  10
ATOM     10  C   UNL     1      -7.392 -13.861   5.229  1.00  0.00     0.006 C 
BRANCH  10  11
ATOM     11  C   UNL     1      -8.916 -13.678   5.130  1.00  0.00     0.053 C 
BRANCH  11  12
ATOM     12  C   UNL     1      -9.467 -12.925   6.301  1.00  0.00     0.041 C 
ATOM     13  O   UNL     1     -10.496 -12.210   6.169  1.00  0.00    -0.550 OA
ATOM     14  O   UNL     1      -8.862 -13.036   7.547  1.00  0.00    -0.550 OA
ENDBRANCH  11  12
ENDBRANCH  10  11
ENDBRANCH   9  10
ENDBRANCH   8   9
ENDBRANCH   7   8
ENDBRANCH   6   7
ENDBRANCH   5   6
ENDBRANCH   4   5
ENDBRANCH   3   4
ENDBRANCH   2   3
ENDBRANCH   1   2
BRANCH   1  15
ATOM     15  C   UNL     1      -4.452 -18.407   4.292  1.00  0.00     0.000 C 
BRANCH  15  16
ATOM     16  C   UNL     1      -4.626 -19.722   5.071  1.00  0.00     0.000 C 
BRANCH  16  17
ATOM     17  C   UNL     1      -5.787 -19.663   6.077  1.00  0.00     0.000 C 
BRANCH  17  18
ATOM     18  C   UNL     1      -5.547 -20.551   7.312  1.00  0.00    -0.000 C 
BRANCH  18  19
ATOM     19  C   UNL     1      -6.749 -21.454   7.636  1.00  0.00    -0.000 C 
BRANCH  19  20
ATOM     20  C   UNL     1      -7.916 -21.256   6.654  1.00  0.00    -0.000 C 
BRANCH  20  21
ATOM     21  C   UNL     1      -8.003 -22.368   5.593  1.00  0.00    -0.000 C 
BRANCH  21  22
ATOM     22  C   UNL     1      -8.517 -21.918   4.213  1.00  0.00    -0.000 C 
BRANCH  22  23
ATOM     23  C   UNL     1      -9.292 -20.592   4.263  1.00  0.00    -0.000 C 
BRANCH  23  24
ATOM     24  C   UNL     1      -8.607 -19.522   3.400  1.00  0.00    -0.000 C 
BRANCH  24  25
ATOM     25  C   UNL     1      -8.602 -18.139   4.067  1.00  0.00    -0.003 C 
ATOM     26  C   UNL     1      -9.925 -17.393   3.892  1.00  0.00     0.004 C 
ENDBRANCH  24  25
ENDBRANCH  23  24
ENDBRANCH  22  23
ENDBRANCH  21  22
ENDBRANCH  20  21
ENDBRANCH  19  20
ENDBRANCH  18  19
ENDBRANCH  17  18
ENDBRANCH  16  17
ENDBRANCH  15  16
ENDBRANCH   1  15
TORSDOF 22
ENDMDL
MODEL 9
REMARK VINA RESULT:    -4.367      2.841      6.965
REMARK INTER + INTRA:         -12.484
REMARK INTER:                 -10.189
REMARK INTRA:                  -2.295
REMARK UNBOUND:                -2.499
REMARK SMILES CCCCCCCCCCCCCCCCCCCCCCCC(=O)[O-]
REMARK SMILES IDX 13 1 14 2 15 3 16 4 17 5 18 6 19 7 20 8 21 9 22 10 23 11
REMARK SMILES IDX 24 12 25 13 26 14 12 15 11 16 10 17 9 18 8 19 7 20 6 21 5 22
REMARK SMILES IDX 4 23 3 24 2 25 1 26
REMARK H PARENT
REMARK Flexibility Score: inf
ROOT
ATOM      1  C   UNL     1     -10.453 -11.927   6.613  1.00  0.00     0.000 C 
ENDROOT
BRANCH   1   2
ATOM      2  C   UNL     1      -9.005 -12.452   6.599  1.00  0.00     0.000 C 
BRANCH   2   3
ATOM      3  C   UNL     1      -8.767 -13.495   5.496  1.00  0.00     0.000 C 
BRANCH   3   4
ATOM      4  C   UNL     1      -7.274 -13.736   5.224  1.00  0.00     0.000 C 
BRANCH   4   5
ATOM      5  C   UNL     1      -6.892 -15.196   5.509  1.00  0.00     0.000 C 
BRANCH   5   6
ATOM      6  C   UNL     1      -5.756 -15.708   4.605  1.00  0.00     0.000 C 
BRANCH   6   7
ATOM      7  C   UNL     1      -4.765 -16.671   5.286  1.00  0.00     0.000 C 
BRANCH   7   8
ATOM      8  C   UNL     1      -3.480 -15.975   5.758  1.00  0.00     0.000 C 
BRANCH   8   9
ATOM      9  C   UNL     1      -2.329 -16.222   4.773  1.00  0.00     0.000 C 
BRANCH   9  10
ATOM     10  C   UNL     1      -2.741 -17.111   3.584  1.00  0.00     0.006 C 
BRANCH  10  11
ATOM     11  C   UNL     1      -1.678 -18.138   3.165  1.00  0.00     0.053 C 
BRANCH  11  12
ATOM     12  C   UNL     1      -1.928 -19.484   3.772  1.00  0.00     0.041 C 
ATOM     13  O   UNL     1      -1.126 -20.433   3.566  1.00  0.00    -0.550 OA
ATOM     14  O   UNL     1      -3.031 -19.682   4.593  1.00  0.00    -0.550 OA
ENDBRANCH  11  12
ENDBRANCH  10  11
ENDBRANCH   9  10
ENDBRANCH   8   9
ENDBRANCH   7   8
ENDBRANCH   6   7
ENDBRANCH   5   6
ENDBRANCH   4   5
ENDBRANCH   3   4
ENDBRANCH   2   3
ENDBRANCH   1   2
BRANCH   1  15
ATOM     15  C   UNL     1     -10.551 -10.449   6.202  1.00  0.00     0.000 C 
BRANCH  15  16
ATOM     16  C   UNL     1     -12.005  -9.957   6.109  1.00  0.00     0.000 C 
BRANCH  16  17
ATOM     17  C   UNL     1     -12.965 -10.783   6.980  1.00  0.00     0.000 C 
BRANCH  17  18
ATOM     18  C   UNL     1     -13.731  -9.921   8.001  1.00  0.00    -0.000 C 
BRANCH  18  19
ATOM     19  C   UNL     1     -12.804  -9.267   9.038  1.00  0.00    -0.000 C 
BRANCH  19  20
ATOM     20  C   UNL     1     -11.838 -10.275   9.685  1.00  0.00    -0.000 C 
BRANCH  20  21
ATOM     21  C   UNL     1     -10.395  -9.746   9.781  1.00  0.00    -0.000 C 
BRANCH  21  22
ATOM     22  C   UNL     1      -9.316 -10.824   9.992  1.00  0.00    -0.000 C 
BRANCH  22  23
ATOM     23  C   UNL     1      -9.820 -12.031  10.798  1.00  0.00    -0.000 C 
BRANCH  23  24
ATOM     24  C   UNL     1      -8.647 -12.883  11.304  1.00  0.00    -0.000 C 
BRANCH  24  25
ATOM     25  C   UNL     1      -8.350 -14.081  10.391  1.00  0.00    -0.003 C 
ATOM     26  C   UNL     1      -7.172 -13.830   9.448  1.00  0.00     0.004 C 
ENDBRANCH  24  25
ENDBRANCH  23  24
ENDBRANCH  22  23
ENDBRANCH  21  22
ENDBRANCH  20  21
ENDBRANCH  19  20
ENDBRANCH  18  19
ENDBRANCH  17  18
ENDBRANCH  16  17
ENDBRANCH  15  16
ENDBRANCH   1  15
TORSDOF 22
ENDMDL
