MODEL 1
REMARK VINA RESULT:    -5.498      0.000      0.000
REMARK INTER + INTRA:          -5.498
REMARK INTER:                  -5.498
REMARK INTRA:                   0.000
REMARK UNBOUND:                 0.000
REMARK SMILES O=c1ccc2ccccc2o1
REMARK SMILES IDX 7 1 8 2 9 3 10 4 5 5 6 6 4 7 3 8 2 9 1 10 11 11
REMARK H PARENT
REMARK Flexibility Score: inf
ROOT
ATOM      1  C   UNL     1       4.591  -9.035   6.711  1.00  0.00     0.001 A 
ATOM      2  C   UNL     1       4.736  -8.363   7.929  1.00  0.00     0.004 A 
ATOM      3  C   UNL     1       3.626  -7.778   8.548  1.00  0.00     0.048 A 
ATOM      4  C   UNL     1       2.364  -7.862   7.947  1.00  0.00     0.138 A 
ATOM      5  C   UNL     1       2.217  -8.540   6.717  1.00  0.00     0.018 A 
ATOM      6  C   UNL     1       3.334  -9.125   6.102  1.00  0.00     0.012 A 
ATOM      7  C   UNL     1       0.945  -8.607   6.141  1.00  0.00     0.019 A 
ATOM      8  C   UNL     1      -0.133  -8.009   6.792  1.00  0.00     0.094 A 
ATOM      9  C   UNL     1       0.087  -7.355   8.009  1.00  0.00     0.336 A 
ATOM     10  O   UNL     1      -0.873  -6.809   8.612  1.00  0.00    -0.246 OA
ATOM     11  O   UNL     1       1.309  -7.305   8.535  1.00  0.00    -0.423 OA
ENDROOT
TORSDOF 0
ENDMDL
MODEL 2
REMARK VINA RESULT:    -5.419      1.229      3.517
REMARK INTER + INTRA:          -5.419
REMARK INTER:                  -5.419
REMARK INTRA:                   0.000
REMARK UNBOUND:                 0.000
REMARK SMILES O=c1ccc2ccccc2o1
REMARK SMILES IDX 7 1 8 2 9 3 10 4 5 5 6 6 4 7 3 8 2 9 1 10 11 11
REMARK H PARENT
REMARK Flexibility Score: inf
ROOT
ATOM      1  C   UNL     1       0.457  -8.915   5.637  1.00  0.00     0.001 A 
ATOM      2  C   UNL     1      -0.247  -8.124   6.550  1.00  0.00     0.004 A 
ATOM      3  C   UNL     1       0.417  -7.535   7.631  1.00  0.00     0.048 A 
ATOM      4  C   UNL     1       1.792  -7.738   7.802  1.00  0.00     0.138 A 
ATOM      5  C   UNL     1       2.503  -8.538   6.880  1.00  0.00     0.018 A 
ATOM      6  C   UNL     1       1.830  -9.125   5.798  1.00  0.00     0.012 A 
ATOM      7  C   UNL     1       3.875  -8.722   7.077  1.00  0.00     0.019 A 
ATOM      8  C   UNL     1       4.497  -8.117   8.168  1.00  0.00     0.094 A 
ATOM      9  C   UNL     1       3.729  -7.338   9.041  1.00  0.00     0.336 A 
ATOM     10  O   UNL     1       4.272  -6.783  10.032  1.00  0.00    -0.246 OA
ATOM     11  O   UNL     1       2.425  -7.179   8.830  1.00  0.00    -0.423 OA
ENDROOT
TORSDOF 0
ENDMDL
MODEL 3
REMARK VINA RESULT:    -5.399     17.075     18.789
REMARK INTER + INTRA:          -5.399
REMARK INTER:                  -5.399
REMARK INTRA:                   0.000
REMARK UNBOUND:                 0.000
REMARK SMILES O=c1ccc2ccccc2o1
REMARK SMILES IDX 7 1 8 2 9 3 10 4 5 5 6 6 4 7 3 8 2 9 1 10 11 11
REMARK H PARENT
REMARK Flexibility Score: inf
ROOT
ATOM      1  C   UNL     1      -7.794  10.037   6.400  1.00  0.00     0.001 A 
ATOM      2  C   UNL     1      -6.479   9.561   6.347  1.00  0.00     0.004 A 
ATOM      3  C   UNL     1      -6.211   8.288   5.836  1.00  0.00     0.048 A 
ATOM      4  C   UNL     1      -7.259   7.483   5.376  1.00  0.00     0.138 A 
ATOM      5  C   UNL     1      -8.587   7.962   5.429  1.00  0.00     0.018 A 
ATOM      6  C   UNL     1      -8.849   9.241   5.943  1.00  0.00     0.012 A 
ATOM      7  C   UNL     1      -9.613   7.136   4.962  1.00  0.00     0.019 A 
ATOM      8  C   UNL     1      -9.300   5.873   4.460  1.00  0.00     0.094 A 
ATOM      9  C   UNL     1      -7.962   5.464   4.438  1.00  0.00     0.336 A 
ATOM     10  O   UNL     1      -7.659   4.328   3.989  1.00  0.00    -0.246 OA
ATOM     11  O   UNL     1      -7.004   6.271   4.889  1.00  0.00    -0.423 OA
ENDROOT
TORSDOF 0
ENDMDL
MODEL 4
REMARK VINA RESULT:    -5.273     12.093     13.052
REMARK INTER + INTRA:          -5.273
REMARK INTER:                  -5.273
REMARK INTRA:                   0.000
REMARK UNBOUND:                 0.000
REMARK SMILES O=c1ccc2ccccc2o1
REMARK SMILES IDX 7 1 8 2 9 3 10 4 5 5 6 6 4 7 3 8 2 9 1 10 11 11
REMARK H PARENT
REMARK Flexibility Score: inf
ROOT
ATOM      1  C   UNL     1      -9.592  -7.780   3.111  1.00  0.00     0.001 A 
ATOM      2  C   UNL     1      -8.587  -7.180   2.345  1.00  0.00     0.004 A 
ATOM      3  C   UNL     1      -8.428  -5.791   2.353  1.00  0.00     0.048 A 
ATOM      4  C   UNL     1      -9.277  -4.994   3.130  1.00  0.00     0.138 A 
ATOM      5  C   UNL     1     -10.292  -5.599   3.904  1.00  0.00     0.018 A 
ATOM      6  C   UNL     1     -10.446  -6.992   3.891  1.00  0.00     0.012 A 
ATOM      7  C   UNL     1     -11.124  -4.777   4.670  1.00  0.00     0.019 A 
ATOM      8  C   UNL     1     -10.930  -3.396   4.649  1.00  0.00     0.094 A 
ATOM      9  C   UNL     1      -9.904  -2.867   3.859  1.00  0.00     0.336 A 
ATOM     10  O   UNL     1      -9.712  -1.624   3.826  1.00  0.00    -0.246 OA
ATOM     11  O   UNL     1      -9.126  -3.672   3.139  1.00  0.00    -0.423 OA
ENDROOT
TORSDOF 0
ENDMDL
MODEL 5
REMARK VINA RESULT:    -5.250      1.651      2.794
REMARK INTER + INTRA:          -5.250
REMARK INTER:                  -5.250
REMARK INTRA:                   0.000
REMARK UNBOUND:                 0.000
REMARK SMILES O=c1ccc2ccccc2o1
REMARK SMILES IDX 7 1 8 2 9 3 10 4 5 5 6 6 4 7 3 8 2 9 1 10 11 11
REMARK H PARENT
REMARK Flexibility Score: inf
ROOT
ATOM      1  C   UNL     1       2.598  -9.125   5.282  1.00  0.00     0.001 A 
ATOM      2  C   UNL     1       1.347  -8.961   4.678  1.00  0.00     0.004 A 
ATOM      3  C   UNL     1       0.216  -8.699   5.458  1.00  0.00     0.048 A 
ATOM      4  C   UNL     1       0.334  -8.600   6.850  1.00  0.00     0.138 A 
ATOM      5  C   UNL     1       1.597  -8.765   7.461  1.00  0.00     0.018 A 
ATOM      6  C   UNL     1       2.726  -9.029   6.672  1.00  0.00     0.012 A 
ATOM      7  C   UNL     1       1.683  -8.661   8.852  1.00  0.00     0.019 A 
ATOM      8  C   UNL     1       0.530  -8.399   9.591  1.00  0.00     0.094 A 
ATOM      9  C   UNL     1      -0.687  -8.246   8.919  1.00  0.00     0.336 A 
ATOM     10  O   UNL     1      -1.739  -8.009   9.567  1.00  0.00    -0.246 OA
ATOM     11  O   UNL     1      -0.741  -8.350   7.593  1.00  0.00    -0.423 OA
ENDROOT
TORSDOF 0
ENDMDL
MODEL 6
REMARK VINA RESULT:    -5.136     15.232     16.666
REMARK INTER + INTRA:          -5.136
REMARK INTER:                  -5.136
REMARK INTRA:                   0.000
REMARK UNBOUND:                 0.000
REMARK SMILES O=c1ccc2ccccc2o1
REMARK SMILES IDX 7 1 8 2 9 3 10 4 5 5 6 6 4 7 3 8 2 9 1 10 11 11
REMARK H PARENT
REMARK Flexibility Score: inf
ROOT
ATOM      1  C   UNL     1      -6.052   2.335  -5.643  1.00  0.00     0.001 A 
ATOM      2  C   UNL     1      -6.609   1.784  -4.484  1.00  0.00     0.004 A 
ATOM      3  C   UNL     1      -6.070   0.619  -3.928  1.00  0.00     0.048 A 
ATOM      4  C   UNL     1      -4.969  -0.000  -4.531  1.00  0.00     0.138 A 
ATOM      5  C   UNL     1      -4.406   0.556  -5.701  1.00  0.00     0.018 A 
ATOM      6  C   UNL     1      -4.951   1.724  -6.254  1.00  0.00     0.012 A 
ATOM      7  C   UNL     1      -3.307  -0.085  -6.281  1.00  0.00     0.019 A 
ATOM      8  C   UNL     1      -2.802  -1.244  -5.693  1.00  0.00     0.094 A 
ATOM      9  C   UNL     1      -3.410  -1.737  -4.534  1.00  0.00     0.336 A 
ATOM     10  O   UNL     1      -2.969  -2.782  -3.987  1.00  0.00    -0.246 OA
ATOM     11  O   UNL     1      -4.456  -1.108  -4.002  1.00  0.00    -0.423 OA
ENDROOT
TORSDOF 0
ENDMDL
MODEL 7
REMARK VINA RESULT:    -5.134      1.764      2.739
REMARK INTER + INTRA:          -5.134
REMARK INTER:                  -5.134
REMARK INTRA:                   0.000
REMARK UNBOUND:                 0.000
REMARK SMILES O=c1ccc2ccccc2o1
REMARK SMILES IDX 7 1 8 2 9 3 10 4 5 5 6 6 4 7 3 8 2 9 1 10 11 11
REMARK H PARENT
REMARK Flexibility Score: inf
ROOT
ATOM      1  C   UNL     1       1.186  -8.937   4.877  1.00  0.00     0.001 A 
ATOM      2  C   UNL     1       2.491  -9.125   5.345  1.00  0.00     0.004 A 
ATOM      3  C   UNL     1       2.769  -9.036   6.712  1.00  0.00     0.048 A 
ATOM      4  C   UNL     1       1.740  -8.756   7.619  1.00  0.00     0.138 A 
ATOM      5  C   UNL     1       0.422  -8.565   7.147  1.00  0.00     0.018 A 
ATOM      6  C   UNL     1       0.151  -8.656   5.775  1.00  0.00     0.012 A 
ATOM      7  C   UNL     1      -0.584  -8.287   8.077  1.00  0.00     0.019 A 
ATOM      8  C   UNL     1      -0.262  -8.207   9.431  1.00  0.00     0.094 A 
ATOM      9  C   UNL     1       1.065  -8.407   9.826  1.00  0.00     0.336 A 
ATOM     10  O   UNL     1       1.376  -8.339  11.044  1.00  0.00    -0.246 OA
ATOM     11  O   UNL     1       2.004  -8.671   8.921  1.00  0.00    -0.423 OA
ENDROOT
TORSDOF 0
ENDMDL
MODEL 8
REMARK VINA RESULT:    -5.006     14.705     15.617
REMARK INTER + INTRA:          -5.006
REMARK INTER:                  -5.006
REMARK INTRA:                   0.000
REMARK UNBOUND:                 0.000
REMARK SMILES O=c1ccc2ccccc2o1
REMARK SMILES IDX 7 1 8 2 9 3 10 4 5 5 6 6 4 7 3 8 2 9 1 10 11 11
REMARK H PARENT
REMARK Flexibility Score: inf
ROOT
ATOM      1  C   UNL     1      -3.454  -3.576  -4.869  1.00  0.00     0.001 A 
ATOM      2  C   UNL     1      -2.505  -2.665  -5.345  1.00  0.00     0.004 A 
ATOM      3  C   UNL     1      -2.784  -1.295  -5.350  1.00  0.00     0.048 A 
ATOM      4  C   UNL     1      -4.017  -0.830  -4.879  1.00  0.00     0.138 A 
ATOM      5  C   UNL     1      -4.976  -1.749  -4.398  1.00  0.00     0.018 A 
ATOM      6  C   UNL     1      -4.690  -3.122  -4.396  1.00  0.00     0.012 A 
ATOM      7  C   UNL     1      -6.199  -1.255  -3.934  1.00  0.00     0.019 A 
ATOM      8  C   UNL     1      -6.435   0.119  -3.957  1.00  0.00     0.094 A 
ATOM      9  C   UNL     1      -5.438   0.971  -4.447  1.00  0.00     0.336 A 
ATOM     10  O   UNL     1      -5.632   2.214  -4.477  1.00  0.00    -0.246 OA
ATOM     11  O   UNL     1      -4.283   0.474  -4.883  1.00  0.00    -0.423 OA
ENDROOT
TORSDOF 0
ENDMDL
MODEL 9
REMARK VINA RESULT:    -4.812     15.455     17.059
REMARK INTER + INTRA:          -4.812
REMARK INTER:                  -4.812
REMARK INTRA:                   0.000
REMARK UNBOUND:                 0.000
REMARK SMILES O=c1ccc2ccccc2o1
REMARK SMILES IDX 7 1 8 2 9 3 10 4 5 5 6 6 4 7 3 8 2 9 1 10 11 11
REMARK H PARENT
REMARK Flexibility Score: inf
ROOT
ATOM      1  C   UNL     1      -8.196   2.016  -4.501  1.00  0.00     0.001 A 
ATOM      2  C   UNL     1      -7.105   2.814  -4.862  1.00  0.00     0.004 A 
ATOM      3  C   UNL     1      -5.822   2.264  -4.933  1.00  0.00     0.048 A 
ATOM      4  C   UNL     1      -5.624   0.909  -4.641  1.00  0.00     0.138 A 
ATOM      5  C   UNL     1      -6.724   0.103  -4.276  1.00  0.00     0.018 A 
ATOM      6  C   UNL     1      -8.009   0.661  -4.207  1.00  0.00     0.012 A 
ATOM      7  C   UNL     1      -6.496  -1.246  -3.990  1.00  0.00     0.019 A 
ATOM      8  C   UNL     1      -5.200  -1.753  -4.073  1.00  0.00     0.094 A 
ATOM      9  C   UNL     1      -4.157  -0.896  -4.441  1.00  0.00     0.336 A 
ATOM     10  O   UNL     1      -2.981  -1.334  -4.522  1.00  0.00    -0.246 OA
ATOM     11  O   UNL     1      -4.403   0.385  -4.708  1.00  0.00    -0.423 OA
ENDROOT
TORSDOF 0
ENDMDL
