MODEL 1
REMARK VINA RESULT:    -5.221      0.000      0.000
REMARK INTER + INTRA:          -5.221
REMARK INTER:                  -5.221
REMARK INTRA:                   0.000
REMARK UNBOUND:                 0.000
REMARK SMILES CC1=CC[C@@]23C[C@@H]1C(C)(C)[C@@H]2CC[C@@H]3C
REMARK SMILES IDX 15 1 14 2 13 3 12 4 11 5 5 6 4 7 3 8 2 9 7 10 6 11 8 12 9 13
REMARK SMILES IDX 10 14 1 15
REMARK H PARENT
REMARK Flexibility Score: inf
ROOT
ATOM      1  C   UNL     1     134.315 139.854 136.656  1.00  0.00     0.008 C 
ATOM      2  C   UNL     1     134.905 138.646 135.910  1.00  0.00    -0.007 C 
ATOM      3  C   UNL     1     135.421 137.569 136.875  1.00  0.00     0.004 C 
ATOM      4  C   UNL     1     134.493 136.378 136.720  1.00  0.00     0.005 C 
ATOM      5  C   UNL     1     134.013 136.429 135.262  1.00  0.00     0.002 C 
ATOM      6  C   UNL     1     133.923 137.929 134.934  1.00  0.00    -0.020 C 
ATOM      7  C   UNL     1     134.297 138.210 133.443  1.00  0.00     0.035 C 
ATOM      8  C   UNL     1     133.238 137.736 132.462  1.00  0.00    -0.027 C 
ATOM      9  C   UNL     1     132.047 137.254 132.883  1.00  0.00    -0.074 C 
ATOM     10  C   UNL     1     131.806 137.039 134.375  1.00  0.00     0.021 C 
ATOM     11  C   UNL     1     132.424 138.225 135.115  1.00  0.00     0.016 C 
ATOM     12  C   UNL     1     132.602 135.817 134.931  1.00  0.00    -0.025 C 
ATOM     13  C   UNL     1     132.745 134.662 133.906  1.00  0.00     0.012 C 
ATOM     14  C   UNL     1     131.848 135.236 136.157  1.00  0.00     0.012 C 
ATOM     15  C   UNL     1     130.989 136.891 131.877  1.00  0.00     0.039 C 
ENDROOT
TORSDOF 0
ENDMDL
MODEL 2
REMARK VINA RESULT:    -5.198      5.357      7.298
REMARK INTER + INTRA:          -5.198
REMARK INTER:                  -5.198
REMARK INTRA:                   0.000
REMARK UNBOUND:                 0.000
REMARK SMILES CC1=CC[C@@]23C[C@@H]1C(C)(C)[C@@H]2CC[C@@H]3C
REMARK SMILES IDX 15 1 14 2 13 3 12 4 11 5 5 6 4 7 3 8 2 9 7 10 6 11 8 12 9 13
REMARK SMILES IDX 10 14 1 15
REMARK H PARENT
REMARK Flexibility Score: inf
ROOT
ATOM      1  C   UNL     1     138.313 132.925 136.818  1.00  0.00     0.008 C 
ATOM      2  C   UNL     1     137.724 134.092 136.009  1.00  0.00    -0.007 C 
ATOM      3  C   UNL     1     137.206 135.218 136.916  1.00  0.00     0.004 C 
ATOM      4  C   UNL     1     138.134 136.400 136.700  1.00  0.00     0.005 C 
ATOM      5  C   UNL     1     138.616 136.272 135.247  1.00  0.00     0.002 C 
ATOM      6  C   UNL     1     138.706 134.757 134.998  1.00  0.00    -0.020 C 
ATOM      7  C   UNL     1     138.335 134.398 133.524  1.00  0.00     0.035 C 
ATOM      8  C   UNL     1     139.395 134.821 132.521  1.00  0.00    -0.027 C 
ATOM      9  C   UNL     1     140.585 135.324 132.917  1.00  0.00    -0.074 C 
ATOM     10  C   UNL     1     140.825 135.617 134.397  1.00  0.00     0.021 C 
ATOM     11  C   UNL     1     140.205 134.472 135.196  1.00  0.00     0.016 C 
ATOM     12  C   UNL     1     140.027 136.867 134.886  1.00  0.00    -0.025 C 
ATOM     13  C   UNL     1     139.886 137.966 133.802  1.00  0.00     0.012 C 
ATOM     14  C   UNL     1     140.779 137.511 136.081  1.00  0.00     0.012 C 
ATOM     15  C   UNL     1     141.644 135.635 131.895  1.00  0.00     0.039 C 
ENDROOT
TORSDOF 0
ENDMDL
MODEL 3
REMARK VINA RESULT:    -5.192      3.570      5.177
REMARK INTER + INTRA:          -5.192
REMARK INTER:                  -5.192
REMARK INTRA:                   0.000
REMARK UNBOUND:                 0.000
REMARK SMILES CC1=CC[C@@]23C[C@@H]1C(C)(C)[C@@H]2CC[C@@H]3C
REMARK SMILES IDX 15 1 14 2 13 3 12 4 11 5 5 6 4 7 3 8 2 9 7 10 6 11 8 12 9 13
REMARK SMILES IDX 10 14 1 15
REMARK H PARENT
REMARK Flexibility Score: inf
ROOT
ATOM      1  C   UNL     1     132.889 134.285 136.830  1.00  0.00     0.008 C 
ATOM      2  C   UNL     1     134.061 134.889 136.040  1.00  0.00    -0.007 C 
ATOM      3  C   UNL     1     135.174 135.405 136.964  1.00  0.00     0.004 C 
ATOM      4  C   UNL     1     136.364 134.486 136.752  1.00  0.00     0.005 C 
ATOM      5  C   UNL     1     136.256 134.017 135.294  1.00  0.00     0.002 C 
ATOM      6  C   UNL     1     134.744 133.920 135.027  1.00  0.00    -0.020 C 
ATOM      7  C   UNL     1     134.399 134.304 133.552  1.00  0.00     0.035 C 
ATOM      8  C   UNL     1     134.839 133.256 132.543  1.00  0.00    -0.027 C 
ATOM      9  C   UNL     1     135.346 132.065 132.934  1.00  0.00    -0.074 C 
ATOM     10  C   UNL     1     135.624 131.813 134.414  1.00  0.00     0.021 C 
ATOM     11  C   UNL     1     134.466 132.418 135.207  1.00  0.00     0.016 C 
ATOM     12  C   UNL     1     136.863 132.614 134.926  1.00  0.00    -0.025 C 
ATOM     13  C   UNL     1     137.973 132.772 133.855  1.00  0.00     0.012 C 
ATOM     14  C   UNL     1     137.498 131.854 136.121  1.00  0.00     0.012 C 
ATOM     15  C   UNL     1     135.674 131.018 131.906  1.00  0.00     0.039 C 
ENDROOT
TORSDOF 0
ENDMDL
MODEL 4
REMARK VINA RESULT:    -5.160      3.551      5.211
REMARK INTER + INTRA:          -5.160
REMARK INTER:                  -5.160
REMARK INTRA:                   0.000
REMARK UNBOUND:                 0.000
REMARK SMILES CC1=CC[C@@]23C[C@@H]1C(C)(C)[C@@H]2CC[C@@H]3C
REMARK SMILES IDX 15 1 14 2 13 3 12 4 11 5 5 6 4 7 3 8 2 9 7 10 6 11 8 12 9 13
REMARK SMILES IDX 10 14 1 15
REMARK H PARENT
REMARK Flexibility Score: inf
ROOT
ATOM      1  C   UNL     1     140.034 138.289 136.413  1.00  0.00     0.008 C 
ATOM      2  C   UNL     1     138.824 137.691 135.678  1.00  0.00    -0.007 C 
ATOM      3  C   UNL     1     137.794 137.097 136.650  1.00  0.00     0.004 C 
ATOM      4  C   UNL     1     136.569 137.990 136.571  1.00  0.00     0.005 C 
ATOM      5  C   UNL     1     136.560 138.534 135.135  1.00  0.00     0.002 C 
ATOM      6  C   UNL     1     138.046 138.689 134.767  1.00  0.00    -0.020 C 
ATOM      7  C   UNL     1     138.293 138.391 133.254  1.00  0.00     0.035 C 
ATOM      8  C   UNL     1     137.755 139.474 132.335  1.00  0.00    -0.027 C 
ATOM      9  C   UNL     1     137.247 140.628 132.822  1.00  0.00    -0.074 C 
ATOM     10  C   UNL     1     137.070 140.797 134.329  1.00  0.00     0.021 C 
ATOM     11  C   UNL     1     138.297 140.188 135.006  1.00  0.00     0.016 C 
ATOM     12  C   UNL     1     135.892 139.936 134.885  1.00  0.00    -0.025 C 
ATOM     13  C   UNL     1     134.712 139.799 133.888  1.00  0.00     0.012 C 
ATOM     14  C   UNL     1     135.325 140.616 136.159  1.00  0.00     0.012 C 
ATOM     15  C   UNL     1     136.819 141.715 131.875  1.00  0.00     0.039 C 
ENDROOT
TORSDOF 0
ENDMDL
MODEL 5
REMARK VINA RESULT:    -5.082      1.676      4.188
REMARK INTER + INTRA:          -5.082
REMARK INTER:                  -5.082
REMARK INTRA:                   0.000
REMARK UNBOUND:                 0.000
REMARK SMILES CC1=CC[C@@]23C[C@@H]1C(C)(C)[C@@H]2CC[C@@H]3C
REMARK SMILES IDX 15 1 14 2 13 3 12 4 11 5 5 6 4 7 3 8 2 9 7 10 6 11 8 12 9 13
REMARK SMILES IDX 10 14 1 15
REMARK H PARENT
REMARK Flexibility Score: inf
ROOT
ATOM      1  C   UNL     1     133.245 134.862 133.970  1.00  0.00     0.008 C 
ATOM      2  C   UNL     1     132.412 135.570 135.051  1.00  0.00    -0.007 C 
ATOM      3  C   UNL     1     132.117 134.651 136.245  1.00  0.00     0.004 C 
ATOM      4  C   UNL     1     132.903 135.208 137.417  1.00  0.00     0.005 C 
ATOM      5  C   UNL     1     132.976 136.722 137.169  1.00  0.00     0.002 C 
ATOM      6  C   UNL     1     133.055 136.863 135.639  1.00  0.00    -0.020 C 
ATOM      7  C   UNL     1     132.311 138.144 135.145  1.00  0.00     0.035 C 
ATOM      8  C   UNL     1     133.040 139.431 135.493  1.00  0.00    -0.027 C 
ATOM      9  C   UNL     1     134.273 139.419 136.049  1.00  0.00    -0.074 C 
ATOM     10  C   UNL     1     134.894 138.091 136.476  1.00  0.00     0.021 C 
ATOM     11  C   UNL     1     134.562 137.062 135.397  1.00  0.00     0.016 C 
ATOM     12  C   UNL     1     134.211 137.503 137.751  1.00  0.00    -0.025 C 
ATOM     13  C   UNL     1     133.736 138.593 138.747  1.00  0.00     0.012 C 
ATOM     14  C   UNL     1     135.234 136.618 138.511  1.00  0.00     0.012 C 
ATOM     15  C   UNL     1     135.000 140.714 136.284  1.00  0.00     0.039 C 
ENDROOT
TORSDOF 0
ENDMDL
MODEL 6
REMARK VINA RESULT:    -5.078      3.457      5.348
REMARK INTER + INTRA:          -5.078
REMARK INTER:                  -5.078
REMARK INTRA:                   0.000
REMARK UNBOUND:                 0.000
REMARK SMILES CC1=CC[C@@]23C[C@@H]1C(C)(C)[C@@H]2CC[C@@H]3C
REMARK SMILES IDX 15 1 14 2 13 3 12 4 11 5 5 6 4 7 3 8 2 9 7 10 6 11 8 12 9 13
REMARK SMILES IDX 10 14 1 15
REMARK H PARENT
REMARK Flexibility Score: inf
ROOT
ATOM      1  C   UNL     1     137.729 133.207 133.934  1.00  0.00     0.008 C 
ATOM      2  C   UNL     1     137.022 132.393 135.030  1.00  0.00    -0.007 C 
ATOM      3  C   UNL     1     137.948 132.101 136.219  1.00  0.00     0.004 C 
ATOM      4  C   UNL     1     137.408 132.906 137.388  1.00  0.00     0.005 C 
ATOM      5  C   UNL     1     135.893 132.991 137.151  1.00  0.00     0.002 C 
ATOM      6  C   UNL     1     135.740 133.055 135.621  1.00  0.00    -0.020 C 
ATOM      7  C   UNL     1     134.448 132.318 135.146  1.00  0.00     0.035 C 
ATOM      8  C   UNL     1     133.171 133.063 135.497  1.00  0.00    -0.027 C 
ATOM      9  C   UNL     1     133.200 134.302 136.039  1.00  0.00    -0.074 C 
ATOM     10  C   UNL     1     134.538 134.915 136.448  1.00  0.00     0.021 C 
ATOM     11  C   UNL     1     135.554 134.560 135.364  1.00  0.00     0.016 C 
ATOM     12  C   UNL     1     135.129 134.240 137.726  1.00  0.00    -0.025 C 
ATOM     13  C   UNL     1     134.043 133.787 138.736  1.00  0.00     0.012 C 
ATOM     14  C   UNL     1     136.031 135.262 138.467  1.00  0.00     0.012 C 
ATOM     15  C   UNL     1     131.914 135.045 136.277  1.00  0.00     0.039 C 
ENDROOT
TORSDOF 0
ENDMDL
MODEL 7
REMARK VINA RESULT:    -5.048      5.487      6.804
REMARK INTER + INTRA:          -5.048
REMARK INTER:                  -5.048
REMARK INTRA:                   0.000
REMARK UNBOUND:                 0.000
REMARK SMILES CC1=CC[C@@]23C[C@@H]1C(C)(C)[C@@H]2CC[C@@H]3C
REMARK SMILES IDX 15 1 14 2 13 3 12 4 11 5 5 6 4 7 3 8 2 9 7 10 6 11 8 12 9 13
REMARK SMILES IDX 10 14 1 15
REMARK H PARENT
REMARK Flexibility Score: inf
ROOT
ATOM      1  C   UNL     1     139.318 137.767 133.899  1.00  0.00     0.008 C 
ATOM      2  C   UNL     1     140.166 137.076 134.978  1.00  0.00    -0.007 C 
ATOM      3  C   UNL     1     140.466 138.008 136.161  1.00  0.00     0.004 C 
ATOM      4  C   UNL     1     139.694 137.455 137.346  1.00  0.00     0.005 C 
ATOM      5  C   UNL     1     139.631 135.939 137.112  1.00  0.00     0.002 C 
ATOM      6  C   UNL     1     139.539 135.783 135.584  1.00  0.00    -0.020 C 
ATOM      7  C   UNL     1     140.288 134.503 135.095  1.00  0.00     0.035 C 
ATOM      8  C   UNL     1     139.573 133.214 135.462  1.00  0.00    -0.027 C 
ATOM      9  C   UNL     1     138.346 133.222 136.028  1.00  0.00    -0.074 C 
ATOM     10  C   UNL     1     137.718 134.549 136.449  1.00  0.00     0.021 C 
ATOM     11  C   UNL     1     138.032 135.571 135.357  1.00  0.00     0.016 C 
ATOM     12  C   UNL     1     138.408 135.153 137.713  1.00  0.00    -0.025 C 
ATOM     13  C   UNL     1     138.900 134.076 138.714  1.00  0.00     0.012 C 
ATOM     14  C   UNL     1     137.385 136.038 138.474  1.00  0.00     0.012 C 
ATOM     15  C   UNL     1     137.630 131.924 136.282  1.00  0.00     0.039 C 
ENDROOT
TORSDOF 0
ENDMDL
MODEL 8
REMARK VINA RESULT:    -5.021      5.102      6.347
REMARK INTER + INTRA:          -5.021
REMARK INTER:                  -5.021
REMARK INTRA:                   0.000
REMARK UNBOUND:                 0.000
REMARK SMILES CC1=CC[C@@]23C[C@@H]1C(C)(C)[C@@H]2CC[C@@H]3C
REMARK SMILES IDX 15 1 14 2 13 3 12 4 11 5 5 6 4 7 3 8 2 9 7 10 6 11 8 12 9 13
REMARK SMILES IDX 10 14 1 15
REMARK H PARENT
REMARK Flexibility Score: inf
ROOT
ATOM      1  C   UNL     1     139.059 136.597 132.643  1.00  0.00     0.008 C 
ATOM      2  C   UNL     1     139.577 135.186 132.967  1.00  0.00    -0.007 C 
ATOM      3  C   UNL     1     140.739 135.214 133.970  1.00  0.00     0.004 C 
ATOM      4  C   UNL     1     140.209 134.600 135.253  1.00  0.00     0.005 C 
ATOM      5  C   UNL     1     139.149 133.583 134.805  1.00  0.00     0.002 C 
ATOM      6  C   UNL     1     138.511 134.211 133.554  1.00  0.00    -0.020 C 
ATOM      7  C   UNL     1     138.103 133.119 132.513  1.00  0.00     0.035 C 
ATOM      8  C   UNL     1     136.903 132.297 132.948  1.00  0.00    -0.027 C 
ATOM      9  C   UNL     1     136.200 132.603 134.062  1.00  0.00    -0.074 C 
ATOM     10  C   UNL     1     136.704 133.706 134.991  1.00  0.00     0.021 C 
ATOM     11  C   UNL     1     137.224 134.842 134.113  1.00  0.00     0.016 C 
ATOM     12  C   UNL     1     137.968 133.268 135.795  1.00  0.00    -0.025 C 
ATOM     13  C   UNL     1     137.966 131.763 136.167  1.00  0.00     0.012 C 
ATOM     14  C   UNL     1     138.018 134.059 137.130  1.00  0.00     0.012 C 
ATOM     15  C   UNL     1     134.959 131.826 134.402  1.00  0.00     0.039 C 
ENDROOT
TORSDOF 0
ENDMDL
MODEL 9
REMARK VINA RESULT:    -4.962      4.548      6.683
REMARK INTER + INTRA:          -4.962
REMARK INTER:                  -4.962
REMARK INTRA:                   0.000
REMARK UNBOUND:                 0.000
REMARK SMILES CC1=CC[C@@]23C[C@@H]1C(C)(C)[C@@H]2CC[C@@H]3C
REMARK SMILES IDX 15 1 14 2 13 3 12 4 11 5 5 6 4 7 3 8 2 9 7 10 6 11 8 12 9 13
REMARK SMILES IDX 10 14 1 15
REMARK H PARENT
REMARK Flexibility Score: inf
ROOT
ATOM      1  C   UNL     1     136.136 139.017 132.591  1.00  0.00     0.008 C 
ATOM      2  C   UNL     1     137.543 139.521 132.951  1.00  0.00    -0.007 C 
ATOM      3  C   UNL     1     137.500 140.686 133.951  1.00  0.00     0.004 C 
ATOM      4  C   UNL     1     138.074 140.154 135.251  1.00  0.00     0.005 C 
ATOM      5  C   UNL     1     139.092 139.083 134.832  1.00  0.00     0.002 C 
ATOM      6  C   UNL     1     138.492 138.448 133.566  1.00  0.00    -0.020 C 
ATOM      7  C   UNL     1     139.607 138.027 132.556  1.00  0.00     0.035 C 
ATOM      8  C   UNL     1     140.406 136.820 133.015  1.00  0.00    -0.027 C 
ATOM      9  C   UNL     1     140.064 136.123 134.122  1.00  0.00    -0.074 C 
ATOM     10  C   UNL     1     138.941 136.639 135.021  1.00  0.00     0.021 C 
ATOM     11  C   UNL     1     137.834 137.169 134.111  1.00  0.00     0.016 C 
ATOM     12  C   UNL     1     139.369 137.902 135.833  1.00  0.00    -0.025 C 
ATOM     13  C   UNL     1     140.864 137.886 136.245  1.00  0.00     0.012 C 
ATOM     14  C   UNL     1     138.544 137.962 137.146  1.00  0.00     0.012 C 
ATOM     15  C   UNL     1     140.820 134.875 134.485  1.00  0.00     0.039 C 
ENDROOT
TORSDOF 0
ENDMDL
