MODEL 1
REMARK VINA RESULT:    -5.645      0.000      0.000
REMARK INTER + INTRA:          -5.645
REMARK INTER:                  -5.645
REMARK INTRA:                   0.000
REMARK UNBOUND:                 0.000
REMARK SMILES C=C1CCC[C@]2(C)CC(=O)C(=C(C)C)C[C@@H]12
REMARK SMILES IDX 13 1 12 2 11 3 15 4 16 5 2 6 1 7 3 8 4 9 5 10 6 11 8 12 9 13
REMARK SMILES IDX 10 14 7 15 14 16
REMARK H PARENT
REMARK Flexibility Score: inf
ROOT
ATOM      1  C   UNL     1      -4.300  37.156   0.118  1.00  0.00     0.039 C 
ATOM      2  C   UNL     1      -5.319  37.123  -0.998  1.00  0.00    -0.070 C 
ATOM      3  C   UNL     1      -6.622  36.778  -0.774  1.00  0.00    -0.006 C 
ATOM      4  C   UNL     1      -7.647  36.809  -1.900  1.00  0.00     0.047 C 
ATOM      5  C   UNL     1      -9.095  37.072  -1.411  1.00  0.00     0.025 C 
ATOM      6  C   UNL     1     -10.165  36.995  -2.506  1.00  0.00    -0.073 C 
ATOM      7  C   UNL     1      -9.886  36.875  -3.817  1.00  0.00     0.008 C 
ATOM      8  C   UNL     1     -11.615  37.083  -2.091  1.00  0.00     0.031 C 
ATOM      9  C   UNL     1     -11.755  37.451  -0.613  1.00  0.00     0.005 C 
ATOM     10  C   UNL     1     -10.964  36.495   0.296  1.00  0.00     0.008 C 
ATOM     11  C   UNL     1      -9.507  36.162  -0.204  1.00  0.00    -0.018 C 
ATOM     12  C   UNL     1      -8.514  36.416   0.957  1.00  0.00     0.088 C 
ATOM     13  C   UNL     1      -7.087  36.235   0.534  1.00  0.00     0.159 C 
ATOM     14  O   UNL     1      -6.306  35.603   1.296  1.00  0.00    -0.295 OA
ATOM     15  C   UNL     1      -9.456  34.660  -0.600  1.00  0.00     0.012 C 
ATOM     16  C   UNL     1      -4.840  37.528  -2.374  1.00  0.00     0.039 C 
ENDROOT
TORSDOF 0
ENDMDL
MODEL 2
REMARK VINA RESULT:    -5.521      1.432      2.356
REMARK INTER + INTRA:          -5.521
REMARK INTER:                  -5.521
REMARK INTRA:                   0.000
REMARK UNBOUND:                 0.000
REMARK SMILES C=C1CCC[C@]2(C)CC(=O)C(=C(C)C)C[C@@H]12
REMARK SMILES IDX 13 1 12 2 11 3 15 4 16 5 2 6 1 7 3 8 4 9 5 10 6 11 8 12 9 13
REMARK SMILES IDX 10 14 7 15 14 16
REMARK H PARENT
REMARK Flexibility Score: inf
ROOT
ATOM      1  C   UNL     1      -5.367  36.918  -2.731  1.00  0.00     0.039 C 
ATOM      2  C   UNL     1      -6.855  37.176  -2.666  1.00  0.00    -0.070 C 
ATOM      3  C   UNL     1      -7.599  36.836  -1.572  1.00  0.00    -0.006 C 
ATOM      4  C   UNL     1      -9.086  37.159  -1.502  1.00  0.00     0.047 C 
ATOM      5  C   UNL     1      -9.608  37.356  -0.054  1.00  0.00     0.025 C 
ATOM      6  C   UNL     1     -11.122  37.568   0.057  1.00  0.00    -0.073 C 
ATOM      7  C   UNL     1     -11.933  37.739  -1.004  1.00  0.00     0.008 C 
ATOM      8  C   UNL     1     -11.735  37.612   1.437  1.00  0.00     0.031 C 
ATOM      9  C   UNL     1     -10.662  37.639   2.527  1.00  0.00     0.005 C 
ATOM     10  C   UNL     1      -9.669  36.473   2.387  1.00  0.00     0.008 C 
ATOM     11  C   UNL     1      -9.162  36.211   0.917  1.00  0.00    -0.018 C 
ATOM     12  C   UNL     1      -7.614  36.158   0.928  1.00  0.00     0.088 C 
ATOM     13  C   UNL     1      -7.041  36.027  -0.451  1.00  0.00     0.159 C 
ATOM     14  O   UNL     1      -6.098  35.211  -0.638  1.00  0.00    -0.295 OA
ATOM     15  C   UNL     1      -9.717  34.838   0.446  1.00  0.00     0.012 C 
ATOM     16  C   UNL     1      -7.483  37.865  -3.857  1.00  0.00     0.039 C 
ENDROOT
TORSDOF 0
ENDMDL
MODEL 3
REMARK VINA RESULT:    -5.517      1.764      3.671
REMARK INTER + INTRA:          -5.517
REMARK INTER:                  -5.517
REMARK INTRA:                   0.000
REMARK UNBOUND:                 0.000
REMARK SMILES C=C1CCC[C@]2(C)CC(=O)C(=C(C)C)C[C@@H]12
REMARK SMILES IDX 13 1 12 2 11 3 15 4 16 5 2 6 1 7 3 8 4 9 5 10 6 11 8 12 9 13
REMARK SMILES IDX 10 14 7 15 14 16
REMARK H PARENT
REMARK Flexibility Score: inf
ROOT
ATOM      1  C   UNL     1      -6.309  35.674   0.316  1.00  0.00     0.039 C 
ATOM      2  C   UNL     1      -7.768  36.014   0.116  1.00  0.00    -0.070 C 
ATOM      3  C   UNL     1      -8.215  36.636  -1.015  1.00  0.00    -0.006 C 
ATOM      4  C   UNL     1      -9.697  36.916  -1.225  1.00  0.00     0.047 C 
ATOM      5  C   UNL     1     -10.113  36.963  -2.718  1.00  0.00     0.025 C 
ATOM      6  C   UNL     1     -11.574  37.357  -2.964  1.00  0.00    -0.073 C 
ATOM      7  C   UNL     1     -12.487  37.495  -1.984  1.00  0.00     0.008 C 
ATOM      8  C   UNL     1     -12.020  37.579  -4.390  1.00  0.00     0.031 C 
ATOM      9  C   UNL     1     -10.940  37.157  -5.389  1.00  0.00     0.005 C 
ATOM     10  C   UNL     1      -9.594  37.843  -5.105  1.00  0.00     0.008 C 
ATOM     11  C   UNL     1      -9.170  37.863  -3.587  1.00  0.00    -0.018 C 
ATOM     12  C   UNL     1      -7.727  37.311  -3.468  1.00  0.00     0.088 C 
ATOM     13  C   UNL     1      -7.283  37.185  -2.041  1.00  0.00     0.159 C 
ATOM     14  O   UNL     1      -6.122  37.567  -1.734  1.00  0.00    -0.295 OA
ATOM     15  C   UNL     1      -9.196  39.335  -3.090  1.00  0.00     0.012 C 
ATOM     16  C   UNL     1      -8.724  35.601   1.213  1.00  0.00     0.039 C 
ENDROOT
TORSDOF 0
ENDMDL
MODEL 4
REMARK VINA RESULT:    -5.516     10.204     11.760
REMARK INTER + INTRA:          -5.516
REMARK INTER:                  -5.516
REMARK INTRA:                   0.000
REMARK UNBOUND:                 0.000
REMARK SMILES C=C1CCC[C@]2(C)CC(=O)C(=C(C)C)C[C@@H]12
REMARK SMILES IDX 13 1 12 2 11 3 15 4 16 5 2 6 1 7 3 8 4 9 5 10 6 11 8 12 9 13
REMARK SMILES IDX 10 14 7 15 14 16
REMARK H PARENT
REMARK Flexibility Score: inf
ROOT
ATOM      1  C   UNL     1     -12.904  37.055   8.816  1.00  0.00     0.039 C 
ATOM      2  C   UNL     1     -14.354  37.434   8.621  1.00  0.00    -0.070 C 
ATOM      3  C   UNL     1     -15.178  36.728   7.791  1.00  0.00    -0.006 C 
ATOM      4  C   UNL     1     -16.651  37.089   7.653  1.00  0.00     0.047 C 
ATOM      5  C   UNL     1     -17.552  35.884   7.278  1.00  0.00     0.025 C 
ATOM      6  C   UNL     1     -19.020  36.237   7.019  1.00  0.00    -0.073 C 
ATOM      7  C   UNL     1     -19.549  37.453   7.251  1.00  0.00     0.008 C 
ATOM      8  C   UNL     1     -19.933  35.151   6.498  1.00  0.00     0.031 C 
ATOM      9  C   UNL     1     -19.244  33.785   6.513  1.00  0.00     0.005 C 
ATOM     10  C   UNL     1     -17.904  33.807   5.760  1.00  0.00     0.008 C 
ATOM     11  C   UNL     1     -16.989  35.052   6.076  1.00  0.00    -0.018 C 
ATOM     12  C   UNL     1     -15.576  34.544   6.457  1.00  0.00     0.088 C 
ATOM     13  C   UNL     1     -14.669  35.658   6.887  1.00  0.00     0.159 C 
ATOM     14  O   UNL     1     -13.485  35.674   6.454  1.00  0.00    -0.295 OA
ATOM     15  C   UNL     1     -16.890  35.925   4.795  1.00  0.00     0.012 C 
ATOM     16  C   UNL     1     -14.866  38.614   9.415  1.00  0.00     0.039 C 
ENDROOT
TORSDOF 0
ENDMDL
MODEL 5
REMARK VINA RESULT:    -5.497      8.579     11.057
REMARK INTER + INTRA:          -5.497
REMARK INTER:                  -5.497
REMARK INTRA:                   0.000
REMARK UNBOUND:                 0.000
REMARK SMILES C=C1CCC[C@]2(C)CC(=O)C(=C(C)C)C[C@@H]12
REMARK SMILES IDX 13 1 12 2 11 3 15 4 16 5 2 6 1 7 3 8 4 9 5 10 6 11 8 12 9 13
REMARK SMILES IDX 10 14 7 15 14 16
REMARK H PARENT
REMARK Flexibility Score: inf
ROOT
ATOM      1  C   UNL     1     -12.804  36.389   4.489  1.00  0.00     0.039 C 
ATOM      2  C   UNL     1     -13.650  35.430   5.297  1.00  0.00    -0.070 C 
ATOM      3  C   UNL     1     -14.998  35.602   5.439  1.00  0.00    -0.006 C 
ATOM      4  C   UNL     1     -15.842  34.593   6.206  1.00  0.00     0.047 C 
ATOM      5  C   UNL     1     -17.314  34.525   5.725  1.00  0.00     0.025 C 
ATOM      6  C   UNL     1     -18.217  33.604   6.552  1.00  0.00    -0.073 C 
ATOM      7  C   UNL     1     -17.764  32.783   7.518  1.00  0.00     0.008 C 
ATOM      8  C   UNL     1     -19.697  33.598   6.250  1.00  0.00     0.031 C 
ATOM      9  C   UNL     1     -20.015  34.398   4.984  1.00  0.00     0.005 C 
ATOM     10  C   UNL     1     -19.457  35.829   5.052  1.00  0.00     0.008 C 
ATOM     11  C   UNL     1     -17.980  35.937   5.593  1.00  0.00    -0.018 C 
ATOM     12  C   UNL     1     -17.146  36.776   4.592  1.00  0.00     0.088 C 
ATOM     13  C   UNL     1     -15.696  36.833   4.970  1.00  0.00     0.159 C 
ATOM     14  O   UNL     1     -15.096  37.940   4.897  1.00  0.00    -0.295 OA
ATOM     15  C   UNL     1     -18.013  36.665   6.965  1.00  0.00     0.012 C 
ATOM     16  C   UNL     1     -12.942  34.246   5.914  1.00  0.00     0.039 C 
ENDROOT
TORSDOF 0
ENDMDL
MODEL 6
REMARK VINA RESULT:    -5.473      2.726      4.736
REMARK INTER + INTRA:          -5.473
REMARK INTER:                  -5.473
REMARK INTRA:                   0.000
REMARK UNBOUND:                 0.000
REMARK SMILES C=C1CCC[C@]2(C)CC(=O)C(=C(C)C)C[C@@H]12
REMARK SMILES IDX 13 1 12 2 11 3 15 4 16 5 2 6 1 7 3 8 4 9 5 10 6 11 8 12 9 13
REMARK SMILES IDX 10 14 7 15 14 16
REMARK H PARENT
REMARK Flexibility Score: inf
ROOT
ATOM      1  C   UNL     1      -6.226  33.990   5.486  1.00  0.00     0.039 C 
ATOM      2  C   UNL     1      -7.501  34.497   4.850  1.00  0.00    -0.070 C 
ATOM      3  C   UNL     1      -7.490  35.221   3.692  1.00  0.00    -0.006 C 
ATOM      4  C   UNL     1      -8.787  35.671   3.035  1.00  0.00     0.047 C 
ATOM      5  C   UNL     1      -8.676  35.841   1.497  1.00  0.00     0.025 C 
ATOM      6  C   UNL     1      -9.932  36.404   0.822  1.00  0.00    -0.073 C 
ATOM      7  C   UNL     1     -11.104  36.589   1.458  1.00  0.00     0.008 C 
ATOM      8  C   UNL     1      -9.857  36.746  -0.648  1.00  0.00     0.031 C 
ATOM      9  C   UNL     1      -8.546  36.262  -1.271  1.00  0.00     0.005 C 
ATOM     10  C   UNL     1      -7.318  36.782  -0.506  1.00  0.00     0.008 C 
ATOM     11  C   UNL     1      -7.424  36.677   1.064  1.00  0.00    -0.018 C 
ATOM     12  C   UNL     1      -6.156  35.966   1.599  1.00  0.00     0.088 C 
ATOM     13  C   UNL     1      -6.226  35.718   3.077  1.00  0.00     0.159 C 
ATOM     14  O   UNL     1      -5.205  35.956   3.778  1.00  0.00    -0.295 OA
ATOM     15  C   UNL     1      -7.488  38.115   1.648  1.00  0.00     0.012 C 
ATOM     16  C   UNL     1      -8.798  34.134   5.535  1.00  0.00     0.039 C 
ENDROOT
TORSDOF 0
ENDMDL
MODEL 7
REMARK VINA RESULT:    -5.459      2.183      5.032
REMARK INTER + INTRA:          -5.459
REMARK INTER:                  -5.459
REMARK INTRA:                   0.000
REMARK UNBOUND:                 0.000
REMARK SMILES C=C1CCC[C@]2(C)CC(=O)C(=C(C)C)C[C@@H]12
REMARK SMILES IDX 13 1 12 2 11 3 15 4 16 5 2 6 1 7 3 8 4 9 5 10 6 11 8 12 9 13
REMARK SMILES IDX 10 14 7 15 14 16
REMARK H PARENT
REMARK Flexibility Score: inf
ROOT
ATOM      1  C   UNL     1     -12.951  37.127  -4.216  1.00  0.00     0.039 C 
ATOM      2  C   UNL     1     -11.472  37.438  -4.240  1.00  0.00    -0.070 C 
ATOM      3  C   UNL     1     -10.690  37.303  -3.128  1.00  0.00    -0.006 C 
ATOM      4  C   UNL     1      -9.190  37.562  -3.186  1.00  0.00     0.047 C 
ATOM      5  C   UNL     1      -8.381  36.752  -2.141  1.00  0.00     0.025 C 
ATOM      6  C   UNL     1      -6.884  37.077  -2.098  1.00  0.00    -0.073 C 
ATOM      7  C   UNL     1      -6.265  37.873  -2.989  1.00  0.00     0.008 C 
ATOM      8  C   UNL     1      -6.050  36.448  -1.005  1.00  0.00     0.031 C 
ATOM      9  C   UNL     1      -6.845  35.397  -0.227  1.00  0.00     0.005 C 
ATOM     10  C   UNL     1      -8.164  35.964   0.323  1.00  0.00     0.008 C 
ATOM     11  C   UNL     1      -8.983  36.842  -0.698  1.00  0.00    -0.018 C 
ATOM     12  C   UNL     1     -10.440  36.316  -0.746  1.00  0.00     0.088 C 
ATOM     13  C   UNL     1     -11.264  37.022  -1.781  1.00  0.00     0.159 C 
ATOM     14  O   UNL     1     -12.434  37.381  -1.479  1.00  0.00    -0.295 OA
ATOM     15  C   UNL     1      -8.986  38.310  -0.189  1.00  0.00     0.012 C 
ATOM     16  C   UNL     1     -10.884  37.872  -5.563  1.00  0.00     0.039 C 
ENDROOT
TORSDOF 0
ENDMDL
MODEL 8
REMARK VINA RESULT:    -5.433      2.730      5.117
REMARK INTER + INTRA:          -5.433
REMARK INTER:                  -5.433
REMARK INTRA:                   0.000
REMARK UNBOUND:                 0.000
REMARK SMILES C=C1CCC[C@]2(C)CC(=O)C(=C(C)C)C[C@@H]12
REMARK SMILES IDX 13 1 12 2 11 3 15 4 16 5 2 6 1 7 3 8 4 9 5 10 6 11 8 12 9 13
REMARK SMILES IDX 10 14 7 15 14 16
REMARK H PARENT
REMARK Flexibility Score: inf
ROOT
ATOM      1  C   UNL     1      -3.347  34.679   4.722  1.00  0.00     0.039 C 
ATOM      2  C   UNL     1      -4.667  34.825   4.001  1.00  0.00    -0.070 C 
ATOM      3  C   UNL     1      -4.803  35.622   2.900  1.00  0.00    -0.006 C 
ATOM      4  C   UNL     1      -6.126  35.709   2.151  1.00  0.00     0.047 C 
ATOM      5  C   UNL     1      -5.964  36.047   0.646  1.00  0.00     0.025 C 
ATOM      6  C   UNL     1      -7.282  36.255  -0.109  1.00  0.00    -0.073 C 
ATOM      7  C   UNL     1      -8.495  36.011   0.421  1.00  0.00     0.008 C 
ATOM      8  C   UNL     1      -7.214  36.740  -1.539  1.00  0.00     0.031 C 
ATOM      9  C   UNL     1      -5.776  36.743  -2.063  1.00  0.00     0.005 C 
ATOM     10  C   UNL     1      -4.832  37.542  -1.150  1.00  0.00     0.008 C 
ATOM     11  C   UNL     1      -5.011  37.264   0.392  1.00  0.00    -0.018 C 
ATOM     12  C   UNL     1      -3.626  36.932   0.999  1.00  0.00     0.088 C 
ATOM     13  C   UNL     1      -3.719  36.539   2.443  1.00  0.00     0.159 C 
ATOM     14  O   UNL     1      -2.878  37.014   3.254  1.00  0.00    -0.295 OA
ATOM     15  C   UNL     1      -5.567  38.552   1.060  1.00  0.00     0.012 C 
ATOM     16  C   UNL     1      -5.830  34.019   4.532  1.00  0.00     0.039 C 
ENDROOT
TORSDOF 0
ENDMDL
MODEL 9
REMARK VINA RESULT:    -5.427      5.109      7.763
REMARK INTER + INTRA:          -5.427
REMARK INTER:                  -5.427
REMARK INTRA:                   0.000
REMARK UNBOUND:                 0.000
REMARK SMILES C=C1CCC[C@]2(C)CC(=O)C(=C(C)C)C[C@@H]12
REMARK SMILES IDX 13 1 12 2 11 3 15 4 16 5 2 6 1 7 3 8 4 9 5 10 6 11 8 12 9 13
REMARK SMILES IDX 10 14 7 15 14 16
REMARK H PARENT
REMARK Flexibility Score: inf
ROOT
ATOM      1  C   UNL     1      -5.138  38.084   1.122  1.00  0.00     0.039 C 
ATOM      2  C   UNL     1      -5.328  36.680   1.652  1.00  0.00    -0.070 C 
ATOM      3  C   UNL     1      -4.758  36.269   2.823  1.00  0.00    -0.006 C 
ATOM      4  C   UNL     1      -5.010  34.870   3.370  1.00  0.00     0.047 C 
ATOM      5  C   UNL     1      -4.907  34.782   4.915  1.00  0.00     0.025 C 
ATOM      6  C   UNL     1      -5.041  33.366   5.487  1.00  0.00    -0.073 C 
ATOM      7  C   UNL     1      -5.385  32.292   4.751  1.00  0.00     0.008 C 
ATOM      8  C   UNL     1      -4.798  33.169   6.965  1.00  0.00     0.031 C 
ATOM      9  C   UNL     1      -4.652  34.507   7.693  1.00  0.00     0.005 C 
ATOM     10  C   UNL     1      -3.571  35.395   7.055  1.00  0.00     0.008 C 
ATOM     11  C   UNL     1      -3.613  35.460   5.480  1.00  0.00    -0.018 C 
ATOM     12  C   UNL     1      -3.613  36.946   5.045  1.00  0.00     0.088 C 
ATOM     13  C   UNL     1      -3.769  37.103   3.562  1.00  0.00     0.159 C 
ATOM     14  O   UNL     1      -3.037  37.938   2.963  1.00  0.00    -0.295 OA
ATOM     15  C   UNL     1      -2.337  34.766   4.928  1.00  0.00     0.012 C 
ATOM     16  C   UNL     1      -6.211  35.757   0.843  1.00  0.00     0.039 C 
ENDROOT
TORSDOF 0
ENDMDL
