MODEL 1
REMARK VINA RESULT:    -4.986      0.000      0.000
REMARK INTER + INTRA:          -8.777
REMARK INTER:                  -7.901
REMARK INTRA:                  -0.876
REMARK UNBOUND:                -0.876
REMARK SMILES CCCCCCCCCCCC(=O)[O-]
REMARK SMILES IDX 7 1 8 2 9 3 10 4 11 5 12 6 13 7 14 8 6 9 5 10 4 11 3 12 2 13
REMARK SMILES IDX 1 14
REMARK H PARENT
REMARK Flexibility Score: inf
ROOT
ATOM      1  C   UNL     1       2.696  48.028  24.885  1.00  0.00     0.000 C 
ENDROOT
BRANCH   1   2
ATOM      2  C   UNL     1       3.703  47.674  25.987  1.00  0.00     0.000 C 
BRANCH   2   3
ATOM      3  C   UNL     1       5.138  47.672  25.439  1.00  0.00     0.000 C 
BRANCH   3   4
ATOM      4  C   UNL     1       5.646  49.084  25.096  1.00  0.00     0.006 C 
BRANCH   4   5
ATOM      5  C   UNL     1       7.140  49.149  24.739  1.00  0.00     0.053 C 
BRANCH   5   6
ATOM      6  C   UNL     1       7.976  49.596  25.898  1.00  0.00     0.041 C 
ATOM      7  O   UNL     1       8.702  50.619  25.798  1.00  0.00    -0.550 OA
ATOM      8  O   UNL     1       7.976  48.864  27.079  1.00  0.00    -0.550 OA
ENDBRANCH   5   6
ENDBRANCH   4   5
ENDBRANCH   3   4
ENDBRANCH   2   3
ENDBRANCH   1   2
BRANCH   1   9
ATOM      9  C   UNL     1       1.703  46.882  24.657  1.00  0.00     0.000 C 
BRANCH   9  10
ATOM     10  C   UNL     1       0.937  47.072  23.339  1.00  0.00    -0.000 C 
BRANCH  10  11
ATOM     11  C   UNL     1       1.659  48.018  22.365  1.00  0.00    -0.000 C 
BRANCH  11  12
ATOM     12  C   UNL     1       2.329  47.272  21.202  1.00  0.00    -0.000 C 
BRANCH  12  13
ATOM     13  C   UNL     1       3.765  46.875  21.562  1.00  0.00    -0.003 C 
ATOM     14  C   UNL     1       4.768  47.901  21.041  1.00  0.00     0.004 C 
ENDBRANCH  12  13
ENDBRANCH  11  12
ENDBRANCH  10  11
ENDBRANCH   9  10
ENDBRANCH   1   9
TORSDOF 10
ENDMDL
MODEL 2
REMARK VINA RESULT:    -4.985      4.110      6.492
REMARK INTER + INTRA:          -8.776
REMARK INTER:                  -7.594
REMARK INTRA:                  -1.182
REMARK UNBOUND:                -0.876
REMARK SMILES CCCCCCCCCCCC(=O)[O-]
REMARK SMILES IDX 7 1 8 2 9 3 10 4 11 5 12 6 13 7 14 8 6 9 5 10 4 11 3 12 2 13
REMARK SMILES IDX 1 14
REMARK H PARENT
REMARK Flexibility Score: inf
ROOT
ATOM      1  C   UNL     1       5.261  47.919  21.653  1.00  0.00     0.000 C 
ENDROOT
BRANCH   1   2
ATOM      2  C   UNL     1       3.734  47.816  21.741  1.00  0.00     0.000 C 
BRANCH   2   3
ATOM      3  C   UNL     1       3.179  48.774  22.806  1.00  0.00     0.000 C 
BRANCH   3   4
ATOM      4  C   UNL     1       1.641  48.807  22.835  1.00  0.00     0.006 C 
BRANCH   4   5
ATOM      5  C   UNL     1       0.980  47.421  22.891  1.00  0.00     0.053 C 
BRANCH   5   6
ATOM      6  C   UNL     1       0.010  47.216  21.768  1.00  0.00     0.041 C 
ATOM      7  O   UNL     1       0.402  47.274  20.574  1.00  0.00    -0.550 OA
ATOM      8  O   UNL     1      -1.334  46.992  22.042  1.00  0.00    -0.550 OA
ENDBRANCH   5   6
ENDBRANCH   4   5
ENDBRANCH   3   4
ENDBRANCH   2   3
ENDBRANCH   1   2
BRANCH   1   9
ATOM      9  C   UNL     1       5.926  47.340  22.907  1.00  0.00     0.000 C 
BRANCH   9  10
ATOM     10  C   UNL     1       6.884  48.359  23.542  1.00  0.00    -0.000 C 
BRANCH  10  11
ATOM     11  C   UNL     1       6.302  49.012  24.806  1.00  0.00    -0.000 C 
BRANCH  11  12
ATOM     12  C   UNL     1       5.766  47.982  25.812  1.00  0.00    -0.000 C 
BRANCH  12  13
ATOM     13  C   UNL     1       4.282  48.227  26.107  1.00  0.00    -0.003 C 
ATOM     14  C   UNL     1       3.448  46.984  25.812  1.00  0.00     0.004 C 
ENDBRANCH  12  13
ENDBRANCH  11  12
ENDBRANCH  10  11
ENDBRANCH   9  10
ENDBRANCH   1   9
TORSDOF 10
ENDMDL
MODEL 3
REMARK VINA RESULT:    -4.859      0.907      3.009
REMARK INTER + INTRA:          -8.575
REMARK INTER:                  -7.671
REMARK INTRA:                  -0.904
REMARK UNBOUND:                -0.876
REMARK SMILES CCCCCCCCCCCC(=O)[O-]
REMARK SMILES IDX 7 1 8 2 9 3 10 4 11 5 12 6 13 7 14 8 6 9 5 10 4 11 3 12 2 13
REMARK SMILES IDX 1 14
REMARK H PARENT
REMARK Flexibility Score: inf
ROOT
ATOM      1  C   UNL     1       4.465  47.798  20.985  1.00  0.00     0.000 C 
ENDROOT
BRANCH   1   2
ATOM      2  C   UNL     1       5.814  47.959  21.697  1.00  0.00     0.000 C 
BRANCH   2   3
ATOM      3  C   UNL     1       5.641  47.902  23.222  1.00  0.00     0.000 C 
BRANCH   3   4
ATOM      4  C   UNL     1       6.897  48.364  23.982  1.00  0.00     0.006 C 
BRANCH   4   5
ATOM      5  C   UNL     1       6.627  49.415  25.070  1.00  0.00     0.053 C 
BRANCH   5   6
ATOM      6  C   UNL     1       7.764  49.525  26.039  1.00  0.00     0.041 C 
ATOM      7  O   UNL     1       7.785  48.811  27.075  1.00  0.00    -0.550 OA
ATOM      8  O   UNL     1       8.785  50.440  25.813  1.00  0.00    -0.550 OA
ENDBRANCH   5   6
ENDBRANCH   4   5
ENDBRANCH   3   4
ENDBRANCH   2   3
ENDBRANCH   1   2
BRANCH   1   9
ATOM      9  C   UNL     1       3.514  46.912  21.799  1.00  0.00     0.000 C 
BRANCH   9  10
ATOM     10  C   UNL     1       2.049  47.230  21.469  1.00  0.00    -0.000 C 
BRANCH  10  11
ATOM     11  C   UNL     1       1.217  47.560  22.720  1.00  0.00    -0.000 C 
BRANCH  11  12
ATOM     12  C   UNL     1       2.051  48.223  23.826  1.00  0.00    -0.000 C 
BRANCH  12  13
ATOM     13  C   UNL     1       2.214  47.284  25.026  1.00  0.00    -0.003 C 
ATOM     14  C   UNL     1       3.281  47.798  25.989  1.00  0.00     0.004 C 
ENDBRANCH  12  13
ENDBRANCH  11  12
ENDBRANCH  10  11
ENDBRANCH   9  10
ENDBRANCH   1   9
TORSDOF 10
ENDMDL
MODEL 4
REMARK VINA RESULT:    -4.835      4.096      5.906
REMARK INTER + INTRA:          -8.537
REMARK INTER:                  -7.319
REMARK INTRA:                  -1.219
REMARK UNBOUND:                -0.876
REMARK SMILES CCCCCCCCCCCC(=O)[O-]
REMARK SMILES IDX 7 1 8 2 9 3 10 4 11 5 12 6 13 7 14 8 6 9 5 10 4 11 3 12 2 13
REMARK SMILES IDX 1 14
REMARK H PARENT
REMARK Flexibility Score: inf
ROOT
ATOM      1  C   UNL     1       3.625  47.508  26.122  1.00  0.00     0.000 C 
ENDROOT
BRANCH   1   2
ATOM      2  C   UNL     1       2.712  47.379  24.895  1.00  0.00     0.000 C 
BRANCH   2   3
ATOM      3  C   UNL     1       2.644  48.704  24.121  1.00  0.00     0.000 C 
BRANCH   3   4
ATOM      4  C   UNL     1       2.147  48.524  22.675  1.00  0.00     0.006 C 
BRANCH   4   5
ATOM      5  C   UNL     1       1.279  47.275  22.455  1.00  0.00     0.053 C 
BRANCH   5   6
ATOM      6  C   UNL     1       0.260  47.483  21.378  1.00  0.00     0.041 C 
ATOM      7  O   UNL     1       0.456  47.025  20.222  1.00  0.00    -0.550 OA
ATOM      8  O   UNL     1      -0.894  48.211  21.643  1.00  0.00    -0.550 OA
ENDBRANCH   5   6
ENDBRANCH   4   5
ENDBRANCH   3   4
ENDBRANCH   2   3
ENDBRANCH   1   2
BRANCH   1   9
ATOM      9  C   UNL     1       5.056  47.067  25.792  1.00  0.00     0.000 C 
BRANCH   9  10
ATOM     10  C   UNL     1       6.037  48.242  25.927  1.00  0.00    -0.000 C 
BRANCH  10  11
ATOM     11  C   UNL     1       6.508  48.780  24.566  1.00  0.00    -0.000 C 
BRANCH  11  12
ATOM     12  C   UNL     1       6.660  47.673  23.512  1.00  0.00    -0.000 C 
BRANCH  12  13
ATOM     13  C   UNL     1       5.881  48.020  22.238  1.00  0.00    -0.003 C 
ATOM     14  C   UNL     1       4.961  46.875  21.824  1.00  0.00     0.004 C 
ENDBRANCH  12  13
ENDBRANCH  11  12
ENDBRANCH  10  11
ENDBRANCH   9  10
ENDBRANCH   1   9
TORSDOF 10
ENDMDL
MODEL 5
REMARK VINA RESULT:    -4.613      3.949      6.155
REMARK INTER + INTRA:          -8.185
REMARK INTER:                  -7.156
REMARK INTRA:                  -1.029
REMARK UNBOUND:                -0.876
REMARK SMILES CCCCCCCCCCCC(=O)[O-]
REMARK SMILES IDX 7 1 8 2 9 3 10 4 11 5 12 6 13 7 14 8 6 9 5 10 4 11 3 12 2 13
REMARK SMILES IDX 1 14
REMARK H PARENT
REMARK Flexibility Score: inf
ROOT
ATOM      1  C   UNL     1       4.063  48.134  25.536  1.00  0.00     0.000 C 
ENDROOT
BRANCH   1   2
ATOM      2  C   UNL     1       2.668  47.529  25.735  1.00  0.00     0.000 C 
BRANCH   2   3
ATOM      3  C   UNL     1       2.115  46.977  24.414  1.00  0.00     0.000 C 
BRANCH   3   4
ATOM      4  C   UNL     1       2.095  48.028  23.290  1.00  0.00     0.006 C 
BRANCH   4   5
ATOM      5  C   UNL     1       2.191  47.441  21.873  1.00  0.00     0.053 C 
BRANCH   5   6
ATOM      6  C   UNL     1       0.866  47.441  21.174  1.00  0.00     0.041 C 
ATOM      7  O   UNL     1      -0.148  47.927  21.739  1.00  0.00    -0.550 OA
ATOM      8  O   UNL     1       0.747  46.875  19.910  1.00  0.00    -0.550 OA
ENDBRANCH   5   6
ENDBRANCH   4   5
ENDBRANCH   3   4
ENDBRANCH   2   3
ENDBRANCH   1   2
BRANCH   1   9
ATOM      9  C   UNL     1       5.129  47.038  25.426  1.00  0.00     0.000 C 
BRANCH   9  10
ATOM     10  C   UNL     1       5.729  46.994  24.013  1.00  0.00    -0.000 C 
BRANCH  10  11
ATOM     11  C   UNL     1       6.287  48.355  23.563  1.00  0.00    -0.000 C 
BRANCH  11  12
ATOM     12  C   UNL     1       7.682  48.641  24.137  1.00  0.00    -0.000 C 
BRANCH  12  13
ATOM     13  C   UNL     1       7.615  49.714  25.231  1.00  0.00    -0.003 C 
ATOM     14  C   UNL     1       7.895  49.117  26.607  1.00  0.00     0.004 C 
ENDBRANCH  12  13
ENDBRANCH  11  12
ENDBRANCH  10  11
ENDBRANCH   9  10
ENDBRANCH   1   9
TORSDOF 10
ENDMDL
MODEL 6
REMARK VINA RESULT:    -4.597     10.435     11.237
REMARK INTER + INTRA:          -8.161
REMARK INTER:                  -6.940
REMARK INTRA:                  -1.221
REMARK UNBOUND:                -0.876
REMARK SMILES CCCCCCCCCCCC(=O)[O-]
REMARK SMILES IDX 7 1 8 2 9 3 10 4 11 5 12 6 13 7 14 8 6 9 5 10 4 11 3 12 2 13
REMARK SMILES IDX 1 14
REMARK H PARENT
REMARK Flexibility Score: inf
ROOT
ATOM      1  C   UNL     1       3.205  57.812  24.317  1.00  0.00     0.000 C 
ENDROOT
BRANCH   1   2
ATOM      2  C   UNL     1       1.949  57.540  25.153  1.00  0.00     0.000 C 
BRANCH   2   3
ATOM      3  C   UNL     1       0.701  58.126  24.477  1.00  0.00     0.000 C 
BRANCH   3   4
ATOM      4  C   UNL     1      -0.203  58.895  25.457  1.00  0.00     0.006 C 
BRANCH   4   5
ATOM      5  C   UNL     1       0.080  60.404  25.528  1.00  0.00     0.053 C 
BRANCH   5   6
ATOM      6  C   UNL     1       0.229  61.012  24.167  1.00  0.00     0.041 C 
ATOM      7  O   UNL     1       1.335  61.489  23.804  1.00  0.00    -0.550 OA
ATOM      8  O   UNL     1      -0.865  61.080  23.313  1.00  0.00    -0.550 OA
ENDBRANCH   5   6
ENDBRANCH   4   5
ENDBRANCH   3   4
ENDBRANCH   2   3
ENDBRANCH   1   2
BRANCH   1   9
ATOM      9  C   UNL     1       2.865  58.614  23.055  1.00  0.00     0.000 C 
BRANCH   9  10
ATOM     10  C   UNL     1       3.152  57.795  21.788  1.00  0.00    -0.000 C 
BRANCH  10  11
ATOM     11  C   UNL     1       2.015  56.820  21.442  1.00  0.00    -0.000 C 
BRANCH  11  12
ATOM     12  C   UNL     1       2.467  55.352  21.465  1.00  0.00    -0.000 C 
BRANCH  12  13
ATOM     13  C   UNL     1       2.036  54.667  22.766  1.00  0.00    -0.003 C 
ATOM     14  C   UNL     1       3.246  54.216  23.580  1.00  0.00     0.004 C 
ENDBRANCH  12  13
ENDBRANCH  11  12
ENDBRANCH  10  11
ENDBRANCH   9  10
ENDBRANCH   1   9
TORSDOF 10
ENDMDL
MODEL 7
REMARK VINA RESULT:    -4.595      9.819     10.893
REMARK INTER + INTRA:          -8.157
REMARK INTER:                  -6.977
REMARK INTRA:                  -1.180
REMARK UNBOUND:                -0.876
REMARK SMILES CCCCCCCCCCCC(=O)[O-]
REMARK SMILES IDX 7 1 8 2 9 3 10 4 11 5 12 6 13 7 14 8 6 9 5 10 4 11 3 12 2 13
REMARK SMILES IDX 1 14
REMARK H PARENT
REMARK Flexibility Score: inf
ROOT
ATOM      1  C   UNL     1       3.485  58.139  22.707  1.00  0.00     0.000 C 
ENDROOT
BRANCH   1   2
ATOM      2  C   UNL     1       3.600  58.035  24.232  1.00  0.00     0.000 C 
BRANCH   2   3
ATOM      3  C   UNL     1       3.147  56.652  24.724  1.00  0.00     0.000 C 
BRANCH   3   4
ATOM      4  C   UNL     1       2.432  55.836  23.633  1.00  0.00     0.006 C 
BRANCH   4   5
ATOM      5  C   UNL     1       2.894  54.374  23.531  1.00  0.00     0.053 C 
BRANCH   5   6
ATOM      6  C   UNL     1       2.256  53.662  22.378  1.00  0.00     0.041 C 
ATOM      7  O   UNL     1       2.694  53.828  21.210  1.00  0.00    -0.550 OA
ATOM      8  O   UNL     1       1.155  52.840  22.591  1.00  0.00    -0.550 OA
ENDBRANCH   5   6
ENDBRANCH   4   5
ENDBRANCH   3   4
ENDBRANCH   2   3
ENDBRANCH   1   2
BRANCH   1   9
ATOM      9  C   UNL     1       2.626  59.342  22.299  1.00  0.00     0.000 C 
BRANCH   9  10
ATOM     10  C   UNL     1       2.776  60.491  23.306  1.00  0.00    -0.000 C 
BRANCH  10  11
ATOM     11  C   UNL     1       1.442  61.194  23.608  1.00  0.00    -0.000 C 
BRANCH  11  12
ATOM     12  C   UNL     1       0.277  60.206  23.770  1.00  0.00    -0.000 C 
BRANCH  12  13
ATOM     13  C   UNL     1       0.104  59.800  25.239  1.00  0.00    -0.003 C 
ATOM     14  C   UNL     1       0.007  58.284  25.384  1.00  0.00     0.004 C 
ENDBRANCH  12  13
ENDBRANCH  11  12
ENDBRANCH  10  11
ENDBRANCH   9  10
ENDBRANCH   1   9
TORSDOF 10
ENDMDL
MODEL 8
REMARK VINA RESULT:    -4.533      9.982     10.940
REMARK INTER + INTRA:          -8.059
REMARK INTER:                  -6.966
REMARK INTRA:                  -1.093
REMARK UNBOUND:                -0.876
REMARK SMILES CCCCCCCCCCCC(=O)[O-]
REMARK SMILES IDX 7 1 8 2 9 3 10 4 11 5 12 6 13 7 14 8 6 9 5 10 4 11 3 12 2 13
REMARK SMILES IDX 1 14
REMARK H PARENT
REMARK Flexibility Score: inf
ROOT
ATOM      1  C   UNL     1       2.938  58.259  23.890  1.00  0.00     0.000 C 
ENDROOT
BRANCH   1   2
ATOM      2  C   UNL     1       1.811  57.871  22.926  1.00  0.00     0.000 C 
BRANCH   2   3
ATOM      3  C   UNL     1       0.437  58.049  23.587  1.00  0.00     0.000 C 
BRANCH   3   4
ATOM      4  C   UNL     1       0.529  58.654  25.000  1.00  0.00     0.006 C 
BRANCH   4   5
ATOM      5  C   UNL     1      -0.158  60.020  25.150  1.00  0.00     0.053 C 
BRANCH   5   6
ATOM      6  C   UNL     1       0.127  60.922  23.988  1.00  0.00     0.041 C 
ATOM      7  O   UNL     1       1.276  61.413  23.833  1.00  0.00    -0.550 OA
ATOM      8  O   UNL     1      -0.886  61.244  23.093  1.00  0.00    -0.550 OA
ENDBRANCH   5   6
ENDBRANCH   4   5
ENDBRANCH   3   4
ENDBRANCH   2   3
ENDBRANCH   1   2
BRANCH   1   9
ATOM      9  C   UNL     1       3.738  57.026  24.329  1.00  0.00     0.000 C 
BRANCH   9  10
ATOM     10  C   UNL     1       3.030  56.292  25.477  1.00  0.00    -0.000 C 
BRANCH  10  11
ATOM     11  C   UNL     1       3.076  54.763  25.321  1.00  0.00    -0.000 C 
BRANCH  11  12
ATOM     12  C   UNL     1       3.539  54.325  23.923  1.00  0.00    -0.000 C 
BRANCH  12  13
ATOM     13  C   UNL     1       2.350  53.861  23.074  1.00  0.00    -0.003 C 
ATOM     14  C   UNL     1       2.567  54.185  21.598  1.00  0.00     0.004 C 
ENDBRANCH  12  13
ENDBRANCH  11  12
ENDBRANCH  10  11
ENDBRANCH   9  10
ENDBRANCH   1   9
TORSDOF 10
ENDMDL
