MODEL 1
REMARK VINA RESULT:    -8.319      0.000      0.000
REMARK INTER + INTRA:         -10.175
REMARK INTER:                 -10.021
REMARK INTRA:                  -0.155
REMARK UNBOUND:                -0.155
REMARK SMILES O=c1c(O)c(-c2ccc(O)c(O)c2)oc2cc(O)cc(O)c12
REMARK SMILES IDX 5 1 3 2 2 3 1 4 22 5 20 6 19 7 17 8 16 9 15 10 14 11 6 12
REMARK SMILES IDX 7 13 8 14 9 15 13 16 11 17 10 18 12 20 4 22 21 24 18 26
REMARK H PARENT 10 19 12 21 4 23 21 25 18 27
REMARK Flexibility Score: inf
ROOT
ATOM      1  C   UNL     1     -10.832   6.811  35.286  1.00  0.00     0.180 A 
ATOM      2  C   UNL     1     -11.946   7.450  34.716  1.00  0.00     0.208 A 
ATOM      3  C   UNL     1     -13.105   6.699  34.460  1.00  0.00     0.238 A 
ATOM      4  O   UNL     1     -14.118   7.288  34.000  1.00  0.00    -0.285 OA
ATOM      5  C   UNL     1     -13.129   5.316  34.761  1.00  0.00     0.111 A 
ATOM      6  C   UNL     1     -14.234   4.449  34.505  1.00  0.00     0.134 A 
ATOM      7  C   UNL     1     -14.195   3.127  34.964  1.00  0.00     0.093 A 
ATOM      8  C   UNL     1     -13.068   2.621  35.609  1.00  0.00     0.123 A 
ATOM      9  C   UNL     1     -11.958   3.442  35.810  1.00  0.00     0.094 A 
ATOM     10  C   UNL     1     -11.980   4.777  35.397  1.00  0.00     0.146 A 
ATOM     11  O   UNL     1     -10.908   5.527  35.617  1.00  0.00    -0.452 OA
ENDROOT
BRANCH   1  12
ATOM     12  C   UNL     1      -9.567   7.530  35.563  1.00  0.00     0.025 A 
ATOM     13  C   UNL     1      -9.511   8.579  36.497  1.00  0.00     0.016 A 
ATOM     14  C   UNL     1      -8.312   9.259  36.724  1.00  0.00     0.051 A 
ATOM     15  C   UNL     1      -7.156   8.911  36.014  1.00  0.00     0.157 A 
ATOM     16  C   UNL     1      -8.411   7.199  34.838  1.00  0.00     0.062 A 
ATOM     17  C   UNL     1      -7.207   7.878  35.064  1.00  0.00     0.158 A 
BRANCH  15  18
ATOM     18  O   UNL     1      -5.961   9.590  36.245  1.00  0.00    -0.504 OA
ATOM     19  H   UNL     1      -5.105   9.337  35.766  1.00  0.00     0.293 HD
ENDBRANCH  15  18
BRANCH  17  20
ATOM     20  O   UNL     1      -6.076   7.513  34.335  1.00  0.00    -0.504 OA
ATOM     21  H   UNL     1      -5.959   7.764  33.361  1.00  0.00     0.293 HD
ENDBRANCH  17  20
ENDBRANCH   1  12
BRANCH   2  22
ATOM     22  O   UNL     1     -11.910   8.821  34.447  1.00  0.00    -0.502 OA
ATOM     23  H   UNL     1     -11.799   9.515  35.176  1.00  0.00     0.293 HD
ENDBRANCH   2  22
BRANCH   6  24
ATOM     24  O   UNL     1     -15.373   4.828  33.788  1.00  0.00    -0.507 OA
ATOM     25  H   UNL     1     -15.508   4.673  32.801  1.00  0.00     0.293 HD
ENDBRANCH   6  24
BRANCH   8  26
ATOM     26  O   UNL     1     -13.057   1.295  36.038  1.00  0.00    -0.508 OA
ATOM     27  H   UNL     1     -12.802   1.047  36.985  1.00  0.00     0.293 HD
ENDBRANCH   8  26
TORSDOF 6
ENDMDL
MODEL 2
REMARK VINA RESULT:    -8.314      1.565      7.118
REMARK INTER + INTRA:         -10.170
REMARK INTER:                  -9.995
REMARK INTRA:                  -0.174
REMARK UNBOUND:                -0.155
REMARK SMILES O=c1c(O)c(-c2ccc(O)c(O)c2)oc2cc(O)cc(O)c12
REMARK SMILES IDX 5 1 3 2 2 3 1 4 22 5 20 6 19 7 17 8 16 9 15 10 14 11 6 12
REMARK SMILES IDX 7 13 8 14 9 15 13 16 11 17 10 18 12 20 4 22 21 24 18 26
REMARK H PARENT 10 19 12 21 4 23 21 25 18 27
REMARK Flexibility Score: inf
ROOT
ATOM      1  C   UNL     1     -11.275   5.923  34.860  1.00  0.00     0.180 A 
ATOM      2  C   UNL     1     -10.028   5.465  34.402  1.00  0.00     0.208 A 
ATOM      3  C   UNL     1      -8.885   6.243  34.645  1.00  0.00     0.238 A 
ATOM      4  O   UNL     1      -7.764   5.800  34.281  1.00  0.00    -0.285 OA
ATOM      5  C   UNL     1      -9.004   7.476  35.329  1.00  0.00     0.111 A 
ATOM      6  C   UNL     1      -7.919   8.366  35.594  1.00  0.00     0.134 A 
ATOM      7  C   UNL     1      -8.132   9.496  36.393  1.00  0.00     0.093 A 
ATOM      8  C   UNL     1      -9.401   9.806  36.879  1.00  0.00     0.123 A 
ATOM      9  C   UNL     1     -10.481   8.976  36.576  1.00  0.00     0.094 A 
ATOM     10  C   UNL     1     -10.293   7.821  35.813  1.00  0.00     0.146 A 
ATOM     11  O   UNL     1     -11.345   7.053  35.556  1.00  0.00    -0.452 OA
ENDROOT
BRANCH   1  12
ATOM     12  C   UNL     1     -12.528   5.172  34.620  1.00  0.00     0.025 A 
ATOM     13  C   UNL     1     -13.551   5.695  33.811  1.00  0.00     0.016 A 
ATOM     14  C   UNL     1     -14.735   4.979  33.619  1.00  0.00     0.051 A 
ATOM     15  C   UNL     1     -14.920   3.737  34.240  1.00  0.00     0.157 A 
ATOM     16  C   UNL     1     -12.726   3.937  35.258  1.00  0.00     0.062 A 
ATOM     17  C   UNL     1     -13.911   3.216  35.066  1.00  0.00     0.158 A 
BRANCH  15  18
ATOM     18  O   UNL     1     -16.102   3.024  34.044  1.00  0.00    -0.504 OA
ATOM     19  H   UNL     1     -16.674   3.161  33.218  1.00  0.00     0.293 HD
ENDBRANCH  15  18
BRANCH  17  20
ATOM     20  O   UNL     1     -14.067   1.986  35.705  1.00  0.00    -0.504 OA
ATOM     21  H   UNL     1     -14.795   1.825  36.391  1.00  0.00     0.293 HD
ENDBRANCH  17  20
ENDBRANCH   1  12
BRANCH   2  22
ATOM     22  O   UNL     1      -9.928   4.233  33.749  1.00  0.00    -0.502 OA
ATOM     23  H   UNL     1      -9.054   3.729  33.669  1.00  0.00     0.293 HD
ENDBRANCH   2  22
BRANCH   6  24
ATOM     24  O   UNL     1      -6.630   8.198  35.079  1.00  0.00    -0.507 OA
ATOM     25  H   UNL     1      -5.807   8.025  35.636  1.00  0.00     0.293 HD
ENDBRANCH   6  24
BRANCH   8  26
ATOM     26  O   UNL     1      -9.580  10.948  37.657  1.00  0.00    -0.508 OA
ATOM     27  H   UNL     1      -9.089  11.810  37.455  1.00  0.00     0.293 HD
ENDBRANCH   8  26
TORSDOF 6
ENDMDL
MODEL 3
REMARK VINA RESULT:    -8.280      1.304      2.946
REMARK INTER + INTRA:         -10.129
REMARK INTER:                  -9.945
REMARK INTRA:                  -0.184
REMARK UNBOUND:                -0.155
REMARK SMILES O=c1c(O)c(-c2ccc(O)c(O)c2)oc2cc(O)cc(O)c12
REMARK SMILES IDX 5 1 3 2 2 3 1 4 22 5 20 6 19 7 17 8 16 9 15 10 14 11 6 12
REMARK SMILES IDX 7 13 8 14 9 15 13 16 11 17 10 18 12 20 4 22 21 24 18 26
REMARK H PARENT 10 19 12 21 4 23 21 25 18 27
REMARK Flexibility Score: inf
ROOT
ATOM      1  C   UNL     1     -10.833   5.942  35.095  1.00  0.00     0.180 A 
ATOM      2  C   UNL     1     -10.883   4.597  35.497  1.00  0.00     0.208 A 
ATOM      3  C   UNL     1     -12.072   3.873  35.309  1.00  0.00     0.238 A 
ATOM      4  O   UNL     1     -12.093   2.654  35.621  1.00  0.00    -0.285 OA
ATOM      5  C   UNL     1     -13.200   4.509  34.737  1.00  0.00     0.111 A 
ATOM      6  C   UNL     1     -14.469   3.884  34.538  1.00  0.00     0.134 A 
ATOM      7  C   UNL     1     -15.473   4.568  33.844  1.00  0.00     0.093 A 
ATOM      8  C   UNL     1     -15.281   5.876  33.401  1.00  0.00     0.123 A 
ATOM      9  C   UNL     1     -14.066   6.517  33.643  1.00  0.00     0.094 A 
ATOM     10  C   UNL     1     -13.030   5.848  34.300  1.00  0.00     0.146 A 
ATOM     11  O   UNL     1     -11.887   6.491  34.501  1.00  0.00    -0.452 OA
ENDROOT
BRANCH   1  12
ATOM     12  C   UNL     1      -9.624   6.776  35.282  1.00  0.00     0.025 A 
ATOM     13  C   UNL     1      -9.621   7.872  36.163  1.00  0.00     0.016 A 
ATOM     14  C   UNL     1      -8.476   8.660  36.306  1.00  0.00     0.051 A 
ATOM     15  C   UNL     1      -7.324   8.375  35.563  1.00  0.00     0.157 A 
ATOM     16  C   UNL     1      -8.473   6.507  34.523  1.00  0.00     0.062 A 
ATOM     17  C   UNL     1      -7.324   7.294  34.666  1.00  0.00     0.158 A 
BRANCH  15  18
ATOM     18  O   UNL     1      -6.182   9.161  35.710  1.00  0.00    -0.504 OA
ATOM     19  H   UNL     1      -5.354   8.814  36.180  1.00  0.00     0.293 HD
ENDBRANCH  15  18
BRANCH  17  20
ATOM     20  O   UNL     1      -6.196   6.989  33.906  1.00  0.00    -0.504 OA
ATOM     21  H   UNL     1      -5.971   7.484  33.051  1.00  0.00     0.293 HD
ENDBRANCH  17  20
ENDBRANCH   1  12
BRANCH   2  22
ATOM     22  O   UNL     1      -9.751   3.982  36.038  1.00  0.00    -0.502 OA
ATOM     23  H   UNL     1      -9.761   3.518  36.939  1.00  0.00     0.293 HD
ENDBRANCH   2  22
BRANCH   6  24
ATOM     24  O   UNL     1     -14.797   2.614  35.022  1.00  0.00    -0.507 OA
ATOM     25  H   UNL     1     -15.698   2.174  34.916  1.00  0.00     0.293 HD
ENDBRANCH   6  24
BRANCH   8  26
ATOM     26  O   UNL     1     -16.309   6.532  32.728  1.00  0.00    -0.508 OA
ATOM     27  H   UNL     1     -16.256   6.722  31.734  1.00  0.00     0.293 HD
ENDBRANCH   8  26
TORSDOF 6
ENDMDL
MODEL 4
REMARK VINA RESULT:    -8.189      1.443      6.785
REMARK INTER + INTRA:         -10.019
REMARK INTER:                  -9.872
REMARK INTRA:                  -0.147
REMARK UNBOUND:                -0.155
REMARK SMILES O=c1c(O)c(-c2ccc(O)c(O)c2)oc2cc(O)cc(O)c12
REMARK SMILES IDX 5 1 3 2 2 3 1 4 22 5 20 6 19 7 17 8 16 9 15 10 14 11 6 12
REMARK SMILES IDX 7 13 8 14 9 15 13 16 11 17 10 18 12 20 4 22 21 24 18 26
REMARK H PARENT 10 19 12 21 4 23 21 25 18 27
REMARK Flexibility Score: inf
ROOT
ATOM      1  C   UNL     1     -11.902   6.300  34.753  1.00  0.00     0.180 A 
ATOM      2  C   UNL     1     -12.006   7.526  35.432  1.00  0.00     0.208 A 
ATOM      3  C   UNL     1     -10.839   8.260  35.697  1.00  0.00     0.238 A 
ATOM      4  O   UNL     1     -10.944   9.383  36.256  1.00  0.00    -0.285 OA
ATOM      5  C   UNL     1      -9.581   7.751  35.293  1.00  0.00     0.111 A 
ATOM      6  C   UNL     1      -8.329   8.389  35.545  1.00  0.00     0.134 A 
ATOM      7  C   UNL     1      -7.159   7.861  34.987  1.00  0.00     0.093 A 
ATOM      8  C   UNL     1      -7.185   6.683  34.243  1.00  0.00     0.123 A 
ATOM      9  C   UNL     1      -8.394   6.017  34.041  1.00  0.00     0.094 A 
ATOM     10  C   UNL     1      -9.584   6.540  34.554  1.00  0.00     0.146 A 
ATOM     11  O   UNL     1     -10.715   5.881  34.331  1.00  0.00    -0.452 OA
ENDROOT
BRANCH   1  12
ATOM     12  C   UNL     1     -13.085   5.459  34.460  1.00  0.00     0.025 A 
ATOM     13  C   UNL     1     -14.115   5.912  33.619  1.00  0.00     0.016 A 
ATOM     14  C   UNL     1     -15.233   5.110  33.375  1.00  0.00     0.051 A 
ATOM     15  C   UNL     1     -15.345   3.851  33.978  1.00  0.00     0.157 A 
ATOM     16  C   UNL     1     -13.212   4.204  35.079  1.00  0.00     0.062 A 
ATOM     17  C   UNL     1     -14.330   3.398  34.836  1.00  0.00     0.158 A 
BRANCH  15  18
ATOM     18  O   UNL     1     -16.460   3.052  33.731  1.00  0.00    -0.504 OA
ATOM     19  H   UNL     1     -16.608   2.609  32.832  1.00  0.00     0.293 HD
ENDBRANCH  15  18
BRANCH  17  20
ATOM     20  O   UNL     1     -14.415   2.153  35.458  1.00  0.00    -0.504 OA
ATOM     21  H   UNL     1     -15.161   1.922  36.102  1.00  0.00     0.293 HD
ENDBRANCH  17  20
ENDBRANCH   1  12
BRANCH   2  22
ATOM     22  O   UNL     1     -13.260   8.021  35.801  1.00  0.00    -0.502 OA
ATOM     23  H   UNL     1     -13.565   8.959  35.568  1.00  0.00     0.293 HD
ENDBRANCH   2  22
BRANCH   6  24
ATOM     24  O   UNL     1      -8.179   9.521  36.353  1.00  0.00    -0.507 OA
ATOM     25  H   UNL     1      -8.938  10.010  36.804  1.00  0.00     0.293 HD
ENDBRANCH   6  24
BRANCH   8  26
ATOM     26  O   UNL     1      -5.999   6.176  33.715  1.00  0.00    -0.508 OA
ATOM     27  H   UNL     1      -5.192   6.767  33.561  1.00  0.00     0.293 HD
ENDBRANCH   8  26
TORSDOF 6
ENDMDL
MODEL 5
REMARK VINA RESULT:    -7.467      2.862      6.295
REMARK INTER + INTRA:          -9.150
REMARK INTER:                  -8.956
REMARK INTRA:                  -0.194
REMARK UNBOUND:                -0.155
REMARK SMILES O=c1c(O)c(-c2ccc(O)c(O)c2)oc2cc(O)cc(O)c12
REMARK SMILES IDX 5 1 3 2 2 3 1 4 22 5 20 6 19 7 17 8 16 9 15 10 14 11 6 12
REMARK SMILES IDX 7 13 8 14 9 15 13 16 11 17 10 18 12 20 4 22 21 24 18 26
REMARK H PARENT 10 19 12 21 4 23 21 25 18 27
REMARK Flexibility Score: inf
ROOT
ATOM      1  C   UNL     1     -11.196   5.090  34.600  1.00  0.00     0.180 A 
ATOM      2  C   UNL     1     -11.153   3.928  35.388  1.00  0.00     0.208 A 
ATOM      3  C   UNL     1      -9.984   3.151  35.392  1.00  0.00     0.238 A 
ATOM      4  O   UNL     1      -9.932   2.141  36.142  1.00  0.00    -0.285 OA
ATOM      5  C   UNL     1      -8.879   3.536  34.596  1.00  0.00     0.111 A 
ATOM      6  C   UNL     1      -7.659   2.802  34.491  1.00  0.00     0.134 A 
ATOM      7  C   UNL     1      -6.585   3.345  33.776  1.00  0.00     0.093 A 
ATOM      8  C   UNL     1      -6.707   4.562  33.107  1.00  0.00     0.123 A 
ATOM      9  C   UNL     1      -7.915   5.259  33.152  1.00  0.00     0.094 A 
ATOM     10  C   UNL     1      -8.993   4.761  33.889  1.00  0.00     0.146 A 
ATOM     11  O   UNL     1     -10.120   5.461  33.915  1.00  0.00    -0.452 OA
ENDROOT
BRANCH   1  12
ATOM     12  C   UNL     1     -12.401   5.948  34.524  1.00  0.00     0.025 A 
ATOM     13  C   UNL     1     -13.603   5.473  33.970  1.00  0.00     0.016 A 
ATOM     14  C   UNL     1     -14.721   6.308  33.888  1.00  0.00     0.051 A 
ATOM     15  C   UNL     1     -14.651   7.630  34.344  1.00  0.00     0.157 A 
ATOM     16  C   UNL     1     -12.330   7.281  34.961  1.00  0.00     0.062 A 
ATOM     17  C   UNL     1     -13.449   8.119  34.881  1.00  0.00     0.158 A 
BRANCH  15  18
ATOM     18  O   UNL     1     -15.769   8.459  34.262  1.00  0.00    -0.504 OA
ATOM     19  H   UNL     1     -16.709   8.097  34.377  1.00  0.00     0.293 HD
ENDBRANCH  15  18
BRANCH  17  20
ATOM     20  O   UNL     1     -13.345   9.433  35.336  1.00  0.00    -0.504 OA
ATOM     21  H   UNL     1     -13.199   9.654  36.314  1.00  0.00     0.293 HD
ENDBRANCH  17  20
ENDBRANCH   1  12
BRANCH   2  22
ATOM     22  O   UNL     1     -12.247   3.578  36.185  1.00  0.00    -0.502 OA
ATOM     23  H   UNL     1     -12.954   4.247  36.463  1.00  0.00     0.293 HD
ENDBRANCH   2  22
BRANCH   6  24
ATOM     24  O   UNL     1      -7.463   1.533  35.045  1.00  0.00    -0.507 OA
ATOM     25  H   UNL     1      -8.187   0.970  35.464  1.00  0.00     0.293 HD
ENDBRANCH   6  24
BRANCH   8  26
ATOM     26  O   UNL     1      -5.623   5.065  32.390  1.00  0.00    -0.508 OA
ATOM     27  H   UNL     1      -5.602   5.048  31.378  1.00  0.00     0.293 HD
ENDBRANCH   8  26
TORSDOF 6
ENDMDL
MODEL 6
REMARK VINA RESULT:    -7.398      2.434      4.285
REMARK INTER + INTRA:          -9.067
REMARK INTER:                  -8.909
REMARK INTRA:                  -0.158
REMARK UNBOUND:                -0.155
REMARK SMILES O=c1c(O)c(-c2ccc(O)c(O)c2)oc2cc(O)cc(O)c12
REMARK SMILES IDX 5 1 3 2 2 3 1 4 22 5 20 6 19 7 17 8 16 9 15 10 14 11 6 12
REMARK SMILES IDX 7 13 8 14 9 15 13 16 11 17 10 18 12 20 4 22 21 24 18 26
REMARK H PARENT 10 19 12 21 4 23 21 25 18 27
REMARK Flexibility Score: inf
ROOT
ATOM      1  C   UNL     1     -10.234   5.843  35.212  1.00  0.00     0.180 A 
ATOM      2  C   UNL     1      -9.210   5.421  34.347  1.00  0.00     0.208 A 
ATOM      3  C   UNL     1      -8.939   4.048  34.231  1.00  0.00     0.238 A 
ATOM      4  O   UNL     1      -8.059   3.673  33.413  1.00  0.00    -0.285 OA
ATOM      5  C   UNL     1      -9.684   3.116  34.992  1.00  0.00     0.111 A 
ATOM      6  C   UNL     1      -9.468   1.705  34.985  1.00  0.00     0.134 A 
ATOM      7  C   UNL     1     -10.350   0.868  35.678  1.00  0.00     0.093 A 
ATOM      8  C   UNL     1     -11.399   1.391  36.432  1.00  0.00     0.123 A 
ATOM      9  C   UNL     1     -11.583   2.773  36.496  1.00  0.00     0.094 A 
ATOM     10  C   UNL     1     -10.742   3.633  35.785  1.00  0.00     0.146 A 
ATOM     11  O   UNL     1     -10.958   4.940  35.864  1.00  0.00    -0.452 OA
ENDROOT
BRANCH   1  12
ATOM     12  C   UNL     1     -10.562   7.274  35.407  1.00  0.00     0.025 A 
ATOM     13  C   UNL     1      -9.616   8.178  35.921  1.00  0.00     0.016 A 
ATOM     14  C   UNL     1      -9.955   9.518  36.119  1.00  0.00     0.051 A 
ATOM     15  C   UNL     1     -11.245   9.973  35.819  1.00  0.00     0.157 A 
ATOM     16  C   UNL     1     -11.860   7.730  35.127  1.00  0.00     0.062 A 
ATOM     17  C   UNL     1     -12.203   9.073  35.323  1.00  0.00     0.158 A 
BRANCH  15  18
ATOM     18  O   UNL     1     -11.579  11.312  36.015  1.00  0.00    -0.504 OA
ATOM     19  H   UNL     1     -10.956  12.062  35.738  1.00  0.00     0.293 HD
ENDBRANCH  15  18
BRANCH  17  20
ATOM     20  O   UNL     1     -13.498   9.493  35.022  1.00  0.00    -0.504 OA
ATOM     21  H   UNL     1     -13.686  10.383  34.577  1.00  0.00     0.293 HD
ENDBRANCH  17  20
ENDBRANCH   1  12
BRANCH   2  22
ATOM     22  O   UNL     1      -8.502   6.355  33.587  1.00  0.00    -0.502 OA
ATOM     23  H   UNL     1      -8.769   6.602  32.641  1.00  0.00     0.293 HD
ENDBRANCH   2  22
BRANCH   6  24
ATOM     24  O   UNL     1      -8.395   1.084  34.338  1.00  0.00    -0.507 OA
ATOM     25  H   UNL     1      -7.856   1.497  33.593  1.00  0.00     0.293 HD
ENDBRANCH   6  24
BRANCH   8  26
ATOM     26  O   UNL     1     -12.247   0.529  37.123  1.00  0.00    -0.508 OA
ATOM     27  H   UNL     1     -12.432  -0.410  36.794  1.00  0.00     0.293 HD
ENDBRANCH   8  26
TORSDOF 6
ENDMDL
MODEL 7
REMARK VINA RESULT:    -7.271      3.009      5.371
REMARK INTER + INTRA:          -8.914
REMARK INTER:                  -8.602
REMARK INTRA:                  -0.312
REMARK UNBOUND:                -0.155
REMARK SMILES O=c1c(O)c(-c2ccc(O)c(O)c2)oc2cc(O)cc(O)c12
REMARK SMILES IDX 5 1 3 2 2 3 1 4 22 5 20 6 19 7 17 8 16 9 15 10 14 11 6 12
REMARK SMILES IDX 7 13 8 14 9 15 13 16 11 17 10 18 12 20 4 22 21 24 18 26
REMARK H PARENT 10 19 12 21 4 23 21 25 18 27
REMARK Flexibility Score: inf
ROOT
ATOM      1  C   UNL     1     -10.179   5.031  34.698  1.00  0.00     0.180 A 
ATOM      2  C   UNL     1      -9.043   5.062  33.873  1.00  0.00     0.208 A 
ATOM      3  C   UNL     1      -8.207   3.934  33.821  1.00  0.00     0.238 A 
ATOM      4  O   UNL     1      -7.222   3.948  33.038  1.00  0.00    -0.285 OA
ATOM      5  C   UNL     1      -8.510   2.797  34.607  1.00  0.00     0.111 A 
ATOM      6  C   UNL     1      -7.712   1.614  34.665  1.00  0.00     0.134 A 
ATOM      7  C   UNL     1      -8.176   0.502  35.376  1.00  0.00     0.093 A 
ATOM      8  C   UNL     1      -9.375   0.549  36.086  1.00  0.00     0.123 A 
ATOM      9  C   UNL     1     -10.134   1.719  36.086  1.00  0.00     0.094 A 
ATOM     10  C   UNL     1      -9.716   2.835  35.355  1.00  0.00     0.146 A 
ATOM     11  O   UNL     1     -10.472   3.925  35.374  1.00  0.00    -0.452 OA
ENDROOT
BRANCH   1  12
ATOM     12  C   UNL     1     -11.094   6.189  34.824  1.00  0.00     0.025 A 
ATOM     13  C   UNL     1     -10.783   7.280  35.655  1.00  0.00     0.016 A 
ATOM     14  C   UNL     1     -11.672   8.350  35.777  1.00  0.00     0.051 A 
ATOM     15  C   UNL     1     -12.889   8.342  35.084  1.00  0.00     0.157 A 
ATOM     16  C   UNL     1     -12.324   6.175  34.148  1.00  0.00     0.062 A 
ATOM     17  C   UNL     1     -13.217   7.247  34.267  1.00  0.00     0.158 A 
BRANCH  15  18
ATOM     18  O   UNL     1     -13.772   9.413  35.206  1.00  0.00    -0.504 OA
ATOM     19  H   UNL     1     -14.336   9.545  36.038  1.00  0.00     0.293 HD
ENDBRANCH  15  18
BRANCH  17  20
ATOM     20  O   UNL     1     -14.423   7.205  33.570  1.00  0.00    -0.504 OA
ATOM     21  H   UNL     1     -15.038   6.401  33.605  1.00  0.00     0.293 HD
ENDBRANCH  17  20
ENDBRANCH   1  12
BRANCH   2  22
ATOM     22  O   UNL     1      -8.775   6.186  33.087  1.00  0.00    -0.502 OA
ATOM     23  H   UNL     1      -9.383   6.995  33.069  1.00  0.00     0.293 HD
ENDBRANCH   2  22
BRANCH   6  24
ATOM     24  O   UNL     1      -6.453   1.494  34.067  1.00  0.00    -0.507 OA
ATOM     25  H   UNL     1      -5.693   2.145  34.191  1.00  0.00     0.293 HD
ENDBRANCH   6  24
BRANCH   8  26
ATOM     26  O   UNL     1      -9.799  -0.572  36.796  1.00  0.00    -0.508 OA
ATOM     27  H   UNL     1     -10.728  -0.957  36.676  1.00  0.00     0.293 HD
ENDBRANCH   8  26
TORSDOF 6
ENDMDL
MODEL 8
REMARK VINA RESULT:    -7.268      2.606      4.263
REMARK INTER + INTRA:          -8.909
REMARK INTER:                  -8.756
REMARK INTRA:                  -0.154
REMARK UNBOUND:                -0.155
REMARK SMILES O=c1c(O)c(-c2ccc(O)c(O)c2)oc2cc(O)cc(O)c12
REMARK SMILES IDX 5 1 3 2 2 3 1 4 22 5 20 6 19 7 17 8 16 9 15 10 14 11 6 12
REMARK SMILES IDX 7 13 8 14 9 15 13 16 11 17 10 18 12 20 4 22 21 24 18 26
REMARK H PARENT 10 19 12 21 4 23 21 25 18 27
REMARK Flexibility Score: inf
ROOT
ATOM      1  C   UNL     1     -10.274   5.759  34.463  1.00  0.00     0.180 A 
ATOM      2  C   UNL     1     -10.167   6.899  35.277  1.00  0.00     0.208 A 
ATOM      3  C   UNL     1     -11.301   7.704  35.473  1.00  0.00     0.238 A 
ATOM      4  O   UNL     1     -11.213   8.693  36.247  1.00  0.00    -0.285 OA
ATOM      5  C   UNL     1     -12.522   7.368  34.840  1.00  0.00     0.111 A 
ATOM      6  C   UNL     1     -13.722   8.135  34.935  1.00  0.00     0.134 A 
ATOM      7  C   UNL     1     -14.905   7.638  34.374  1.00  0.00     0.093 A 
ATOM      8  C   UNL     1     -14.917   6.438  33.665  1.00  0.00     0.123 A 
ATOM      9  C   UNL     1     -13.736   5.711  33.514  1.00  0.00     0.094 A 
ATOM     10  C   UNL     1     -12.548   6.161  34.094  1.00  0.00     0.146 A 
ATOM     11  O   UNL     1     -11.449   5.434  33.936  1.00  0.00    -0.452 OA
ENDROOT
BRANCH   1  12
ATOM     12  C   UNL     1      -9.118   4.875  34.189  1.00  0.00     0.025 A 
ATOM     13  C   UNL     1      -9.083   3.549  34.655  1.00  0.00     0.016 A 
ATOM     14  C   UNL     1      -7.972   2.741  34.405  1.00  0.00     0.051 A 
ATOM     15  C   UNL     1      -6.874   3.248  33.698  1.00  0.00     0.157 A 
ATOM     16  C   UNL     1      -8.006   5.385  33.499  1.00  0.00     0.062 A 
ATOM     17  C   UNL     1      -6.891   4.577  33.245  1.00  0.00     0.158 A 
BRANCH  15  18
ATOM     18  O   UNL     1      -5.767   2.437  33.448  1.00  0.00    -0.504 OA
ATOM     19  H   UNL     1      -5.393   2.322  32.513  1.00  0.00     0.293 HD
ENDBRANCH  15  18
BRANCH  17  20
ATOM     20  O   UNL     1      -5.811   5.113  32.546  1.00  0.00    -0.504 OA
ATOM     21  H   UNL     1      -5.146   4.530  32.052  1.00  0.00     0.293 HD
ENDBRANCH  17  20
ENDBRANCH   1  12
BRANCH   2  22
ATOM     22  O   UNL     1      -8.959   7.200  35.911  1.00  0.00    -0.502 OA
ATOM     23  H   UNL     1      -8.242   6.504  36.075  1.00  0.00     0.293 HD
ENDBRANCH   2  22
BRANCH   6  24
ATOM     24  O   UNL     1     -13.799   9.392  35.543  1.00  0.00    -0.507 OA
ATOM     25  H   UNL     1     -14.381  10.150  35.223  1.00  0.00     0.293 HD
ENDBRANCH   6  24
BRANCH   8  26
ATOM     26  O   UNL     1     -16.109   5.982  33.105  1.00  0.00    -0.508 OA
ATOM     27  H   UNL     1     -16.943   6.556  33.093  1.00  0.00     0.293 HD
ENDBRANCH   8  26
TORSDOF 6
ENDMDL
MODEL 9
REMARK VINA RESULT:    -7.246      3.057      5.448
REMARK INTER + INTRA:          -8.884
REMARK INTER:                  -8.580
REMARK INTRA:                  -0.304
REMARK UNBOUND:                -0.155
REMARK SMILES O=c1c(O)c(-c2ccc(O)c(O)c2)oc2cc(O)cc(O)c12
REMARK SMILES IDX 5 1 3 2 2 3 1 4 22 5 20 6 19 7 17 8 16 9 15 10 14 11 6 12
REMARK SMILES IDX 7 13 8 14 9 15 13 16 11 17 10 18 12 20 4 22 21 24 18 26
REMARK H PARENT 10 19 12 21 4 23 21 25 18 27
REMARK Flexibility Score: inf
ROOT
ATOM      1  C   UNL     1     -10.486   4.894  35.084  1.00  0.00     0.180 A 
ATOM      2  C   UNL     1     -10.951   3.792  35.822  1.00  0.00     0.208 A 
ATOM      3  C   UNL     1     -10.273   2.567  35.716  1.00  0.00     0.238 A 
ATOM      4  O   UNL     1     -10.661   1.599  36.422  1.00  0.00    -0.285 OA
ATOM      5  C   UNL     1      -9.150   2.454  34.862  1.00  0.00     0.111 A 
ATOM      6  C   UNL     1      -8.413   1.251  34.646  1.00  0.00     0.134 A 
ATOM      7  C   UNL     1      -7.241   1.288  33.881  1.00  0.00     0.093 A 
ATOM      8  C   UNL     1      -6.816   2.466  33.269  1.00  0.00     0.123 A 
ATOM      9  C   UNL     1      -7.562   3.634  33.424  1.00  0.00     0.094 A 
ATOM     10  C   UNL     1      -8.716   3.639  34.212  1.00  0.00     0.146 A 
ATOM     11  O   UNL     1      -9.391   4.774  34.342  1.00  0.00    -0.452 OA
ENDROOT
BRANCH   1  12
ATOM     12  C   UNL     1     -11.162   6.211  35.124  1.00  0.00     0.025 A 
ATOM     13  C   UNL     1     -12.329   6.458  34.380  1.00  0.00     0.016 A 
ATOM     14  C   UNL     1     -12.936   7.716  34.415  1.00  0.00     0.051 A 
ATOM     15  C   UNL     1     -12.380   8.748  35.181  1.00  0.00     0.157 A 
ATOM     16  C   UNL     1     -10.597   7.256  35.874  1.00  0.00     0.062 A 
ATOM     17  C   UNL     1     -11.203   8.517  35.912  1.00  0.00     0.158 A 
BRANCH  15  18
ATOM     18  O   UNL     1     -12.990  10.001  35.215  1.00  0.00    -0.504 OA
ATOM     19  H   UNL     1     -13.663  10.245  35.932  1.00  0.00     0.293 HD
ENDBRANCH  15  18
BRANCH  17  20
ATOM     20  O   UNL     1     -10.621   9.526  36.678  1.00  0.00    -0.504 OA
ATOM     21  H   UNL     1     -10.565  10.484  36.353  1.00  0.00     0.293 HD
ENDBRANCH  17  20
ENDBRANCH   1  12
BRANCH   2  22
ATOM     22  O   UNL     1     -12.047   3.930  36.677  1.00  0.00    -0.502 OA
ATOM     23  H   UNL     1     -12.382   4.833  36.991  1.00  0.00     0.293 HD
ENDBRANCH   2  22
BRANCH   6  24
ATOM     24  O   UNL     1      -8.801  -0.000  35.136  1.00  0.00    -0.507 OA
ATOM     25  H   UNL     1      -9.756  -0.305  35.240  1.00  0.00     0.293 HD
ENDBRANCH   6  24
BRANCH   8  26
ATOM     26  O   UNL     1      -5.654   2.462  32.500  1.00  0.00    -0.508 OA
ATOM     27  H   UNL     1      -5.055   3.276  32.440  1.00  0.00     0.293 HD
ENDBRANCH   8  26
TORSDOF 6
ENDMDL
