MODEL 1
REMARK VINA RESULT:    -4.803      0.000      0.000
REMARK INTER + INTRA:          -6.390
REMARK INTER:                  -6.207
REMARK INTRA:                  -0.183
REMARK UNBOUND:                -0.183
REMARK SMILES CCCCCCC(=O)[O-]
REMARK SMILES IDX 5 1 6 2 7 3 8 4 9 5 4 6 3 7 2 8 1 9
REMARK H PARENT
REMARK Flexibility Score: inf
ROOT
ATOM      1  C   UNL     1      19.530  23.880  42.114  1.00  0.00     0.006 C 
ENDROOT
BRANCH   1   2
ATOM      2  C   UNL     1      19.876  22.798  41.082  1.00  0.00     0.053 C 
BRANCH   2   3
ATOM      3  C   UNL     1      21.124  23.133  40.324  1.00  0.00     0.041 C 
ATOM      4  O   UNL     1      21.068  23.863  39.299  1.00  0.00    -0.550 OA
ATOM      5  O   UNL     1      22.354  22.667  40.769  1.00  0.00    -0.550 OA
ENDBRANCH   2   3
ENDBRANCH   1   2
BRANCH   1   6
ATOM      6  C   UNL     1      18.431  23.428  43.086  1.00  0.00     0.000 C 
BRANCH   6   7
ATOM      7  C   UNL     1      18.523  21.918  43.356  1.00  0.00    -0.000 C 
BRANCH   7   8
ATOM      8  C   UNL     1      17.180  21.199  43.154  1.00  0.00    -0.003 C 
ATOM      9  C   UNL     1      17.332  19.683  43.036  1.00  0.00     0.004 C 
ENDBRANCH   7   8
ENDBRANCH   6   7
ENDBRANCH   1   6
TORSDOF 5
ENDMDL
MODEL 2
REMARK VINA RESULT:    -4.793      2.767      4.480
REMARK INTER + INTRA:          -6.376
REMARK INTER:                  -6.142
REMARK INTRA:                  -0.235
REMARK UNBOUND:                -0.183
REMARK SMILES CCCCCCC(=O)[O-]
REMARK SMILES IDX 5 1 6 2 7 3 8 4 9 5 4 6 3 7 2 8 1 9
REMARK H PARENT
REMARK Flexibility Score: inf
ROOT
ATOM      1  C   UNL     1      18.579  22.180  43.553  1.00  0.00     0.006 C 
ENDROOT
BRANCH   1   2
ATOM      2  C   UNL     1      17.365  21.253  43.402  1.00  0.00     0.053 C 
BRANCH   2   3
ATOM      3  C   UNL     1      17.712  20.003  42.654  1.00  0.00     0.041 C 
ATOM      4  O   UNL     1      17.530  18.875  43.184  1.00  0.00    -0.550 OA
ATOM      5  O   UNL     1      18.205  20.082  41.358  1.00  0.00    -0.550 OA
ENDBRANCH   2   3
ENDBRANCH   1   2
BRANCH   1   6
ATOM      6  C   UNL     1      18.277  23.614  43.094  1.00  0.00     0.000 C 
BRANCH   6   7
ATOM      7  C   UNL     1      19.375  24.131  42.152  1.00  0.00    -0.000 C 
BRANCH   7   8
ATOM      8  C   UNL     1      20.097  22.997  41.408  1.00  0.00    -0.003 C 
ATOM      9  C   UNL     1      20.872  23.489  40.186  1.00  0.00     0.004 C 
ENDBRANCH   7   8
ENDBRANCH   6   7
ENDBRANCH   1   6
TORSDOF 5
ENDMDL
MODEL 3
REMARK VINA RESULT:    -4.730      1.036      1.404
REMARK INTER + INTRA:          -6.296
REMARK INTER:                  -6.174
REMARK INTRA:                  -0.121
REMARK UNBOUND:                -0.183
REMARK SMILES CCCCCCC(=O)[O-]
REMARK SMILES IDX 5 1 6 2 7 3 8 4 9 5 4 6 3 7 2 8 1 9
REMARK H PARENT
REMARK Flexibility Score: inf
ROOT
ATOM      1  C   UNL     1      20.136  23.244  40.863  1.00  0.00     0.006 C 
ENDROOT
BRANCH   1   2
ATOM      2  C   UNL     1      21.113  22.580  39.884  1.00  0.00     0.053 C 
BRANCH   2   3
ATOM      3  C   UNL     1      22.248  23.490  39.531  1.00  0.00     0.041 C 
ATOM      4  O   UNL     1      22.147  24.282  38.556  1.00  0.00    -0.550 OA
ATOM      5  O   UNL     1      23.406  23.488  40.298  1.00  0.00    -0.550 OA
ENDBRANCH   2   3
ENDBRANCH   1   2
BRANCH   1   6
ATOM      6  C   UNL     1      19.063  22.268  41.369  1.00  0.00     0.000 C 
BRANCH   6   7
ATOM      7  C   UNL     1      18.669  22.587  42.819  1.00  0.00    -0.000 C 
BRANCH   7   8
ATOM      8  C   UNL     1      17.689  21.559  43.404  1.00  0.00    -0.003 C 
ATOM      9  C   UNL     1      17.745  20.211  42.686  1.00  0.00     0.004 C 
ENDBRANCH   7   8
ENDBRANCH   6   7
ENDBRANCH   1   6
TORSDOF 5
ENDMDL
MODEL 4
REMARK VINA RESULT:    -4.672      3.179      4.911
REMARK INTER + INTRA:          -6.220
REMARK INTER:                  -6.058
REMARK INTRA:                  -0.162
REMARK UNBOUND:                -0.183
REMARK SMILES CCCCCCC(=O)[O-]
REMARK SMILES IDX 5 1 6 2 7 3 8 4 9 5 4 6 3 7 2 8 1 9
REMARK H PARENT
REMARK Flexibility Score: inf
ROOT
ATOM      1  C   UNL     1      19.003  22.503  42.492  1.00  0.00     0.006 C 
ENDROOT
BRANCH   1   2
ATOM      2  C   UNL     1      18.473  21.223  41.832  1.00  0.00     0.053 C 
BRANCH   2   3
ATOM      3  C   UNL     1      17.549  20.473  42.742  1.00  0.00     0.041 C 
ATOM      4  O   UNL     1      16.569  21.059  43.275  1.00  0.00    -0.550 OA
ATOM      5  O   UNL     1      17.750  19.119  42.975  1.00  0.00    -0.550 OA
ENDBRANCH   2   3
ENDBRANCH   1   2
BRANCH   1   6
ATOM      6  C   UNL     1      19.737  23.412  41.495  1.00  0.00     0.000 C 
BRANCH   6   7
ATOM      7  C   UNL     1      20.363  22.589  40.359  1.00  0.00    -0.000 C 
BRANCH   7   8
ATOM      8  C   UNL     1      21.548  23.306  39.694  1.00  0.00    -0.003 C 
ATOM      9  C   UNL     1      22.876  23.030  40.398  1.00  0.00     0.004 C 
ENDBRANCH   7   8
ENDBRANCH   6   7
ENDBRANCH   1   6
TORSDOF 5
ENDMDL
MODEL 5
REMARK VINA RESULT:    -4.252      3.376      4.634
REMARK INTER + INTRA:          -5.678
REMARK INTER:                  -5.504
REMARK INTRA:                  -0.173
REMARK UNBOUND:                -0.183
REMARK SMILES CCCCCCC(=O)[O-]
REMARK SMILES IDX 5 1 6 2 7 3 8 4 9 5 4 6 3 7 2 8 1 9
REMARK H PARENT
REMARK Flexibility Score: inf
ROOT
ATOM      1  C   UNL     1      18.503  20.906  40.893  1.00  0.00     0.006 C 
ENDROOT
BRANCH   1   2
ATOM      2  C   UNL     1      18.624  20.662  42.402  1.00  0.00     0.053 C 
BRANCH   2   3
ATOM      3  C   UNL     1      17.324  20.217  42.999  1.00  0.00     0.041 C 
ATOM      4  O   UNL     1      16.416  21.056  43.238  1.00  0.00    -0.550 OA
ATOM      5  O   UNL     1      17.103  18.872  43.260  1.00  0.00    -0.550 OA
ENDBRANCH   2   3
ENDBRANCH   1   2
BRANCH   1   6
ATOM      6  C   UNL     1      19.258  22.165  40.443  1.00  0.00     0.000 C 
BRANCH   6   7
ATOM      7  C   UNL     1      20.061  22.769  41.605  1.00  0.00    -0.000 C 
BRANCH   7   8
ATOM      8  C   UNL     1      19.463  24.090  42.113  1.00  0.00    -0.003 C 
ATOM      9  C   UNL     1      18.807  23.953  43.487  1.00  0.00     0.004 C 
ENDBRANCH   7   8
ENDBRANCH   6   7
ENDBRANCH   1   6
TORSDOF 5
ENDMDL
MODEL 6
REMARK VINA RESULT:    -4.039     12.603     14.148
REMARK INTER + INTRA:          -5.403
REMARK INTER:                  -5.091
REMARK INTRA:                  -0.311
REMARK UNBOUND:                -0.183
REMARK SMILES CCCCCCC(=O)[O-]
REMARK SMILES IDX 5 1 6 2 7 3 8 4 9 5 4 6 3 7 2 8 1 9
REMARK H PARENT
REMARK Flexibility Score: inf
ROOT
ATOM      1  C   UNL     1      12.534  13.285  34.387  1.00  0.00     0.006 C 
ENDROOT
BRANCH   1   2
ATOM      2  C   UNL     1      13.149  13.890  35.656  1.00  0.00     0.053 C 
BRANCH   2   3
ATOM      3  C   UNL     1      13.445  12.840  36.683  1.00  0.00     0.041 C 
ATOM      4  O   UNL     1      12.562  12.498  37.514  1.00  0.00    -0.550 OA
ATOM      5  O   UNL     1      14.685  12.216  36.703  1.00  0.00    -0.550 OA
ENDBRANCH   2   3
ENDBRANCH   1   2
BRANCH   1   6
ATOM      6  C   UNL     1      13.599  12.909  33.346  1.00  0.00     0.000 C 
BRANCH   6   7
ATOM      7  C   UNL     1      13.409  11.463  32.864  1.00  0.00    -0.000 C 
BRANCH   7   8
ATOM      8  C   UNL     1      14.692  10.627  32.984  1.00  0.00    -0.003 C 
ATOM      9  C   UNL     1      15.916  11.469  33.344  1.00  0.00     0.004 C 
ENDBRANCH   7   8
ENDBRANCH   6   7
ENDBRANCH   1   6
TORSDOF 5
ENDMDL
MODEL 7
REMARK VINA RESULT:    -3.908     13.094     13.887
REMARK INTER + INTRA:          -5.233
REMARK INTER:                  -5.021
REMARK INTRA:                  -0.212
REMARK UNBOUND:                -0.183
REMARK SMILES CCCCCCC(=O)[O-]
REMARK SMILES IDX 5 1 6 2 7 3 8 4 9 5 4 6 3 7 2 8 1 9
REMARK H PARENT
REMARK Flexibility Score: inf
ROOT
ATOM      1  C   UNL     1      12.763  13.060  34.205  1.00  0.00     0.006 C 
ENDROOT
BRANCH   1   2
ATOM      2  C   UNL     1      14.274  12.803  34.140  1.00  0.00     0.053 C 
BRANCH   2   3
ATOM      3  C   UNL     1      14.602  11.643  33.251  1.00  0.00     0.041 C 
ATOM      4  O   UNL     1      15.801  11.307  33.064  1.00  0.00    -0.550 OA
ATOM      5  O   UNL     1      13.582  10.914  32.654  1.00  0.00    -0.550 OA
ENDBRANCH   2   3
ENDBRANCH   1   2
BRANCH   1   6
ATOM      6  C   UNL     1      12.321  13.601  35.573  1.00  0.00     0.000 C 
BRANCH   6   7
ATOM      7  C   UNL     1      13.155  12.982  36.704  1.00  0.00    -0.000 C 
BRANCH   7   8
ATOM      8  C   UNL     1      12.330  12.045  37.601  1.00  0.00    -0.003 C 
ATOM      9  C   UNL     1      10.904  12.546  37.826  1.00  0.00     0.004 C 
ENDBRANCH   7   8
ENDBRANCH   6   7
ENDBRANCH   1   6
TORSDOF 5
ENDMDL
MODEL 8
REMARK VINA RESULT:    -3.876     13.298     14.279
REMARK INTER + INTRA:          -5.192
REMARK INTER:                  -4.813
REMARK INTRA:                  -0.379
REMARK UNBOUND:                -0.183
REMARK SMILES CCCCCCC(=O)[O-]
REMARK SMILES IDX 5 1 6 2 7 3 8 4 9 5 4 6 3 7 2 8 1 9
REMARK H PARENT
REMARK Flexibility Score: inf
ROOT
ATOM      1  C   UNL     1      14.755  12.888  34.112  1.00  0.00     0.006 C 
ENDROOT
BRANCH   1   2
ATOM      2  C   UNL     1      15.356  11.552  33.656  1.00  0.00     0.053 C 
BRANCH   2   3
ATOM      3  C   UNL     1      14.521  10.389  34.097  1.00  0.00     0.041 C 
ATOM      4  O   UNL     1      13.961   9.650  33.244  1.00  0.00    -0.550 OA
ATOM      5  O   UNL     1      14.389  10.101  35.449  1.00  0.00    -0.550 OA
ENDBRANCH   2   3
ENDBRANCH   1   2
BRANCH   1   6
ATOM      6  C   UNL     1      13.272  13.021  33.732  1.00  0.00     0.000 C 
BRANCH   6   7
ATOM      7  C   UNL     1      12.466  13.650  34.878  1.00  0.00    -0.000 C 
BRANCH   7   8
ATOM      8  C   UNL     1      13.032  13.296  36.262  1.00  0.00    -0.003 C 
ATOM      9  C   UNL     1      12.068  12.456  37.099  1.00  0.00     0.004 C 
ENDBRANCH   7   8
ENDBRANCH   6   7
ENDBRANCH   1   6
TORSDOF 5
ENDMDL
MODEL 9
REMARK VINA RESULT:    -3.869     13.315     14.235
REMARK INTER + INTRA:          -5.183
REMARK INTER:                  -4.775
REMARK INTRA:                  -0.408
REMARK UNBOUND:                -0.183
REMARK SMILES CCCCCCC(=O)[O-]
REMARK SMILES IDX 5 1 6 2 7 3 8 4 9 5 4 6 3 7 2 8 1 9
REMARK H PARENT
REMARK Flexibility Score: inf
ROOT
ATOM      1  C   UNL     1      15.887  11.756  34.854  1.00  0.00     0.006 C 
ENDROOT
BRANCH   1   2
ATOM      2  C   UNL     1      15.723  11.483  33.353  1.00  0.00     0.053 C 
BRANCH   2   3
ATOM      3  C   UNL     1      14.404  10.842  33.046  1.00  0.00     0.041 C 
ATOM      4  O   UNL     1      14.149   9.683  33.467  1.00  0.00    -0.550 OA
ATOM      5  O   UNL     1      13.444  11.538  32.324  1.00  0.00    -0.550 OA
ENDBRANCH   2   3
ENDBRANCH   1   2
BRANCH   1   6
ATOM      6  C   UNL     1      15.119  13.007  35.306  1.00  0.00     0.000 C 
BRANCH   6   7
ATOM      7  C   UNL     1      14.120  12.666  36.421  1.00  0.00    -0.000 C 
BRANCH   7   8
ATOM      8  C   UNL     1      12.659  12.845  35.980  1.00  0.00    -0.003 C 
ATOM      9  C   UNL     1      12.502  13.866  34.854  1.00  0.00     0.004 C 
ENDBRANCH   7   8
ENDBRANCH   6   7
ENDBRANCH   1   6
TORSDOF 5
ENDMDL
