MODEL 1
REMARK VINA RESULT:    75.065      0.000      0.000
REMARK INTER + INTRA:         163.060
REMARK INTER:                 158.442
REMARK INTRA:                   4.618
REMARK UNBOUND:                 4.618
REMARK SMILES CCC(=O)CCCCC[C@@H]1NC(=O)[C@H]2CCCCN2C(=O)[C@H]([C@@H](C)CC)NC(=O)[C@@H](Cc2cn(OC)c3ccccc23)NC1=O
REMARK SMILES IDX 9 1 10 2 44 3 43 4 45 6 30 7 28 8 27 9 29 11 22 12 23 14
REMARK SMILES IDX 24 15 25 16 26 17 31 18 32 19 33 20 42 21 34 22 37 23 41 24
REMARK SMILES IDX 38 25 40 26 39 27 35 28 36 29 11 30 12 31 13 33 14 34 19 35
REMARK SMILES IDX 15 36 18 37 16 38 17 39 20 40 21 41 8 43 7 44 6 45 5 46 3 47
REMARK SMILES IDX 4 48 2 49 1 50
REMARK H PARENT 43 5 27 10 11 32
REMARK Flexibility Score: 80.00
ROOT
ATOM      1  C   UNL     1      21.349  21.757  23.529  1.00  0.00     0.035 C 
ENDROOT
BRANCH   1   2
ATOM      2  C   UNL     1      21.146  20.388  24.216  1.00  0.00     0.171 C 
BRANCH   2   3
ATOM      3  C   UNL     1      20.534  19.396  23.263  1.00  0.00     0.243 C 
ATOM      4  N   UNL     1      20.333  19.738  21.880  1.00  0.00    -0.342 N 
ATOM      5  H   UNL     1      20.351  20.743  21.596  1.00  0.00     0.164 HD
ATOM      6  O   UNL     1      20.273  18.235  23.675  1.00  0.00    -0.273 OA
BRANCH   4   7
ATOM      7  C   UNL     1      20.297  18.752  20.798  1.00  0.00     0.175 C 
BRANCH   7   8
ATOM      8  C   UNL     1      21.694  18.251  20.513  1.00  0.00     0.243 C 
ATOM      9  N   UNL     1      22.677  18.262  21.561  1.00  0.00    -0.342 N 
ATOM     10  H   UNL     1      22.381  18.516  22.533  1.00  0.00     0.164 HD
ATOM     11  O   UNL     1      22.008  17.865  19.355  1.00  0.00    -0.273 OA
BRANCH   9  12
ATOM     12  C   UNL     1      24.104  18.022  21.325  1.00  0.00     0.174 CG0
ATOM     13  G   UNL     1      24.743  17.596  22.630  1.00  0.00     0.000 G0
BRANCH  12  14
ATOM     14  C   UNL     1      24.788  19.273  20.696  1.00  0.00     0.018 C 
ATOM     15  C   UNL     1      25.540  20.073  21.783  1.00  0.00     0.010 C 
BRANCH  14  16
ATOM     16  C   UNL     1      25.758  18.875  19.551  1.00  0.00     0.002 C 
ATOM     17  C   UNL     1      26.964  19.811  19.430  1.00  0.00     0.004 C 
ENDBRANCH  14  16
ENDBRANCH  12  14
ENDBRANCH   9  12
ENDBRANCH   7   8
BRANCH   7  18
ATOM     18  C   UNL     1      19.288  17.618  21.093  1.00  0.00     0.073 C 
BRANCH  18  19
ATOM     19  C   UNL     1      18.248  17.515  20.014  1.00  0.00    -0.016 A 
ATOM     20  C   UNL     1      18.302  18.116  18.765  1.00  0.00     0.134 A 
ATOM     21  C   UNL     1      17.107  16.741  20.011  1.00  0.00     0.006 A 
ATOM     22  N   UNL     1      17.236  17.751  18.018  1.00  0.00    -0.191 N 
ATOM     23  C   UNL     1      16.498  16.903  18.782  1.00  0.00     0.087 A 
ATOM     24  C   UNL     1      16.587  15.900  20.995  1.00  0.00     0.011 A 
ATOM     25  C   UNL     1      15.310  16.217  18.483  1.00  0.00     0.030 A 
ATOM     26  C   UNL     1      15.395  15.218  20.714  1.00  0.00     0.001 A 
ATOM     27  C   UNL     1      14.761  15.374  19.465  1.00  0.00     0.002 A 
BRANCH  22  28
ATOM     28  O   UNL     1      17.051  18.215  16.725  1.00  0.00    -0.417 OA
ATOM     29  C   UNL     1      17.334  17.474  15.546  1.00  0.00     0.313 C 
ENDBRANCH  22  28
ENDBRANCH  18  19
ENDBRANCH   7  18
ENDBRANCH   4   7
ENDBRANCH   2   3
BRANCH   2  30
ATOM     30  N   UNL     1      22.420  19.850  24.712  1.00  0.00    -0.343 N 
ATOM     31  C   UNL     1      23.659  20.041  24.008  1.00  0.00     0.243 C 
ATOM     32  H   UNL     1      22.434  19.304  25.606  1.00  0.00     0.164 HD
ATOM     33  O   UNL     1      23.698  20.770  22.981  1.00  0.00    -0.273 OA
BRANCH  31  34
ATOM     34  C   UNL     1      24.920  19.370  24.499  1.00  0.00     0.174 C 
ATOM     35  N   UNL     1      25.497  18.427  23.520  1.00  0.00    -0.329 N 
ATOM     36  C   UNL     1      24.693  18.642  25.836  1.00  0.00     0.035 C 
ATOM     37  C   UNL     1      26.794  17.869  23.925  1.00  0.00     0.120 C 
ATOM     38  C   UNL     1      26.005  18.008  26.325  1.00  0.00     0.004 C 
ATOM     39  C   UNL     1      26.637  17.112  25.249  1.00  0.00     0.022 C 
BRANCH  35  40
ATOM     40  C   UNL     1      24.648  17.612  22.687  1.00  0.00     0.246 CG0
ATOM     41  O   UNL     1      24.254  16.492  23.113  1.00  0.00    -0.272 OA
ATOM     42  G   UNL     1      24.154  18.097  21.339  1.00  0.00     0.000 G0
ENDBRANCH  35  40
ENDBRANCH  31  34
ENDBRANCH   2  30
ENDBRANCH   1   2
BRANCH   1  43
ATOM     43  C   UNL     1      20.258  22.772  23.913  1.00  0.00     0.003 C 
BRANCH  43  44
ATOM     44  C   UNL     1      20.085  23.871  22.850  1.00  0.00     0.001 C 
BRANCH  44  45
ATOM     45  C   UNL     1      18.801  23.700  22.016  1.00  0.00     0.008 C 
BRANCH  45  46
ATOM     46  C   UNL     1      19.057  22.944  20.707  1.00  0.00     0.075 C 
BRANCH  46  47
ATOM     47  C   UNL     1      18.561  23.696  19.499  1.00  0.00     0.132 C 
ATOM     48  O   UNL     1      18.362  24.896  19.582  1.00  0.00    -0.300 OA
BRANCH  47  49
ATOM     49  C   UNL     1      18.345  22.995  18.184  1.00  0.00     0.072 C 
ATOM     50  C   UNL     1      19.174  23.639  17.078  1.00  0.00     0.012 C 
ENDBRANCH  47  49
ENDBRANCH  46  47
ENDBRANCH  45  46
ENDBRANCH  44  45
ENDBRANCH  43  44
ENDBRANCH   1  43
TORSDOF 12
ENDMDL
MODEL 2
REMARK VINA RESULT:    76.672      1.916      2.510
REMARK INTER + INTRA:         166.453
REMARK INTER:                 160.699
REMARK INTRA:                   5.754
REMARK UNBOUND:                 4.618
REMARK SMILES CCC(=O)CCCCC[C@@H]1NC(=O)[C@H]2CCCCN2C(=O)[C@H]([C@@H](C)CC)NC(=O)[C@@H](Cc2cn(OC)c3ccccc23)NC1=O
REMARK SMILES IDX 9 1 10 2 44 3 43 4 45 6 30 7 28 8 27 9 29 11 22 12 23 14
REMARK SMILES IDX 24 15 25 16 26 17 31 18 32 19 33 20 42 21 34 22 37 23 41 24
REMARK SMILES IDX 38 25 40 26 39 27 35 28 36 29 11 30 12 31 13 33 14 34 19 35
REMARK SMILES IDX 15 36 18 37 16 38 17 39 20 40 21 41 8 43 7 44 6 45 5 46 3 47
REMARK SMILES IDX 4 48 2 49 1 50
REMARK H PARENT 43 5 27 10 11 32
REMARK Flexibility Score: 80.00
ROOT
ATOM      1  C   UNL     1      20.840  22.011  23.905  1.00  0.00     0.035 C 
ENDROOT
BRANCH   1   2
ATOM      2  C   UNL     1      20.809  20.572  24.464  1.00  0.00     0.171 C 
BRANCH   2   3
ATOM      3  C   UNL     1      20.309  19.604  23.425  1.00  0.00     0.243 C 
ATOM      4  N   UNL     1      20.529  19.854  22.025  1.00  0.00    -0.342 N 
ATOM      5  H   UNL     1      20.785  20.818  21.715  1.00  0.00     0.164 HD
ATOM      6  O   UNL     1      19.763  18.532  23.800  1.00  0.00    -0.273 OA
BRANCH   4   7
ATOM      7  C   UNL     1      20.613  18.796  21.015  1.00  0.00     0.175 C 
BRANCH   7   8
ATOM      8  C   UNL     1      21.997  18.193  21.017  1.00  0.00     0.243 C 
ATOM      9  N   UNL     1      22.691  18.017  22.264  1.00  0.00    -0.342 N 
ATOM     10  H   UNL     1      22.185  18.211  23.159  1.00  0.00     0.164 HD
ATOM     11  O   UNL     1      22.558  17.882  19.932  1.00  0.00    -0.273 OA
BRANCH   9  12
ATOM     12  C   UNL     1      24.112  17.664  22.348  1.00  0.00     0.174 CG0
ATOM     13  G   UNL     1      24.930  18.936  22.246  1.00  0.00     0.000 G0
BRANCH  12  14
ATOM     14  C   UNL     1      24.495  16.609  21.267  1.00  0.00     0.018 C 
ATOM     15  C   UNL     1      24.190  17.158  19.855  1.00  0.00     0.010 C 
BRANCH  14  16
ATOM     16  C   UNL     1      25.988  16.200  21.377  1.00  0.00     0.002 C 
ATOM     17  C   UNL     1      26.198  14.887  22.137  1.00  0.00     0.004 C 
ENDBRANCH  14  16
ENDBRANCH  12  14
ENDBRANCH   9  12
ENDBRANCH   7   8
BRANCH   7  18
ATOM     18  C   UNL     1      19.488  17.750  21.192  1.00  0.00     0.073 C 
BRANCH  18  19
ATOM     19  C   UNL     1      18.678  17.600  19.936  1.00  0.00    -0.016 A 
ATOM     20  C   UNL     1      19.146  17.742  18.637  1.00  0.00     0.134 A 
ATOM     21  C   UNL     1      17.363  17.200  19.821  1.00  0.00     0.006 A 
ATOM     22  N   UNL     1      18.167  17.464  17.749  1.00  0.00    -0.191 N 
ATOM     23  C   UNL     1      17.067  17.128  18.474  1.00  0.00     0.087 A 
ATOM     24  C   UNL     1      16.429  16.882  20.807  1.00  0.00     0.011 A 
ATOM     25  C   UNL     1      15.790  16.729  18.048  1.00  0.00     0.030 A 
ATOM     26  C   UNL     1      15.146  16.494  20.396  1.00  0.00     0.001 A 
ATOM     27  C   UNL     1      14.829  16.416  19.025  1.00  0.00     0.002 A 
BRANCH  22  28
ATOM     28  O   UNL     1      18.375  17.532  16.380  1.00  0.00    -0.417 OA
ATOM     29  C   UNL     1      17.354  17.719  15.409  1.00  0.00     0.313 C 
ENDBRANCH  22  28
ENDBRANCH  18  19
ENDBRANCH   7  18
ENDBRANCH   4   7
ENDBRANCH   2   3
BRANCH   2  30
ATOM     30  N   UNL     1      22.143  20.147  24.909  1.00  0.00    -0.343 N 
ATOM     31  C   UNL     1      23.338  20.496  24.189  1.00  0.00     0.243 C 
ATOM     32  H   UNL     1      22.235  19.567  25.776  1.00  0.00     0.164 HD
ATOM     33  O   UNL     1      23.277  21.269  23.196  1.00  0.00    -0.273 OA
BRANCH  31  34
ATOM     34  C   UNL     1      24.673  19.938  24.623  1.00  0.00     0.174 C 
ATOM     35  N   UNL     1      25.535  19.543  23.492  1.00  0.00    -0.329 N 
ATOM     36  C   UNL     1      24.506  18.743  25.579  1.00  0.00     0.035 C 
ATOM     37  C   UNL     1      26.886  19.126  23.890  1.00  0.00     0.120 C 
ATOM     38  C   UNL     1      25.882  18.229  26.032  1.00  0.00     0.004 C 
ATOM     39  C   UNL     1      26.795  17.922  24.835  1.00  0.00     0.022 C 
BRANCH  35  40
ATOM     40  C   UNL     1      24.973  18.947  22.305  1.00  0.00     0.246 CG0
ATOM     41  O   UNL     1      25.223  19.455  21.178  1.00  0.00    -0.272 OA
ATOM     42  G   UNL     1      24.146  17.678  22.368  1.00  0.00     0.000 G0
ENDBRANCH  35  40
ENDBRANCH  31  34
ENDBRANCH   2  30
ENDBRANCH   1   2
BRANCH   1  43
ATOM     43  C   UNL     1      20.063  23.000  24.792  1.00  0.00     0.003 C 
BRANCH  43  44
ATOM     44  C   UNL     1      19.550  24.215  23.998  1.00  0.00     0.001 C 
BRANCH  44  45
ATOM     45  C   UNL     1      18.416  23.854  23.019  1.00  0.00     0.008 C 
BRANCH  45  46
ATOM     46  C   UNL     1      17.127  24.630  23.315  1.00  0.00     0.075 C 
BRANCH  46  47
ATOM     47  C   UNL     1      15.965  23.723  23.627  1.00  0.00     0.132 C 
ATOM     48  O   UNL     1      16.134  22.767  24.364  1.00  0.00    -0.300 OA
BRANCH  47  49
ATOM     49  C   UNL     1      14.593  24.003  23.073  1.00  0.00     0.072 C 
ATOM     50  C   UNL     1      13.667  24.548  24.155  1.00  0.00     0.012 C 
ENDBRANCH  47  49
ENDBRANCH  46  47
ENDBRANCH  45  46
ENDBRANCH  44  45
ENDBRANCH  43  44
ENDBRANCH   1  43
TORSDOF 12
ENDMDL
MODEL 3
REMARK VINA RESULT:    76.855      1.791      2.636
REMARK INTER + INTRA:         166.838
REMARK INTER:                 156.436
REMARK INTRA:                  10.402
REMARK UNBOUND:                 4.618
REMARK SMILES CCC(=O)CCCCC[C@@H]1NC(=O)[C@H]2CCCCN2C(=O)[C@H]([C@@H](C)CC)NC(=O)[C@@H](Cc2cn(OC)c3ccccc23)NC1=O
REMARK SMILES IDX 9 1 10 2 44 3 43 4 45 6 30 7 28 8 27 9 29 11 22 12 23 14
REMARK SMILES IDX 24 15 25 16 26 17 31 18 32 19 33 20 42 21 34 22 37 23 41 24
REMARK SMILES IDX 38 25 40 26 39 27 35 28 36 29 11 30 12 31 13 33 14 34 19 35
REMARK SMILES IDX 15 36 18 37 16 38 17 39 20 40 21 41 8 43 7 44 6 45 5 46 3 47
REMARK SMILES IDX 4 48 2 49 1 50
REMARK H PARENT 43 5 27 10 11 32
REMARK Flexibility Score: 80.00
ROOT
ATOM      1  C   UNL     1      21.358  22.058  23.500  1.00  0.00     0.035 C 
ENDROOT
BRANCH   1   2
ATOM      2  C   UNL     1      21.192  20.781  24.353  1.00  0.00     0.171 C 
BRANCH   2   3
ATOM      3  C   UNL     1      20.540  19.683  23.554  1.00  0.00     0.243 C 
ATOM      4  N   UNL     1      20.351  19.824  22.135  1.00  0.00    -0.342 N 
ATOM      5  H   UNL     1      20.408  20.775  21.706  1.00  0.00     0.164 HD
ATOM      6  O   UNL     1      20.235  18.606  24.132  1.00  0.00    -0.273 OA
BRANCH   4   7
ATOM      7  C   UNL     1      20.276  18.692  21.210  1.00  0.00     0.175 C 
BRANCH   7   8
ATOM      8  C   UNL     1      21.668  18.258  20.815  1.00  0.00     0.243 C 
ATOM      9  N   UNL     1      22.735  18.345  21.775  1.00  0.00    -0.342 N 
ATOM     10  H   UNL     1      22.510  18.606  22.763  1.00  0.00     0.164 HD
ATOM     11  O   UNL     1      21.903  17.861  19.643  1.00  0.00    -0.273 OA
BRANCH   9  12
ATOM     12  C   UNL     1      24.148  18.174  21.421  1.00  0.00     0.174 CG0
ATOM     13  G   UNL     1      24.893  17.677  22.643  1.00  0.00     0.000 G0
BRANCH  12  14
ATOM     14  C   UNL     1      24.746  19.490  20.841  1.00  0.00     0.018 C 
ATOM     15  C   UNL     1      25.425  20.307  21.963  1.00  0.00     0.010 C 
BRANCH  14  16
ATOM     16  C   UNL     1      25.754  19.201  19.697  1.00  0.00     0.002 C 
ATOM     17  C   UNL     1      27.015  20.068  19.772  1.00  0.00     0.004 C 
ENDBRANCH  14  16
ENDBRANCH  12  14
ENDBRANCH   9  12
ENDBRANCH   7   8
BRANCH   7  18
ATOM     18  C   UNL     1      19.416  17.543  21.785  1.00  0.00     0.073 C 
BRANCH  18  19
ATOM     19  C   UNL     1      18.221  17.266  20.918  1.00  0.00    -0.016 A 
ATOM     20  C   UNL     1      17.643  16.026  20.690  1.00  0.00     0.134 A 
ATOM     21  C   UNL     1      17.417  18.181  20.270  1.00  0.00     0.006 A 
ATOM     22  N   UNL     1      16.539  16.153  19.921  1.00  0.00    -0.191 N 
ATOM     23  C   UNL     1      16.396  17.479  19.661  1.00  0.00     0.087 A 
ATOM     24  C   UNL     1      17.512  19.571  20.197  1.00  0.00     0.011 A 
ATOM     25  C   UNL     1      15.405  18.156  18.932  1.00  0.00     0.030 A 
ATOM     26  C   UNL     1      16.537  20.259  19.463  1.00  0.00     0.001 A 
ATOM     27  C   UNL     1      15.489  19.556  18.835  1.00  0.00     0.002 A 
BRANCH  22  28
ATOM     28  O   UNL     1      15.775  15.059  19.546  1.00  0.00    -0.417 OA
ATOM     29  C   UNL     1      15.125  14.172  20.447  1.00  0.00     0.313 C 
ENDBRANCH  22  28
ENDBRANCH  18  19
ENDBRANCH   7  18
ENDBRANCH   4   7
ENDBRANCH   2   3
BRANCH   2  30
ATOM     30  N   UNL     1      22.489  20.303  24.851  1.00  0.00    -0.343 N 
ATOM     31  C   UNL     1      23.548  19.900  23.966  1.00  0.00     0.243 C 
ATOM     32  H   UNL     1      22.654  20.248  25.884  1.00  0.00     0.164 HD
ATOM     33  O   UNL     1      23.421  20.041  22.720  1.00  0.00    -0.273 OA
BRANCH  31  34
ATOM     34  C   UNL     1      24.819  19.308  24.527  1.00  0.00     0.174 C 
ATOM     35  N   UNL     1      25.556  18.478  23.553  1.00  0.00    -0.329 N 
ATOM     36  C   UNL     1      24.550  18.484  25.799  1.00  0.00     0.035 C 
ATOM     37  C   UNL     1      26.859  18.006  24.039  1.00  0.00     0.120 C 
ATOM     38  C   UNL     1      25.868  17.933  26.365  1.00  0.00     0.004 C 
ATOM     39  C   UNL     1      26.662  17.160  25.302  1.00  0.00     0.022 C 
BRANCH  35  40
ATOM     40  C   UNL     1      24.852  17.646  22.608  1.00  0.00     0.246 CG0
ATOM     41  O   UNL     1      24.775  16.404  22.813  1.00  0.00    -0.272 OA
ATOM     42  G   UNL     1      24.138  18.236  21.408  1.00  0.00     0.000 G0
ENDBRANCH  35  40
ENDBRANCH  31  34
ENDBRANCH   2  30
ENDBRANCH   1   2
BRANCH   1  43
ATOM     43  C   UNL     1      20.308  23.130  23.841  1.00  0.00     0.003 C 
BRANCH  43  44
ATOM     44  C   UNL     1      19.836  23.899  22.594  1.00  0.00     0.001 C 
BRANCH  44  45
ATOM     45  C   UNL     1      18.302  24.017  22.509  1.00  0.00     0.008 C 
BRANCH  45  46
ATOM     46  C   UNL     1      17.619  23.659  23.834  1.00  0.00     0.075 C 
BRANCH  46  47
ATOM     47  C   UNL     1      16.136  23.443  23.680  1.00  0.00     0.132 C 
ATOM     48  O   UNL     1      15.658  22.359  23.969  1.00  0.00    -0.300 OA
BRANCH  47  49
ATOM     49  C   UNL     1      15.235  24.554  23.212  1.00  0.00     0.072 C 
ATOM     50  C   UNL     1      13.777  24.254  23.547  1.00  0.00     0.012 C 
ENDBRANCH  47  49
ENDBRANCH  46  47
ENDBRANCH  45  46
ENDBRANCH  44  45
ENDBRANCH  43  44
ENDBRANCH   1  43
TORSDOF 12
ENDMDL
MODEL 4
REMARK VINA RESULT:    77.439      2.799      9.081
REMARK INTER + INTRA:         168.071
REMARK INTER:                 156.609
REMARK INTRA:                  11.462
REMARK UNBOUND:                 4.618
REMARK SMILES CCC(=O)CCCCC[C@@H]1NC(=O)[C@H]2CCCCN2C(=O)[C@H]([C@@H](C)CC)NC(=O)[C@@H](Cc2cn(OC)c3ccccc23)NC1=O
REMARK SMILES IDX 9 1 10 2 44 3 43 4 45 6 30 7 28 8 27 9 29 11 22 12 23 14
REMARK SMILES IDX 24 15 25 16 26 17 31 18 32 19 33 20 42 21 34 22 37 23 41 24
REMARK SMILES IDX 38 25 40 26 39 27 35 28 36 29 11 30 12 31 13 33 14 34 19 35
REMARK SMILES IDX 15 36 18 37 16 38 17 39 20 40 21 41 8 43 7 44 6 45 5 46 3 47
REMARK SMILES IDX 4 48 2 49 1 50
REMARK H PARENT 43 5 27 10 11 32
REMARK Flexibility Score: 80.00
ROOT
ATOM      1  C   UNL     1      22.979  17.873  18.861  1.00  0.00     0.035 C 
ENDROOT
BRANCH   1   2
ATOM      2  C   UNL     1      21.594  17.191  18.921  1.00  0.00     0.171 C 
BRANCH   2   3
ATOM      3  C   UNL     1      20.878  17.546  20.198  1.00  0.00     0.243 C 
ATOM      4  N   UNL     1      20.286  18.847  20.368  1.00  0.00    -0.342 N 
ATOM      5  H   UNL     1      20.582  19.626  19.738  1.00  0.00     0.164 HD
ATOM      6  O   UNL     1      20.735  16.663  21.084  1.00  0.00    -0.273 OA
BRANCH   4   7
ATOM      7  C   UNL     1      19.144  19.110  21.245  1.00  0.00     0.175 C 
BRANCH   7   8
ATOM      8  C   UNL     1      17.921  18.390  20.726  1.00  0.00     0.243 C 
ATOM      9  N   UNL     1      18.066  17.410  19.684  1.00  0.00    -0.342 N 
ATOM     10  H   UNL     1      19.028  17.133  19.377  1.00  0.00     0.164 HD
ATOM     11  O   UNL     1      16.777  18.675  21.172  1.00  0.00    -0.273 OA
BRANCH   9  12
ATOM     12  C   UNL     1      16.928  16.837  18.959  1.00  0.00     0.174 CG0
ATOM     13  G   UNL     1      16.523  17.800  17.861  1.00  0.00     0.000 G0
BRANCH  12  14
ATOM     14  C   UNL     1      15.757  16.496  19.928  1.00  0.00     0.018 C 
ATOM     15  C   UNL     1      14.422  16.442  19.152  1.00  0.00     0.010 C 
BRANCH  14  16
ATOM     16  C   UNL     1      16.005  15.155  20.669  1.00  0.00     0.002 C 
ATOM     17  C   UNL     1      15.091  14.023  20.191  1.00  0.00     0.004 C 
ENDBRANCH  14  16
ENDBRANCH  12  14
ENDBRANCH   9  12
ENDBRANCH   7   8
BRANCH   7  18
ATOM     18  C   UNL     1      19.469  18.778  22.719  1.00  0.00     0.073 C 
BRANCH  18  19
ATOM     19  C   UNL     1      20.483  19.733  23.284  1.00  0.00    -0.016 A 
ATOM     20  C   UNL     1      21.559  19.400  24.094  1.00  0.00     0.134 A 
ATOM     21  C   UNL     1      20.602  21.084  23.035  1.00  0.00     0.006 A 
ATOM     22  N   UNL     1      22.309  20.494  24.357  1.00  0.00    -0.191 N 
ATOM     23  C   UNL     1      21.723  21.533  23.705  1.00  0.00     0.087 A 
ATOM     24  C   UNL     1      19.812  21.929  22.255  1.00  0.00     0.011 A 
ATOM     25  C   UNL     1      22.107  22.881  23.623  1.00  0.00     0.030 A 
ATOM     26  C   UNL     1      20.177  23.280  22.173  1.00  0.00     0.001 A 
ATOM     27  C   UNL     1      21.318  23.753  22.852  1.00  0.00     0.002 A 
BRANCH  22  28
ATOM     28  O   UNL     1      23.446  20.433  25.147  1.00  0.00    -0.417 OA
ATOM     29  C   UNL     1      23.625  19.554  26.249  1.00  0.00     0.313 C 
ENDBRANCH  22  28
ENDBRANCH  18  19
ENDBRANCH   7  18
ENDBRANCH   4   7
ENDBRANCH   2   3
BRANCH   2  30
ATOM     30  N   UNL     1      20.758  17.586  17.779  1.00  0.00    -0.343 N 
ATOM     31  C   UNL     1      19.378  17.194  17.669  1.00  0.00     0.243 C 
ATOM     32  H   UNL     1      21.173  18.168  17.015  1.00  0.00     0.164 HD
ATOM     33  O   UNL     1      18.818  16.574  18.612  1.00  0.00    -0.273 OA
BRANCH  31  34
ATOM     34  C   UNL     1      18.595  17.526  16.422  1.00  0.00     0.174 C 
ATOM     35  N   UNL     1      17.307  18.192  16.702  1.00  0.00    -0.329 N 
ATOM     36  C   UNL     1      18.347  16.279  15.555  1.00  0.00     0.035 C 
ATOM     37  C   UNL     1      16.597  18.644  15.498  1.00  0.00     0.120 C 
ATOM     38  C   UNL     1      17.586  16.662  14.276  1.00  0.00     0.004 C 
ATOM     39  C   UNL     1      16.301  17.442  14.593  1.00  0.00     0.022 C 
BRANCH  35  40
ATOM     40  C   UNL     1      16.514  17.818  17.847  1.00  0.00     0.246 CG0
ATOM     41  O   UNL     1      15.340  18.264  17.959  1.00  0.00    -0.272 OA
ATOM     42  G   UNL     1      17.029  16.843  18.886  1.00  0.00     0.000 G0
ENDBRANCH  35  40
ENDBRANCH  31  34
ENDBRANCH   2  30
ENDBRANCH   1   2
BRANCH   1  43
ATOM     43  C   UNL     1      23.505  18.254  20.256  1.00  0.00     0.003 C 
BRANCH  43  44
ATOM     44  C   UNL     1      24.472  17.199  20.821  1.00  0.00     0.001 C 
BRANCH  44  45
ATOM     45  C   UNL     1      24.141  16.800  22.271  1.00  0.00     0.008 C 
BRANCH  45  46
ATOM     46  C   UNL     1      25.403  16.594  23.117  1.00  0.00     0.075 C 
BRANCH  46  47
ATOM     47  C   UNL     1      25.845  17.855  23.813  1.00  0.00     0.132 C 
ATOM     48  O   UNL     1      25.923  17.871  25.029  1.00  0.00    -0.300 OA
BRANCH  47  49
ATOM     49  C   UNL     1      26.227  19.081  23.026  1.00  0.00     0.072 C 
ATOM     50  C   UNL     1      24.995  19.904  22.662  1.00  0.00     0.012 C 
ENDBRANCH  47  49
ENDBRANCH  46  47
ENDBRANCH  45  46
ENDBRANCH  44  45
ENDBRANCH  43  44
ENDBRANCH   1  43
TORSDOF 12
ENDMDL
