MODEL 1
REMARK VINA RESULT:    72.245      0.000      0.000
REMARK INTER + INTRA:          97.638
REMARK INTER:                  97.586
REMARK INTRA:                   0.052
REMARK UNBOUND:                 0.052
REMARK SMILES O=c1c(-c2ccc(O)cc2)coc2c([C@@H]3O[C@@H](CO)[C@@H](O)[C@@H](O)[C@H]3O)c(O)ccc12
REMARK SMILES IDX 3 1 11 2 12 3 13 4 30 5 2 6 1 7 29 8 28 9 26 10 14 11 4 12
REMARK SMILES IDX 5 13 6 14 7 15 10 16 9 17 8 18 15 20 24 21 16 22 22 23 17 24
REMARK SMILES IDX 20 25 25 26 23 28 18 30 19 31 21 33 27 35
REMARK H PARENT 8 19 25 27 23 29 19 32 21 34 27 36
REMARK Flexibility Score: inf
ROOT
ATOM      1  C   UNL     1      -1.871   0.108   2.782  1.00  0.00     0.065 A 
ATOM      2  C   UNL     1      -2.315   1.338   2.255  1.00  0.00     0.208 A 
ATOM      3  O   UNL     1      -3.618   1.595   2.134  1.00  0.00    -0.463 OA
ATOM      4  C   UNL     1      -4.568   0.703   2.422  1.00  0.00     0.147 A 
ATOM      5  C   UNL     1      -4.198  -0.572   2.918  1.00  0.00     0.066 A 
ATOM      6  C   UNL     1      -2.835  -0.847   3.153  1.00  0.00     0.200 A 
ATOM      7  O   UNL     1      -2.481  -1.944   3.677  1.00  0.00    -0.288 OA
ATOM      8  C   UNL     1      -5.178  -1.539   3.145  1.00  0.00     0.020 A 
ATOM      9  C   UNL     1      -6.503  -1.282   2.812  1.00  0.00     0.047 A 
ATOM     10  C   UNL     1      -6.884  -0.034   2.308  1.00  0.00     0.125 A 
ATOM     11  C   UNL     1      -5.930   1.019   2.207  1.00  0.00     0.069 A 
ENDROOT
BRANCH   1  12
ATOM     12  C   UNL     1      -0.450  -0.120   3.019  1.00  0.00    -0.011 A 
ATOM     13  C   UNL     1       0.013  -0.465   4.301  1.00  0.00     0.013 A 
ATOM     14  C   UNL     1       1.373  -0.804   4.476  1.00  0.00     0.047 A 
ATOM     15  C   UNL     1       2.269  -0.811   3.378  1.00  0.00     0.115 A 
ATOM     16  C   UNL     1       0.439  -0.113   1.933  1.00  0.00     0.013 A 
ATOM     17  C   UNL     1       1.797  -0.431   2.120  1.00  0.00     0.047 A 
BRANCH  15  18
ATOM     18  O   UNL     1       3.617  -1.179   3.545  1.00  0.00    -0.508 OA
ATOM     19  H   UNL     1       3.864  -1.989   4.083  1.00  0.00     0.293 HD
ENDBRANCH  15  18
ENDBRANCH   1  12
BRANCH  11  20
ATOM     20  C   UNL     1      -6.363   2.486   2.033  1.00  0.00     0.188 C 
ATOM     21  C   UNL     1      -6.804   3.175   3.358  1.00  0.00     0.179 C 
ATOM     22  O   UNL     1      -5.358   3.228   1.363  1.00  0.00    -0.362 OA
ATOM     23  C   UNL     1      -6.655   4.722   3.265  1.00  0.00     0.177 C 
ATOM     24  C   UNL     1      -5.809   4.490   0.882  1.00  0.00     0.176 C 
ATOM     25  C   UNL     1      -6.820   5.230   1.806  1.00  0.00     0.177 C 
BRANCH  21  26
ATOM     26  O   UNL     1      -8.157   2.845   3.614  1.00  0.00    -0.387 OA
ATOM     27  H   UNL     1      -8.418   3.215   4.508  1.00  0.00     0.211 HD
ENDBRANCH  21  26
BRANCH  23  28
ATOM     28  O   UNL     1      -7.594   5.385   4.067  1.00  0.00    -0.387 OA
ATOM     29  H   UNL     1      -7.570   6.344   3.806  1.00  0.00     0.211 HD
ENDBRANCH  23  28
BRANCH  24  30
ATOM     30  C   UNL     1      -6.204   4.388  -0.618  1.00  0.00     0.191 C 
BRANCH  30  31
ATOM     31  O   UNL     1      -5.968   3.105  -1.124  1.00  0.00    -0.394 OA
ATOM     32  H   UNL     1      -6.774   2.829  -1.629  1.00  0.00     0.210 HD
ENDBRANCH  30  31
ENDBRANCH  24  30
BRANCH  25  33
ATOM     33  O   UNL     1      -8.148   5.130   1.329  1.00  0.00    -0.388 OA
ATOM     34  H   UNL     1      -8.663   4.661   2.015  1.00  0.00     0.211 HD
ENDBRANCH  25  33
ENDBRANCH  11  20
BRANCH  10  35
ATOM     35  O   UNL     1      -8.204   0.083   1.870  1.00  0.00    -0.507 OA
ATOM     36  H   UNL     1      -8.597   0.939   1.469  1.00  0.00     0.293 HD
ENDBRANCH  10  35
TORSDOF 9
ENDMDL
MODEL 2
REMARK VINA RESULT:    72.594      1.663      7.877
REMARK INTER + INTRA:          98.110
REMARK INTER:                  98.664
REMARK INTRA:                  -0.554
REMARK UNBOUND:                 0.052
REMARK SMILES O=c1c(-c2ccc(O)cc2)coc2c([C@@H]3O[C@@H](CO)[C@@H](O)[C@@H](O)[C@H]3O)c(O)ccc12
REMARK SMILES IDX 3 1 11 2 12 3 13 4 30 5 2 6 1 7 29 8 28 9 26 10 14 11 4 12
REMARK SMILES IDX 5 13 6 14 7 15 10 16 9 17 8 18 15 20 24 21 16 22 22 23 17 24
REMARK SMILES IDX 20 25 25 26 23 28 18 30 19 31 21 33 27 35
REMARK H PARENT 8 19 25 27 23 29 19 32 21 34 27 36
REMARK Flexibility Score: inf
ROOT
ATOM      1  C   UNL     1      -5.718   2.376   2.656  1.00  0.00     0.065 A 
ATOM      2  C   UNL     1      -4.319   2.526   2.743  1.00  0.00     0.208 A 
ATOM      3  O   UNL     1      -3.533   1.466   2.935  1.00  0.00    -0.463 OA
ATOM      4  C   UNL     1      -4.005   0.233   3.132  1.00  0.00     0.147 A 
ATOM      5  C   UNL     1      -5.403   0.010   3.101  1.00  0.00     0.066 A 
ATOM      6  C   UNL     1      -6.263   1.087   2.802  1.00  0.00     0.200 A 
ATOM      7  O   UNL     1      -7.510   0.901   2.681  1.00  0.00    -0.288 OA
ATOM      8  C   UNL     1      -5.910  -1.259   3.385  1.00  0.00     0.020 A 
ATOM      9  C   UNL     1      -5.053  -2.282   3.775  1.00  0.00     0.047 A 
ATOM     10  C   UNL     1      -3.671  -2.076   3.825  1.00  0.00     0.125 A 
ATOM     11  C   UNL     1      -3.116  -0.836   3.397  1.00  0.00     0.069 A 
ENDROOT
BRANCH   1  12
ATOM     12  C   UNL     1      -6.561   3.521   2.331  1.00  0.00    -0.011 A 
ATOM     13  C   UNL     1      -7.354   4.128   3.322  1.00  0.00     0.013 A 
ATOM     14  C   UNL     1      -8.062   5.310   3.012  1.00  0.00     0.047 A 
ATOM     15  C   UNL     1      -7.975   5.894   1.723  1.00  0.00     0.115 A 
ATOM     16  C   UNL     1      -6.485   4.091   1.051  1.00  0.00     0.013 A 
ATOM     17  C   UNL     1      -7.211   5.257   0.743  1.00  0.00     0.047 A 
BRANCH  15  18
ATOM     18  O   UNL     1      -8.654   7.089   1.422  1.00  0.00    -0.508 OA
ATOM     19  H   UNL     1      -9.639   7.083   1.227  1.00  0.00     0.293 HD
ENDBRANCH  15  18
ENDBRANCH   1  12
BRANCH  11  20
ATOM     20  C   UNL     1      -1.619  -0.692   3.070  1.00  0.00     0.188 C 
ATOM     21  C   UNL     1      -1.331   0.135   1.782  1.00  0.00     0.179 C 
ATOM     22  O   UNL     1      -0.908  -0.188   4.188  1.00  0.00    -0.362 OA
ATOM     23  C   UNL     1       0.100   0.746   1.812  1.00  0.00     0.177 C 
ATOM     24  C   UNL     1       0.504  -0.333   4.076  1.00  0.00     0.176 C 
ATOM     25  C   UNL     1       1.081  -0.126   2.645  1.00  0.00     0.177 C 
BRANCH  21  26
ATOM     26  O   UNL     1      -1.457  -0.717   0.658  1.00  0.00    -0.387 OA
ATOM     27  H   UNL     1      -2.424  -0.769   0.397  1.00  0.00     0.211 HD
ENDBRANCH  21  26
BRANCH  23  28
ATOM     28  O   UNL     1       0.632   0.892   0.524  1.00  0.00    -0.387 OA
ATOM     29  H   UNL     1       1.600   0.673   0.586  1.00  0.00     0.211 HD
ENDBRANCH  23  28
BRANCH  24  30
ATOM     30  C   UNL     1       0.979  -1.609   4.825  1.00  0.00     0.191 C 
BRANCH  30  31
ATOM     31  O   UNL     1       2.373  -1.651   4.934  1.00  0.00    -0.394 OA
ATOM     32  H   UNL     1       2.593  -2.053   5.812  1.00  0.00     0.210 HD
ENDBRANCH  30  31
ENDBRANCH  24  30
BRANCH  25  33
ATOM     33  O   UNL     1       1.403  -1.353   2.019  1.00  0.00    -0.388 OA
ATOM     34  H   UNL     1       1.911  -1.137   1.212  1.00  0.00     0.211 HD
ENDBRANCH  25  33
ENDBRANCH  11  20
BRANCH  10  35
ATOM     35  O   UNL     1      -2.907  -3.112   4.363  1.00  0.00    -0.507 OA
ATOM     36  H   UNL     1      -2.101  -2.966   4.978  1.00  0.00     0.293 HD
ENDBRANCH  10  35
TORSDOF 9
ENDMDL
MODEL 3
REMARK VINA RESULT:    74.792      1.153      2.333
REMARK INTER + INTRA:         101.079
REMARK INTER:                 101.086
REMARK INTRA:                  -0.008
REMARK UNBOUND:                 0.052
REMARK SMILES O=c1c(-c2ccc(O)cc2)coc2c([C@@H]3O[C@@H](CO)[C@@H](O)[C@@H](O)[C@H]3O)c(O)ccc12
REMARK SMILES IDX 3 1 11 2 12 3 13 4 30 5 2 6 1 7 29 8 28 9 26 10 14 11 4 12
REMARK SMILES IDX 5 13 6 14 7 15 10 16 9 17 8 18 15 20 24 21 16 22 22 23 17 24
REMARK SMILES IDX 20 25 25 26 23 28 18 30 19 31 21 33 27 35
REMARK H PARENT 8 19 25 27 23 29 19 32 21 34 27 36
REMARK Flexibility Score: inf
ROOT
ATOM      1  C   UNL     1      -1.622   0.237   2.532  1.00  0.00     0.065 A 
ATOM      2  C   UNL     1      -2.062   1.354   1.792  1.00  0.00     0.208 A 
ATOM      3  O   UNL     1      -3.324   1.774   1.883  1.00  0.00    -0.463 OA
ATOM      4  C   UNL     1      -4.255   1.140   2.599  1.00  0.00     0.147 A 
ATOM      5  C   UNL     1      -3.898  -0.014   3.338  1.00  0.00     0.066 A 
ATOM      6  C   UNL     1      -2.552  -0.434   3.347  1.00  0.00     0.200 A 
ATOM      7  O   UNL     1      -2.186  -1.409   4.067  1.00  0.00    -0.288 OA
ATOM      8  C   UNL     1      -4.880  -0.730   4.025  1.00  0.00     0.020 A 
ATOM      9  C   UNL     1      -6.215  -0.358   3.921  1.00  0.00     0.047 A 
ATOM     10  C   UNL     1      -6.587   0.770   3.185  1.00  0.00     0.125 A 
ATOM     11  C   UNL     1      -5.592   1.603   2.597  1.00  0.00     0.069 A 
ENDROOT
BRANCH   1  12
ATOM     12  C   UNL     1      -0.214  -0.146   2.518  1.00  0.00    -0.011 A 
ATOM     13  C   UNL     1       0.408  -0.624   3.685  1.00  0.00     0.013 A 
ATOM     14  C   UNL     1       1.733  -1.106   3.615  1.00  0.00     0.047 A 
ATOM     15  C   UNL     1       2.437  -1.124   2.384  1.00  0.00     0.115 A 
ATOM     16  C   UNL     1       0.486  -0.150   1.302  1.00  0.00     0.013 A 
ATOM     17  C   UNL     1       1.814  -0.612   1.243  1.00  0.00     0.047 A 
BRANCH  15  18
ATOM     18  O   UNL     1       3.746  -1.633   2.305  1.00  0.00    -0.508 OA
ATOM     19  H   UNL     1       4.531  -1.072   2.581  1.00  0.00     0.293 HD
ENDBRANCH  15  18
ENDBRANCH   1  12
BRANCH  11  20
ATOM     20  C   UNL     1      -5.912   3.031   2.121  1.00  0.00     0.188 C 
ATOM     21  C   UNL     1      -5.714   3.245   0.591  1.00  0.00     0.179 C 
ATOM     22  O   UNL     1      -7.207   3.422   2.543  1.00  0.00    -0.362 OA
ATOM     23  C   UNL     1      -6.574   4.434   0.072  1.00  0.00     0.177 C 
ATOM     24  C   UNL     1      -7.446   4.821   2.426  1.00  0.00     0.176 C 
ATOM     25  C   UNL     1      -6.810   5.500   1.178  1.00  0.00     0.177 C 
BRANCH  21  26
ATOM     26  O   UNL     1      -4.345   3.508   0.342  1.00  0.00    -0.387 OA
ATOM     27  H   UNL     1      -4.269   4.093  -0.469  1.00  0.00     0.211 HD
ENDBRANCH  21  26
BRANCH  23  28
ATOM     28  O   UNL     1      -5.978   5.069  -1.026  1.00  0.00    -0.387 OA
ATOM     29  H   UNL     1      -5.979   6.044  -0.830  1.00  0.00     0.211 HD
ENDBRANCH  23  28
BRANCH  24  30
ATOM     30  C   UNL     1      -7.200   5.527   3.788  1.00  0.00     0.191 C 
BRANCH  30  31
ATOM     31  O   UNL     1      -5.843   5.526   4.128  1.00  0.00    -0.394 OA
ATOM     32  H   UNL     1      -5.711   6.204   4.838  1.00  0.00     0.210 HD
ENDBRANCH  30  31
ENDBRANCH  24  30
BRANCH  25  33
ATOM     33  O   UNL     1      -5.643   6.229   1.507  1.00  0.00    -0.388 OA
ATOM     34  H   UNL     1      -5.027   6.134   0.754  1.00  0.00     0.211 HD
ENDBRANCH  25  33
ENDBRANCH  11  20
BRANCH  10  35
ATOM     35  O   UNL     1      -7.957   0.981   3.020  1.00  0.00    -0.507 OA
ATOM     36  H   UNL     1      -8.389   1.909   2.968  1.00  0.00     0.293 HD
ENDBRANCH  10  35
TORSDOF 9
ENDMDL
MODEL 4
REMARK VINA RESULT:    75.213      1.278      1.644
REMARK INTER + INTRA:         101.647
REMARK INTER:                 102.033
REMARK INTRA:                  -0.386
REMARK UNBOUND:                 0.052
REMARK SMILES O=c1c(-c2ccc(O)cc2)coc2c([C@@H]3O[C@@H](CO)[C@@H](O)[C@@H](O)[C@H]3O)c(O)ccc12
REMARK SMILES IDX 3 1 11 2 12 3 13 4 30 5 2 6 1 7 29 8 28 9 26 10 14 11 4 12
REMARK SMILES IDX 5 13 6 14 7 15 10 16 9 17 8 18 15 20 24 21 16 22 22 23 17 24
REMARK SMILES IDX 20 25 25 26 23 28 18 30 19 31 21 33 27 35
REMARK H PARENT 8 19 25 27 23 29 19 32 21 34 27 36
REMARK Flexibility Score: inf
ROOT
ATOM      1  C   UNL     1      -2.080  -0.092   2.568  1.00  0.00     0.065 A 
ATOM      2  C   UNL     1      -2.745   1.148   2.657  1.00  0.00     0.208 A 
ATOM      3  O   UNL     1      -4.063   1.226   2.478  1.00  0.00    -0.463 OA
ATOM      4  C   UNL     1      -4.817   0.179   2.136  1.00  0.00     0.147 A 
ATOM      5  C   UNL     1      -4.214  -1.094   1.987  1.00  0.00     0.066 A 
ATOM      6  C   UNL     1      -2.839  -1.238   2.264  1.00  0.00     0.200 A 
ATOM      7  O   UNL     1      -2.289  -2.378   2.225  1.00  0.00    -0.288 OA
ATOM      8  C   UNL     1      -4.978  -2.178   1.551  1.00  0.00     0.020 A 
ATOM      9  C   UNL     1      -6.307  -1.993   1.188  1.00  0.00     0.047 A 
ATOM     10  C   UNL     1      -6.915  -0.741   1.315  1.00  0.00     0.125 A 
ATOM     11  C   UNL     1      -6.202   0.346   1.896  1.00  0.00     0.069 A 
ENDROOT
BRANCH   1  12
ATOM     12  C   UNL     1      -0.658  -0.188   2.879  1.00  0.00    -0.011 A 
ATOM     13  C   UNL     1      -0.232  -0.632   4.143  1.00  0.00     0.013 A 
ATOM     14  C   UNL     1       1.146  -0.836   4.376  1.00  0.00     0.047 A 
ATOM     15  C   UNL     1       2.099  -0.609   3.351  1.00  0.00     0.115 A 
ATOM     16  C   UNL     1       0.285   0.050   1.867  1.00  0.00     0.013 A 
ATOM     17  C   UNL     1       1.659  -0.134   2.113  1.00  0.00     0.047 A 
BRANCH  15  18
ATOM     18  O   UNL     1       3.469  -0.842   3.571  1.00  0.00    -0.508 OA
ATOM     19  H   UNL     1       3.883  -0.656   4.466  1.00  0.00     0.293 HD
ENDBRANCH  15  18
ENDBRANCH   1  12
BRANCH  11  20
ATOM     20  C   UNL     1      -6.925   1.606   2.406  1.00  0.00     0.188 C 
ATOM     21  C   UNL     1      -7.735   1.382   3.717  1.00  0.00     0.179 C 
ATOM     22  O   UNL     1      -6.019   2.689   2.526  1.00  0.00    -0.362 OA
ATOM     23  C   UNL     1      -7.934   2.717   4.491  1.00  0.00     0.177 C 
ATOM     24  C   UNL     1      -6.660   3.952   2.674  1.00  0.00     0.176 C 
ATOM     25  C   UNL     1      -7.958   3.941   3.533  1.00  0.00     0.177 C 
BRANCH  21  26
ATOM     26  O   UNL     1      -8.998   0.836   3.383  1.00  0.00    -0.387 OA
ATOM     27  H   UNL     1      -9.325   1.267   2.539  1.00  0.00     0.211 HD
ENDBRANCH  21  26
BRANCH  23  28
ATOM     28  O   UNL     1      -9.125   2.719   5.230  1.00  0.00    -0.387 OA
ATOM     29  H   UNL     1      -8.868   2.717   6.191  1.00  0.00     0.211 HD
ENDBRANCH  23  28
BRANCH  24  30
ATOM     30  C   UNL     1      -6.756   4.675   1.302  1.00  0.00     0.191 C 
BRANCH  30  31
ATOM     31  O   UNL     1      -7.616   5.777   1.362  1.00  0.00    -0.394 OA
ATOM     32  H   UNL     1      -8.532   5.452   1.171  1.00  0.00     0.210 HD
ENDBRANCH  30  31
ENDBRANCH  24  30
BRANCH  25  33
ATOM     33  O   UNL     1      -9.125   3.999   2.734  1.00  0.00    -0.388 OA
ATOM     34  H   UNL     1      -8.955   4.654   2.030  1.00  0.00     0.211 HD
ENDBRANCH  25  33
ENDBRANCH  11  20
BRANCH  10  35
ATOM     35  O   UNL     1      -8.204  -0.620   0.793  1.00  0.00    -0.507 OA
ATOM     36  H   UNL     1      -8.977  -0.161   1.283  1.00  0.00     0.293 HD
ENDBRANCH  10  35
TORSDOF 9
ENDMDL
