MODEL 1
REMARK VINA RESULT:    -1.808      0.000      0.000
REMARK INTER + INTRA:          -4.290
REMARK INTER:                  -2.760
REMARK INTRA:                  -1.530
REMARK UNBOUND:                -1.530
REMARK SMILES CC(=O)CCC=C(C)CCC=C(C)CCC=C(C)C
REMARK SMILES IDX 10 1 11 2 12 3 13 4 14 5 15 6 16 7 18 8 17 9 19 10 9 11 7 12
REMARK SMILES IDX 6 13 8 14 5 15 4 16 2 17 3 18 1 19
REMARK H PARENT
REMARK Flexibility Score: inf
ROOT
ATOM      1  C   UNL     1      -1.884 -14.008  -9.059  1.00  0.00     0.032 C 
ENDROOT
BRANCH   1   2
ATOM      2  C   UNL     1      -3.148 -13.188  -9.107  1.00  0.00    -0.028 C 
ATOM      3  C   UNL     1      -3.194 -11.846  -8.918  1.00  0.00    -0.077 C 
ATOM      4  C   UNL     1      -1.970 -11.058  -8.519  1.00  0.00     0.039 C 
BRANCH   3   5
ATOM      5  C   UNL     1      -4.507 -11.122  -9.119  1.00  0.00     0.034 C 
BRANCH   5   6
ATOM      6  C   UNL     1      -5.686 -12.034  -8.754  1.00  0.00     0.032 C 
BRANCH   6   7
ATOM      7  C   UNL     1      -6.015 -11.956  -7.283  1.00  0.00    -0.028 C 
ATOM      8  C   UNL     1      -5.695 -14.412  -6.988  1.00  0.00     0.039 C 
ATOM      9  C   UNL     1      -6.030 -13.029  -6.471  1.00  0.00    -0.080 C 
ATOM     10  C   UNL     1      -6.376 -12.843  -5.016  1.00  0.00     0.039 C 
ENDBRANCH   6   7
ENDBRANCH   5   6
ENDBRANCH   3   5
ENDBRANCH   1   2
BRANCH   1  11
ATOM     11  C   UNL     1      -1.218 -13.875  -7.681  1.00  0.00     0.034 C 
BRANCH  11  12
ATOM     12  C   UNL     1      -2.085 -14.470  -6.594  1.00  0.00    -0.077 C 
ATOM     13  C   UNL     1      -2.338 -15.798  -6.602  1.00  0.00    -0.028 C 
ATOM     14  C   UNL     1      -2.625 -13.572  -5.504  1.00  0.00     0.039 C 
BRANCH  13  15
ATOM     15  C   UNL     1      -3.148 -16.490  -5.529  1.00  0.00     0.035 C 
BRANCH  15  16
ATOM     16  C   UNL     1      -4.162 -17.481  -6.119  1.00  0.00     0.079 C 
BRANCH  16  17
ATOM     17  C   UNL     1      -3.996 -18.865  -5.547  1.00  0.00     0.130 C 
ATOM     18  O   UNL     1      -4.973 -19.466  -5.117  1.00  0.00    -0.300 OA
ATOM     19  C   UNL     1      -2.650 -19.524  -5.493  1.00  0.00     0.087 C 
ENDBRANCH  16  17
ENDBRANCH  15  16
ENDBRANCH  13  15
ENDBRANCH  11  12
ENDBRANCH   1  11
TORSDOF 9
ENDMDL
MODEL 2
REMARK VINA RESULT:    -1.709      1.218      3.053
REMARK INTER + INTRA:          -4.137
REMARK INTER:                  -2.558
REMARK INTRA:                  -1.580
REMARK UNBOUND:                -1.530
REMARK SMILES CC(=O)CCC=C(C)CCC=C(C)CCC=C(C)C
REMARK SMILES IDX 10 1 11 2 12 3 13 4 14 5 15 6 16 7 18 8 17 9 19 10 9 11 7 12
REMARK SMILES IDX 6 13 8 14 5 15 4 16 2 17 3 18 1 19
REMARK H PARENT
REMARK Flexibility Score: inf
ROOT
ATOM      1  C   UNL     1      -6.112 -14.500  -8.671  1.00  0.00     0.032 C 
ENDROOT
BRANCH   1   2
ATOM      2  C   UNL     1      -5.525 -13.187  -9.125  1.00  0.00    -0.028 C 
ATOM      3  C   UNL     1      -5.439 -12.081  -8.346  1.00  0.00    -0.077 C 
ATOM      4  C   UNL     1      -6.042 -12.035  -6.963  1.00  0.00     0.039 C 
BRANCH   3   5
ATOM      5  C   UNL     1      -4.712 -10.865  -8.877  1.00  0.00     0.034 C 
BRANCH   5   6
ATOM      6  C   UNL     1      -3.216 -11.164  -9.046  1.00  0.00     0.032 C 
BRANCH   6   7
ATOM      7  C   UNL     1      -2.637 -11.813  -7.812  1.00  0.00    -0.028 C 
ATOM      8  C   UNL     1      -1.892 -13.814  -9.101  1.00  0.00     0.039 C 
ATOM      9  C   UNL     1      -2.040 -13.019  -7.822  1.00  0.00    -0.080 C 
ATOM     10  C   UNL     1      -1.499 -13.581  -6.532  1.00  0.00     0.039 C 
ENDBRANCH   6   7
ENDBRANCH   5   6
ENDBRANCH   3   5
ENDBRANCH   1   2
BRANCH   1  11
ATOM     11  C   UNL     1      -5.042 -15.602  -8.714  1.00  0.00     0.034 C 
BRANCH  11  12
ATOM     12  C   UNL     1      -4.334 -15.729  -7.384  1.00  0.00    -0.077 C 
ATOM     13  C   UNL     1      -3.218 -16.487  -7.298  1.00  0.00    -0.028 C 
ATOM     14  C   UNL     1      -4.870 -14.980  -6.186  1.00  0.00     0.039 C 
BRANCH  13  15
ATOM     15  C   UNL     1      -2.414 -16.631  -6.026  1.00  0.00     0.035 C 
BRANCH  15  16
ATOM     16  C   UNL     1      -2.507 -18.047  -5.439  1.00  0.00     0.079 C 
BRANCH  16  17
ATOM     17  C   UNL     1      -3.919 -18.574  -5.461  1.00  0.00     0.130 C 
ATOM     18  O   UNL     1      -4.743 -18.134  -4.669  1.00  0.00    -0.300 OA
ATOM     19  C   UNL     1      -4.335 -19.634  -6.437  1.00  0.00     0.087 C 
ENDBRANCH  16  17
ENDBRANCH  15  16
ENDBRANCH  13  15
ENDBRANCH  11  12
ENDBRANCH   1  11
TORSDOF 9
ENDMDL
MODEL 3
REMARK VINA RESULT:    -1.693      0.916      1.521
REMARK INTER + INTRA:          -4.113
REMARK INTER:                  -2.490
REMARK INTRA:                  -1.623
REMARK UNBOUND:                -1.530
REMARK SMILES CC(=O)CCC=C(C)CCC=C(C)CCC=C(C)C
REMARK SMILES IDX 10 1 11 2 12 3 13 4 14 5 15 6 16 7 18 8 17 9 19 10 9 11 7 12
REMARK SMILES IDX 6 13 8 14 5 15 4 16 2 17 3 18 1 19
REMARK H PARENT
REMARK Flexibility Score: inf
ROOT
ATOM      1  C   UNL     1      -1.753 -13.076  -6.459  1.00  0.00     0.032 C 
ENDROOT
BRANCH   1   2
ATOM      2  C   UNL     1      -2.643 -12.176  -7.280  1.00  0.00    -0.028 C 
ATOM      3  C   UNL     1      -3.206 -12.533  -8.460  1.00  0.00    -0.077 C 
ATOM      4  C   UNL     1      -2.891 -13.851  -9.125  1.00  0.00     0.039 C 
BRANCH   3   5
ATOM      5  C   UNL     1      -4.183 -11.585  -9.122  1.00  0.00     0.034 C 
BRANCH   5   6
ATOM      6  C   UNL     1      -5.628 -12.027  -8.850  1.00  0.00     0.032 C 
BRANCH   6   7
ATOM      7  C   UNL     1      -5.990 -11.878  -7.392  1.00  0.00    -0.028 C 
ATOM      8  C   UNL     1      -5.637 -14.309  -6.962  1.00  0.00     0.039 C 
ATOM      9  C   UNL     1      -6.005 -12.907  -6.526  1.00  0.00    -0.080 C 
ATOM     10  C   UNL     1      -6.386 -12.652  -5.090  1.00  0.00     0.039 C 
ENDBRANCH   6   7
ENDBRANCH   5   6
ENDBRANCH   3   5
ENDBRANCH   1   2
BRANCH   1  11
ATOM     11  C   UNL     1      -2.469 -13.492  -5.165  1.00  0.00     0.034 C 
BRANCH  11  12
ATOM     12  C   UNL     1      -2.661 -14.991  -5.103  1.00  0.00    -0.077 C 
ATOM     13  C   UNL     1      -2.205 -15.759  -6.117  1.00  0.00    -0.028 C 
ATOM     14  C   UNL     1      -3.330 -15.601  -3.893  1.00  0.00     0.039 C 
BRANCH  13  15
ATOM     15  C   UNL     1      -2.304 -17.268  -6.119  1.00  0.00     0.035 C 
BRANCH  15  16
ATOM     16  C   UNL     1      -3.751 -17.753  -6.288  1.00  0.00     0.079 C 
BRANCH  16  17
ATOM     17  C   UNL     1      -4.063 -18.920  -5.387  1.00  0.00     0.130 C 
ATOM     18  O   UNL     1      -5.043 -18.875  -4.653  1.00  0.00    -0.300 OA
ATOM     19  C   UNL     1      -3.191 -20.140  -5.369  1.00  0.00     0.087 C 
ENDBRANCH  16  17
ENDBRANCH  15  16
ENDBRANCH  13  15
ENDBRANCH  11  12
ENDBRANCH   1  11
TORSDOF 9
ENDMDL
MODEL 4
REMARK VINA RESULT:    -1.487      1.067      1.868
REMARK INTER + INTRA:          -3.799
REMARK INTER:                  -2.532
REMARK INTRA:                  -1.267
REMARK UNBOUND:                -1.530
REMARK SMILES CC(=O)CCC=C(C)CCC=C(C)CCC=C(C)C
REMARK SMILES IDX 10 1 11 2 12 3 13 4 14 5 15 6 16 7 18 8 17 9 19 10 9 11 7 12
REMARK SMILES IDX 6 13 8 14 5 15 4 16 2 17 3 18 1 19
REMARK H PARENT
REMARK Flexibility Score: inf
ROOT
ATOM      1  C   UNL     1      -1.907 -12.487  -6.535  1.00  0.00     0.032 C 
ENDROOT
BRANCH   1   2
ATOM      2  C   UNL     1      -3.165 -12.038  -7.235  1.00  0.00    -0.028 C 
ATOM      3  C   UNL     1      -3.184 -11.270  -8.352  1.00  0.00    -0.077 C 
ATOM      4  C   UNL     1      -1.919 -10.689  -8.937  1.00  0.00     0.039 C 
BRANCH   3   5
ATOM      5  C   UNL     1      -4.507 -10.996  -9.032  1.00  0.00     0.034 C 
BRANCH   5   6
ATOM      6  C   UNL     1      -5.635 -11.783  -8.350  1.00  0.00     0.032 C 
BRANCH   6   7
ATOM      7  C   UNL     1      -5.872 -13.112  -9.025  1.00  0.00    -0.028 C 
ATOM      8  C   UNL     1      -5.843 -14.327  -6.847  1.00  0.00     0.039 C 
ATOM      9  C   UNL     1      -5.961 -14.275  -8.354  1.00  0.00    -0.080 C 
ATOM     10  C   UNL     1      -6.194 -15.550  -9.125  1.00  0.00     0.039 C 
ENDBRANCH   6   7
ENDBRANCH   5   6
ENDBRANCH   3   5
ENDBRANCH   1   2
BRANCH   1  11
ATOM     11  C   UNL     1      -1.247 -13.634  -7.315  1.00  0.00     0.034 C 
BRANCH  11  12
ATOM     12  C   UNL     1      -2.234 -14.747  -7.591  1.00  0.00    -0.077 C 
ATOM     13  C   UNL     1      -2.559 -15.606  -6.600  1.00  0.00    -0.028 C 
ATOM     14  C   UNL     1      -2.860 -14.856  -8.963  1.00  0.00     0.039 C 
BRANCH  13  15
ATOM     15  C   UNL     1      -3.573 -16.714  -6.767  1.00  0.00     0.035 C 
BRANCH  15  16
ATOM     16  C   UNL     1      -3.921 -17.386  -5.431  1.00  0.00     0.079 C 
BRANCH  16  17
ATOM     17  C   UNL     1      -3.883 -18.890  -5.529  1.00  0.00     0.130 C 
ATOM     18  O   UNL     1      -4.915 -19.509  -5.758  1.00  0.00    -0.300 OA
ATOM     19  C   UNL     1      -2.600 -19.645  -5.350  1.00  0.00     0.087 C 
ENDBRANCH  16  17
ENDBRANCH  15  16
ENDBRANCH  13  15
ENDBRANCH  11  12
ENDBRANCH   1  11
TORSDOF 9
ENDMDL
MODEL 5
REMARK VINA RESULT:    -1.407      1.681      5.287
REMARK INTER + INTRA:          -3.676
REMARK INTER:                  -3.547
REMARK INTRA:                  -0.129
REMARK UNBOUND:                -1.530
REMARK SMILES CC(=O)CCC=C(C)CCC=C(C)CCC=C(C)C
REMARK SMILES IDX 10 1 11 2 12 3 13 4 14 5 15 6 16 7 18 8 17 9 19 10 9 11 7 12
REMARK SMILES IDX 6 13 8 14 5 15 4 16 2 17 3 18 1 19
REMARK H PARENT
REMARK Flexibility Score: inf
ROOT
ATOM      1  C   UNL     1      -1.688 -13.565  -9.043  1.00  0.00     0.032 C 
ENDROOT
BRANCH   1   2
ATOM      2  C   UNL     1      -1.861 -14.039  -7.622  1.00  0.00    -0.028 C 
ATOM      3  C   UNL     1      -2.757 -14.980  -7.237  1.00  0.00    -0.077 C 
ATOM      4  C   UNL     1      -3.761 -15.564  -8.201  1.00  0.00     0.039 C 
BRANCH   3   5
ATOM      5  C   UNL     1      -2.743 -15.462  -5.802  1.00  0.00     0.034 C 
BRANCH   5   6
ATOM      6  C   UNL     1      -1.744 -16.614  -5.631  1.00  0.00     0.032 C 
BRANCH   6   7
ATOM      7  C   UNL     1      -2.396 -17.954  -5.874  1.00  0.00    -0.028 C 
ATOM      8  C   UNL     1      -4.534 -17.206  -4.832  1.00  0.00     0.039 C 
ATOM      9  C   UNL     1      -3.659 -18.238  -5.509  1.00  0.00    -0.080 C 
ATOM     10  C   UNL     1      -4.214 -19.611  -5.792  1.00  0.00     0.039 C 
ENDBRANCH   6   7
ENDBRANCH   5   6
ENDBRANCH   3   5
ENDBRANCH   1   2
BRANCH   1  11
ATOM     11  C   UNL     1      -1.908 -12.046  -9.125  1.00  0.00     0.034 C 
BRANCH  11  12
ATOM     12  C   UNL     1      -3.150 -11.631  -8.368  1.00  0.00    -0.077 C 
ATOM     13  C   UNL     1      -4.363 -11.808  -8.937  1.00  0.00    -0.028 C 
ATOM     14  C   UNL     1      -3.010 -11.057  -6.977  1.00  0.00     0.039 C 
BRANCH  13  15
ATOM     15  C   UNL     1      -5.660 -11.473  -8.237  1.00  0.00     0.035 C 
BRANCH  15  16
ATOM     16  C   UNL     1      -6.386 -12.729  -7.733  1.00  0.00     0.079 C 
BRANCH  16  17
ATOM     17  C   UNL     1      -6.063 -13.025  -6.291  1.00  0.00     0.130 C 
ATOM     18  O   UNL     1      -5.367 -13.994  -6.011  1.00  0.00    -0.300 OA
ATOM     19  C   UNL     1      -6.582 -12.153  -5.186  1.00  0.00     0.087 C 
ENDBRANCH  16  17
ENDBRANCH  15  16
ENDBRANCH  13  15
ENDBRANCH  11  12
ENDBRANCH   1  11
TORSDOF 9
ENDMDL
MODEL 6
REMARK VINA RESULT:    -1.377      1.588      5.116
REMARK INTER + INTRA:          -3.631
REMARK INTER:                  -2.797
REMARK INTRA:                  -0.834
REMARK UNBOUND:                -1.530
REMARK SMILES CC(=O)CCC=C(C)CCC=C(C)CCC=C(C)C
REMARK SMILES IDX 10 1 11 2 12 3 13 4 14 5 15 6 16 7 18 8 17 9 19 10 9 11 7 12
REMARK SMILES IDX 6 13 8 14 5 15 4 16 2 17 3 18 1 19
REMARK H PARENT
REMARK Flexibility Score: inf
ROOT
ATOM      1  C   UNL     1      -1.377 -14.375  -7.974  1.00  0.00     0.032 C 
ENDROOT
BRANCH   1   2
ATOM      2  C   UNL     1      -1.992 -14.945  -6.721  1.00  0.00    -0.028 C 
ATOM      3  C   UNL     1      -2.552 -14.197  -5.739  1.00  0.00    -0.077 C 
ATOM      4  C   UNL     1      -2.505 -12.689  -5.763  1.00  0.00     0.039 C 
BRANCH   3   5
ATOM      5  C   UNL     1      -3.251 -14.896  -4.592  1.00  0.00     0.034 C 
BRANCH   5   6
ATOM      6  C   UNL     1      -4.342 -15.836  -5.121  1.00  0.00     0.032 C 
BRANCH   6   7
ATOM      7  C   UNL     1      -3.972 -17.286  -4.921  1.00  0.00    -0.028 C 
ATOM      8  C   UNL     1      -4.072 -17.745  -7.370  1.00  0.00     0.039 C 
ATOM      9  C   UNL     1      -3.853 -18.165  -5.933  1.00  0.00    -0.080 C 
ATOM     10  C   UNL     1      -3.484 -19.593  -5.625  1.00  0.00     0.039 C 
ENDBRANCH   6   7
ENDBRANCH   5   6
ENDBRANCH   3   5
ENDBRANCH   1   2
BRANCH   1  11
ATOM     11  C   UNL     1      -2.399 -14.395  -9.122  1.00  0.00     0.034 C 
BRANCH  11  12
ATOM     12  C   UNL     1      -3.323 -13.200  -9.052  1.00  0.00    -0.077 C 
ATOM     13  C   UNL     1      -4.651 -13.398  -8.898  1.00  0.00    -0.028 C 
ATOM     14  C   UNL     1      -2.739 -11.808  -9.125  1.00  0.00     0.039 C 
BRANCH  13  15
ATOM     15  C   UNL     1      -5.645 -12.267  -8.765  1.00  0.00     0.035 C 
BRANCH  15  16
ATOM     16  C   UNL     1      -5.736 -11.743  -7.324  1.00  0.00     0.079 C 
BRANCH  16  17
ATOM     17  C   UNL     1      -6.057 -12.842  -6.344  1.00  0.00     0.130 C 
ATOM     18  O   UNL     1      -5.935 -14.012  -6.684  1.00  0.00    -0.300 OA
ATOM     19  C   UNL     1      -6.527 -12.527  -4.955  1.00  0.00     0.087 C 
ENDBRANCH  16  17
ENDBRANCH  15  16
ENDBRANCH  13  15
ENDBRANCH  11  12
ENDBRANCH   1  11
TORSDOF 9
ENDMDL
MODEL 7
REMARK VINA RESULT:    -1.209      1.452      3.147
REMARK INTER + INTRA:          -3.375
REMARK INTER:                  -3.296
REMARK INTRA:                  -0.079
REMARK UNBOUND:                -1.530
REMARK SMILES CC(=O)CCC=C(C)CCC=C(C)CCC=C(C)C
REMARK SMILES IDX 10 1 11 2 12 3 13 4 14 5 15 6 16 7 18 8 17 9 19 10 9 11 7 12
REMARK SMILES IDX 6 13 8 14 5 15 4 16 2 17 3 18 1 19
REMARK H PARENT
REMARK Flexibility Score: inf
ROOT
ATOM      1  C   UNL     1      -4.750 -15.429  -8.869  1.00  0.00     0.032 C 
ENDROOT
BRANCH   1   2
ATOM      2  C   UNL     1      -5.616 -14.199  -8.970  1.00  0.00    -0.028 C 
ATOM      3  C   UNL     1      -6.043 -13.478  -7.904  1.00  0.00    -0.077 C 
ATOM      4  C   UNL     1      -5.776 -13.922  -6.487  1.00  0.00     0.039 C 
BRANCH   3   5
ATOM      5  C   UNL     1      -6.800 -12.190  -8.146  1.00  0.00     0.034 C 
BRANCH   5   6
ATOM      6  C   UNL     1      -5.844 -10.990  -8.117  1.00  0.00     0.032 C 
BRANCH   6   7
ATOM      7  C   UNL     1      -4.559 -11.286  -8.852  1.00  0.00    -0.028 C 
ATOM      8  C   UNL     1      -3.197 -10.973  -6.786  1.00  0.00     0.039 C 
ATOM      9  C   UNL     1      -3.350 -11.274  -8.261  1.00  0.00    -0.080 C 
ATOM     10  C   UNL     1      -2.126 -11.578  -9.088  1.00  0.00     0.039 C 
ENDBRANCH   6   7
ENDBRANCH   5   6
ENDBRANCH   3   5
ENDBRANCH   1   2
BRANCH   1  11
ATOM     11  C   UNL     1      -3.278 -15.062  -9.114  1.00  0.00     0.034 C 
BRANCH  11  12
ATOM     12  C   UNL     1      -2.559 -14.786  -7.812  1.00  0.00    -0.077 C 
ATOM     13  C   UNL     1      -3.274 -14.672  -6.671  1.00  0.00    -0.028 C 
ATOM     14  C   UNL     1      -1.051 -14.673  -7.810  1.00  0.00     0.039 C 
BRANCH  13  15
ATOM     15  C   UNL     1      -2.640 -14.450  -5.317  1.00  0.00     0.035 C 
BRANCH  15  16
ATOM     16  C   UNL     1      -3.200 -15.404  -4.252  1.00  0.00     0.079 C 
BRANCH  16  17
ATOM     17  C   UNL     1      -3.827 -16.629  -4.866  1.00  0.00     0.130 C 
ATOM     18  O   UNL     1      -4.977 -16.934  -4.573  1.00  0.00    -0.300 OA
ATOM     19  C   UNL     1      -3.066 -17.486  -5.833  1.00  0.00     0.087 C 
ENDBRANCH  16  17
ENDBRANCH  15  16
ENDBRANCH  13  15
ENDBRANCH  11  12
ENDBRANCH   1  11
TORSDOF 9
ENDMDL
MODEL 8
REMARK VINA RESULT:    -1.083      1.349      4.698
REMARK INTER + INTRA:          -3.182
REMARK INTER:                  -3.078
REMARK INTRA:                  -0.104
REMARK UNBOUND:                -1.530
REMARK SMILES CC(=O)CCC=C(C)CCC=C(C)CCC=C(C)C
REMARK SMILES IDX 10 1 11 2 12 3 13 4 14 5 15 6 16 7 18 8 17 9 19 10 9 11 7 12
REMARK SMILES IDX 6 13 8 14 5 15 4 16 2 17 3 18 1 19
REMARK H PARENT
REMARK Flexibility Score: inf
ROOT
ATOM      1  C   UNL     1      -2.224 -11.397  -8.586  1.00  0.00     0.032 C 
ENDROOT
BRANCH   1   2
ATOM      2  C   UNL     1      -2.480 -12.281  -7.392  1.00  0.00    -0.028 C 
ATOM      3  C   UNL     1      -2.269 -13.620  -7.375  1.00  0.00    -0.077 C 
ATOM      4  C   UNL     1      -1.860 -14.375  -8.616  1.00  0.00     0.039 C 
BRANCH   3   5
ATOM      5  C   UNL     1      -2.443 -14.373  -6.074  1.00  0.00     0.034 C 
BRANCH   5   6
ATOM      6  C   UNL     1      -1.739 -15.735  -6.144  1.00  0.00     0.032 C 
BRANCH   6   7
ATOM      7  C   UNL     1      -2.558 -16.818  -5.483  1.00  0.00    -0.028 C 
ATOM      8  C   UNL     1      -3.755 -17.337  -7.609  1.00  0.00     0.039 C 
ATOM      9  C   UNL     1      -3.482 -17.547  -6.135  1.00  0.00    -0.080 C 
ATOM     10  C   UNL     1      -4.251 -18.602  -5.381  1.00  0.00     0.039 C 
ENDBRANCH   6   7
ENDBRANCH   5   6
ENDBRANCH   3   5
ENDBRANCH   1   2
BRANCH   1  11
ATOM     11  C   UNL     1      -3.510 -10.656  -8.982  1.00  0.00     0.034 C 
BRANCH  11  12
ATOM     12  C   UNL     1      -4.739 -11.450  -8.599  1.00  0.00    -0.077 C 
ATOM     13  C   UNL     1      -4.923 -12.682  -9.125  1.00  0.00    -0.028 C 
ATOM     14  C   UNL     1      -5.721 -10.862  -7.612  1.00  0.00     0.039 C 
BRANCH  13  15
ATOM     15  C   UNL     1      -6.091 -13.569  -8.761  1.00  0.00     0.035 C 
BRANCH  15  16
ATOM     16  C   UNL     1      -5.658 -14.781  -7.923  1.00  0.00     0.079 C 
BRANCH  16  17
ATOM     17  C   UNL     1      -5.782 -14.518  -6.444  1.00  0.00     0.130 C 
ATOM     18  O   UNL     1      -5.731 -15.453  -5.655  1.00  0.00    -0.300 OA
ATOM     19  C   UNL     1      -5.969 -13.126  -5.919  1.00  0.00     0.087 C 
ENDBRANCH  16  17
ENDBRANCH  15  16
ENDBRANCH  13  15
ENDBRANCH  11  12
ENDBRANCH   1  11
TORSDOF 9
ENDMDL
