MODEL 1
REMARK VINA RESULT:    -3.351      0.000      0.000
REMARK INTER + INTRA:          -4.888
REMARK INTER:                  -4.233
REMARK INTRA:                  -0.655
REMARK UNBOUND:                -0.655
REMARK SMILES CC(C)=CCCC(C)=CCO
REMARK SMILES IDX 7 1 9 2 8 3 6 4 5 5 4 6 1 7 2 8 3 9 10 10 11 11
REMARK H PARENT 11 12
REMARK Flexibility Score: inf
ROOT
ATOM      1  C   UNL     1      23.218  24.530 -42.032  1.00  0.00    -0.075 C 
ATOM      2  C   UNL     1      24.342  25.282 -41.998  1.00  0.00    -0.000 C 
ATOM      3  C   UNL     1      23.248  23.083 -42.466  1.00  0.00     0.039 C 
ENDROOT
BRANCH   1   4
ATOM      4  C   UNL     1      21.906  25.150 -41.605  1.00  0.00     0.034 C 
BRANCH   4   5
ATOM      5  C   UNL     1      21.972  25.619 -40.148  1.00  0.00     0.032 C 
BRANCH   5   6
ATOM      6  C   UNL     1      22.029  24.440 -39.208  1.00  0.00    -0.028 C 
ATOM      7  C   UNL     1      22.969  22.969 -37.479  1.00  0.00     0.039 C 
ATOM      8  C   UNL     1      23.029  24.211 -38.330  1.00  0.00    -0.080 C 
ATOM      9  C   UNL     1      24.186  25.170 -38.166  1.00  0.00     0.039 C 
ENDBRANCH   5   6
ENDBRANCH   4   5
ENDBRANCH   1   4
BRANCH   2  10
ATOM     10  C   UNL     1      25.703  24.775 -42.391  1.00  0.00     0.183 C 
BRANCH  10  11
ATOM     11  O   UNL     1      26.310  24.145 -41.298  1.00  0.00    -0.392 OA
ATOM     12  H   UNL     1      25.629  24.133 -40.576  1.00  0.00     0.210 HD
ENDBRANCH  10  11
ENDBRANCH   2  10
TORSDOF 5
ENDMDL
MODEL 2
REMARK VINA RESULT:    -3.296     15.480     16.817
REMARK INTER + INTRA:          -4.818
REMARK INTER:                  -4.156
REMARK INTRA:                  -0.662
REMARK UNBOUND:                -0.655
REMARK SMILES CC(C)=CCCC(C)=CCO
REMARK SMILES IDX 7 1 9 2 8 3 6 4 5 5 4 6 1 7 2 8 3 9 10 10 11 11
REMARK H PARENT 11 12
REMARK Flexibility Score: inf
ROOT
ATOM      1  C   UNL     1      16.947  37.368 -34.535  1.00  0.00    -0.075 C 
ATOM      2  C   UNL     1      15.896  37.132 -35.353  1.00  0.00    -0.000 C 
ATOM      3  C   UNL     1      17.757  38.639 -34.636  1.00  0.00     0.039 C 
ENDROOT
BRANCH   1   4
ATOM      4  C   UNL     1      17.303  36.342 -33.482  1.00  0.00     0.034 C 
BRANCH   4   5
ATOM      5  C   UNL     1      16.173  36.198 -32.456  1.00  0.00     0.032 C 
BRANCH   5   6
ATOM      6  C   UNL     1      16.487  36.974 -31.201  1.00  0.00    -0.028 C 
ATOM      7  C   UNL     1      16.393  38.854 -29.622  1.00  0.00     0.039 C 
ATOM      8  C   UNL     1      15.957  38.178 -30.897  1.00  0.00    -0.080 C 
ATOM      9  C   UNL     1      14.934  38.851 -31.783  1.00  0.00     0.039 C 
ENDBRANCH   5   6
ENDBRANCH   4   5
ENDBRANCH   1   4
BRANCH   2  10
ATOM     10  C   UNL     1      15.443  38.079 -36.432  1.00  0.00     0.183 C 
BRANCH  10  11
ATOM     11  O   UNL     1      16.019  37.716 -37.655  1.00  0.00    -0.392 OA
ATOM     12  H   UNL     1      16.920  37.360 -37.439  1.00  0.00     0.210 HD
ENDBRANCH  10  11
ENDBRANCH   2  10
TORSDOF 5
ENDMDL
MODEL 3
REMARK VINA RESULT:    -3.291     16.224     17.542
REMARK INTER + INTRA:          -4.812
REMARK INTER:                  -4.187
REMARK INTRA:                  -0.625
REMARK UNBOUND:                -0.655
REMARK SMILES CC(C)=CCCC(C)=CCO
REMARK SMILES IDX 7 1 9 2 8 3 6 4 5 5 4 6 1 7 2 8 3 9 10 10 11 11
REMARK H PARENT 11 12
REMARK Flexibility Score: inf
ROOT
ATOM      1  C   UNL     1      16.015  36.449 -32.636  1.00  0.00    -0.075 C 
ATOM      2  C   UNL     1      17.271  36.299 -33.116  1.00  0.00    -0.000 C 
ATOM      3  C   UNL     1      14.855  36.779 -33.545  1.00  0.00     0.039 C 
ENDROOT
BRANCH   1   4
ATOM      4  C   UNL     1      15.768  36.261 -31.155  1.00  0.00     0.034 C 
BRANCH   4   5
ATOM      5  C   UNL     1      14.891  37.388 -30.600  1.00  0.00     0.032 C 
BRANCH   5   6
ATOM      6  C   UNL     1      15.729  38.409 -29.872  1.00  0.00    -0.028 C 
ATOM      7  C   UNL     1      17.011  40.484 -29.573  1.00  0.00     0.039 C 
ATOM      8  C   UNL     1      16.146  39.577 -30.409  1.00  0.00    -0.080 C 
ATOM      9  C   UNL     1      15.754  40.001 -31.806  1.00  0.00     0.039 C 
ENDBRANCH   5   6
ENDBRANCH   4   5
ENDBRANCH   1   4
BRANCH   2  10
ATOM     10  C   UNL     1      17.638  36.455 -34.567  1.00  0.00     0.183 C 
BRANCH  10  11
ATOM     11  O   UNL     1      17.961  37.790 -34.835  1.00  0.00    -0.392 OA
ATOM     12  H   UNL     1      17.117  38.224 -35.127  1.00  0.00     0.210 HD
ENDBRANCH  10  11
ENDBRANCH   2  10
TORSDOF 5
ENDMDL
MODEL 4
REMARK VINA RESULT:    -3.188      9.707     10.967
REMARK INTER + INTRA:          -4.682
REMARK INTER:                  -4.205
REMARK INTRA:                  -0.477
REMARK UNBOUND:                -0.655
REMARK SMILES CC(C)=CCCC(C)=CCO
REMARK SMILES IDX 7 1 9 2 8 3 6 4 5 5 4 6 1 7 2 8 3 9 10 10 11 11
REMARK H PARENT 11 12
REMARK Flexibility Score: inf
ROOT
ATOM      1  C   UNL     1      15.525  25.974 -34.357  1.00  0.00    -0.075 C 
ATOM      2  C   UNL     1      15.528  27.240 -34.832  1.00  0.00    -0.000 C 
ATOM      3  C   UNL     1      14.307  25.385 -33.684  1.00  0.00     0.039 C 
ENDROOT
BRANCH   1   4
ATOM      4  C   UNL     1      16.764  25.123 -34.524  1.00  0.00     0.034 C 
BRANCH   4   5
ATOM      5  C   UNL     1      16.574  23.748 -33.875  1.00  0.00     0.032 C 
BRANCH   5   6
ATOM      6  C   UNL     1      17.517  23.570 -32.711  1.00  0.00    -0.028 C 
ATOM      7  C   UNL     1      18.181  23.207 -30.374  1.00  0.00     0.039 C 
ATOM      8  C   UNL     1      17.125  23.325 -31.442  1.00  0.00    -0.080 C 
ATOM      9  C   UNL     1      15.670  23.148 -31.073  1.00  0.00     0.039 C 
ENDBRANCH   5   6
ENDBRANCH   4   5
ENDBRANCH   1   4
BRANCH   2  10
ATOM     10  C   UNL     1      14.355  28.177 -34.731  1.00  0.00     0.183 C 
BRANCH  10  11
ATOM     11  O   UNL     1      14.740  29.351 -34.073  1.00  0.00    -0.392 OA
ATOM     12  H   UNL     1      15.095  29.956 -34.776  1.00  0.00     0.210 HD
ENDBRANCH  10  11
ENDBRANCH   2  10
TORSDOF 5
ENDMDL
MODEL 5
REMARK VINA RESULT:    -3.157     16.222     17.502
REMARK INTER + INTRA:          -4.642
REMARK INTER:                  -4.014
REMARK INTRA:                  -0.629
REMARK UNBOUND:                -0.655
REMARK SMILES CC(C)=CCCC(C)=CCO
REMARK SMILES IDX 7 1 9 2 8 3 6 4 5 5 4 6 1 7 2 8 3 9 10 10 11 11
REMARK H PARENT 11 12
REMARK Flexibility Score: inf
ROOT
ATOM      1  C   UNL     1      15.259  36.894 -33.102  1.00  0.00    -0.075 C 
ATOM      2  C   UNL     1      16.502  36.366 -33.179  1.00  0.00    -0.000 C 
ATOM      3  C   UNL     1      14.878  38.135 -33.876  1.00  0.00     0.039 C 
ENDROOT
BRANCH   1   4
ATOM      4  C   UNL     1      14.222  36.211 -32.238  1.00  0.00     0.034 C 
BRANCH   4   5
ATOM      5  C   UNL     1      14.742  36.022 -30.809  1.00  0.00     0.032 C 
BRANCH   5   6
ATOM      6  C   UNL     1      14.151  37.055 -29.882  1.00  0.00    -0.028 C 
ATOM      7  C   UNL     1      14.087  39.097 -28.518  1.00  0.00     0.039 C 
ATOM      8  C   UNL     1      14.791  38.173 -29.477  1.00  0.00    -0.080 C 
ATOM      9  C   UNL     1      16.175  38.526 -29.971  1.00  0.00     0.039 C 
ENDBRANCH   5   6
ENDBRANCH   4   5
ENDBRANCH   1   4
BRANCH   2  10
ATOM     10  C   UNL     1      17.612  36.950 -34.010  1.00  0.00     0.183 C 
BRANCH  10  11
ATOM     11  O   UNL     1      17.596  36.384 -35.290  1.00  0.00    -0.392 OA
ATOM     12  H   UNL     1      17.753  35.412 -35.163  1.00  0.00     0.210 HD
ENDBRANCH  10  11
ENDBRANCH   2  10
TORSDOF 5
ENDMDL
MODEL 6
REMARK VINA RESULT:    -3.157      2.693      4.029
REMARK INTER + INTRA:          -4.642
REMARK INTER:                  -4.115
REMARK INTRA:                  -0.527
REMARK UNBOUND:                -0.655
REMARK SMILES CC(C)=CCCC(C)=CCO
REMARK SMILES IDX 7 1 9 2 8 3 6 4 5 5 4 6 1 7 2 8 3 9 10 10 11 11
REMARK H PARENT 11 12
REMARK Flexibility Score: inf
ROOT
ATOM      1  C   UNL     1      22.623  25.364 -39.330  1.00  0.00    -0.075 C 
ATOM      2  C   UNL     1      22.143  24.584 -40.326  1.00  0.00    -0.000 C 
ATOM      3  C   UNL     1      22.541  26.871 -39.397  1.00  0.00     0.039 C 
ENDROOT
BRANCH   1   4
ATOM      4  C   UNL     1      23.237  24.707 -38.114  1.00  0.00     0.034 C 
BRANCH   4   5
ATOM      5  C   UNL     1      23.638  23.259 -38.418  1.00  0.00     0.032 C 
BRANCH   5   6
ATOM      6  C   UNL     1      25.100  23.036 -38.124  1.00  0.00    -0.028 C 
ATOM      7  C   UNL     1      27.504  22.876 -38.604  1.00  0.00     0.039 C 
ATOM      8  C   UNL     1      26.090  23.168 -39.034  1.00  0.00    -0.080 C 
ATOM      9  C   UNL     1      25.821  23.617 -40.452  1.00  0.00     0.039 C 
ENDBRANCH   5   6
ENDBRANCH   4   5
ENDBRANCH   1   4
BRANCH   2  10
ATOM     10  C   UNL     1      21.505  25.120 -41.579  1.00  0.00     0.183 C 
BRANCH  10  11
ATOM     11  O   UNL     1      20.158  24.742 -41.626  1.00  0.00    -0.392 OA
ATOM     12  H   UNL     1      19.662  25.536 -41.956  1.00  0.00     0.210 HD
ENDBRANCH  10  11
ENDBRANCH   2  10
TORSDOF 5
ENDMDL
MODEL 7
REMARK VINA RESULT:    -3.055     16.096     17.378
REMARK INTER + INTRA:          -4.514
REMARK INTER:                  -3.881
REMARK INTRA:                  -0.633
REMARK UNBOUND:                -0.655
REMARK SMILES CC(C)=CCCC(C)=CCO
REMARK SMILES IDX 7 1 9 2 8 3 6 4 5 5 4 6 1 7 2 8 3 9 10 10 11 11
REMARK H PARENT 11 12
REMARK Flexibility Score: inf
ROOT
ATOM      1  C   UNL     1      16.384  38.553 -34.303  1.00  0.00    -0.075 C 
ATOM      2  C   UNL     1      16.405  37.200 -34.303  1.00  0.00    -0.000 C 
ATOM      3  C   UNL     1      17.617  39.363 -34.630  1.00  0.00     0.039 C 
ENDROOT
BRANCH   1   4
ATOM      4  C   UNL     1      15.089  39.267 -33.988  1.00  0.00     0.034 C 
BRANCH   4   5
ATOM      5  C   UNL     1      14.489  38.756 -32.673  1.00  0.00     0.032 C 
BRANCH   5   6
ATOM      6  C   UNL     1      15.216  39.342 -31.489  1.00  0.00    -0.028 C 
ATOM      7  C   UNL     1      16.600  39.343 -29.459  1.00  0.00     0.039 C 
ATOM      8  C   UNL     1      15.961  38.625 -30.620  1.00  0.00    -0.080 C 
ATOM      9  C   UNL     1      16.184  37.140 -30.791  1.00  0.00     0.039 C 
ENDBRANCH   5   6
ENDBRANCH   4   5
ENDBRANCH   1   4
BRANCH   2  10
ATOM     10  C   UNL     1      17.630  36.380 -34.607  1.00  0.00     0.183 C 
BRANCH  10  11
ATOM     11  O   UNL     1      18.271  36.024 -33.415  1.00  0.00    -0.392 OA
ATOM     12  H   UNL     1      19.182  36.417 -33.465  1.00  0.00     0.210 HD
ENDBRANCH  10  11
ENDBRANCH   2  10
TORSDOF 5
ENDMDL
MODEL 8
REMARK VINA RESULT:    -3.055     15.624     16.893
REMARK INTER + INTRA:          -4.514
REMARK INTER:                  -3.851
REMARK INTRA:                  -0.663
REMARK UNBOUND:                -0.655
REMARK SMILES CC(C)=CCCC(C)=CCO
REMARK SMILES IDX 7 1 9 2 8 3 6 4 5 5 4 6 1 7 2 8 3 9 10 10 11 11
REMARK H PARENT 11 12
REMARK Flexibility Score: inf
ROOT
ATOM      1  C   UNL     1      16.781  38.159 -34.865  1.00  0.00    -0.075 C 
ATOM      2  C   UNL     1      17.618  39.187 -34.597  1.00  0.00    -0.000 C 
ATOM      3  C   UNL     1      15.359  38.394 -35.319  1.00  0.00     0.039 C 
ENDROOT
BRANCH   1   4
ATOM      4  C   UNL     1      17.291  36.742 -34.726  1.00  0.00     0.034 C 
BRANCH   4   5
ATOM      5  C   UNL     1      17.624  36.421 -33.265  1.00  0.00     0.032 C 
BRANCH   5   6
ATOM      6  C   UNL     1      16.390  35.971 -32.522  1.00  0.00    -0.028 C 
ATOM      7  C   UNL     1      14.586  36.082 -30.859  1.00  0.00     0.039 C 
ATOM      8  C   UNL     1      15.792  36.676 -31.538  1.00  0.00    -0.080 C 
ATOM      9  C   UNL     1      16.285  38.042 -31.118  1.00  0.00     0.039 C 
ENDBRANCH   5   6
ENDBRANCH   4   5
ENDBRANCH   1   4
BRANCH   2  10
ATOM     10  C   UNL     1      17.228  40.637 -34.706  1.00  0.00     0.183 C 
BRANCH  10  11
ATOM     11  O   UNL     1      17.961  41.396 -33.786  1.00  0.00    -0.392 OA
ATOM     12  H   UNL     1      18.273  42.199 -34.280  1.00  0.00     0.210 HD
ENDBRANCH  10  11
ENDBRANCH   2  10
TORSDOF 5
ENDMDL
MODEL 9
REMARK VINA RESULT:    -2.917     15.314     16.935
REMARK INTER + INTRA:          -4.339
REMARK INTER:                  -3.732
REMARK INTRA:                  -0.607
REMARK UNBOUND:                -0.655
REMARK SMILES CC(C)=CCCC(C)=CCO
REMARK SMILES IDX 7 1 9 2 8 3 6 4 5 5 4 6 1 7 2 8 3 9 10 10 11 11
REMARK H PARENT 11 12
REMARK Flexibility Score: inf
ROOT
ATOM      1  C   UNL     1      16.232  36.738 -34.281  1.00  0.00    -0.075 C 
ATOM      2  C   UNL     1      15.703  36.742 -33.037  1.00  0.00    -0.000 C 
ATOM      3  C   UNL     1      17.696  36.447 -34.517  1.00  0.00     0.039 C 
ENDROOT
BRANCH   1   4
ATOM      4  C   UNL     1      15.330  37.013 -35.464  1.00  0.00     0.034 C 
BRANCH   4   5
ATOM      5  C   UNL     1      14.824  38.459 -35.441  1.00  0.00     0.032 C 
BRANCH   5   6
ATOM      6  C   UNL     1      15.477  39.271 -36.532  1.00  0.00    -0.028 C 
ATOM      7  C   UNL     1      17.046  40.883 -37.520  1.00  0.00     0.039 C 
ATOM      8  C   UNL     1      16.521  40.106 -36.341  1.00  0.00    -0.080 C 
ATOM      9  C   UNL     1      17.183  40.265 -34.991  1.00  0.00     0.039 C 
ENDBRANCH   5   6
ENDBRANCH   4   5
ENDBRANCH   1   4
BRANCH   2  10
ATOM     10  C   UNL     1      16.497  36.477 -31.786  1.00  0.00     0.183 C 
BRANCH  10  11
ATOM     11  O   UNL     1      16.046  35.300 -31.177  1.00  0.00    -0.392 OA
ATOM     12  H   UNL     1      16.151  34.582 -31.855  1.00  0.00     0.210 HD
ENDBRANCH  10  11
ENDBRANCH   2  10
TORSDOF 5
ENDMDL
