MODEL 1
REMARK VINA RESULT:    -6.697      0.000      0.000
REMARK INTER + INTRA:         -11.997
REMARK INTER:                 -10.220
REMARK INTRA:                  -1.776
REMARK UNBOUND:                -1.776
REMARK SMILES CC(=O)CCC=C(C)CCC=C(C)CCC=C(C)C
REMARK SMILES IDX 10 1 11 2 12 3 13 4 14 5 15 6 16 7 18 8 17 9 19 10 9 11 7 12
REMARK SMILES IDX 6 13 8 14 5 15 4 16 2 17 3 18 1 19
REMARK H PARENT
REMARK Flexibility Score: inf
ROOT
ATOM      1  C   UNL     1     -13.751 -15.738  32.221  1.00  0.00     0.032 C 
ENDROOT
BRANCH   1   2
ATOM      2  C   UNL     1     -14.090 -14.638  31.247  1.00  0.00    -0.028 C 
ATOM      3  C   UNL     1     -13.631 -14.556  29.976  1.00  0.00    -0.077 C 
ATOM      4  C   UNL     1     -14.040 -13.364  29.149  1.00  0.00     0.039 C 
BRANCH   3   5
ATOM      5  C   UNL     1     -12.757 -15.616  29.331  1.00  0.00     0.034 C 
BRANCH   5   6
ATOM      6  C   UNL     1     -11.448 -15.029  28.785  1.00  0.00     0.032 C 
BRANCH   6   7
ATOM      7  C   UNL     1     -10.765 -15.986  27.838  1.00  0.00    -0.028 C 
ATOM      8  C   UNL     1     -12.757 -16.223  26.337  1.00  0.00     0.039 C 
ATOM      9  C   UNL     1     -11.344 -16.552  26.757  1.00  0.00    -0.080 C 
ATOM     10  C   UNL     1     -10.543 -17.543  25.953  1.00  0.00     0.039 C 
ENDBRANCH   6   7
ENDBRANCH   5   6
ENDBRANCH   3   5
ENDBRANCH   1   2
BRANCH   1  11
ATOM     11  C   UNL     1     -12.504 -15.380  33.040  1.00  0.00     0.034 C 
BRANCH  11  12
ATOM     12  C   UNL     1     -11.334 -16.253  32.641  1.00  0.00    -0.077 C 
ATOM     13  C   UNL     1     -11.574 -17.405  31.974  1.00  0.00    -0.028 C 
ATOM     14  C   UNL     1      -9.933 -15.818  33.003  1.00  0.00     0.039 C 
BRANCH  13  15
ATOM     15  C   UNL     1     -10.503 -18.347  31.484  1.00  0.00     0.035 C 
BRANCH  15  16
ATOM     16  C   UNL     1     -10.731 -18.708  30.013  1.00  0.00     0.079 C 
BRANCH  16  17
ATOM     17  C   UNL     1     -11.946 -19.580  29.860  1.00  0.00     0.130 C 
ATOM     18  O   UNL     1     -12.201 -20.420  30.708  1.00  0.00    -0.300 OA
ATOM     19  C   UNL     1     -12.859 -19.408  28.683  1.00  0.00     0.087 C 
ENDBRANCH  16  17
ENDBRANCH  15  16
ENDBRANCH  13  15
ENDBRANCH  11  12
ENDBRANCH   1  11
TORSDOF 9
ENDMDL
MODEL 2
REMARK VINA RESULT:    -6.623      1.529      4.323
REMARK INTER + INTRA:         -11.885
REMARK INTER:                  -9.797
REMARK INTRA:                  -2.087
REMARK UNBOUND:                -1.776
REMARK SMILES CC(=O)CCC=C(C)CCC=C(C)CCC=C(C)C
REMARK SMILES IDX 10 1 11 2 12 3 13 4 14 5 15 6 16 7 18 8 17 9 19 10 9 11 7 12
REMARK SMILES IDX 6 13 8 14 5 15 4 16 2 17 3 18 1 19
REMARK H PARENT
REMARK Flexibility Score: inf
ROOT
ATOM      1  C   UNL     1     -13.280 -16.148  32.188  1.00  0.00     0.032 C 
ENDROOT
BRANCH   1   2
ATOM      2  C   UNL     1     -12.173 -15.724  33.120  1.00  0.00    -0.028 C 
ATOM      3  C   UNL     1     -10.852 -15.767  32.828  1.00  0.00    -0.077 C 
ATOM      4  C   UNL     1      -9.875 -15.342  33.894  1.00  0.00     0.039 C 
BRANCH   3   5
ATOM      5  C   UNL     1     -10.305 -16.187  31.475  1.00  0.00     0.034 C 
BRANCH   5   6
ATOM      6  C   UNL     1     -10.107 -17.706  31.381  1.00  0.00     0.032 C 
BRANCH   6   7
ATOM      7  C   UNL     1     -10.772 -18.275  30.150  1.00  0.00    -0.028 C 
ATOM      8  C   UNL     1     -12.499 -19.552  31.439  1.00  0.00     0.039 C 
ATOM      9  C   UNL     1     -11.822 -19.125  30.158  1.00  0.00    -0.080 C 
ATOM     10  C   UNL     1     -12.323 -19.656  28.841  1.00  0.00     0.039 C 
ENDBRANCH   6   7
ENDBRANCH   5   6
ENDBRANCH   3   5
ENDBRANCH   1   2
BRANCH   1  11
ATOM     11  C   UNL     1     -14.128 -14.944  31.760  1.00  0.00     0.034 C 
BRANCH  11  12
ATOM     12  C   UNL     1     -13.776 -14.514  30.353  1.00  0.00    -0.077 C 
ATOM     13  C   UNL     1     -12.900 -15.260  29.640  1.00  0.00    -0.028 C 
ATOM     14  C   UNL     1     -14.404 -13.263  29.785  1.00  0.00     0.039 C 
BRANCH  13  15
ATOM     15  C   UNL     1     -12.491 -14.970  28.218  1.00  0.00     0.035 C 
BRANCH  15  16
ATOM     16  C   UNL     1     -11.338 -15.881  27.788  1.00  0.00     0.079 C 
BRANCH  16  17
ATOM     17  C   UNL     1     -11.722 -16.694  26.583  1.00  0.00     0.130 C 
ATOM     18  O   UNL     1     -12.901 -16.885  26.330  1.00  0.00    -0.300 OA
ATOM     19  C   UNL     1     -10.666 -17.253  25.678  1.00  0.00     0.087 C 
ENDBRANCH  16  17
ENDBRANCH  15  16
ENDBRANCH  13  15
ENDBRANCH  11  12
ENDBRANCH   1  11
TORSDOF 9
ENDMDL
MODEL 3
REMARK VINA RESULT:    -6.493      2.151      6.029
REMARK INTER + INTRA:         -11.686
REMARK INTER:                 -10.858
REMARK INTRA:                  -0.828
REMARK UNBOUND:                -1.776
REMARK SMILES CC(=O)CCC=C(C)CCC=C(C)CCC=C(C)C
REMARK SMILES IDX 10 1 11 2 12 3 13 4 14 5 15 6 16 7 18 8 17 9 19 10 9 11 7 12
REMARK SMILES IDX 6 13 8 14 5 15 4 16 2 17 3 18 1 19
REMARK H PARENT
REMARK Flexibility Score: inf
ROOT
ATOM      1  C   UNL     1     -10.478 -18.075  29.158  1.00  0.00     0.032 C 
ENDROOT
BRANCH   1   2
ATOM      2  C   UNL     1     -11.707 -18.749  28.602  1.00  0.00    -0.028 C 
ATOM      3  C   UNL     1     -12.434 -19.693  29.245  1.00  0.00    -0.077 C 
ATOM      4  C   UNL     1     -13.614 -20.293  28.525  1.00  0.00     0.039 C 
BRANCH   3   5
ATOM      5  C   UNL     1     -12.146 -20.151  30.663  1.00  0.00     0.034 C 
BRANCH   5   6
ATOM      6  C   UNL     1     -11.676 -18.995  31.558  1.00  0.00     0.032 C 
BRANCH   6   7
ATOM      7  C   UNL     1     -12.816 -18.068  31.906  1.00  0.00    -0.028 C 
ATOM      8  C   UNL     1     -11.337 -16.083  32.292  1.00  0.00     0.039 C 
ATOM      9  C   UNL     1     -12.680 -16.773  32.265  1.00  0.00    -0.080 C 
ATOM     10  C   UNL     1     -13.917 -16.003  32.650  1.00  0.00     0.039 C 
ENDBRANCH   6   7
ENDBRANCH   5   6
ENDBRANCH   3   5
ENDBRANCH   1   2
BRANCH   1  11
ATOM     11  C   UNL     1     -10.102 -16.845  28.322  1.00  0.00     0.034 C 
BRANCH  11  12
ATOM     12  C   UNL     1     -11.341 -16.107  27.868  1.00  0.00    -0.077 C 
ATOM     13  C   UNL     1     -11.904 -15.200  28.700  1.00  0.00    -0.028 C 
ATOM     14  C   UNL     1     -11.921 -16.406  26.506  1.00  0.00     0.039 C 
BRANCH  13  15
ATOM     15  C   UNL     1     -13.115 -14.366  28.361  1.00  0.00     0.035 C 
BRANCH  15  16
ATOM     16  C   UNL     1     -13.975 -14.128  29.606  1.00  0.00     0.079 C 
BRANCH  16  17
ATOM     17  C   UNL     1     -15.080 -13.152  29.311  1.00  0.00     0.130 C 
ATOM     18  O   UNL     1     -16.245 -13.504  29.415  1.00  0.00    -0.300 OA
ATOM     19  C   UNL     1     -14.761 -11.743  28.912  1.00  0.00     0.087 C 
ENDBRANCH  16  17
ENDBRANCH  15  16
ENDBRANCH  13  15
ENDBRANCH  11  12
ENDBRANCH   1  11
TORSDOF 9
ENDMDL
MODEL 4
REMARK VINA RESULT:    -6.205      1.622      4.605
REMARK INTER + INTRA:         -11.246
REMARK INTER:                  -9.923
REMARK INTRA:                  -1.323
REMARK UNBOUND:                -1.776
REMARK SMILES CC(=O)CCC=C(C)CCC=C(C)CCC=C(C)C
REMARK SMILES IDX 10 1 11 2 12 3 13 4 14 5 15 6 16 7 18 8 17 9 19 10 9 11 7 12
REMARK SMILES IDX 6 13 8 14 5 15 4 16 2 17 3 18 1 19
REMARK H PARENT
REMARK Flexibility Score: inf
ROOT
ATOM      1  C   UNL     1     -11.025 -18.101  28.108  1.00  0.00     0.032 C 
ENDROOT
BRANCH   1   2
ATOM      2  C   UNL     1     -11.994 -17.376  27.208  1.00  0.00    -0.028 C 
ATOM      3  C   UNL     1     -12.457 -16.121  27.413  1.00  0.00    -0.077 C 
ATOM      4  C   UNL     1     -13.456 -15.563  26.432  1.00  0.00     0.039 C 
BRANCH   3   5
ATOM      5  C   UNL     1     -11.997 -15.235  28.558  1.00  0.00     0.034 C 
BRANCH   5   6
ATOM      6  C   UNL     1     -12.755 -13.901  28.592  1.00  0.00     0.032 C 
BRANCH   6   7
ATOM      7  C   UNL     1     -14.193 -14.092  29.009  1.00  0.00    -0.028 C 
ATOM      8  C   UNL     1     -14.747 -11.651  28.916  1.00  0.00     0.039 C 
ATOM      9  C   UNL     1     -15.089 -13.097  29.188  1.00  0.00    -0.080 C 
ATOM     10  C   UNL     1     -16.469 -13.454  29.675  1.00  0.00     0.039 C 
ENDBRANCH   6   7
ENDBRANCH   5   6
ENDBRANCH   3   5
ENDBRANCH   1   2
BRANCH   1  11
ATOM     11  C   UNL     1     -11.727 -19.226  28.879  1.00  0.00     0.034 C 
BRANCH  11  12
ATOM     12  C   UNL     1     -11.854 -18.872  30.344  1.00  0.00    -0.077 C 
ATOM     13  C   UNL     1     -11.388 -17.676  30.772  1.00  0.00    -0.028 C 
ATOM     14  C   UNL     1     -12.489 -19.864  31.289  1.00  0.00     0.039 C 
BRANCH  13  15
ATOM     15  C   UNL     1     -11.484 -17.181  32.193  1.00  0.00     0.035 C 
BRANCH  15  16
ATOM     16  C   UNL     1     -12.263 -15.863  32.256  1.00  0.00     0.079 C 
BRANCH  16  17
ATOM     17  C   UNL     1     -13.682 -16.104  32.691  1.00  0.00     0.130 C 
ATOM     18  O   UNL     1     -14.007 -17.197  33.127  1.00  0.00    -0.300 OA
ATOM     19  C   UNL     1     -14.695 -15.002  32.614  1.00  0.00     0.087 C 
ENDBRANCH  16  17
ENDBRANCH  15  16
ENDBRANCH  13  15
ENDBRANCH  11  12
ENDBRANCH   1  11
TORSDOF 9
ENDMDL
MODEL 5
REMARK VINA RESULT:    -6.152      1.952      4.348
REMARK INTER + INTRA:         -11.165
REMARK INTER:                  -9.026
REMARK INTRA:                  -2.139
REMARK UNBOUND:                -1.776
REMARK SMILES CC(=O)CCC=C(C)CCC=C(C)CCC=C(C)C
REMARK SMILES IDX 10 1 11 2 12 3 13 4 14 5 15 6 16 7 18 8 17 9 19 10 9 11 7 12
REMARK SMILES IDX 6 13 8 14 5 15 4 16 2 17 3 18 1 19
REMARK H PARENT
REMARK Flexibility Score: inf
ROOT
ATOM      1  C   UNL     1     -12.016 -17.985  32.106  1.00  0.00     0.032 C 
ENDROOT
BRANCH   1   2
ATOM      2  C   UNL     1     -13.159 -17.084  32.500  1.00  0.00    -0.028 C 
ATOM      3  C   UNL     1     -13.414 -15.870  31.959  1.00  0.00    -0.077 C 
ATOM      4  C   UNL     1     -14.579 -15.082  32.500  1.00  0.00     0.039 C 
BRANCH   3   5
ATOM      5  C   UNL     1     -12.612 -15.278  30.814  1.00  0.00     0.034 C 
BRANCH   5   6
ATOM      6  C   UNL     1     -13.474 -15.055  29.562  1.00  0.00     0.032 C 
BRANCH   6   7
ATOM      7  C   UNL     1     -13.583 -13.589  29.219  1.00  0.00    -0.028 C 
ATOM      8  C   UNL     1     -16.076 -13.522  29.456  1.00  0.00     0.039 C 
ATOM      9  C   UNL     1     -14.739 -12.896  29.137  1.00  0.00    -0.080 C 
ATOM     10  C   UNL     1     -14.679 -11.451  28.714  1.00  0.00     0.039 C 
ENDBRANCH   6   7
ENDBRANCH   5   6
ENDBRANCH   3   5
ENDBRANCH   1   2
BRANCH   1  11
ATOM     11  C   UNL     1     -12.490 -19.088  31.152  1.00  0.00     0.034 C 
BRANCH  11  12
ATOM     12  C   UNL     1     -11.980 -18.839  29.750  1.00  0.00    -0.077 C 
ATOM     13  C   UNL     1     -10.886 -18.060  29.580  1.00  0.00    -0.028 C 
ATOM     14  C   UNL     1     -12.708 -19.457  28.580  1.00  0.00     0.039 C 
BRANCH  13  15
ATOM     15  C   UNL     1     -10.249 -17.762  28.246  1.00  0.00     0.035 C 
BRANCH  15  16
ATOM     16  C   UNL     1     -10.725 -16.409  27.708  1.00  0.00     0.079 C 
BRANCH  16  17
ATOM     17  C   UNL     1     -11.467 -16.582  26.411  1.00  0.00     0.130 C 
ATOM     18  O   UNL     1     -10.861 -16.913  25.405  1.00  0.00    -0.300 OA
ATOM     19  C   UNL     1     -12.950 -16.373  26.353  1.00  0.00     0.087 C 
ENDBRANCH  16  17
ENDBRANCH  15  16
ENDBRANCH  13  15
ENDBRANCH  11  12
ENDBRANCH   1  11
TORSDOF 9
ENDMDL
MODEL 6
REMARK VINA RESULT:    -6.088      2.277      6.149
REMARK INTER + INTRA:         -11.067
REMARK INTER:                  -9.436
REMARK INTRA:                  -1.631
REMARK UNBOUND:                -1.776
REMARK SMILES CC(=O)CCC=C(C)CCC=C(C)CCC=C(C)C
REMARK SMILES IDX 10 1 11 2 12 3 13 4 14 5 15 6 16 7 18 8 17 9 19 10 9 11 7 12
REMARK SMILES IDX 6 13 8 14 5 15 4 16 2 17 3 18 1 19
REMARK H PARENT
REMARK Flexibility Score: inf
ROOT
ATOM      1  C   UNL     1     -10.135 -17.211  28.274  1.00  0.00     0.032 C 
ENDROOT
BRANCH   1   2
ATOM      2  C   UNL     1     -10.102 -18.172  29.435  1.00  0.00    -0.028 C 
ATOM      3  C   UNL     1     -10.046 -17.815  30.739  1.00  0.00    -0.077 C 
ATOM      4  C   UNL     1      -9.977 -18.909  31.774  1.00  0.00     0.039 C 
BRANCH   3   5
ATOM      5  C   UNL     1     -10.084 -16.374  31.216  1.00  0.00     0.034 C 
BRANCH   5   6
ATOM      6  C   UNL     1     -10.534 -16.263  32.680  1.00  0.00     0.032 C 
BRANCH   6   7
ATOM      7  C   UNL     1     -11.821 -15.484  32.805  1.00  0.00    -0.028 C 
ATOM      8  C   UNL     1     -13.287 -17.460  32.340  1.00  0.00     0.039 C 
ATOM      9  C   UNL     1     -13.058 -15.995  32.627  1.00  0.00    -0.080 C 
ATOM     10  C   UNL     1     -14.238 -15.064  32.720  1.00  0.00     0.039 C 
ENDBRANCH   6   7
ENDBRANCH   5   6
ENDBRANCH   3   5
ENDBRANCH   1   2
BRANCH   1  11
ATOM     11  C   UNL     1     -11.391 -17.426  27.420  1.00  0.00     0.034 C 
BRANCH  11  12
ATOM     12  C   UNL     1     -12.274 -16.198  27.446  1.00  0.00    -0.077 C 
ATOM     13  C   UNL     1     -12.119 -15.302  28.449  1.00  0.00    -0.028 C 
ATOM     14  C   UNL     1     -13.307 -16.009  26.361  1.00  0.00     0.039 C 
BRANCH  13  15
ATOM     15  C   UNL     1     -12.901 -14.019  28.576  1.00  0.00     0.035 C 
BRANCH  15  16
ATOM     16  C   UNL     1     -14.046 -14.179  29.580  1.00  0.00     0.079 C 
BRANCH  16  17
ATOM     17  C   UNL     1     -15.144 -13.191  29.298  1.00  0.00     0.130 C 
ATOM     18  O   UNL     1     -16.311 -13.537  29.392  1.00  0.00    -0.300 OA
ATOM     19  C   UNL     1     -14.814 -11.777  28.925  1.00  0.00     0.087 C 
ENDBRANCH  16  17
ENDBRANCH  15  16
ENDBRANCH  13  15
ENDBRANCH  11  12
ENDBRANCH   1  11
TORSDOF 9
ENDMDL
MODEL 7
REMARK VINA RESULT:    -5.935      2.394      4.681
REMARK INTER + INTRA:         -10.834
REMARK INTER:                  -9.639
REMARK INTRA:                  -1.194
REMARK UNBOUND:                -1.776
REMARK SMILES CC(=O)CCC=C(C)CCC=C(C)CCC=C(C)C
REMARK SMILES IDX 10 1 11 2 12 3 13 4 14 5 15 6 16 7 18 8 17 9 19 10 9 11 7 12
REMARK SMILES IDX 6 13 8 14 5 15 4 16 2 17 3 18 1 19
REMARK H PARENT
REMARK Flexibility Score: inf
ROOT
ATOM      1  C   UNL     1     -11.371 -18.481  31.978  1.00  0.00     0.032 C 
ENDROOT
BRANCH   1   2
ATOM      2  C   UNL     1     -12.265 -18.921  30.846  1.00  0.00    -0.028 C 
ATOM      3  C   UNL     1     -11.891 -19.009  29.548  1.00  0.00    -0.077 C 
ATOM      4  C   UNL     1     -12.928 -19.429  28.538  1.00  0.00     0.039 C 
BRANCH   3   5
ATOM      5  C   UNL     1     -10.478 -18.740  29.063  1.00  0.00     0.034 C 
BRANCH   5   6
ATOM      6  C   UNL     1     -10.306 -17.299  28.562  1.00  0.00     0.032 C 
BRANCH   6   7
ATOM      7  C   UNL     1     -11.608 -16.732  28.052  1.00  0.00    -0.028 C 
ATOM      8  C   UNL     1     -10.964 -16.910  25.638  1.00  0.00     0.039 C 
ATOM      9  C   UNL     1     -11.908 -16.523  26.752  1.00  0.00    -0.080 C 
ATOM     10  C   UNL     1     -13.229 -15.882  26.415  1.00  0.00     0.039 C 
ENDBRANCH   6   7
ENDBRANCH   5   6
ENDBRANCH   3   5
ENDBRANCH   1   2
BRANCH   1  11
ATOM     11  C   UNL     1     -11.194 -16.957  31.976  1.00  0.00     0.034 C 
BRANCH  11  12
ATOM     12  C   UNL     1     -12.528 -16.264  31.809  1.00  0.00    -0.077 C 
ATOM     13  C   UNL     1     -12.683 -15.375  30.800  1.00  0.00    -0.028 C 
ATOM     14  C   UNL     1     -13.646 -16.575  32.776  1.00  0.00     0.039 C 
BRANCH  13  15
ATOM     15  C   UNL     1     -13.966 -14.644  30.496  1.00  0.00     0.035 C 
BRANCH  15  16
ATOM     16  C   UNL     1     -13.807 -13.763  29.253  1.00  0.00     0.079 C 
BRANCH  16  17
ATOM     17  C   UNL     1     -14.969 -12.819  29.117  1.00  0.00     0.130 C 
ATOM     18  O   UNL     1     -14.773 -11.656  28.800  1.00  0.00    -0.300 OA
ATOM     19  C   UNL     1     -16.370 -13.302  29.346  1.00  0.00     0.087 C 
ENDBRANCH  16  17
ENDBRANCH  15  16
ENDBRANCH  13  15
ENDBRANCH  11  12
ENDBRANCH   1  11
TORSDOF 9
ENDMDL
MODEL 8
REMARK VINA RESULT:    -5.536      1.693      4.607
REMARK INTER + INTRA:         -10.225
REMARK INTER:                  -9.299
REMARK INTRA:                  -0.925
REMARK UNBOUND:                -1.776
REMARK SMILES CC(=O)CCC=C(C)CCC=C(C)CCC=C(C)C
REMARK SMILES IDX 10 1 11 2 12 3 13 4 14 5 15 6 16 7 18 8 17 9 19 10 9 11 7 12
REMARK SMILES IDX 6 13 8 14 5 15 4 16 2 17 3 18 1 19
REMARK H PARENT
REMARK Flexibility Score: inf
ROOT
ATOM      1  C   UNL     1     -13.034 -18.767  28.231  1.00  0.00     0.032 C 
ENDROOT
BRANCH   1   2
ATOM      2  C   UNL     1     -11.887 -18.321  27.358  1.00  0.00    -0.028 C 
ATOM      3  C   UNL     1     -11.783 -17.105  26.774  1.00  0.00    -0.077 C 
ATOM      4  C   UNL     1     -10.586 -16.839  25.897  1.00  0.00     0.039 C 
BRANCH   3   5
ATOM      5  C   UNL     1     -12.787 -15.985  26.982  1.00  0.00     0.034 C 
BRANCH   5   6
ATOM      6  C   UNL     1     -12.524 -15.210  28.281  1.00  0.00     0.032 C 
BRANCH   6   7
ATOM      7  C   UNL     1     -13.243 -13.883  28.288  1.00  0.00    -0.028 C 
ATOM      8  C   UNL     1     -14.292 -14.244  30.534  1.00  0.00     0.039 C 
ATOM      9  C   UNL     1     -14.061 -13.448  29.271  1.00  0.00    -0.080 C 
ATOM     10  C   UNL     1     -14.758 -12.125  29.091  1.00  0.00     0.039 C 
ENDBRANCH   6   7
ENDBRANCH   5   6
ENDBRANCH   3   5
ENDBRANCH   1   2
BRANCH   1  11
ATOM     11  C   UNL     1     -12.636 -19.979  29.082  1.00  0.00     0.034 C 
BRANCH  11  12
ATOM     12  C   UNL     1     -11.773 -19.554  30.249  1.00  0.00    -0.077 C 
ATOM     13  C   UNL     1     -10.782 -18.656  30.038  1.00  0.00    -0.028 C 
ATOM     14  C   UNL     1     -12.034 -20.146  31.614  1.00  0.00     0.039 C 
BRANCH  13  15
ATOM     15  C   UNL     1      -9.875 -18.117  31.115  1.00  0.00     0.035 C 
BRANCH  15  16
ATOM     16  C   UNL     1      -9.991 -16.592  31.209  1.00  0.00     0.079 C 
BRANCH  16  17
ATOM     17  C   UNL     1     -10.815 -16.193  32.401  1.00  0.00     0.130 C 
ATOM     18  O   UNL     1     -10.277 -15.671  33.365  1.00  0.00    -0.300 OA
ATOM     19  C   UNL     1     -12.299 -16.410  32.404  1.00  0.00     0.087 C 
ENDBRANCH  16  17
ENDBRANCH  15  16
ENDBRANCH  13  15
ENDBRANCH  11  12
ENDBRANCH   1  11
TORSDOF 9
ENDMDL
MODEL 9
REMARK VINA RESULT:    -4.000      1.410      3.667
REMARK INTER + INTRA:          -7.881
REMARK INTER:                  -6.534
REMARK INTRA:                  -1.347
REMARK UNBOUND:                -1.776
REMARK SMILES CC(=O)CCC=C(C)CCC=C(C)CCC=C(C)C
REMARK SMILES IDX 10 1 11 2 12 3 13 4 14 5 15 6 16 7 18 8 17 9 19 10 9 11 7 12
REMARK SMILES IDX 6 13 8 14 5 15 4 16 2 17 3 18 1 19
REMARK H PARENT
REMARK Flexibility Score: inf
ROOT
ATOM      1  C   UNL     1     -10.001 -15.790  31.296  1.00  0.00     0.032 C 
ENDROOT
BRANCH   1   2
ATOM      2  C   UNL     1      -9.875 -16.520  29.982  1.00  0.00    -0.028 C 
ATOM      3  C   UNL     1     -10.447 -16.132  28.819  1.00  0.00    -0.077 C 
ATOM      4  C   UNL     1     -10.251 -17.004  27.605  1.00  0.00     0.039 C 
BRANCH   3   5
ATOM      5  C   UNL     1     -11.243 -14.848  28.664  1.00  0.00     0.034 C 
BRANCH   5   6
ATOM      6  C   UNL     1     -12.707 -15.122  28.290  1.00  0.00     0.032 C 
BRANCH   6   7
ATOM      7  C   UNL     1     -13.511 -13.845  28.238  1.00  0.00    -0.028 C 
ATOM      8  C   UNL     1     -14.324 -14.033  30.600  1.00  0.00     0.039 C 
ATOM      9  C   UNL     1     -14.264 -13.360  29.249  1.00  0.00    -0.080 C 
ATOM     10  C   UNL     1     -15.063 -12.106  29.009  1.00  0.00     0.039 C 
ENDBRANCH   6   7
ENDBRANCH   5   6
ENDBRANCH   3   5
ENDBRANCH   1   2
BRANCH   1  11
ATOM     11  C   UNL     1     -10.430 -16.746  32.416  1.00  0.00     0.034 C 
BRANCH  11  12
ATOM     12  C   UNL     1     -11.624 -17.571  31.987  1.00  0.00    -0.077 C 
ATOM     13  C   UNL     1     -11.427 -18.850  31.591  1.00  0.00    -0.028 C 
ATOM     14  C   UNL     1     -12.998 -16.945  32.005  1.00  0.00     0.039 C 
BRANCH  13  15
ATOM     15  C   UNL     1     -12.528 -19.795  31.177  1.00  0.00     0.035 C 
BRANCH  15  16
ATOM     16  C   UNL     1     -12.131 -20.571  29.917  1.00  0.00     0.079 C 
BRANCH  16  17
ATOM     17  C   UNL     1     -12.953 -20.130  28.738  1.00  0.00     0.130 C 
ATOM     18  O   UNL     1     -13.681 -20.931  28.172  1.00  0.00    -0.300 OA
ATOM     19  C   UNL     1     -12.903 -18.707  28.268  1.00  0.00     0.087 C 
ENDBRANCH  16  17
ENDBRANCH  15  16
ENDBRANCH  13  15
ENDBRANCH  11  12
ENDBRANCH   1  11
TORSDOF 9
ENDMDL
