MODEL 1
REMARK VINA RESULT:    -4.777      0.000      0.000
REMARK INTER + INTRA:         -11.895
REMARK INTER:                  -9.245
REMARK INTRA:                  -2.650
REMARK UNBOUND:                -2.650
REMARK SMILES CCCCCCCCCCCCCCCCCC(=O)[O-]
REMARK SMILES IDX 10 1 11 2 12 3 13 4 14 5 15 6 16 7 17 8 18 9 19 10 20 11
REMARK SMILES IDX 9 12 8 13 7 14 6 15 5 16 4 17 3 18 2 19 1 20
REMARK H PARENT
REMARK Flexibility Score: inf
ROOT
ATOM      1  C   UNL     1      16.205 -34.520  22.312  1.00  0.00     0.000 C 
ENDROOT
BRANCH   1   2
ATOM      2  C   UNL     1      15.116 -34.100  21.311  1.00  0.00     0.000 C 
BRANCH   2   3
ATOM      3  C   UNL     1      14.305 -32.887  21.796  1.00  0.00     0.000 C 
BRANCH   3   4
ATOM      4  C   UNL     1      13.649 -32.112  20.643  1.00  0.00     0.000 C 
BRANCH   4   5
ATOM      5  C   UNL     1      12.891 -30.887  21.167  1.00  0.00     0.000 C 
BRANCH   5   6
ATOM      6  C   UNL     1      13.127 -30.695  22.671  1.00  0.00     0.000 C 
BRANCH   6   7
ATOM      7  C   UNL     1      12.586 -29.341  23.144  1.00  0.00     0.006 C 
BRANCH   7   8
ATOM      8  C   UNL     1      13.699 -28.289  23.188  1.00  0.00     0.053 C 
BRANCH   8   9
ATOM      9  C   UNL     1      13.247 -27.080  23.942  1.00  0.00     0.041 C 
ATOM     10  O   UNL     1      12.594 -27.207  25.011  1.00  0.00    -0.550 OA
ATOM     11  O   UNL     1      13.587 -25.811  23.489  1.00  0.00    -0.550 OA
ENDBRANCH   8   9
ENDBRANCH   7   8
ENDBRANCH   6   7
ENDBRANCH   5   6
ENDBRANCH   4   5
ENDBRANCH   3   4
ENDBRANCH   2   3
ENDBRANCH   1   2
BRANCH   1  12
ATOM     12  C   UNL     1      15.949 -33.983  23.733  1.00  0.00     0.000 C 
BRANCH  12  13
ATOM     13  C   UNL     1      17.023 -33.016  24.268  1.00  0.00    -0.000 C 
BRANCH  13  14
ATOM     14  C   UNL     1      16.850 -31.542  23.847  1.00  0.00    -0.000 C 
BRANCH  14  15
ATOM     15  C   UNL     1      17.830 -31.050  22.765  1.00  0.00    -0.000 C 
BRANCH  15  16
ATOM     16  C   UNL     1      17.129 -30.685  21.446  1.00  0.00    -0.000 C 
BRANCH  16  17
ATOM     17  C   UNL     1      17.573 -31.568  20.266  1.00  0.00    -0.000 C 
BRANCH  17  18
ATOM     18  C   UNL     1      18.748 -32.517  20.563  1.00  0.00    -0.000 C 
BRANCH  18  19
ATOM     19  C   UNL     1      18.722 -33.790  19.704  1.00  0.00    -0.003 C 
ATOM     20  C   UNL     1      17.496 -33.818  18.798  1.00  0.00     0.004 C 
ENDBRANCH  18  19
ENDBRANCH  17  18
ENDBRANCH  16  17
ENDBRANCH  15  16
ENDBRANCH  14  15
ENDBRANCH  13  14
ENDBRANCH  12  13
ENDBRANCH   1  12
TORSDOF 16
ENDMDL
MODEL 2
REMARK VINA RESULT:    -4.733      1.179      3.068
REMARK INTER + INTRA:         -11.809
REMARK INTER:                  -9.656
REMARK INTRA:                  -2.153
REMARK UNBOUND:                -2.650
REMARK SMILES CCCCCCCCCCCCCCCCCC(=O)[O-]
REMARK SMILES IDX 10 1 11 2 12 3 13 4 14 5 15 6 16 7 17 8 18 9 19 10 20 11
REMARK SMILES IDX 9 12 8 13 7 14 6 15 5 16 4 17 3 18 2 19 1 20
REMARK H PARENT
REMARK Flexibility Score: inf
ROOT
ATOM      1  C   UNL     1      14.474 -33.399  19.904  1.00  0.00     0.000 C 
ENDROOT
BRANCH   1   2
ATOM      2  C   UNL     1      14.097 -32.298  20.908  1.00  0.00     0.000 C 
BRANCH   2   3
ATOM      3  C   UNL     1      14.386 -32.701  22.363  1.00  0.00     0.000 C 
BRANCH   3   4
ATOM      4  C   UNL     1      13.687 -31.789  23.383  1.00  0.00     0.000 C 
BRANCH   4   5
ATOM      5  C   UNL     1      13.963 -30.312  23.077  1.00  0.00     0.000 C 
BRANCH   5   6
ATOM      6  C   UNL     1      12.655 -29.517  22.979  1.00  0.00     0.000 C 
BRANCH   6   7
ATOM      7  C   UNL     1      12.553 -28.485  24.108  1.00  0.00     0.006 C 
BRANCH   7   8
ATOM      8  C   UNL     1      12.104 -27.123  23.569  1.00  0.00     0.053 C 
BRANCH   8   9
ATOM      9  C   UNL     1      13.037 -26.046  24.024  1.00  0.00     0.041 C 
ATOM     10  O   UNL     1      13.542 -26.091  25.177  1.00  0.00    -0.550 OA
ATOM     11  O   UNL     1      13.387 -25.018  23.158  1.00  0.00    -0.550 OA
ENDBRANCH   8   9
ENDBRANCH   7   8
ENDBRANCH   6   7
ENDBRANCH   5   6
ENDBRANCH   4   5
ENDBRANCH   3   4
ENDBRANCH   2   3
ENDBRANCH   1   2
BRANCH   1  12
ATOM     12  C   UNL     1      15.093 -34.637  20.580  1.00  0.00     0.000 C 
BRANCH  12  13
ATOM     13  C   UNL     1      16.425 -35.116  19.970  1.00  0.00    -0.000 C 
BRANCH  13  14
ATOM     14  C   UNL     1      17.005 -34.212  18.863  1.00  0.00    -0.000 C 
BRANCH  14  15
ATOM     15  C   UNL     1      18.487 -33.831  19.038  1.00  0.00    -0.000 C 
BRANCH  15  16
ATOM     16  C   UNL     1      18.752 -33.033  20.325  1.00  0.00    -0.000 C 
BRANCH  16  17
ATOM     17  C   UNL     1      18.014 -31.682  20.356  1.00  0.00    -0.000 C 
BRANCH  17  18
ATOM     18  C   UNL     1      17.571 -31.209  21.752  1.00  0.00    -0.000 C 
BRANCH  18  19
ATOM     19  C   UNL     1      18.159 -32.057  22.889  1.00  0.00    -0.003 C 
ATOM     20  C   UNL     1      17.418 -31.812  24.199  1.00  0.00     0.004 C 
ENDBRANCH  18  19
ENDBRANCH  17  18
ENDBRANCH  16  17
ENDBRANCH  15  16
ENDBRANCH  14  15
ENDBRANCH  13  14
ENDBRANCH  12  13
ENDBRANCH   1  12
TORSDOF 16
ENDMDL
MODEL 3
REMARK VINA RESULT:    -4.725      1.182      3.155
REMARK INTER + INTRA:         -11.795
REMARK INTER:                  -8.910
REMARK INTRA:                  -2.885
REMARK UNBOUND:                -2.650
REMARK SMILES CCCCCCCCCCCCCCCCCC(=O)[O-]
REMARK SMILES IDX 10 1 11 2 12 3 13 4 14 5 15 6 16 7 17 8 18 9 19 10 20 11
REMARK SMILES IDX 9 12 8 13 7 14 6 15 5 16 4 17 3 18 2 19 1 20
REMARK H PARENT
REMARK Flexibility Score: inf
ROOT
ATOM      1  C   UNL     1      17.532 -34.351  20.128  1.00  0.00     0.000 C 
ENDROOT
BRANCH   1   2
ATOM      2  C   UNL     1      16.402 -34.111  19.113  1.00  0.00     0.000 C 
BRANCH   2   3
ATOM      3  C   UNL     1      15.028 -33.954  19.785  1.00  0.00     0.000 C 
BRANCH   3   4
ATOM      4  C   UNL     1      15.108 -33.998  21.318  1.00  0.00     0.000 C 
BRANCH   4   5
ATOM      5  C   UNL     1      14.346 -32.822  21.941  1.00  0.00     0.000 C 
BRANCH   5   6
ATOM      6  C   UNL     1      13.785 -31.893  20.857  1.00  0.00     0.000 C 
BRANCH   6   7
ATOM      7  C   UNL     1      12.829 -30.858  21.460  1.00  0.00     0.006 C 
BRANCH   7   8
ATOM      8  C   UNL     1      13.132 -30.629  22.944  1.00  0.00     0.053 C 
BRANCH   8   9
ATOM      9  C   UNL     1      13.056 -29.172  23.276  1.00  0.00     0.041 C 
ATOM     10  O   UNL     1      12.054 -28.711  23.883  1.00  0.00    -0.550 OA
ATOM     11  O   UNL     1      14.115 -28.331  22.955  1.00  0.00    -0.550 OA
ENDBRANCH   8   9
ENDBRANCH   7   8
ENDBRANCH   6   7
ENDBRANCH   5   6
ENDBRANCH   4   5
ENDBRANCH   3   4
ENDBRANCH   2   3
ENDBRANCH   1   2
BRANCH   1  12
ATOM     12  C   UNL     1      18.826 -33.598  19.769  1.00  0.00     0.000 C 
BRANCH  12  13
ATOM     13  C   UNL     1      19.372 -32.675  20.876  1.00  0.00    -0.000 C 
BRANCH  13  14
ATOM     14  C   UNL     1      18.920 -31.203  20.788  1.00  0.00    -0.000 C 
BRANCH  14  15
ATOM     15  C   UNL     1      17.419 -30.962  21.035  1.00  0.00    -0.000 C 
BRANCH  15  16
ATOM     16  C   UNL     1      17.152 -30.037  22.234  1.00  0.00    -0.000 C 
BRANCH  16  17
ATOM     17  C   UNL     1      16.688 -30.799  23.488  1.00  0.00    -0.000 C 
BRANCH  17  18
ATOM     18  C   UNL     1      17.710 -31.794  24.067  1.00  0.00    -0.000 C 
BRANCH  18  19
ATOM     19  C   UNL     1      17.125 -33.198  24.281  1.00  0.00    -0.003 C 
ATOM     20  C   UNL     1      18.153 -34.277  23.956  1.00  0.00     0.004 C 
ENDBRANCH  18  19
ENDBRANCH  17  18
ENDBRANCH  16  17
ENDBRANCH  15  16
ENDBRANCH  14  15
ENDBRANCH  13  14
ENDBRANCH  12  13
ENDBRANCH   1  12
TORSDOF 16
ENDMDL
MODEL 4
REMARK VINA RESULT:    -4.725      4.095      6.580
REMARK INTER + INTRA:         -11.795
REMARK INTER:                  -8.813
REMARK INTRA:                  -2.982
REMARK UNBOUND:                -2.650
REMARK SMILES CCCCCCCCCCCCCCCCCC(=O)[O-]
REMARK SMILES IDX 10 1 11 2 12 3 13 4 14 5 15 6 16 7 17 8 18 9 19 10 20 11
REMARK SMILES IDX 9 12 8 13 7 14 6 15 5 16 4 17 3 18 2 19 1 20
REMARK H PARENT
REMARK Flexibility Score: inf
ROOT
ATOM      1  C   UNL     1      14.957 -29.420  21.818  1.00  0.00     0.000 C 
ENDROOT
BRANCH   1   2
ATOM      2  C   UNL     1      16.489 -29.489  21.721  1.00  0.00     0.000 C 
BRANCH   2   3
ATOM      3  C   UNL     1      17.085 -30.615  22.582  1.00  0.00     0.000 C 
BRANCH   3   4
ATOM      4  C   UNL     1      18.050 -31.516  21.797  1.00  0.00     0.000 C 
BRANCH   4   5
ATOM      5  C   UNL     1      17.423 -31.969  20.473  1.00  0.00     0.000 C 
BRANCH   5   6
ATOM      6  C   UNL     1      18.064 -33.270  19.976  1.00  0.00     0.000 C 
BRANCH   6   7
ATOM      7  C   UNL     1      17.167 -33.967  18.946  1.00  0.00     0.006 C 
BRANCH   7   8
ATOM      8  C   UNL     1      16.294 -35.036  19.611  1.00  0.00     0.053 C 
BRANCH   8   9
ATOM      9  C   UNL     1      17.025 -36.339  19.682  1.00  0.00     0.041 C 
ATOM     10  O   UNL     1      17.413 -36.788  20.792  1.00  0.00    -0.550 OA
ATOM     11  O   UNL     1      17.237 -37.081  18.526  1.00  0.00    -0.550 OA
ENDBRANCH   8   9
ENDBRANCH   7   8
ENDBRANCH   6   7
ENDBRANCH   5   6
ENDBRANCH   4   5
ENDBRANCH   3   4
ENDBRANCH   2   3
ENDBRANCH   1   2
BRANCH   1  12
ATOM     12  C   UNL     1      14.255 -30.478  20.946  1.00  0.00     0.000 C 
BRANCH  12  13
ATOM     13  C   UNL     1      13.348 -31.459  21.713  1.00  0.00    -0.000 C 
BRANCH  13  14
ATOM     14  C   UNL     1      13.498 -31.432  23.248  1.00  0.00    -0.000 C 
BRANCH  14  15
ATOM     15  C   UNL     1      14.255 -32.628  23.854  1.00  0.00    -0.000 C 
BRANCH  15  16
ATOM     16  C   UNL     1      14.906 -33.526  22.788  1.00  0.00    -0.000 C 
BRANCH  16  17
ATOM     17  C   UNL     1      16.059 -34.380  23.345  1.00  0.00    -0.000 C 
BRANCH  17  18
ATOM     18  C   UNL     1      16.722 -33.834  24.622  1.00  0.00    -0.000 C 
BRANCH  18  19
ATOM     19  C   UNL     1      18.236 -34.091  24.668  1.00  0.00    -0.003 C 
ATOM     20  C   UNL     1      18.718 -34.776  23.393  1.00  0.00     0.004 C 
ENDBRANCH  18  19
ENDBRANCH  17  18
ENDBRANCH  16  17
ENDBRANCH  15  16
ENDBRANCH  14  15
ENDBRANCH  13  14
ENDBRANCH  12  13
ENDBRANCH   1  12
TORSDOF 16
ENDMDL
MODEL 5
REMARK VINA RESULT:    -4.640      3.041      5.318
REMARK INTER + INTRA:         -11.631
REMARK INTER:                  -9.280
REMARK INTRA:                  -2.350
REMARK UNBOUND:                -2.650
REMARK SMILES CCCCCCCCCCCCCCCCCC(=O)[O-]
REMARK SMILES IDX 10 1 11 2 12 3 13 4 14 5 15 6 16 7 17 8 18 9 19 10 20 11
REMARK SMILES IDX 9 12 8 13 7 14 6 15 5 16 4 17 3 18 2 19 1 20
REMARK H PARENT
REMARK Flexibility Score: inf
ROOT
ATOM      1  C   UNL     1      18.543 -34.067  19.545  1.00  0.00     0.000 C 
ENDROOT
BRANCH   1   2
ATOM      2  C   UNL     1      17.114 -34.043  18.981  1.00  0.00     0.000 C 
BRANCH   2   3
ATOM      3  C   UNL     1      16.175 -35.021  19.707  1.00  0.00     0.000 C 
BRANCH   3   4
ATOM      4  C   UNL     1      15.032 -34.309  20.447  1.00  0.00     0.000 C 
BRANCH   4   5
ATOM      5  C   UNL     1      15.343 -34.181  21.943  1.00  0.00     0.000 C 
BRANCH   5   6
ATOM      6  C   UNL     1      15.039 -32.766  22.449  1.00  0.00     0.000 C 
BRANCH   6   7
ATOM      7  C   UNL     1      15.406 -31.714  21.396  1.00  0.00     0.006 C 
BRANCH   7   8
ATOM      8  C   UNL     1      14.444 -30.523  21.450  1.00  0.00     0.053 C 
BRANCH   8   9
ATOM      9  C   UNL     1      13.037 -30.974  21.218  1.00  0.00     0.041 C 
ATOM     10  O   UNL     1      12.141 -30.719  22.065  1.00  0.00    -0.550 OA
ATOM     11  O   UNL     1      12.705 -31.636  20.042  1.00  0.00    -0.550 OA
ENDBRANCH   8   9
ENDBRANCH   7   8
ENDBRANCH   6   7
ENDBRANCH   5   6
ENDBRANCH   4   5
ENDBRANCH   3   4
ENDBRANCH   2   3
ENDBRANCH   1   2
BRANCH   1  12
ATOM     12  C   UNL     1      18.721 -33.142  20.763  1.00  0.00     0.000 C 
BRANCH  12  13
ATOM     13  C   UNL     1      19.006 -33.863  22.095  1.00  0.00    -0.000 C 
BRANCH  13  14
ATOM     14  C   UNL     1      19.087 -35.401  22.006  1.00  0.00    -0.000 C 
BRANCH  14  15
ATOM     15  C   UNL     1      18.291 -36.162  23.083  1.00  0.00    -0.000 C 
BRANCH  15  16
ATOM     16  C   UNL     1      17.979 -35.300  24.317  1.00  0.00    -0.000 C 
BRANCH  16  17
ATOM     17  C   UNL     1      16.872 -35.898  25.203  1.00  0.00    -0.000 C 
BRANCH  17  18
ATOM     18  C   UNL     1      17.324 -37.031  26.142  1.00  0.00    -0.000 C 
BRANCH  18  19
ATOM     19  C   UNL     1      16.149 -37.765  26.806  1.00  0.00    -0.003 C 
ATOM     20  C   UNL     1      16.127 -37.520  28.311  1.00  0.00     0.004 C 
ENDBRANCH  18  19
ENDBRANCH  17  18
ENDBRANCH  16  17
ENDBRANCH  15  16
ENDBRANCH  14  15
ENDBRANCH  13  14
ENDBRANCH  12  13
ENDBRANCH   1  12
TORSDOF 16
ENDMDL
MODEL 6
REMARK VINA RESULT:    -4.627      1.437      3.160
REMARK INTER + INTRA:         -11.605
REMARK INTER:                  -8.540
REMARK INTRA:                  -3.064
REMARK UNBOUND:                -2.650
REMARK SMILES CCCCCCCCCCCCCCCCCC(=O)[O-]
REMARK SMILES IDX 10 1 11 2 12 3 13 4 14 5 15 6 16 7 17 8 18 9 19 10 20 11
REMARK SMILES IDX 9 12 8 13 7 14 6 15 5 16 4 17 3 18 2 19 1 20
REMARK H PARENT
REMARK Flexibility Score: inf
ROOT
ATOM      1  C   UNL     1      18.487 -33.042  22.578  1.00  0.00     0.000 C 
ENDROOT
BRANCH   1   2
ATOM      2  C   UNL     1      19.339 -31.817  22.209  1.00  0.00     0.000 C 
BRANCH   2   3
ATOM      3  C   UNL     1      18.931 -31.198  20.862  1.00  0.00     0.000 C 
BRANCH   3   4
ATOM      4  C   UNL     1      17.426 -30.904  20.774  1.00  0.00     0.000 C 
BRANCH   4   5
ATOM      5  C   UNL     1      17.062 -29.657  21.590  1.00  0.00     0.000 C 
BRANCH   5   6
ATOM      6  C   UNL     1      15.947 -29.964  22.597  1.00  0.00     0.000 C 
BRANCH   6   7
ATOM      7  C   UNL     1      14.570 -29.630  22.012  1.00  0.00     0.006 C 
BRANCH   7   8
ATOM      8  C   UNL     1      13.467 -29.820  23.058  1.00  0.00     0.053 C 
BRANCH   8   9
ATOM      9  C   UNL     1      12.915 -28.496  23.483  1.00  0.00     0.041 C 
ATOM     10  O   UNL     1      13.631 -27.462  23.422  1.00  0.00    -0.550 OA
ATOM     11  O   UNL     1      11.594 -28.396  23.902  1.00  0.00    -0.550 OA
ENDBRANCH   8   9
ENDBRANCH   7   8
ENDBRANCH   6   7
ENDBRANCH   5   6
ENDBRANCH   4   5
ENDBRANCH   3   4
ENDBRANCH   2   3
ENDBRANCH   1   2
BRANCH   1  12
ATOM     12  C   UNL     1      17.813 -32.908  23.956  1.00  0.00     0.000 C 
BRANCH  12  13
ATOM     13  C   UNL     1      16.367 -33.436  24.030  1.00  0.00    -0.000 C 
BRANCH  13  14
ATOM     14  C   UNL     1      15.813 -34.025  22.716  1.00  0.00    -0.000 C 
BRANCH  14  15
ATOM     15  C   UNL     1      14.601 -33.281  22.123  1.00  0.00    -0.000 C 
BRANCH  15  16
ATOM     16  C   UNL     1      14.602 -33.266  20.586  1.00  0.00    -0.000 C 
BRANCH  16  17
ATOM     17  C   UNL     1      15.369 -34.452  19.975  1.00  0.00    -0.000 C 
BRANCH  17  18
ATOM     18  C   UNL     1      16.542 -34.071  19.054  1.00  0.00    -0.000 C 
BRANCH  18  19
ATOM     19  C   UNL     1      17.828 -34.849  19.366  1.00  0.00    -0.003 C 
ATOM     20  C   UNL     1      17.530 -36.100  20.186  1.00  0.00     0.004 C 
ENDBRANCH  18  19
ENDBRANCH  17  18
ENDBRANCH  16  17
ENDBRANCH  15  16
ENDBRANCH  14  15
ENDBRANCH  13  14
ENDBRANCH  12  13
ENDBRANCH   1  12
TORSDOF 16
ENDMDL
MODEL 7
REMARK VINA RESULT:    -4.580      1.792      4.487
REMARK INTER + INTRA:         -11.514
REMARK INTER:                  -9.079
REMARK INTRA:                  -2.435
REMARK UNBOUND:                -2.650
REMARK SMILES CCCCCCCCCCCCCCCCCC(=O)[O-]
REMARK SMILES IDX 10 1 11 2 12 3 13 4 14 5 15 6 16 7 17 8 18 9 19 10 20 11
REMARK SMILES IDX 9 12 8 13 7 14 6 15 5 16 4 17 3 18 2 19 1 20
REMARK H PARENT
REMARK Flexibility Score: inf
ROOT
ATOM      1  C   UNL     1      18.194 -34.002  19.067  1.00  0.00     0.000 C 
ENDROOT
BRANCH   1   2
ATOM      2  C   UNL     1      18.941 -33.771  20.391  1.00  0.00     0.000 C 
BRANCH   2   3
ATOM      3  C   UNL     1      19.289 -32.291  20.622  1.00  0.00     0.000 C 
BRANCH   3   4
ATOM      4  C   UNL     1      18.369 -31.618  21.651  1.00  0.00     0.000 C 
BRANCH   4   5
ATOM      5  C   UNL     1      17.174 -30.948  20.963  1.00  0.00     0.000 C 
BRANCH   5   6
ATOM      6  C   UNL     1      16.506 -29.926  21.891  1.00  0.00     0.000 C 
BRANCH   6   7
ATOM      7  C   UNL     1      14.990 -29.887  21.666  1.00  0.00     0.006 C 
BRANCH   7   8
ATOM      8  C   UNL     1      14.233 -30.152  22.971  1.00  0.00     0.053 C 
BRANCH   8   9
ATOM      9  C   UNL     1      12.779 -29.843  22.805  1.00  0.00     0.041 C 
ATOM     10  O   UNL     1      12.260 -28.882  23.432  1.00  0.00    -0.550 OA
ATOM     11  O   UNL     1      12.007 -30.588  21.923  1.00  0.00    -0.550 OA
ENDBRANCH   8   9
ENDBRANCH   7   8
ENDBRANCH   6   7
ENDBRANCH   5   6
ENDBRANCH   4   5
ENDBRANCH   3   4
ENDBRANCH   2   3
ENDBRANCH   1   2
BRANCH   1  12
ATOM     12  C   UNL     1      17.478 -35.364  19.015  1.00  0.00     0.000 C 
BRANCH  12  13
ATOM     13  C   UNL     1      16.085 -35.395  19.674  1.00  0.00    -0.000 C 
BRANCH  13  14
ATOM     14  C   UNL     1      15.351 -34.039  19.726  1.00  0.00    -0.000 C 
BRANCH  14  15
ATOM     15  C   UNL     1      14.813 -33.639  21.112  1.00  0.00    -0.000 C 
BRANCH  15  16
ATOM     16  C   UNL     1      15.624 -34.248  22.267  1.00  0.00    -0.000 C 
BRANCH  16  17
ATOM     17  C   UNL     1      15.648 -33.354  23.521  1.00  0.00    -0.000 C 
BRANCH  17  18
ATOM     18  C   UNL     1      16.677 -33.756  24.593  1.00  0.00    -0.000 C 
BRANCH  18  19
ATOM     19  C   UNL     1      16.777 -35.276  24.789  1.00  0.00    -0.003 C 
ATOM     20  C   UNL     1      17.922 -35.635  25.731  1.00  0.00     0.004 C 
ENDBRANCH  18  19
ENDBRANCH  17  18
ENDBRANCH  16  17
ENDBRANCH  15  16
ENDBRANCH  14  15
ENDBRANCH  13  14
ENDBRANCH  12  13
ENDBRANCH   1  12
TORSDOF 16
ENDMDL
MODEL 8
REMARK VINA RESULT:    -4.568      1.982      3.644
REMARK INTER + INTRA:         -11.490
REMARK INTER:                  -8.852
REMARK INTRA:                  -2.639
REMARK UNBOUND:                -2.650
REMARK SMILES CCCCCCCCCCCCCCCCCC(=O)[O-]
REMARK SMILES IDX 10 1 11 2 12 3 13 4 14 5 15 6 16 7 17 8 18 9 19 10 20 11
REMARK SMILES IDX 9 12 8 13 7 14 6 15 5 16 4 17 3 18 2 19 1 20
REMARK H PARENT
REMARK Flexibility Score: inf
ROOT
ATOM      1  C   UNL     1      17.629 -36.858  20.713  1.00  0.00     0.000 C 
ENDROOT
BRANCH   1   2
ATOM      2  C   UNL     1      17.009 -36.326  19.410  1.00  0.00     0.000 C 
BRANCH   2   3
ATOM      3  C   UNL     1      17.293 -34.831  19.189  1.00  0.00     0.000 C 
BRANCH   3   4
ATOM      4  C   UNL     1      16.013 -34.006  18.989  1.00  0.00     0.000 C 
BRANCH   4   5
ATOM      5  C   UNL     1      14.941 -34.402  20.011  1.00  0.00     0.000 C 
BRANCH   5   6
ATOM      6  C   UNL     1      14.707 -33.278  21.028  1.00  0.00     0.000 C 
BRANCH   6   7
ATOM      7  C   UNL     1      13.718 -32.241  20.484  1.00  0.00     0.006 C 
BRANCH   7   8
ATOM      8  C   UNL     1      13.889 -30.893  21.191  1.00  0.00     0.053 C 
BRANCH   8   9
ATOM      9  C   UNL     1      12.965 -30.796  22.363  1.00  0.00     0.041 C 
ATOM     10  O   UNL     1      13.209 -31.439  23.418  1.00  0.00    -0.550 OA
ATOM     11  O   UNL     1      11.859 -29.957  22.308  1.00  0.00    -0.550 OA
ENDBRANCH   8   9
ENDBRANCH   7   8
ENDBRANCH   6   7
ENDBRANCH   5   6
ENDBRANCH   4   5
ENDBRANCH   3   4
ENDBRANCH   2   3
ENDBRANCH   1   2
BRANCH   1  12
ATOM     12  C   UNL     1      18.261 -35.746  21.571  1.00  0.00     0.000 C 
BRANCH  12  13
ATOM     13  C   UNL     1      17.823 -35.732  23.048  1.00  0.00    -0.000 C 
BRANCH  13  14
ATOM     14  C   UNL     1      16.702 -34.730  23.393  1.00  0.00    -0.000 C 
BRANCH  14  15
ATOM     15  C   UNL     1      16.952 -33.873  24.648  1.00  0.00    -0.000 C 
BRANCH  15  16
ATOM     16  C   UNL     1      17.714 -32.573  24.342  1.00  0.00    -0.000 C 
BRANCH  16  17
ATOM     17  C   UNL     1      16.862 -31.543  23.578  1.00  0.00    -0.000 C 
BRANCH  17  18
ATOM     18  C   UNL     1      17.562 -30.871  22.383  1.00  0.00    -0.000 C 
BRANCH  18  19
ATOM     19  C   UNL     1      17.946 -31.863  21.277  1.00  0.00    -0.003 C 
ATOM     20  C   UNL     1      19.444 -31.815  20.990  1.00  0.00     0.004 C 
ENDBRANCH  18  19
ENDBRANCH  17  18
ENDBRANCH  16  17
ENDBRANCH  15  16
ENDBRANCH  14  15
ENDBRANCH  13  14
ENDBRANCH  12  13
ENDBRANCH   1  12
TORSDOF 16
ENDMDL
MODEL 9
REMARK VINA RESULT:    -4.550      3.396      5.939
REMARK INTER + INTRA:         -11.456
REMARK INTER:                  -8.680
REMARK INTRA:                  -2.776
REMARK UNBOUND:                -2.650
REMARK SMILES CCCCCCCCCCCCCCCCCC(=O)[O-]
REMARK SMILES IDX 10 1 11 2 12 3 13 4 14 5 15 6 16 7 17 8 18 9 19 10 20 11
REMARK SMILES IDX 9 12 8 13 7 14 6 15 5 16 4 17 3 18 2 19 1 20
REMARK H PARENT
REMARK Flexibility Score: inf
ROOT
ATOM      1  C   UNL     1      15.034 -29.189  22.023  1.00  0.00     0.000 C 
ENDROOT
BRANCH   1   2
ATOM      2  C   UNL     1      16.314 -29.936  22.431  1.00  0.00     0.000 C 
BRANCH   2   3
ATOM      3  C   UNL     1      17.418 -29.843  21.365  1.00  0.00     0.000 C 
BRANCH   3   4
ATOM      4  C   UNL     1      17.597 -31.152  20.581  1.00  0.00     0.000 C 
BRANCH   4   5
ATOM      5  C   UNL     1      18.989 -31.749  20.821  1.00  0.00     0.000 C 
BRANCH   5   6
ATOM      6  C   UNL     1      18.888 -33.155  21.425  1.00  0.00     0.000 C 
BRANCH   6   7
ATOM      7  C   UNL     1      19.098 -33.119  22.943  1.00  0.00     0.006 C 
BRANCH   7   8
ATOM      8  C   UNL     1      17.791 -33.412  23.686  1.00  0.00     0.053 C 
BRANCH   8   9
ATOM      9  C   UNL     1      17.701 -34.862  24.038  1.00  0.00     0.041 C 
ATOM     10  O   UNL     1      18.665 -35.635  23.791  1.00  0.00    -0.550 OA
ATOM     11  O   UNL     1      16.572 -35.354  24.680  1.00  0.00    -0.550 OA
ENDBRANCH   8   9
ENDBRANCH   7   8
ENDBRANCH   6   7
ENDBRANCH   5   6
ENDBRANCH   4   5
ENDBRANCH   3   4
ENDBRANCH   2   3
ENDBRANCH   1   2
BRANCH   1  12
ATOM     12  C   UNL     1      13.807 -29.607  22.854  1.00  0.00     0.000 C 
BRANCH  12  13
ATOM     13  C   UNL     1      13.134 -30.920  22.409  1.00  0.00    -0.000 C 
BRANCH  13  14
ATOM     14  C   UNL     1      13.135 -31.178  20.889  1.00  0.00    -0.000 C 
BRANCH  14  15
ATOM     15  C   UNL     1      13.852 -32.466  20.442  1.00  0.00    -0.000 C 
BRANCH  15  16
ATOM     16  C   UNL     1      14.671 -33.115  21.570  1.00  0.00    -0.000 C 
BRANCH  16  17
ATOM     17  C   UNL     1      15.341 -34.433  21.143  1.00  0.00    -0.000 C 
BRANCH  17  18
ATOM     18  C   UNL     1      15.927 -34.441  19.720  1.00  0.00    -0.000 C 
BRANCH  18  19
ATOM     19  C   UNL     1      16.565 -35.785  19.340  1.00  0.00    -0.003 C 
ATOM     20  C   UNL     1      17.340 -36.377  20.513  1.00  0.00     0.004 C 
ENDBRANCH  18  19
ENDBRANCH  17  18
ENDBRANCH  16  17
ENDBRANCH  15  16
ENDBRANCH  14  15
ENDBRANCH  13  14
ENDBRANCH  12  13
ENDBRANCH   1  12
TORSDOF 16
ENDMDL
