MODEL 1
REMARK VINA RESULT:    -4.426      0.000      0.000
REMARK INTER + INTRA:          -4.878
REMARK INTER:                  -4.814
REMARK INTRA:                  -0.064
REMARK UNBOUND:                -0.064
REMARK SMILES COc1cc2ccc(=O)oc2cc1O
REMARK SMILES IDX 3 1 13 2 12 3 11 4 5 5 4 6 6 7 7 8 8 9 9 10 10 11 2 12 1 13
REMARK SMILES IDX 14 14
REMARK H PARENT 14 15
REMARK Flexibility Score: inf
ROOT
ATOM      1  C   UNL     1       7.264  19.165  23.637  1.00  0.00     0.161 A 
ATOM      2  C   UNL     1       8.359  19.161  22.759  1.00  0.00     0.161 A 
ATOM      3  C   UNL     1       9.667  19.245  23.257  1.00  0.00     0.098 A 
ATOM      4  C   UNL     1       9.892  19.333  24.633  1.00  0.00     0.142 A 
ATOM      5  C   UNL     1       8.797  19.339  25.523  1.00  0.00     0.022 A 
ATOM      6  C   UNL     1       7.489  19.256  25.026  1.00  0.00     0.062 A 
ATOM      7  C   UNL     1       9.054  19.429  26.895  1.00  0.00     0.019 A 
ATOM      8  C   UNL     1      10.373  19.510  27.341  1.00  0.00     0.094 A 
ATOM      9  C   UNL     1      11.408  19.499  26.400  1.00  0.00     0.336 A 
ATOM     10  O   UNL     1      12.605  19.572  26.782  1.00  0.00    -0.246 OA
ATOM     11  O   UNL     1      11.135  19.413  25.100  1.00  0.00    -0.423 OA
ENDROOT
BRANCH   1  12
ATOM     12  O   UNL     1       5.972  19.081  23.094  1.00  0.00    -0.493 OA
ATOM     13  C   UNL     1       5.111  20.195  22.883  1.00  0.00     0.278 C 
ENDBRANCH   1  12
BRANCH   2  14
ATOM     14  O   UNL     1       8.138  19.073  21.386  1.00  0.00    -0.504 OA
ATOM     15  H   UNL     1       7.211  19.174  20.990  1.00  0.00     0.293 HD
ENDBRANCH   2  14
TORSDOF 2
ENDMDL
MODEL 2
REMARK VINA RESULT:    -4.238      1.299      5.005
REMARK INTER + INTRA:          -4.673
REMARK INTER:                  -4.610
REMARK INTRA:                  -0.063
REMARK UNBOUND:                -0.064
REMARK SMILES COc1cc2ccc(=O)oc2cc1O
REMARK SMILES IDX 3 1 13 2 12 3 11 4 5 5 4 6 6 7 7 8 8 9 9 10 10 11 2 12 1 13
REMARK SMILES IDX 14 14
REMARK H PARENT 14 15
REMARK Flexibility Score: inf
ROOT
ATOM      1  C   UNL     1      10.861  19.960  27.233  1.00  0.00     0.161 A 
ATOM      2  C   UNL     1      11.833  19.817  26.231  1.00  0.00     0.161 A 
ATOM      3  C   UNL     1      11.453  19.540  24.911  1.00  0.00     0.098 A 
ATOM      4  C   UNL     1      10.103  19.405  24.579  1.00  0.00     0.142 A 
ATOM      5  C   UNL     1       9.118  19.547  25.581  1.00  0.00     0.022 A 
ATOM      6  C   UNL     1       9.497  19.823  26.902  1.00  0.00     0.062 A 
ATOM      7  C   UNL     1       7.775  19.406  25.219  1.00  0.00     0.019 A 
ATOM      8  C   UNL     1       7.448  19.131  23.891  1.00  0.00     0.094 A 
ATOM      9  C   UNL     1       8.478  19.003  22.953  1.00  0.00     0.336 A 
ATOM     10  O   UNL     1       8.204  18.755  21.749  1.00  0.00    -0.246 OA
ATOM     11  O   UNL     1       9.748  19.142  23.324  1.00  0.00    -0.423 OA
ENDROOT
BRANCH   1  12
ATOM     12  O   UNL     1      11.287  20.236  28.543  1.00  0.00    -0.493 OA
ATOM     13  C   UNL     1      11.039  21.458  29.231  1.00  0.00     0.278 C 
ENDBRANCH   1  12
BRANCH   2  14
ATOM     14  O   UNL     1      13.181  19.951  26.558  1.00  0.00    -0.504 OA
ATOM     15  H   UNL     1      13.809  19.156  26.562  1.00  0.00     0.293 HD
ENDBRANCH   2  14
TORSDOF 2
ENDMDL
MODEL 3
REMARK VINA RESULT:    -4.228      1.940      3.090
REMARK INTER + INTRA:          -4.662
REMARK INTER:                  -4.597
REMARK INTRA:                  -0.065
REMARK UNBOUND:                -0.064
REMARK SMILES COc1cc2ccc(=O)oc2cc1O
REMARK SMILES IDX 3 1 13 2 12 3 11 4 5 5 4 6 6 7 7 8 8 9 9 10 10 11 2 12 1 13
REMARK SMILES IDX 14 14
REMARK H PARENT 14 15
REMARK Flexibility Score: inf
ROOT
ATOM      1  C   UNL     1       4.597  19.927  22.542  1.00  0.00     0.161 A 
ATOM      2  C   UNL     1       5.296  18.854  21.966  1.00  0.00     0.161 A 
ATOM      3  C   UNL     1       6.600  18.553  22.384  1.00  0.00     0.098 A 
ATOM      4  C   UNL     1       7.215  19.316  23.379  1.00  0.00     0.142 A 
ATOM      5  C   UNL     1       6.520  20.397  23.963  1.00  0.00     0.022 A 
ATOM      6  C   UNL     1       5.217  20.700  23.546  1.00  0.00     0.062 A 
ATOM      7  C   UNL     1       7.162  21.143  24.956  1.00  0.00     0.019 A 
ATOM      8  C   UNL     1       8.460  20.802  25.338  1.00  0.00     0.094 A 
ATOM      9  C   UNL     1       9.087  19.719  24.714  1.00  0.00     0.336 A 
ATOM     10  O   UNL     1      10.258  19.395  25.044  1.00  0.00    -0.246 OA
ATOM     11  O   UNL     1       8.453  19.025  23.772  1.00  0.00    -0.423 OA
ENDROOT
BRANCH   1  12
ATOM     12  O   UNL     1       3.294  20.194  22.092  1.00  0.00    -0.493 OA
ATOM     13  C   UNL     1       2.112  19.924  22.838  1.00  0.00     0.278 C 
ENDBRANCH   1  12
BRANCH   2  14
ATOM     14  O   UNL     1       4.685  18.091  20.973  1.00  0.00    -0.504 OA
ATOM     15  H   UNL     1       4.394  17.135  21.142  1.00  0.00     0.293 HD
ENDBRANCH   2  14
TORSDOF 2
ENDMDL
MODEL 4
REMARK VINA RESULT:    -4.226      1.262      5.368
REMARK INTER + INTRA:          -4.660
REMARK INTER:                  -4.596
REMARK INTRA:                  -0.064
REMARK UNBOUND:                -0.064
REMARK SMILES COc1cc2ccc(=O)oc2cc1O
REMARK SMILES IDX 3 1 13 2 12 3 11 4 5 5 4 6 6 7 7 8 8 9 9 10 10 11 2 12 1 13
REMARK SMILES IDX 14 14
REMARK H PARENT 14 15
REMARK Flexibility Score: inf
ROOT
ATOM      1  C   UNL     1      10.871  19.620  25.765  1.00  0.00     0.161 A 
ATOM      2  C   UNL     1       9.781  19.766  26.637  1.00  0.00     0.161 A 
ATOM      3  C   UNL     1       8.469  19.663  26.153  1.00  0.00     0.098 A 
ATOM      4  C   UNL     1       8.235  19.414  24.799  1.00  0.00     0.142 A 
ATOM      5  C   UNL     1       9.325  19.265  23.915  1.00  0.00     0.022 A 
ATOM      6  C   UNL     1      10.637  19.369  24.397  1.00  0.00     0.062 A 
ATOM      7  C   UNL     1       9.060  19.016  22.565  1.00  0.00     0.019 A 
ATOM      8  C   UNL     1       7.736  18.922  22.133  1.00  0.00     0.094 A 
ATOM      9  C   UNL     1       6.707  19.081  23.066  1.00  0.00     0.336 A 
ATOM     10  O   UNL     1       5.506  18.999  22.696  1.00  0.00    -0.246 OA
ATOM     11  O   UNL     1       6.988  19.317  24.345  1.00  0.00    -0.423 OA
ENDROOT
BRANCH   1  12
ATOM     12  O   UNL     1      12.167  19.732  26.293  1.00  0.00    -0.493 OA
ATOM     13  C   UNL     1      13.059  20.808  26.018  1.00  0.00     0.278 C 
ENDBRANCH   1  12
BRANCH   2  14
ATOM     14  O   UNL     1      10.011  20.016  27.988  1.00  0.00    -0.504 OA
ATOM     15  H   UNL     1      10.913  19.841  28.414  1.00  0.00     0.293 HD
ENDBRANCH   2  14
TORSDOF 2
ENDMDL
MODEL 5
REMARK VINA RESULT:    -4.207      1.876      2.695
REMARK INTER + INTRA:          -4.639
REMARK INTER:                  -4.593
REMARK INTRA:                  -0.046
REMARK UNBOUND:                -0.064
REMARK SMILES COc1cc2ccc(=O)oc2cc1O
REMARK SMILES IDX 3 1 13 2 12 3 11 4 5 5 4 6 6 7 7 8 8 9 9 10 10 11 2 12 1 13
REMARK SMILES IDX 14 14
REMARK H PARENT 14 15
REMARK Flexibility Score: inf
ROOT
ATOM      1  C   UNL     1      10.170  19.782  23.219  1.00  0.00     0.161 A 
ATOM      2  C   UNL     1      11.413  20.382  22.964  1.00  0.00     0.161 A 
ATOM      3  C   UNL     1      12.375  20.476  23.979  1.00  0.00     0.098 A 
ATOM      4  C   UNL     1      12.106  19.973  25.254  1.00  0.00     0.142 A 
ATOM      5  C   UNL     1      10.858  19.369  25.519  1.00  0.00     0.022 A 
ATOM      6  C   UNL     1       9.896  19.275  24.506  1.00  0.00     0.062 A 
ATOM      7  C   UNL     1      10.618  18.875  26.805  1.00  0.00     0.019 A 
ATOM      8  C   UNL     1      11.608  18.993  27.781  1.00  0.00     0.094 A 
ATOM      9  C   UNL     1      12.820  19.605  27.445  1.00  0.00     0.336 A 
ATOM     10  O   UNL     1      13.726  19.720  28.312  1.00  0.00    -0.246 OA
ATOM     11  O   UNL     1      13.023  20.066  26.214  1.00  0.00    -0.423 OA
ENDROOT
BRANCH   1  12
ATOM     12  O   UNL     1       9.236  19.711  22.173  1.00  0.00    -0.493 OA
ATOM     13  C   UNL     1       8.158  18.782  22.117  1.00  0.00     0.278 C 
ENDBRANCH   1  12
BRANCH   2  14
ATOM     14  O   UNL     1      11.685  20.885  21.693  1.00  0.00    -0.504 OA
ATOM     15  H   UNL     1      12.431  21.552  21.534  1.00  0.00     0.293 HD
ENDBRANCH   2  14
TORSDOF 2
ENDMDL
MODEL 6
REMARK VINA RESULT:    -4.207      2.831      4.822
REMARK INTER + INTRA:          -4.639
REMARK INTER:                  -4.652
REMARK INTRA:                   0.013
REMARK UNBOUND:                -0.064
REMARK SMILES COc1cc2ccc(=O)oc2cc1O
REMARK SMILES IDX 3 1 13 2 12 3 11 4 5 5 4 6 6 7 7 8 8 9 9 10 10 11 2 12 1 13
REMARK SMILES IDX 14 14
REMARK H PARENT 14 15
REMARK Flexibility Score: inf
ROOT
ATOM      1  C   UNL     1       3.688  19.852  21.024  1.00  0.00     0.161 A 
ATOM      2  C   UNL     1       3.880  21.204  21.349  1.00  0.00     0.161 A 
ATOM      3  C   UNL     1       4.981  21.596  22.123  1.00  0.00     0.098 A 
ATOM      4  C   UNL     1       5.898  20.645  22.578  1.00  0.00     0.142 A 
ATOM      5  C   UNL     1       5.712  19.283  22.256  1.00  0.00     0.022 A 
ATOM      6  C   UNL     1       4.611  18.890  21.483  1.00  0.00     0.062 A 
ATOM      7  C   UNL     1       6.645  18.354  22.726  1.00  0.00     0.019 A 
ATOM      8  C   UNL     1       7.725  18.795  23.493  1.00  0.00     0.094 A 
ATOM      9  C   UNL     1       7.843  20.160  23.772  1.00  0.00     0.336 A 
ATOM     10  O   UNL     1       8.810  20.578  24.463  1.00  0.00    -0.246 OA
ATOM     11  O   UNL     1       6.940  21.023  23.313  1.00  0.00    -0.423 OA
ENDROOT
BRANCH   1  12
ATOM     12  O   UNL     1       2.571  19.504  20.247  1.00  0.00    -0.493 OA
ATOM     13  C   UNL     1       1.257  19.317  20.764  1.00  0.00     0.278 C 
ENDBRANCH   1  12
BRANCH   2  14
ATOM     14  O   UNL     1       2.968  22.155  20.897  1.00  0.00    -0.504 OA
ATOM     15  H   UNL     1       2.650  22.911  21.492  1.00  0.00     0.293 HD
ENDBRANCH   2  14
TORSDOF 2
ENDMDL
MODEL 7
REMARK VINA RESULT:    -4.120     12.632     14.344
REMARK INTER + INTRA:          -4.545
REMARK INTER:                  -4.480
REMARK INTRA:                  -0.065
REMARK UNBOUND:                -0.064
REMARK SMILES COc1cc2ccc(=O)oc2cc1O
REMARK SMILES IDX 3 1 13 2 12 3 11 4 5 5 4 6 6 7 7 8 8 9 9 10 10 11 2 12 1 13
REMARK SMILES IDX 14 14
REMARK H PARENT 14 15
REMARK Flexibility Score: inf
ROOT
ATOM      1  C   UNL     1      14.481  15.027  36.276  1.00  0.00     0.161 A 
ATOM      2  C   UNL     1      14.057  16.268  35.777  1.00  0.00     0.161 A 
ATOM      3  C   UNL     1      12.875  16.855  36.251  1.00  0.00     0.098 A 
ATOM      4  C   UNL     1      12.109  16.210  37.225  1.00  0.00     0.142 A 
ATOM      5  C   UNL     1      12.529  14.961  37.732  1.00  0.00     0.022 A 
ATOM      6  C   UNL     1      13.709  14.373  37.258  1.00  0.00     0.062 A 
ATOM      7  C   UNL     1      11.741  14.339  38.706  1.00  0.00     0.019 A 
ATOM      8  C   UNL     1      10.574  14.965  39.145  1.00  0.00     0.094 A 
ATOM      9  C   UNL     1      10.221  16.202  38.597  1.00  0.00     0.336 A 
ATOM     10  O   UNL     1       9.171  16.783  38.980  1.00  0.00    -0.246 OA
ATOM     11  O   UNL     1      10.989  16.772  37.671  1.00  0.00    -0.423 OA
ENDROOT
BRANCH   1  12
ATOM     12  O   UNL     1      15.670  14.476  35.771  1.00  0.00    -0.493 OA
ATOM     13  C   UNL     1      16.917  14.481  36.460  1.00  0.00     0.278 C 
ENDBRANCH   1  12
BRANCH   2  14
ATOM     14  O   UNL     1      14.818  16.915  34.805  1.00  0.00    -0.504 OA
ATOM     15  H   UNL     1      15.658  17.429  35.044  1.00  0.00     0.293 HD
ENDBRANCH   2  14
TORSDOF 2
ENDMDL
MODEL 8
REMARK VINA RESULT:    -4.118      2.323      6.136
REMARK INTER + INTRA:          -4.543
REMARK INTER:                  -4.478
REMARK INTRA:                  -0.064
REMARK UNBOUND:                -0.064
REMARK SMILES COc1cc2ccc(=O)oc2cc1O
REMARK SMILES IDX 3 1 13 2 12 3 11 4 5 5 4 6 6 7 7 8 8 9 9 10 10 11 2 12 1 13
REMARK SMILES IDX 14 14
REMARK H PARENT 14 15
REMARK Flexibility Score: inf
ROOT
ATOM      1  C   UNL     1       7.436  19.883  23.158  1.00  0.00     0.161 A 
ATOM      2  C   UNL     1       6.986  18.741  22.475  1.00  0.00     0.161 A 
ATOM      3  C   UNL     1       5.616  18.541  22.257  1.00  0.00     0.098 A 
ATOM      4  C   UNL     1       4.685  19.475  22.718  1.00  0.00     0.142 A 
ATOM      5  C   UNL     1       5.129  20.625  23.406  1.00  0.00     0.022 A 
ATOM      6  C   UNL     1       6.498  20.826  23.625  1.00  0.00     0.062 A 
ATOM      7  C   UNL     1       4.173  21.541  23.855  1.00  0.00     0.019 A 
ATOM      8  C   UNL     1       2.821  21.296  23.613  1.00  0.00     0.094 A 
ATOM      9  C   UNL     1       2.456  20.135  22.925  1.00  0.00     0.336 A 
ATOM     10  O   UNL     1       1.241  19.895  22.697  1.00  0.00    -0.246 OA
ATOM     11  O   UNL     1       3.386  19.279  22.509  1.00  0.00    -0.423 OA
ENDROOT
BRANCH   1  12
ATOM     12  O   UNL     1       8.817  20.042  23.354  1.00  0.00    -0.493 OA
ATOM     13  C   UNL     1       9.499  19.740  24.567  1.00  0.00     0.278 C 
ENDBRANCH   1  12
BRANCH   2  14
ATOM     14  O   UNL     1       7.913  17.808  22.014  1.00  0.00    -0.504 OA
ATOM     15  H   UNL     1       7.692  16.820  21.965  1.00  0.00     0.293 HD
ENDBRANCH   2  14
TORSDOF 2
ENDMDL
MODEL 9
REMARK VINA RESULT:    -4.118      1.585      5.050
REMARK INTER + INTRA:          -4.542
REMARK INTER:                  -4.482
REMARK INTRA:                  -0.061
REMARK UNBOUND:                -0.064
REMARK SMILES COc1cc2ccc(=O)oc2cc1O
REMARK SMILES IDX 3 1 13 2 12 3 11 4 5 5 4 6 6 7 7 8 8 9 9 10 10 11 2 12 1 13
REMARK SMILES IDX 14 14
REMARK H PARENT 14 15
REMARK Flexibility Score: inf
ROOT
ATOM      1  C   UNL     1      12.084  20.095  25.169  1.00  0.00     0.161 A 
ATOM      2  C   UNL     1      12.323  19.636  23.864  1.00  0.00     0.161 A 
ATOM      3  C   UNL     1      11.258  19.203  23.061  1.00  0.00     0.098 A 
ATOM      4  C   UNL     1       9.951  19.225  23.551  1.00  0.00     0.142 A 
ATOM      5  C   UNL     1       9.702  19.685  24.863  1.00  0.00     0.022 A 
ATOM      6  C   UNL     1      10.765  20.117  25.667  1.00  0.00     0.062 A 
ATOM      7  C   UNL     1       8.383  19.695  25.326  1.00  0.00     0.019 A 
ATOM      8  C   UNL     1       7.359  19.254  24.487  1.00  0.00     0.094 A 
ATOM      9  C   UNL     1       7.681  18.812  23.200  1.00  0.00     0.336 A 
ATOM     10  O   UNL     1       6.771  18.411  22.428  1.00  0.00    -0.246 OA
ATOM     11  O   UNL     1       8.945  18.813  22.784  1.00  0.00    -0.423 OA
ENDROOT
BRANCH   1  12
ATOM     12  O   UNL     1      13.180  20.517  25.939  1.00  0.00    -0.493 OA
ATOM     13  C   UNL     1      13.579  19.922  27.170  1.00  0.00     0.278 C 
ENDBRANCH   1  12
BRANCH   2  14
ATOM     14  O   UNL     1      13.626  19.613  23.372  1.00  0.00    -0.504 OA
ATOM     15  H   UNL     1      14.412  19.363  23.960  1.00  0.00     0.293 HD
ENDBRANCH   2  14
TORSDOF 2
ENDMDL
