MODEL 1
REMARK VINA RESULT:    -5.719      0.000      0.000
REMARK INTER + INTRA:          -6.490
REMARK INTER:                  -6.388
REMARK INTRA:                  -0.102
REMARK UNBOUND:                -0.102
REMARK SMILES COc1cc(OC)c2ccc(=O)oc2c1
REMARK SMILES IDX 3 1 15 2 14 3 8 4 9 5 10 6 11 7 12 8 13 9 5 10 4 11 2 12
REMARK SMILES IDX 1 13 6 14 7 15
REMARK H PARENT
REMARK Flexibility Score: inf
ROOT
ATOM      1  C   UNL     1      45.835  63.890   2.943  1.00  0.00     0.126 A 
ATOM      2  C   UNL     1      44.923  64.836   3.443  1.00  0.00     0.094 A 
ATOM      3  C   UNL     1      45.328  66.153   3.670  1.00  0.00     0.145 A 
ATOM      4  C   UNL     1      46.659  66.542   3.399  1.00  0.00     0.060 A 
ATOM      5  C   UNL     1      47.018  67.876   3.644  1.00  0.00     0.023 A 
ATOM      6  C   UNL     1      46.068  68.766   4.140  1.00  0.00     0.095 A 
ATOM      7  C   UNL     1      44.771  68.306   4.382  1.00  0.00     0.336 A 
ATOM      8  O   UNL     1      43.897  69.095   4.830  1.00  0.00    -0.246 OA
ATOM      9  O   UNL     1      44.453  67.038   4.144  1.00  0.00    -0.422 OA
ATOM     10  C   UNL     1      47.581  65.602   2.899  1.00  0.00     0.133 A 
ATOM     11  C   UNL     1      47.154  64.278   2.676  1.00  0.00     0.093 A 
ENDROOT
BRANCH   1  12
ATOM     12  O   UNL     1      45.475  62.556   2.699  1.00  0.00    -0.496 OA
ATOM     13  C   UNL     1      44.423  61.870   3.372  1.00  0.00     0.278 C 
ENDBRANCH   1  12
BRANCH  10  14
ATOM     14  O   UNL     1      48.901  66.009   2.636  1.00  0.00    -0.496 OA
ATOM     15  C   UNL     1      49.840  65.260   1.871  1.00  0.00     0.278 C 
ENDBRANCH  10  14
TORSDOF 2
ENDMDL
MODEL 2
REMARK VINA RESULT:    -5.576      1.562      3.750
REMARK INTER + INTRA:          -6.330
REMARK INTER:                  -6.221
REMARK INTRA:                  -0.110
REMARK UNBOUND:                -0.102
REMARK SMILES COc1cc(OC)c2ccc(=O)oc2c1
REMARK SMILES IDX 3 1 15 2 14 3 8 4 9 5 10 6 11 7 12 8 13 9 5 10 4 11 2 12
REMARK SMILES IDX 1 13 6 14 7 15
REMARK H PARENT
REMARK Flexibility Score: inf
ROOT
ATOM      1  C   UNL     1      49.215  66.903   2.616  1.00  0.00     0.126 A 
ATOM      2  C   UNL     1      48.235  67.830   3.012  1.00  0.00     0.094 A 
ATOM      3  C   UNL     1      46.949  67.399   3.345  1.00  0.00     0.145 A 
ATOM      4  C   UNL     1      46.626  66.024   3.285  1.00  0.00     0.060 A 
ATOM      5  C   UNL     1      45.321  65.639   3.628  1.00  0.00     0.023 A 
ATOM      6  C   UNL     1      44.396  66.606   4.012  1.00  0.00     0.095 A 
ATOM      7  C   UNL     1      44.791  67.947   4.047  1.00  0.00     0.336 A 
ATOM      8  O   UNL     1      43.969  68.836   4.392  1.00  0.00    -0.246 OA
ATOM      9  O   UNL     1      46.032  68.289   3.717  1.00  0.00    -0.422 OA
ATOM     10  C   UNL     1      47.600  65.087   2.889  1.00  0.00     0.133 A 
ATOM     11  C   UNL     1      48.892  65.542   2.557  1.00  0.00     0.093 A 
ENDROOT
BRANCH   1  12
ATOM     12  O   UNL     1      50.520  67.290   2.273  1.00  0.00    -0.496 OA
ATOM     13  C   UNL     1      51.552  66.386   1.889  1.00  0.00     0.278 C 
ENDBRANCH   1  12
BRANCH  10  14
ATOM     14  O   UNL     1      47.259  63.724   2.836  1.00  0.00    -0.496 OA
ATOM     15  C   UNL     1      47.489  62.876   1.715  1.00  0.00     0.278 C 
ENDBRANCH  10  14
TORSDOF 2
ENDMDL
MODEL 3
REMARK VINA RESULT:    -5.560      1.145      4.697
REMARK INTER + INTRA:          -6.312
REMARK INTER:                  -6.209
REMARK INTRA:                  -0.103
REMARK UNBOUND:                -0.102
REMARK SMILES COc1cc(OC)c2ccc(=O)oc2c1
REMARK SMILES IDX 3 1 15 2 14 3 8 4 9 5 10 6 11 7 12 8 13 9 5 10 4 11 2 12
REMARK SMILES IDX 1 13 6 14 7 15
REMARK H PARENT
REMARK Flexibility Score: inf
ROOT
ATOM      1  C   UNL     1      45.514  66.880   3.630  1.00  0.00     0.126 A 
ATOM      2  C   UNL     1      46.755  67.494   3.385  1.00  0.00     0.094 A 
ATOM      3  C   UNL     1      47.836  66.740   2.922  1.00  0.00     0.145 A 
ATOM      4  C   UNL     1      47.687  65.353   2.698  1.00  0.00     0.060 A 
ATOM      5  C   UNL     1      48.801  64.638   2.233  1.00  0.00     0.023 A 
ATOM      6  C   UNL     1      50.003  65.304   2.010  1.00  0.00     0.095 A 
ATOM      7  C   UNL     1      50.072  66.679   2.255  1.00  0.00     0.336 A 
ATOM      8  O   UNL     1      51.150  67.299   2.059  1.00  0.00    -0.246 OA
ATOM      9  O   UNL     1      49.004  67.336   2.695  1.00  0.00    -0.422 OA
ATOM     10  C   UNL     1      46.448  64.727   2.940  1.00  0.00     0.133 A 
ATOM     11  C   UNL     1      45.370  65.505   3.407  1.00  0.00     0.093 A 
ENDROOT
BRANCH   1  12
ATOM     12  O   UNL     1      44.400  67.596   4.094  1.00  0.00    -0.496 OA
ATOM     13  C   UNL     1      44.435  68.960   4.505  1.00  0.00     0.278 C 
ENDBRANCH   1  12
BRANCH  10  14
ATOM     14  O   UNL     1      46.320  63.346   2.711  1.00  0.00    -0.496 OA
ATOM     15  C   UNL     1      45.158  62.580   3.012  1.00  0.00     0.278 C 
ENDBRANCH  10  14
TORSDOF 2
ENDMDL
MODEL 4
REMARK VINA RESULT:    -5.432      1.340      1.758
REMARK INTER + INTRA:          -6.170
REMARK INTER:                  -6.071
REMARK INTRA:                  -0.099
REMARK UNBOUND:                -0.102
REMARK SMILES COc1cc(OC)c2ccc(=O)oc2c1
REMARK SMILES IDX 3 1 15 2 14 3 8 4 9 5 10 6 11 7 12 8 13 9 5 10 4 11 2 12
REMARK SMILES IDX 1 13 6 14 7 15
REMARK H PARENT
REMARK Flexibility Score: inf
ROOT
ATOM      1  C   UNL     1      47.282  63.928   2.295  1.00  0.00     0.126 A 
ATOM      2  C   UNL     1      46.028  64.352   2.769  1.00  0.00     0.094 A 
ATOM      3  C   UNL     1      45.846  65.668   3.200  1.00  0.00     0.145 A 
ATOM      4  C   UNL     1      46.923  66.581   3.164  1.00  0.00     0.060 A 
ATOM      5  C   UNL     1      46.691  67.892   3.608  1.00  0.00     0.023 A 
ATOM      6  C   UNL     1      45.425  68.250   4.066  1.00  0.00     0.095 A 
ATOM      7  C   UNL     1      44.410  67.290   4.071  1.00  0.00     0.336 A 
ATOM      8  O   UNL     1      43.259  67.595   4.481  1.00  0.00    -0.246 OA
ATOM      9  O   UNL     1      44.652  66.054   3.646  1.00  0.00    -0.422 OA
ATOM     10  C   UNL     1      48.184  66.167   2.692  1.00  0.00     0.133 A 
ATOM     11  C   UNL     1      48.348  64.835   2.261  1.00  0.00     0.093 A 
ENDROOT
BRANCH   1  12
ATOM     12  O   UNL     1      47.513  62.617   1.851  1.00  0.00    -0.496 OA
ATOM     13  C   UNL     1      48.712  62.182   1.217  1.00  0.00     0.278 C 
ENDBRANCH   1  12
BRANCH  10  14
ATOM     14  O   UNL     1      49.244  67.090   2.663  1.00  0.00    -0.496 OA
ATOM     15  C   UNL     1      50.591  66.765   2.336  1.00  0.00     0.278 C 
ENDBRANCH  10  14
TORSDOF 2
ENDMDL
MODEL 5
REMARK VINA RESULT:    -5.324      1.087      3.799
REMARK INTER + INTRA:          -6.049
REMARK INTER:                  -5.942
REMARK INTRA:                  -0.107
REMARK UNBOUND:                -0.102
REMARK SMILES COc1cc(OC)c2ccc(=O)oc2c1
REMARK SMILES IDX 3 1 15 2 14 3 8 4 9 5 10 6 11 7 12 8 13 9 5 10 4 11 2 12
REMARK SMILES IDX 1 13 6 14 7 15
REMARK H PARENT
REMARK Flexibility Score: inf
ROOT
ATOM      1  C   UNL     1      45.572  63.806   3.351  1.00  0.00     0.126 A 
ATOM      2  C   UNL     1      46.906  64.019   2.961  1.00  0.00     0.094 A 
ATOM      3  C   UNL     1      47.440  65.309   2.951  1.00  0.00     0.145 A 
ATOM      4  C   UNL     1      46.641  66.410   3.333  1.00  0.00     0.060 A 
ATOM      5  C   UNL     1      47.222  67.687   3.306  1.00  0.00     0.023 A 
ATOM      6  C   UNL     1      48.549  67.832   2.909  1.00  0.00     0.095 A 
ATOM      7  C   UNL     1      49.276  66.694   2.546  1.00  0.00     0.336 A 
ATOM      8  O   UNL     1      50.477  66.805   2.185  1.00  0.00    -0.246 OA
ATOM      9  O   UNL     1      48.705  65.495   2.578  1.00  0.00    -0.422 OA
ATOM     10  C   UNL     1      45.303  66.208   3.725  1.00  0.00     0.133 A 
ATOM     11  C   UNL     1      44.782  64.899   3.729  1.00  0.00     0.093 A 
ENDROOT
BRANCH   1  12
ATOM     12  O   UNL     1      44.992  62.529   3.378  1.00  0.00    -0.496 OA
ATOM     13  C   UNL     1      45.650  61.356   3.849  1.00  0.00     0.278 C 
ENDBRANCH   1  12
BRANCH  10  14
ATOM     14  O   UNL     1      44.524  67.316   4.102  1.00  0.00    -0.496 OA
ATOM     15  C   UNL     1      43.162  67.510   3.733  1.00  0.00     0.278 C 
ENDBRANCH  10  14
TORSDOF 2
ENDMDL
MODEL 6
REMARK VINA RESULT:    -5.252      3.679      5.633
REMARK INTER + INTRA:          -5.968
REMARK INTER:                  -5.874
REMARK INTRA:                  -0.093
REMARK UNBOUND:                -0.102
REMARK SMILES COc1cc(OC)c2ccc(=O)oc2c1
REMARK SMILES IDX 3 1 15 2 14 3 8 4 9 5 10 6 11 7 12 8 13 9 5 10 4 11 2 12
REMARK SMILES IDX 1 13 6 14 7 15
REMARK H PARENT
REMARK Flexibility Score: inf
ROOT
ATOM      1  C   UNL     1      47.467  61.601   4.641  1.00  0.00     0.126 A 
ATOM      2  C   UNL     1      46.823  62.762   4.182  1.00  0.00     0.094 A 
ATOM      3  C   UNL     1      45.500  62.705   3.737  1.00  0.00     0.145 A 
ATOM      4  C   UNL     1      44.802  61.477   3.746  1.00  0.00     0.060 A 
ATOM      5  C   UNL     1      43.475  61.470   3.288  1.00  0.00     0.023 A 
ATOM      6  C   UNL     1      42.893  62.655   2.846  1.00  0.00     0.095 A 
ATOM      7  C   UNL     1      43.648  63.831   2.868  1.00  0.00     0.336 A 
ATOM      8  O   UNL     1      43.139  64.912   2.471  1.00  0.00    -0.246 OA
ATOM      9  O   UNL     1      44.903  63.814   3.304  1.00  0.00    -0.422 OA
ATOM     10  C   UNL     1      45.438  60.307   4.204  1.00  0.00     0.133 A 
ATOM     11  C   UNL     1      46.773  60.385   4.649  1.00  0.00     0.093 A 
ENDROOT
BRANCH   1  12
ATOM     12  O   UNL     1      48.794  61.609   5.098  1.00  0.00    -0.496 OA
ATOM     13  C   UNL     1      49.202  61.172   6.392  1.00  0.00     0.278 C 
ENDBRANCH   1  12
BRANCH  10  14
ATOM     14  O   UNL     1      44.727  59.094   4.205  1.00  0.00    -0.496 OA
ATOM     15  C   UNL     1      45.294  57.824   4.512  1.00  0.00     0.278 C 
ENDBRANCH  10  14
TORSDOF 2
ENDMDL
MODEL 7
REMARK VINA RESULT:    -5.248      0.988      3.560
REMARK INTER + INTRA:          -5.964
REMARK INTER:                  -5.848
REMARK INTRA:                  -0.116
REMARK UNBOUND:                -0.102
REMARK SMILES COc1cc(OC)c2ccc(=O)oc2c1
REMARK SMILES IDX 3 1 15 2 14 3 8 4 9 5 10 6 11 7 12 8 13 9 5 10 4 11 2 12
REMARK SMILES IDX 1 13 6 14 7 15
REMARK H PARENT
REMARK Flexibility Score: inf
ROOT
ATOM      1  C   UNL     1      47.796  64.996   2.620  1.00  0.00     0.126 A 
ATOM      2  C   UNL     1      47.335  66.248   3.064  1.00  0.00     0.094 A 
ATOM      3  C   UNL     1      45.989  66.427   3.395  1.00  0.00     0.145 A 
ATOM      4  C   UNL     1      45.084  65.348   3.285  1.00  0.00     0.060 A 
ATOM      5  C   UNL     1      43.742  65.577   3.628  1.00  0.00     0.023 A 
ATOM      6  C   UNL     1      43.348  66.840   4.060  1.00  0.00     0.095 A 
ATOM      7  C   UNL     1      44.303  67.858   4.143  1.00  0.00     0.336 A 
ATOM      8  O   UNL     1      43.966  69.007   4.532  1.00  0.00    -0.246 OA
ATOM      9  O   UNL     1      45.568  67.619   3.812  1.00  0.00    -0.422 OA
ATOM     10  C   UNL     1      45.535  64.090   2.841  1.00  0.00     0.133 A 
ATOM     11  C   UNL     1      46.896  63.930   2.512  1.00  0.00     0.093 A 
ENDROOT
BRANCH   1  12
ATOM     12  O   UNL     1      49.138  64.769   2.278  1.00  0.00    -0.496 OA
ATOM     13  C   UNL     1      50.091  65.799   2.033  1.00  0.00     0.278 C 
ENDBRANCH   1  12
BRANCH  10  14
ATOM     14  O   UNL     1      44.618  63.029   2.738  1.00  0.00    -0.496 OA
ATOM     15  C   UNL     1      44.658  61.846   3.530  1.00  0.00     0.278 C 
ENDBRANCH  10  14
TORSDOF 2
ENDMDL
MODEL 8
REMARK VINA RESULT:    -5.226      1.427      5.176
REMARK INTER + INTRA:          -5.939
REMARK INTER:                  -5.828
REMARK INTRA:                  -0.111
REMARK UNBOUND:                -0.102
REMARK SMILES COc1cc(OC)c2ccc(=O)oc2c1
REMARK SMILES IDX 3 1 15 2 14 3 8 4 9 5 10 6 11 7 12 8 13 9 5 10 4 11 2 12
REMARK SMILES IDX 1 13 6 14 7 15
REMARK H PARENT
REMARK Flexibility Score: inf
ROOT
ATOM      1  C   UNL     1      49.068  66.806   2.623  1.00  0.00     0.126 A 
ATOM      2  C   UNL     1      48.957  65.404   2.603  1.00  0.00     0.094 A 
ATOM      3  C   UNL     1      47.745  64.789   2.924  1.00  0.00     0.145 A 
ATOM      4  C   UNL     1      46.622  65.573   3.272  1.00  0.00     0.060 A 
ATOM      5  C   UNL     1      45.427  64.909   3.587  1.00  0.00     0.023 A 
ATOM      6  C   UNL     1      45.381  63.518   3.549  1.00  0.00     0.095 A 
ATOM      7  C   UNL     1      46.534  62.811   3.195  1.00  0.00     0.336 A 
ATOM      8  O   UNL     1      46.512  61.553   3.155  1.00  0.00    -0.246 OA
ATOM      9  O   UNL     1      47.655  63.460   2.901  1.00  0.00    -0.422 OA
ATOM     10  C   UNL     1      46.723  66.978   3.296  1.00  0.00     0.133 A 
ATOM     11  C   UNL     1      47.954  67.580   2.968  1.00  0.00     0.093 A 
ENDROOT
BRANCH   1  12
ATOM     12  O   UNL     1      50.264  67.469   2.307  1.00  0.00    -0.496 OA
ATOM     13  C   UNL     1      51.512  66.817   2.091  1.00  0.00     0.278 C 
ENDBRANCH   1  12
BRANCH  10  14
ATOM     14  O   UNL     1      45.594  67.741   3.644  1.00  0.00    -0.496 OA
ATOM     15  C   UNL     1      45.614  68.852   4.535  1.00  0.00     0.278 C 
ENDBRANCH  10  14
TORSDOF 2
ENDMDL
MODEL 9
REMARK VINA RESULT:    -5.222      2.575      5.963
REMARK INTER + INTRA:          -5.935
REMARK INTER:                  -5.835
REMARK INTRA:                  -0.099
REMARK UNBOUND:                -0.102
REMARK SMILES COc1cc(OC)c2ccc(=O)oc2c1
REMARK SMILES IDX 3 1 15 2 14 3 8 4 9 5 10 6 11 7 12 8 13 9 5 10 4 11 2 12
REMARK SMILES IDX 1 13 6 14 7 15
REMARK H PARENT
REMARK Flexibility Score: inf
ROOT
ATOM      1  C   UNL     1      46.838  64.049   3.305  1.00  0.00     0.126 A 
ATOM      2  C   UNL     1      46.778  62.692   3.669  1.00  0.00     0.094 A 
ATOM      3  C   UNL     1      45.578  61.986   3.562  1.00  0.00     0.145 A 
ATOM      4  C   UNL     1      44.415  62.633   3.087  1.00  0.00     0.060 A 
ATOM      5  C   UNL     1      43.233  61.882   2.998  1.00  0.00     0.023 A 
ATOM      6  C   UNL     1      43.239  60.541   3.374  1.00  0.00     0.095 A 
ATOM      7  C   UNL     1      44.430  59.971   3.834  1.00  0.00     0.336 A 
ATOM      8  O   UNL     1      44.455  58.760   4.178  1.00  0.00    -0.246 OA
ATOM      9  O   UNL     1      45.537  60.701   3.911  1.00  0.00    -0.422 OA
ATOM     10  C   UNL     1      44.463  63.992   2.721  1.00  0.00     0.133 A 
ATOM     11  C   UNL     1      45.683  64.687   2.836  1.00  0.00     0.093 A 
ENDROOT
BRANCH   1  12
ATOM     12  O   UNL     1      48.020  64.799   3.394  1.00  0.00    -0.496 OA
ATOM     13  C   UNL     1      48.562  65.575   2.330  1.00  0.00     0.278 C 
ENDBRANCH   1  12
BRANCH  10  14
ATOM     14  O   UNL     1      43.295  64.618   2.251  1.00  0.00    -0.496 OA
ATOM     15  C   UNL     1      42.947  65.975   2.505  1.00  0.00     0.278 C 
ENDBRANCH  10  14
TORSDOF 2
ENDMDL
