MODEL 1
REMARK VINA RESULT:    -3.018      0.000      0.000
REMARK INTER + INTRA:          -3.410
REMARK INTER:                  -3.371
REMARK INTRA:                  -0.039
REMARK UNBOUND:                -0.039
REMARK SMILES CCCC(=O)[O-]
REMARK SMILES IDX 3 1 4 2 5 3 6 4 2 5 1 6
REMARK H PARENT
REMARK Flexibility Score: inf
ROOT
ATOM      1  C   UNL     1     -46.371 -13.159   8.412  1.00  0.00     0.052 C 
ENDROOT
BRANCH   1   2
ATOM      2  C   UNL     1     -46.161 -11.858   9.127  1.00  0.00     0.041 C 
ATOM      3  O   UNL     1     -45.386 -11.797  10.116  1.00  0.00    -0.550 OA
ATOM      4  O   UNL     1     -46.797 -10.709   8.677  1.00  0.00    -0.550 OA
ENDBRANCH   1   2
BRANCH   1   5
ATOM      5  C   UNL     1     -46.886 -14.250   9.359  1.00  0.00     0.003 C 
ATOM      6  C   UNL     1     -45.847 -15.342   9.608  1.00  0.00     0.004 C 
ENDBRANCH   1   5
TORSDOF 2
ENDMDL
MODEL 2
REMARK VINA RESULT:    -3.008     17.387     18.190
REMARK INTER + INTRA:          -3.398
REMARK INTER:                  -3.392
REMARK INTRA:                  -0.006
REMARK UNBOUND:                -0.039
REMARK SMILES CCCC(=O)[O-]
REMARK SMILES IDX 3 1 4 2 5 3 6 4 2 5 1 6
REMARK H PARENT
REMARK Flexibility Score: inf
ROOT
ATOM      1  C   UNL     1     -43.152 -28.546  -0.333  1.00  0.00     0.052 C 
ENDROOT
BRANCH   1   2
ATOM      2  C   UNL     1     -44.018 -27.347  -0.567  1.00  0.00     0.041 C 
ATOM      3  O   UNL     1     -44.275 -26.557   0.379  1.00  0.00    -0.550 OA
ATOM      4  O   UNL     1     -44.514 -27.085  -1.837  1.00  0.00    -0.550 OA
ENDBRANCH   1   2
BRANCH   1   5
ATOM      5  C   UNL     1     -41.667 -28.168  -0.260  1.00  0.00     0.003 C 
ATOM      6  C   UNL     1     -40.783 -29.354   0.124  1.00  0.00     0.004 C 
ENDBRANCH   1   5
TORSDOF 2
ENDMDL
MODEL 3
REMARK VINA RESULT:    -2.979     17.314     18.144
REMARK INTER + INTRA:          -3.366
REMARK INTER:                  -3.361
REMARK INTRA:                  -0.005
REMARK UNBOUND:                -0.039
REMARK SMILES CCCC(=O)[O-]
REMARK SMILES IDX 3 1 4 2 5 3 6 4 2 5 1 6
REMARK H PARENT
REMARK Flexibility Score: inf
ROOT
ATOM      1  C   UNL     1     -43.177 -28.501  -0.323  1.00  0.00     0.052 C 
ENDROOT
BRANCH   1   2
ATOM      2  C   UNL     1     -44.038 -27.295  -0.544  1.00  0.00     0.041 C 
ATOM      3  O   UNL     1     -44.482 -27.035  -1.693  1.00  0.00    -0.550 OA
ATOM      4  O   UNL     1     -44.377 -26.478   0.526  1.00  0.00    -0.550 OA
ENDBRANCH   1   2
BRANCH   1   5
ATOM      5  C   UNL     1     -41.690 -28.132  -0.261  1.00  0.00     0.003 C 
ATOM      6  C   UNL     1     -40.809 -29.327   0.102  1.00  0.00     0.004 C 
ENDBRANCH   1   5
TORSDOF 2
ENDMDL
MODEL 4
REMARK VINA RESULT:    -2.746     16.713     17.531
REMARK INTER + INTRA:          -3.105
REMARK INTER:                  -3.094
REMARK INTRA:                  -0.011
REMARK UNBOUND:                -0.039
REMARK SMILES CCCC(=O)[O-]
REMARK SMILES IDX 3 1 4 2 5 3 6 4 2 5 1 6
REMARK H PARENT
REMARK Flexibility Score: inf
ROOT
ATOM      1  C   UNL     1     -43.475 -27.285  -0.470  1.00  0.00     0.052 C 
ENDROOT
BRANCH   1   2
ATOM      2  C   UNL     1     -44.597 -27.163   0.516  1.00  0.00     0.041 C 
ATOM      3  O   UNL     1     -45.232 -28.185   0.883  1.00  0.00    -0.550 OA
ATOM      4  O   UNL     1     -44.915 -25.923   1.055  1.00  0.00    -0.550 OA
ENDBRANCH   1   2
BRANCH   1   5
ATOM      5  C   UNL     1     -42.638 -28.546  -0.223  1.00  0.00     0.003 C 
ATOM      6  C   UNL     1     -41.138 -28.254  -0.207  1.00  0.00     0.004 C 
ENDBRANCH   1   5
TORSDOF 2
ENDMDL
MODEL 5
REMARK VINA RESULT:    -2.608     23.762     24.163
REMARK INTER + INTRA:          -2.952
REMARK INTER:                  -2.922
REMARK INTRA:                  -0.029
REMARK UNBOUND:                -0.039
REMARK SMILES CCCC(=O)[O-]
REMARK SMILES IDX 3 1 4 2 5 3 6 4 2 5 1 6
REMARK H PARENT
REMARK Flexibility Score: inf
ROOT
ATOM      1  C   UNL     1     -29.175 -10.353  -7.794  1.00  0.00     0.052 C 
ENDROOT
BRANCH   1   2
ATOM      2  C   UNL     1     -28.259 -11.163  -6.927  1.00  0.00     0.041 C 
ATOM      3  O   UNL     1     -28.399 -12.411  -6.851  1.00  0.00    -0.550 OA
ATOM      4  O   UNL     1     -27.231 -10.541  -6.231  1.00  0.00    -0.550 OA
ENDBRANCH   1   2
BRANCH   1   5
ATOM      5  C   UNL     1     -30.028 -11.243  -8.705  1.00  0.00     0.003 C 
ATOM      6  C   UNL     1     -31.518 -10.915  -8.610  1.00  0.00     0.004 C 
ENDBRANCH   1   5
TORSDOF 2
ENDMDL
MODEL 6
REMARK VINA RESULT:    -2.485     14.852     15.324
REMARK INTER + INTRA:          -2.814
REMARK INTER:                  -2.808
REMARK INTRA:                  -0.005
REMARK UNBOUND:                -0.039
REMARK SMILES CCCC(=O)[O-]
REMARK SMILES IDX 3 1 4 2 5 3 6 4 2 5 1 6
REMARK H PARENT
REMARK Flexibility Score: inf
ROOT
ATOM      1  C   UNL     1     -46.276 -27.224   2.463  1.00  0.00     0.052 C 
ENDROOT
BRANCH   1   2
ATOM      2  C   UNL     1     -45.922 -26.116   1.519  1.00  0.00     0.041 C 
ATOM      3  O   UNL     1     -44.786 -26.083   0.978  1.00  0.00    -0.550 OA
ATOM      4  O   UNL     1     -46.859 -25.138   1.212  1.00  0.00    -0.550 OA
ENDBRANCH   1   2
BRANCH   1   5
ATOM      5  C   UNL     1     -46.428 -26.717   3.902  1.00  0.00     0.003 C 
ATOM      6  C   UNL     1     -46.135 -27.804   4.936  1.00  0.00     0.004 C 
ENDBRANCH   1   5
TORSDOF 2
ENDMDL
MODEL 7
REMARK VINA RESULT:    -2.465     15.668     16.508
REMARK INTER + INTRA:          -2.792
REMARK INTER:                  -2.782
REMARK INTRA:                  -0.010
REMARK UNBOUND:                -0.039
REMARK SMILES CCCC(=O)[O-]
REMARK SMILES IDX 3 1 4 2 5 3 6 4 2 5 1 6
REMARK H PARENT
REMARK Flexibility Score: inf
ROOT
ATOM      1  C   UNL     1     -45.065 -27.554   0.661  1.00  0.00     0.052 C 
ENDROOT
BRANCH   1   2
ATOM      2  C   UNL     1     -45.608 -26.448   1.515  1.00  0.00     0.041 C 
ATOM      3  O   UNL     1     -45.314 -25.251   1.263  1.00  0.00    -0.550 OA
ATOM      4  O   UNL     1     -46.466 -26.741   2.567  1.00  0.00    -0.550 OA
ENDBRANCH   1   2
BRANCH   1   5
ATOM      5  C   UNL     1     -43.741 -27.158  -0.004  1.00  0.00     0.003 C 
ATOM      6  C   UNL     1     -42.858 -28.368  -0.308  1.00  0.00     0.004 C 
ENDBRANCH   1   5
TORSDOF 2
ENDMDL
MODEL 8
REMARK VINA RESULT:    -2.443     16.631     17.432
REMARK INTER + INTRA:          -2.767
REMARK INTER:                  -2.699
REMARK INTRA:                  -0.068
REMARK UNBOUND:                -0.039
REMARK SMILES CCCC(=O)[O-]
REMARK SMILES IDX 3 1 4 2 5 3 6 4 2 5 1 6
REMARK H PARENT
REMARK Flexibility Score: inf
ROOT
ATOM      1  C   UNL     1     -44.573 -28.110   0.254  1.00  0.00     0.052 C 
ENDROOT
BRANCH   1   2
ATOM      2  C   UNL     1     -44.504 -27.425  -1.078  1.00  0.00     0.041 C 
ATOM      3  O   UNL     1     -45.487 -27.466  -1.862  1.00  0.00    -0.550 OA
ATOM      4  O   UNL     1     -43.366 -26.715  -1.436  1.00  0.00    -0.550 OA
ENDBRANCH   1   2
BRANCH   1   5
ATOM      5  C   UNL     1     -45.578 -27.429   1.190  1.00  0.00     0.003 C 
ATOM      6  C   UNL     1     -45.185 -25.989   1.518  1.00  0.00     0.004 C 
ENDBRANCH   1   5
TORSDOF 2
ENDMDL
MODEL 9
REMARK VINA RESULT:    -0.482      2.216      3.447
REMARK INTER + INTRA:          -0.577
REMARK INTER:                  -0.577
REMARK INTRA:                  -0.001
REMARK UNBOUND:                -0.039
REMARK SMILES CCCC(=O)[O-]
REMARK SMILES IDX 3 1 4 2 5 3 6 4 2 5 1 6
REMARK H PARENT
REMARK Flexibility Score: inf
ROOT
ATOM      1  C   UNL     1     -45.264 -12.942   9.176  1.00  0.00     0.052 C 
ENDROOT
BRANCH   1   2
ATOM      2  C   UNL     1     -46.062 -14.208   9.251  1.00  0.00     0.041 C 
ATOM      3  O   UNL     1     -47.125 -14.327   8.588  1.00  0.00    -0.550 OA
ATOM      4  O   UNL     1     -45.613 -15.268  10.028  1.00  0.00    -0.550 OA
ENDBRANCH   1   2
BRANCH   1   5
ATOM      5  C   UNL     1     -46.019 -11.758   9.792  1.00  0.00     0.003 C 
ATOM      6  C   UNL     1     -46.777 -10.944   8.744  1.00  0.00     0.004 C 
ENDBRANCH   1   5
TORSDOF 2
ENDMDL
