MODEL 1
REMARK VINA RESULT:    -3.339      0.000      0.000
REMARK INTER + INTRA:          -4.228
REMARK INTER:                  -4.120
REMARK INTRA:                  -0.108
REMARK UNBOUND:                -0.108
REMARK SMILES CCCCCC(=O)[O-]
REMARK SMILES IDX 4 1 5 2 6 3 7 4 8 5 3 6 2 7 1 8
REMARK H PARENT
REMARK Flexibility Score: inf
ROOT
ATOM      1  C   UNL     1      17.103  -9.469  12.877  1.00  0.00     0.006 C 
ENDROOT
BRANCH   1   2
ATOM      2  C   UNL     1      15.782  -9.503  13.658  1.00  0.00     0.053 C 
BRANCH   2   3
ATOM      3  C   UNL     1      16.004  -9.359  15.133  1.00  0.00     0.041 C 
ATOM      4  O   UNL     1      15.047  -9.515  15.935  1.00  0.00    -0.550 OA
ATOM      5  O   UNL     1      17.261  -9.021  15.617  1.00  0.00    -0.550 OA
ENDBRANCH   2   3
ENDBRANCH   1   2
BRANCH   1   6
ATOM      6  C   UNL     1      16.950  -8.782  11.508  1.00  0.00     0.000 C 
BRANCH   6   7
ATOM      7  C   UNL     1      16.987  -9.781  10.342  1.00  0.00    -0.003 C 
ATOM      8  C   UNL     1      15.595 -10.106   9.798  1.00  0.00     0.004 C 
ENDBRANCH   6   7
ENDBRANCH   1   6
TORSDOF 4
ENDMDL
MODEL 2
REMARK VINA RESULT:    -3.034     22.911     24.134
REMARK INTER + INTRA:          -3.852
REMARK INTER:                  -3.800
REMARK INTRA:                  -0.052
REMARK UNBOUND:                -0.108
REMARK SMILES CCCCCC(=O)[O-]
REMARK SMILES IDX 4 1 5 2 6 3 7 4 8 5 3 6 2 7 1 8
REMARK H PARENT
REMARK Flexibility Score: inf
ROOT
ATOM      1  C   UNL     1       1.635   7.136  21.258  1.00  0.00     0.006 C 
ENDROOT
BRANCH   1   2
ATOM      2  C   UNL     1       0.561   7.864  22.078  1.00  0.00     0.053 C 
BRANCH   2   3
ATOM      3  C   UNL     1      -0.600   8.280  21.227  1.00  0.00     0.041 C 
ATOM      4  O   UNL     1      -1.125   9.413  21.383  1.00  0.00    -0.550 OA
ATOM      5  O   UNL     1      -1.123   7.402  20.287  1.00  0.00    -0.550 OA
ENDBRANCH   2   3
ENDBRANCH   1   2
BRANCH   1   6
ATOM      6  C   UNL     1       2.300   5.998  22.054  1.00  0.00     0.000 C 
BRANCH   6   7
ATOM      7  C   UNL     1       3.365   5.253  21.235  1.00  0.00    -0.003 C 
ATOM      8  C   UNL     1       4.435   4.602  22.112  1.00  0.00     0.004 C 
ENDBRANCH   6   7
ENDBRANCH   1   6
TORSDOF 4
ENDMDL
MODEL 3
REMARK VINA RESULT:    -2.646      3.222      4.812
REMARK INTER + INTRA:          -3.372
REMARK INTER:                  -3.282
REMARK INTRA:                  -0.090
REMARK UNBOUND:                -0.108
REMARK SMILES CCCCCC(=O)[O-]
REMARK SMILES IDX 4 1 5 2 6 3 7 4 8 5 3 6 2 7 1 8
REMARK H PARENT
REMARK Flexibility Score: inf
ROOT
ATOM      1  C   UNL     1      16.749  -9.544  12.681  1.00  0.00     0.006 C 
ENDROOT
BRANCH   1   2
ATOM      2  C   UNL     1      17.601  -8.924  11.565  1.00  0.00     0.053 C 
BRANCH   2   3
ATOM      3  C   UNL     1      17.507  -9.709  10.292  1.00  0.00     0.041 C 
ATOM      4  O   UNL     1      18.552 -10.053   9.682  1.00  0.00    -0.550 OA
ATOM      5  O   UNL     1      16.263 -10.032   9.764  1.00  0.00    -0.550 OA
ENDBRANCH   2   3
ENDBRANCH   1   2
BRANCH   1   6
ATOM      6  C   UNL     1      17.611 -10.082  13.837  1.00  0.00     0.000 C 
BRANCH   6   7
ATOM      7  C   UNL     1      17.306  -9.384  15.171  1.00  0.00    -0.003 C 
ATOM      8  C   UNL     1      15.811  -9.146  15.387  1.00  0.00     0.004 C 
ENDBRANCH   6   7
ENDBRANCH   1   6
TORSDOF 4
ENDMDL
MODEL 4
REMARK VINA RESULT:    -2.523     22.204     23.038
REMARK INTER + INTRA:          -3.221
REMARK INTER:                  -3.145
REMARK INTRA:                  -0.076
REMARK UNBOUND:                -0.108
REMARK SMILES CCCCCC(=O)[O-]
REMARK SMILES IDX 4 1 5 2 6 3 7 4 8 5 3 6 2 7 1 8
REMARK H PARENT
REMARK Flexibility Score: inf
ROOT
ATOM      1  C   UNL     1       1.712   6.854   3.693  1.00  0.00     0.006 C 
ENDROOT
BRANCH   1   2
ATOM      2  C   UNL     1       2.819   6.354   2.756  1.00  0.00     0.053 C 
BRANCH   2   3
ATOM      3  C   UNL     1       4.113   6.149   3.483  1.00  0.00     0.041 C 
ATOM      4  O   UNL     1       4.664   7.112   4.078  1.00  0.00    -0.550 OA
ATOM      5  O   UNL     1       4.725   4.903   3.477  1.00  0.00    -0.550 OA
ENDBRANCH   2   3
ENDBRANCH   1   2
BRANCH   1   6
ATOM      6  C   UNL     1       0.432   6.006   3.583  1.00  0.00     0.000 C 
BRANCH   6   7
ATOM      7  C   UNL     1       0.414   4.836   4.578  1.00  0.00    -0.003 C 
ATOM      8  C   UNL     1      -0.946   4.141   4.649  1.00  0.00     0.004 C 
ENDBRANCH   6   7
ENDBRANCH   1   6
TORSDOF 4
ENDMDL
MODEL 5
REMARK VINA RESULT:    -2.490     23.558     24.279
REMARK INTER + INTRA:          -3.180
REMARK INTER:                  -3.109
REMARK INTRA:                  -0.072
REMARK UNBOUND:                -0.108
REMARK SMILES CCCCCC(=O)[O-]
REMARK SMILES IDX 4 1 5 2 6 3 7 4 8 5 3 6 2 7 1 8
REMARK H PARENT
REMARK Flexibility Score: inf
ROOT
ATOM      1  C   UNL     1       1.426   7.080   3.712  1.00  0.00     0.006 C 
ENDROOT
BRANCH   1   2
ATOM      2  C   UNL     1       0.933   8.258   4.562  1.00  0.00     0.053 C 
BRANCH   2   3
ATOM      3  C   UNL     1       2.066   8.962   5.246  1.00  0.00     0.041 C 
ATOM      4  O   UNL     1       3.249   8.780   4.859  1.00  0.00    -0.550 OA
ATOM      5  O   UNL     1       1.815   9.791   6.332  1.00  0.00    -0.550 OA
ENDBRANCH   2   3
ENDBRANCH   1   2
BRANCH   1   6
ATOM      6  C   UNL     1       0.327   6.024   3.492  1.00  0.00     0.000 C 
BRANCH   6   7
ATOM      7  C   UNL     1       0.349   4.921   4.560  1.00  0.00    -0.003 C 
ATOM      8  C   UNL     1      -0.971   4.154   4.645  1.00  0.00     0.004 C 
ENDBRANCH   6   7
ENDBRANCH   1   6
TORSDOF 4
ENDMDL
MODEL 6
REMARK VINA RESULT:    -2.431     22.185     23.002
REMARK INTER + INTRA:          -3.108
REMARK INTER:                  -3.052
REMARK INTRA:                  -0.056
REMARK UNBOUND:                -0.108
REMARK SMILES CCCCCC(=O)[O-]
REMARK SMILES IDX 4 1 5 2 6 3 7 4 8 5 3 6 2 7 1 8
REMARK H PARENT
REMARK Flexibility Score: inf
ROOT
ATOM      1  C   UNL     1       1.927   6.782   3.752  1.00  0.00     0.006 C 
ENDROOT
BRANCH   1   2
ATOM      2  C   UNL     1       3.113   6.305   2.903  1.00  0.00     0.053 C 
BRANCH   2   3
ATOM      3  C   UNL     1       4.419   6.504   3.610  1.00  0.00     0.041 C 
ATOM      4  O   UNL     1       5.308   5.616   3.559  1.00  0.00    -0.550 OA
ATOM      5  O   UNL     1       4.638   7.657   4.354  1.00  0.00    -0.550 OA
ENDBRANCH   2   3
ENDBRANCH   1   2
BRANCH   1   6
ATOM      6  C   UNL     1       0.667   5.928   3.521  1.00  0.00     0.000 C 
BRANCH   6   7
ATOM      7  C   UNL     1       0.498   4.831   4.582  1.00  0.00    -0.003 C 
ATOM      8  C   UNL     1      -0.909   4.233   4.596  1.00  0.00     0.004 C 
ENDBRANCH   6   7
ENDBRANCH   1   6
TORSDOF 4
ENDMDL
MODEL 7
REMARK VINA RESULT:    -2.178     22.414     23.244
REMARK INTER + INTRA:          -2.796
REMARK INTER:                  -2.704
REMARK INTRA:                  -0.091
REMARK UNBOUND:                -0.108
REMARK SMILES CCCCCC(=O)[O-]
REMARK SMILES IDX 4 1 5 2 6 3 7 4 8 5 3 6 2 7 1 8
REMARK H PARENT
REMARK Flexibility Score: inf
ROOT
ATOM      1  C   UNL     1       1.912   6.690   2.729  1.00  0.00     0.006 C 
ENDROOT
BRANCH   1   2
ATOM      2  C   UNL     1       0.897   6.649   3.879  1.00  0.00     0.053 C 
BRANCH   2   3
ATOM      3  C   UNL     1       0.184   5.333   3.944  1.00  0.00     0.041 C 
ATOM      4  O   UNL     1       0.386   4.551   4.910  1.00  0.00    -0.550 OA
ATOM      5  O   UNL     1      -0.677   4.956   2.922  1.00  0.00    -0.550 OA
ENDBRANCH   2   3
ENDBRANCH   1   2
BRANCH   1   6
ATOM      6  C   UNL     1       3.345   6.948   3.228  1.00  0.00     0.000 C 
BRANCH   6   7
ATOM      7  C   UNL     1       4.133   5.648   3.453  1.00  0.00    -0.003 C 
ATOM      8  C   UNL     1       5.640   5.882   3.565  1.00  0.00     0.004 C 
ENDBRANCH   6   7
ENDBRANCH   1   6
TORSDOF 4
ENDMDL
MODEL 8
REMARK VINA RESULT:    -2.170     24.121     24.894
REMARK INTER + INTRA:          -2.786
REMARK INTER:                  -2.681
REMARK INTRA:                  -0.105
REMARK UNBOUND:                -0.108
REMARK SMILES CCCCCC(=O)[O-]
REMARK SMILES IDX 4 1 5 2 6 3 7 4 8 5 3 6 2 7 1 8
REMARK H PARENT
REMARK Flexibility Score: inf
ROOT
ATOM      1  C   UNL     1      -0.125   7.846   3.649  1.00  0.00     0.006 C 
ENDROOT
BRANCH   1   2
ATOM      2  C   UNL     1       0.826   6.691   3.992  1.00  0.00     0.053 C 
BRANCH   2   3
ATOM      3  C   UNL     1       0.129   5.365   3.942  1.00  0.00     0.041 C 
ATOM      4  O   UNL     1       0.298   4.527   4.865  1.00  0.00    -0.550 OA
ATOM      5  O   UNL     1      -0.678   5.044   2.859  1.00  0.00    -0.550 OA
ENDBRANCH   2   3
ENDBRANCH   1   2
BRANCH   1   6
ATOM      6  C   UNL     1       0.257   9.147   4.378  1.00  0.00     0.000 C 
BRANCH   6   7
ATOM      7  C   UNL     1       1.558   9.010   5.183  1.00  0.00    -0.003 C 
ATOM      8  C   UNL     1       1.735  10.125   6.214  1.00  0.00     0.004 C 
ENDBRANCH   6   7
ENDBRANCH   1   6
TORSDOF 4
ENDMDL
MODEL 9
REMARK VINA RESULT:    -2.060     22.384     23.060
REMARK INTER + INTRA:          -2.650
REMARK INTER:                  -2.565
REMARK INTRA:                  -0.086
REMARK UNBOUND:                -0.108
REMARK SMILES CCCCCC(=O)[O-]
REMARK SMILES IDX 4 1 5 2 6 3 7 4 8 5 3 6 2 7 1 8
REMARK H PARENT
REMARK Flexibility Score: inf
ROOT
ATOM      1  C   UNL     1       3.974   8.026   3.612  1.00  0.00     0.006 C 
ENDROOT
BRANCH   1   2
ATOM      2  C   UNL     1       5.176   7.430   4.358  1.00  0.00     0.053 C 
BRANCH   2   3
ATOM      3  C   UNL     1       5.804   6.306   3.591  1.00  0.00     0.041 C 
ATOM      4  O   UNL     1       6.849   6.505   2.919  1.00  0.00    -0.550 OA
ATOM      5  O   UNL     1       5.214   5.049   3.592  1.00  0.00    -0.550 OA
ENDBRANCH   2   3
ENDBRANCH   1   2
BRANCH   1   6
ATOM      6  C   UNL     1       3.553   9.390   4.188  1.00  0.00     0.000 C 
BRANCH   6   7
ATOM      7  C   UNL     1       2.510   9.259   5.307  1.00  0.00    -0.003 C 
ATOM      8  C   UNL     1       1.229   8.566   4.844  1.00  0.00     0.004 C 
ENDBRANCH   6   7
ENDBRANCH   1   6
TORSDOF 4
ENDMDL
