MODEL 1
REMARK VINA RESULT:    -5.983      0.000      0.000
REMARK INTER + INTRA:         -19.756
REMARK INTER:                 -15.778
REMARK INTRA:                  -3.979
REMARK UNBOUND:                -3.979
REMARK SMILES CCCCCCCCCCCCCCCCCCCCCCCCCCCCCC(=O)[O-]
REMARK SMILES IDX 16 1 17 2 18 3 19 4 20 5 21 6 22 7 23 8 24 9 25 10 26 11
REMARK SMILES IDX 27 12 28 13 29 14 30 15 31 16 32 17 15 18 14 19 13 20 12 21
REMARK SMILES IDX 11 22 10 23 9 24 8 25 7 26 6 27 5 28 4 29 3 30 2 31 1 32
REMARK H PARENT
REMARK Flexibility Score: inf
ROOT
ATOM      1  C   UNL     1      22.389  11.312   0.675  1.00  0.00     0.000 C 
ENDROOT
BRANCH   1   2
ATOM      2  C   UNL     1      21.794  10.339  -0.354  1.00  0.00     0.000 C 
BRANCH   2   3
ATOM      3  C   UNL     1      22.151   8.870  -0.063  1.00  0.00     0.000 C 
BRANCH   3   4
ATOM      4  C   UNL     1      22.890   8.626   1.270  1.00  0.00     0.000 C 
BRANCH   4   5
ATOM      5  C   UNL     1      23.325   7.170   1.514  1.00  0.00     0.000 C 
BRANCH   5   6
ATOM      6  C   UNL     1      22.596   6.172   0.598  1.00  0.00     0.000 C 
BRANCH   6   7
ATOM      7  C   UNL     1      22.304   4.834   1.299  1.00  0.00     0.000 C 
BRANCH   7   8
ATOM      8  C   UNL     1      20.818   4.444   1.219  1.00  0.00     0.000 C 
BRANCH   8   9
ATOM      9  C   UNL     1      20.172   4.294   2.605  1.00  0.00     0.000 C 
BRANCH   9  10
ATOM     10  C   UNL     1      21.208   4.262   3.743  1.00  0.00     0.000 C 
BRANCH  10  11
ATOM     11  C   UNL     1      21.212   5.556   4.572  1.00  0.00     0.000 C 
BRANCH  11  12
ATOM     12  C   UNL     1      21.232   5.284   6.087  1.00  0.00     0.000 C 
BRANCH  12  13
ATOM     13  C   UNL     1      22.585   5.623   6.729  1.00  0.00     0.006 C 
BRANCH  13  14
ATOM     14  C   UNL     1      23.519   6.377   5.774  1.00  0.00     0.053 C 
BRANCH  14  15
ATOM     15  C   UNL     1      24.285   7.428   6.513  1.00  0.00     0.041 C 
ATOM     16  O   UNL     1      24.372   8.594   6.048  1.00  0.00    -0.550 OA
ATOM     17  O   UNL     1      24.944   7.108   7.694  1.00  0.00    -0.550 OA
ENDBRANCH  14  15
ENDBRANCH  13  14
ENDBRANCH  12  13
ENDBRANCH  11  12
ENDBRANCH  10  11
ENDBRANCH   9  10
ENDBRANCH   8   9
ENDBRANCH   7   8
ENDBRANCH   6   7
ENDBRANCH   5   6
ENDBRANCH   4   5
ENDBRANCH   3   4
ENDBRANCH   2   3
ENDBRANCH   1   2
BRANCH   1  18
ATOM     18  C   UNL     1      23.542  12.121   0.064  1.00  0.00     0.000 C 
BRANCH  18  19
ATOM     19  C   UNL     1      23.044  13.280  -0.816  1.00  0.00     0.000 C 
BRANCH  19  20
ATOM     20  C   UNL     1      23.525  13.162  -2.272  1.00  0.00     0.000 C 
BRANCH  20  21
ATOM     21  C   UNL     1      22.671  12.194  -3.110  1.00  0.00     0.000 C 
BRANCH  21  22
ATOM     22  C   UNL     1      21.353  12.785  -3.648  1.00  0.00     0.000 C 
BRANCH  22  23
ATOM     23  C   UNL     1      20.124  12.357  -2.829  1.00  0.00     0.000 C 
BRANCH  23  24
ATOM     24  C   UNL     1      19.594  13.476  -1.914  1.00  0.00    -0.000 C 
BRANCH  24  25
ATOM     25  C   UNL     1      19.225  13.037  -0.482  1.00  0.00    -0.000 C 
BRANCH  25  26
ATOM     26  C   UNL     1      19.799  13.915   0.646  1.00  0.00    -0.000 C 
BRANCH  26  27
ATOM     27  C   UNL     1      19.937  15.392   0.241  1.00  0.00    -0.000 C 
BRANCH  27  28
ATOM     28  C   UNL     1      21.244  16.025   0.748  1.00  0.00    -0.000 C 
BRANCH  28  29
ATOM     29  C   UNL     1      21.605  15.581   2.177  1.00  0.00    -0.000 C 
BRANCH  29  30
ATOM     30  C   UNL     1      23.071  15.107   2.285  1.00  0.00    -0.000 C 
BRANCH  30  31
ATOM     31  C   UNL     1      23.321  14.151   3.464  1.00  0.00    -0.003 C 
ATOM     32  C   UNL     1      22.206  13.123   3.648  1.00  0.00     0.004 C 
ENDBRANCH  30  31
ENDBRANCH  29  30
ENDBRANCH  28  29
ENDBRANCH  27  28
ENDBRANCH  26  27
ENDBRANCH  25  26
ENDBRANCH  24  25
ENDBRANCH  23  24
ENDBRANCH  22  23
ENDBRANCH  21  22
ENDBRANCH  20  21
ENDBRANCH  19  20
ENDBRANCH  18  19
ENDBRANCH   1  18
TORSDOF 28
ENDMDL
MODEL 2
REMARK VINA RESULT:    -5.965      5.180      9.109
REMARK INTER + INTRA:         -19.708
REMARK INTER:                 -16.260
REMARK INTRA:                  -3.447
REMARK UNBOUND:                -3.979
REMARK SMILES CCCCCCCCCCCCCCCCCCCCCCCCCCCCCC(=O)[O-]
REMARK SMILES IDX 16 1 17 2 18 3 19 4 20 5 21 6 22 7 23 8 24 9 25 10 26 11
REMARK SMILES IDX 27 12 28 13 29 14 30 15 31 16 32 17 15 18 14 19 13 20 12 21
REMARK SMILES IDX 11 22 10 23 9 24 8 25 7 26 6 27 5 28 4 29 3 30 2 31 1 32
REMARK H PARENT
REMARK Flexibility Score: inf
ROOT
ATOM      1  C   UNL     1      19.374  14.870  -0.091  1.00  0.00     0.000 C 
ENDROOT
BRANCH   1   2
ATOM      2  C   UNL     1      18.787  13.458   0.045  1.00  0.00     0.000 C 
BRANCH   2   3
ATOM      3  C   UNL     1      19.755  12.360  -0.434  1.00  0.00     0.000 C 
BRANCH   3   4
ATOM      4  C   UNL     1      20.072  12.378  -1.943  1.00  0.00     0.000 C 
BRANCH   4   5
ATOM      5  C   UNL     1      21.344  13.154  -2.330  1.00  0.00     0.000 C 
BRANCH   5   6
ATOM      6  C   UNL     1      22.336  12.302  -3.140  1.00  0.00     0.000 C 
BRANCH   6   7
ATOM      7  C   UNL     1      23.287  13.157  -3.994  1.00  0.00     0.000 C 
BRANCH   7   8
ATOM      8  C   UNL     1      23.017  13.005  -5.501  1.00  0.00     0.000 C 
BRANCH   8   9
ATOM      9  C   UNL     1      23.474  11.643  -6.048  1.00  0.00     0.000 C 
BRANCH   9  10
ATOM     10  C   UNL     1      23.550  11.617  -7.585  1.00  0.00     0.000 C 
BRANCH  10  11
ATOM     11  C   UNL     1      24.877  11.038  -8.100  1.00  0.00     0.000 C 
BRANCH  11  12
ATOM     12  C   UNL     1      25.664  10.302  -7.000  1.00  0.00     0.000 C 
BRANCH  12  13
ATOM     13  C   UNL     1      26.687   9.309  -7.572  1.00  0.00     0.006 C 
BRANCH  13  14
ATOM     14  C   UNL     1      26.140   7.878  -7.649  1.00  0.00     0.053 C 
BRANCH  14  15
ATOM     15  C   UNL     1      26.961   6.959  -6.801  1.00  0.00     0.041 C 
ATOM     16  O   UNL     1      27.473   5.924  -7.302  1.00  0.00    -0.550 OA
ATOM     17  O   UNL     1      27.121   7.219  -5.446  1.00  0.00    -0.550 OA
ENDBRANCH  14  15
ENDBRANCH  13  14
ENDBRANCH  12  13
ENDBRANCH  11  12
ENDBRANCH  10  11
ENDBRANCH   9  10
ENDBRANCH   8   9
ENDBRANCH   7   8
ENDBRANCH   6   7
ENDBRANCH   5   6
ENDBRANCH   4   5
ENDBRANCH   3   4
ENDBRANCH   2   3
ENDBRANCH   1   2
BRANCH   1  18
ATOM     18  C   UNL     1      20.267  15.212   1.112  1.00  0.00     0.000 C 
BRANCH  18  19
ATOM     19  C   UNL     1      21.494  16.048   0.712  1.00  0.00     0.000 C 
BRANCH  19  20
ATOM     20  C   UNL     1      22.579  16.058   1.802  1.00  0.00     0.000 C 
BRANCH  20  21
ATOM     21  C   UNL     1      22.086  15.493   3.146  1.00  0.00     0.000 C 
BRANCH  21  22
ATOM     22  C   UNL     1      23.061  14.527   3.845  1.00  0.00     0.000 C 
BRANCH  22  23
ATOM     23  C   UNL     1      22.560  13.073   3.864  1.00  0.00     0.000 C 
BRANCH  23  24
ATOM     24  C   UNL     1      21.908  12.648   2.536  1.00  0.00    -0.000 C 
BRANCH  24  25
ATOM     25  C   UNL     1      22.560  11.436   1.839  1.00  0.00    -0.000 C 
BRANCH  25  26
ATOM     26  C   UNL     1      23.217  11.732   0.478  1.00  0.00    -0.000 C 
BRANCH  26  27
ATOM     27  C   UNL     1      23.821  13.144   0.401  1.00  0.00    -0.000 C 
BRANCH  27  28
ATOM     28  C   UNL     1      25.210  13.231   1.054  1.00  0.00    -0.000 C 
BRANCH  28  29
ATOM     29  C   UNL     1      26.278  12.426   0.289  1.00  0.00    -0.000 C 
BRANCH  29  30
ATOM     30  C   UNL     1      27.711  12.844   0.681  1.00  0.00    -0.000 C 
BRANCH  30  31
ATOM     31  C   UNL     1      28.789  12.315  -0.280  1.00  0.00    -0.003 C 
ATOM     32  C   UNL     1      28.253  12.027  -1.681  1.00  0.00     0.004 C 
ENDBRANCH  30  31
ENDBRANCH  29  30
ENDBRANCH  28  29
ENDBRANCH  27  28
ENDBRANCH  26  27
ENDBRANCH  25  26
ENDBRANCH  24  25
ENDBRANCH  23  24
ENDBRANCH  22  23
ENDBRANCH  21  22
ENDBRANCH  20  21
ENDBRANCH  19  20
ENDBRANCH  18  19
ENDBRANCH   1  18
TORSDOF 28
ENDMDL
MODEL 3
REMARK VINA RESULT:    -5.956      1.648      8.506
REMARK INTER + INTRA:         -19.684
REMARK INTER:                 -16.512
REMARK INTRA:                  -3.173
REMARK UNBOUND:                -3.979
REMARK SMILES CCCCCCCCCCCCCCCCCCCCCCCCCCCCCC(=O)[O-]
REMARK SMILES IDX 16 1 17 2 18 3 19 4 20 5 21 6 22 7 23 8 24 9 25 10 26 11
REMARK SMILES IDX 27 12 28 13 29 14 30 15 31 16 32 17 15 18 14 19 13 20 12 21
REMARK SMILES IDX 11 22 10 23 9 24 8 25 7 26 6 27 5 28 4 29 3 30 2 31 1 32
REMARK H PARENT
REMARK Flexibility Score: inf
ROOT
ATOM      1  C   UNL     1      23.735  12.363  -0.229  1.00  0.00     0.000 C 
ENDROOT
BRANCH   1   2
ATOM      2  C   UNL     1      22.870  13.316  -1.065  1.00  0.00     0.000 C 
BRANCH   2   3
ATOM      3  C   UNL     1      23.206  13.266  -2.567  1.00  0.00     0.000 C 
BRANCH   3   4
ATOM      4  C   UNL     1      22.107  12.661  -3.466  1.00  0.00     0.000 C 
BRANCH   4   5
ATOM      5  C   UNL     1      20.859  12.161  -2.717  1.00  0.00     0.000 C 
BRANCH   5   6
ATOM      6  C   UNL     1      19.838  13.280  -2.451  1.00  0.00     0.000 C 
BRANCH   6   7
ATOM      7  C   UNL     1      18.833  12.911  -1.347  1.00  0.00     0.000 C 
BRANCH   7   8
ATOM      8  C   UNL     1      19.193  13.544   0.009  1.00  0.00     0.000 C 
BRANCH   8   9
ATOM      9  C   UNL     1      19.864  14.918  -0.141  1.00  0.00     0.000 C 
BRANCH   9  10
ATOM     10  C   UNL     1      20.550  15.388   1.154  1.00  0.00     0.000 C 
BRANCH  10  11
ATOM     11  C   UNL     1      21.891  16.091   0.888  1.00  0.00     0.000 C 
BRANCH  11  12
ATOM     12  C   UNL     1      22.796  16.122   2.132  1.00  0.00     0.000 C 
BRANCH  12  13
ATOM     13  C   UNL     1      23.096  14.717   2.678  1.00  0.00     0.006 C 
BRANCH  13  14
ATOM     14  C   UNL     1      22.593  14.523   4.114  1.00  0.00     0.053 C 
BRANCH  14  15
ATOM     15  C   UNL     1      22.475  13.067   4.435  1.00  0.00     0.041 C 
ATOM     16  O   UNL     1      23.123  12.576   5.395  1.00  0.00    -0.550 OA
ATOM     17  O   UNL     1      21.685  12.242   3.644  1.00  0.00    -0.550 OA
ENDBRANCH  14  15
ENDBRANCH  13  14
ENDBRANCH  12  13
ENDBRANCH  11  12
ENDBRANCH  10  11
ENDBRANCH   9  10
ENDBRANCH   8   9
ENDBRANCH   7   8
ENDBRANCH   6   7
ENDBRANCH   5   6
ENDBRANCH   4   5
ENDBRANCH   3   4
ENDBRANCH   2   3
ENDBRANCH   1   2
BRANCH   1  18
ATOM     18  C   UNL     1      22.864  11.485   0.682  1.00  0.00     0.000 C 
BRANCH  18  19
ATOM     19  C   UNL     1      21.828  10.669  -0.108  1.00  0.00     0.000 C 
BRANCH  19  20
ATOM     20  C   UNL     1      22.077   9.154  -0.014  1.00  0.00     0.000 C 
BRANCH  20  21
ATOM     21  C   UNL     1      23.134   8.783   1.041  1.00  0.00     0.000 C 
BRANCH  21  22
ATOM     22  C   UNL     1      22.891   7.447   1.768  1.00  0.00     0.000 C 
BRANCH  22  23
ATOM     23  C   UNL     1      23.387   6.229   0.971  1.00  0.00     0.000 C 
BRANCH  23  24
ATOM     24  C   UNL     1      23.711   5.019   1.865  1.00  0.00    -0.000 C 
BRANCH  24  25
ATOM     25  C   UNL     1      22.630   3.919   1.904  1.00  0.00    -0.000 C 
BRANCH  25  26
ATOM     26  C   UNL     1      21.227   4.356   1.446  1.00  0.00    -0.000 C 
BRANCH  26  27
ATOM     27  C   UNL     1      20.202   4.368   2.593  1.00  0.00    -0.000 C 
BRANCH  27  28
ATOM     28  C   UNL     1      20.866   4.355   3.980  1.00  0.00    -0.000 C 
BRANCH  28  29
ATOM     29  C   UNL     1      21.097   5.770   4.543  1.00  0.00    -0.000 C 
BRANCH  29  30
ATOM     30  C   UNL     1      21.409   5.750   6.054  1.00  0.00    -0.000 C 
BRANCH  30  31
ATOM     31  C   UNL     1      20.558   4.740   6.842  1.00  0.00    -0.003 C 
ATOM     32  C   UNL     1      19.848   5.363   8.043  1.00  0.00     0.004 C 
ENDBRANCH  30  31
ENDBRANCH  29  30
ENDBRANCH  28  29
ENDBRANCH  27  28
ENDBRANCH  26  27
ENDBRANCH  25  26
ENDBRANCH  24  25
ENDBRANCH  23  24
ENDBRANCH  22  23
ENDBRANCH  21  22
ENDBRANCH  20  21
ENDBRANCH  19  20
ENDBRANCH  18  19
ENDBRANCH   1  18
TORSDOF 28
ENDMDL
MODEL 4
REMARK VINA RESULT:    -5.952      2.339      5.832
REMARK INTER + INTRA:         -19.673
REMARK INTER:                 -15.555
REMARK INTRA:                  -4.118
REMARK UNBOUND:                -3.979
REMARK SMILES CCCCCCCCCCCCCCCCCCCCCCCCCCCCCC(=O)[O-]
REMARK SMILES IDX 16 1 17 2 18 3 19 4 20 5 21 6 22 7 23 8 24 9 25 10 26 11
REMARK SMILES IDX 27 12 28 13 29 14 30 15 31 16 32 17 15 18 14 19 13 20 12 21
REMARK SMILES IDX 11 22 10 23 9 24 8 25 7 26 6 27 5 28 4 29 3 30 2 31 1 32
REMARK H PARENT
REMARK Flexibility Score: inf
ROOT
ATOM      1  C   UNL     1      22.359  13.525   3.854  1.00  0.00     0.000 C 
ENDROOT
BRANCH   1   2
ATOM      2  C   UNL     1      23.215  12.559   4.685  1.00  0.00     0.000 C 
BRANCH   2   3
ATOM      3  C   UNL     1      22.843  12.565   6.179  1.00  0.00     0.000 C 
BRANCH   3   4
ATOM      4  C   UNL     1      23.692  11.634   7.070  1.00  0.00     0.000 C 
BRANCH   4   5
ATOM      5  C   UNL     1      23.126  11.392   8.481  1.00  0.00     0.000 C 
BRANCH   5   6
ATOM      6  C   UNL     1      24.033  10.494   9.339  1.00  0.00     0.000 C 
BRANCH   6   7
ATOM      7  C   UNL     1      23.552   9.035   9.377  1.00  0.00     0.000 C 
BRANCH   7   8
ATOM      8  C   UNL     1      24.620   8.080   9.940  1.00  0.00     0.000 C 
BRANCH   8   9
ATOM      9  C   UNL     1      26.028   8.694   9.923  1.00  0.00     0.000 C 
BRANCH   9  10
ATOM     10  C   UNL     1      26.941   8.058   8.860  1.00  0.00     0.000 C 
BRANCH  10  11
ATOM     11  C   UNL     1      27.004   8.887   7.567  1.00  0.00     0.000 C 
BRANCH  11  12
ATOM     12  C   UNL     1      26.497   8.106   6.342  1.00  0.00     0.000 C 
BRANCH  12  13
ATOM     13  C   UNL     1      25.004   8.346   6.066  1.00  0.00     0.006 C 
BRANCH  13  14
ATOM     14  C   UNL     1      24.179   7.054   6.118  1.00  0.00     0.053 C 
BRANCH  14  15
ATOM     15  C   UNL     1      23.631   6.730   4.765  1.00  0.00     0.041 C 
ATOM     16  O   UNL     1      22.397   6.531   4.613  1.00  0.00    -0.550 OA
ATOM     17  O   UNL     1      24.487   6.601   3.679  1.00  0.00    -0.550 OA
ENDBRANCH  14  15
ENDBRANCH  13  14
ENDBRANCH  12  13
ENDBRANCH  11  12
ENDBRANCH  10  11
ENDBRANCH   9  10
ENDBRANCH   8   9
ENDBRANCH   7   8
ENDBRANCH   6   7
ENDBRANCH   5   6
ENDBRANCH   4   5
ENDBRANCH   3   4
ENDBRANCH   2   3
ENDBRANCH   1   2
BRANCH   1  18
ATOM     18  C   UNL     1      22.951  14.943   3.877  1.00  0.00     0.000 C 
BRANCH  18  19
ATOM     19  C   UNL     1      22.089  15.950   3.097  1.00  0.00     0.000 C 
BRANCH  19  20
ATOM     20  C   UNL     1      22.324  15.872   1.579  1.00  0.00     0.000 C 
BRANCH  20  21
ATOM     21  C   UNL     1      21.017  15.755   0.774  1.00  0.00     0.000 C 
BRANCH  21  22
ATOM     22  C   UNL     1      20.156  14.520   1.103  1.00  0.00     0.000 C 
BRANCH  22  23
ATOM     23  C   UNL     1      19.058  14.258   0.059  1.00  0.00     0.000 C 
BRANCH  23  24
ATOM     24  C   UNL     1      19.362  13.044  -0.838  1.00  0.00    -0.000 C 
BRANCH  24  25
ATOM     25  C   UNL     1      19.819  13.381  -2.272  1.00  0.00    -0.000 C 
BRANCH  25  26
ATOM     26  C   UNL     1      20.512  12.235  -3.031  1.00  0.00    -0.000 C 
BRANCH  26  27
ATOM     27  C   UNL     1      22.027  12.450  -3.183  1.00  0.00    -0.000 C 
BRANCH  27  28
ATOM     28  C   UNL     1      22.627  13.275  -2.033  1.00  0.00    -0.000 C 
BRANCH  28  29
ATOM     29  C   UNL     1      23.456  12.420  -1.057  1.00  0.00    -0.000 C 
BRANCH  29  30
ATOM     30  C   UNL     1      22.947  12.539   0.396  1.00  0.00    -0.000 C 
BRANCH  30  31
ATOM     31  C   UNL     1      22.250  11.267   0.907  1.00  0.00    -0.003 C 
ATOM     32  C   UNL     1      21.910  10.280  -0.209  1.00  0.00     0.004 C 
ENDBRANCH  30  31
ENDBRANCH  29  30
ENDBRANCH  28  29
ENDBRANCH  27  28
ENDBRANCH  26  27
ENDBRANCH  25  26
ENDBRANCH  24  25
ENDBRANCH  23  24
ENDBRANCH  22  23
ENDBRANCH  21  22
ENDBRANCH  20  21
ENDBRANCH  19  20
ENDBRANCH  18  19
ENDBRANCH   1  18
TORSDOF 28
ENDMDL
MODEL 5
REMARK VINA RESULT:    -5.899      4.355      7.937
REMARK INTER + INTRA:         -19.535
REMARK INTER:                 -16.381
REMARK INTRA:                  -3.154
REMARK UNBOUND:                -3.979
REMARK SMILES CCCCCCCCCCCCCCCCCCCCCCCCCCCCCC(=O)[O-]
REMARK SMILES IDX 16 1 17 2 18 3 19 4 20 5 21 6 22 7 23 8 24 9 25 10 26 11
REMARK SMILES IDX 27 12 28 13 29 14 30 15 31 16 32 17 15 18 14 19 13 20 12 21
REMARK SMILES IDX 11 22 10 23 9 24 8 25 7 26 6 27 5 28 4 29 3 30 2 31 1 32
REMARK H PARENT
REMARK Flexibility Score: inf
ROOT
ATOM      1  C   UNL     1      23.535  12.880  -2.984  1.00  0.00     0.000 C 
ENDROOT
BRANCH   1   2
ATOM      2  C   UNL     1      22.919  13.573  -1.760  1.00  0.00     0.000 C 
BRANCH   2   3
ATOM      3  C   UNL     1      23.588  13.153  -0.437  1.00  0.00     0.000 C 
BRANCH   3   4
ATOM      4  C   UNL     1      22.746  12.218   0.455  1.00  0.00     0.000 C 
BRANCH   4   5
ATOM      5  C   UNL     1      22.061  11.056  -0.286  1.00  0.00     0.000 C 
BRANCH   5   6
ATOM      6  C   UNL     1      20.597  11.362  -0.645  1.00  0.00     0.000 C 
BRANCH   6   7
ATOM      7  C   UNL     1      19.951  12.367   0.323  1.00  0.00     0.000 C 
BRANCH   7   8
ATOM      8  C   UNL     1      19.128  13.441  -0.411  1.00  0.00     0.000 C 
BRANCH   8   9
ATOM      9  C   UNL     1      19.699  14.855  -0.221  1.00  0.00     0.000 C 
BRANCH   9  10
ATOM     10  C   UNL     1      20.527  14.991   1.069  1.00  0.00     0.000 C 
BRANCH  10  11
ATOM     11  C   UNL     1      21.436  16.230   1.058  1.00  0.00     0.000 C 
BRANCH  11  12
ATOM     12  C   UNL     1      22.423  16.248   2.238  1.00  0.00     0.000 C 
BRANCH  12  13
ATOM     13  C   UNL     1      22.060  15.224   3.325  1.00  0.00     0.006 C 
BRANCH  13  14
ATOM     14  C   UNL     1      23.198  14.235   3.608  1.00  0.00     0.053 C 
BRANCH  14  15
ATOM     15  C   UNL     1      22.654  12.958   4.164  1.00  0.00     0.041 C 
ATOM     16  O   UNL     1      21.692  12.378   3.596  1.00  0.00    -0.550 OA
ATOM     17  O   UNL     1      23.179  12.431   5.337  1.00  0.00    -0.550 OA
ENDBRANCH  14  15
ENDBRANCH  13  14
ENDBRANCH  12  13
ENDBRANCH  11  12
ENDBRANCH  10  11
ENDBRANCH   9  10
ENDBRANCH   8   9
ENDBRANCH   7   8
ENDBRANCH   6   7
ENDBRANCH   5   6
ENDBRANCH   4   5
ENDBRANCH   3   4
ENDBRANCH   2   3
ENDBRANCH   1   2
BRANCH   1  18
ATOM     18  C   UNL     1      22.446  12.457  -3.982  1.00  0.00     0.000 C 
BRANCH  18  19
ATOM     19  C   UNL     1      22.915  12.566  -5.442  1.00  0.00     0.000 C 
BRANCH  19  20
ATOM     20  C   UNL     1      23.808  11.386  -5.862  1.00  0.00     0.000 C 
BRANCH  20  21
ATOM     21  C   UNL     1      23.691  11.048  -7.359  1.00  0.00     0.000 C 
BRANCH  21  22
ATOM     22  C   UNL     1      24.944  11.362  -8.200  1.00  0.00     0.000 C 
BRANCH  22  23
ATOM     23  C   UNL     1      26.046  10.300  -8.056  1.00  0.00     0.000 C 
BRANCH  23  24
ATOM     24  C   UNL     1      27.037  10.614  -6.920  1.00  0.00    -0.000 C 
BRANCH  24  25
ATOM     25  C   UNL     1      26.998   9.641  -5.724  1.00  0.00    -0.000 C 
BRANCH  25  26
ATOM     26  C   UNL     1      27.575  10.192  -4.406  1.00  0.00    -0.000 C 
BRANCH  26  27
ATOM     27  C   UNL     1      28.542   9.212  -3.723  1.00  0.00    -0.000 C 
BRANCH  27  28
ATOM     28  C   UNL     1      28.952   9.670  -2.314  1.00  0.00    -0.000 C 
BRANCH  28  29
ATOM     29  C   UNL     1      28.960  11.203  -2.165  1.00  0.00    -0.000 C 
BRANCH  29  30
ATOM     30  C   UNL     1      28.112  11.675  -0.964  1.00  0.00    -0.000 C 
BRANCH  30  31
ATOM     31  C   UNL     1      28.888  12.562   0.024  1.00  0.00    -0.003 C 
ATOM     32  C   UNL     1      30.160  13.157  -0.578  1.00  0.00     0.004 C 
ENDBRANCH  30  31
ENDBRANCH  29  30
ENDBRANCH  28  29
ENDBRANCH  27  28
ENDBRANCH  26  27
ENDBRANCH  25  26
ENDBRANCH  24  25
ENDBRANCH  23  24
ENDBRANCH  22  23
ENDBRANCH  21  22
ENDBRANCH  20  21
ENDBRANCH  19  20
ENDBRANCH  18  19
ENDBRANCH   1  18
TORSDOF 28
ENDMDL
MODEL 6
REMARK VINA RESULT:    -5.862      5.819      9.675
REMARK INTER + INTRA:         -19.437
REMARK INTER:                 -15.524
REMARK INTRA:                  -3.913
REMARK UNBOUND:                -3.979
REMARK SMILES CCCCCCCCCCCCCCCCCCCCCCCCCCCCCC(=O)[O-]
REMARK SMILES IDX 16 1 17 2 18 3 19 4 20 5 21 6 22 7 23 8 24 9 25 10 26 11
REMARK SMILES IDX 27 12 28 13 29 14 30 15 31 16 32 17 15 18 14 19 13 20 12 21
REMARK SMILES IDX 11 22 10 23 9 24 8 25 7 26 6 27 5 28 4 29 3 30 2 31 1 32
REMARK H PARENT
REMARK Flexibility Score: inf
ROOT
ATOM      1  C   UNL     1      23.424  12.275  -3.988  1.00  0.00     0.000 C 
ENDROOT
BRANCH   1   2
ATOM      2  C   UNL     1      23.270  12.067  -5.501  1.00  0.00     0.000 C 
BRANCH   2   3
ATOM      3  C   UNL     1      24.263  11.034  -6.066  1.00  0.00     0.000 C 
BRANCH   3   4
ATOM      4  C   UNL     1      24.075  10.691  -7.559  1.00  0.00     0.000 C 
BRANCH   4   5
ATOM      5  C   UNL     1      25.102  11.336  -8.507  1.00  0.00     0.000 C 
BRANCH   5   6
ATOM      6  C   UNL     1      25.897  10.297  -9.316  1.00  0.00     0.000 C 
BRANCH   6   7
ATOM      7  C   UNL     1      27.186  10.879  -9.918  1.00  0.00     0.000 C 
BRANCH   7   8
ATOM      8  C   UNL     1      27.603  12.199  -9.246  1.00  0.00     0.000 C 
BRANCH   8   9
ATOM      9  C   UNL     1      28.755  12.014  -8.245  1.00  0.00     0.000 C 
BRANCH   9  10
ATOM     10  C   UNL     1      29.524  10.698  -8.462  1.00  0.00     0.000 C 
BRANCH  10  11
ATOM     11  C   UNL     1      29.342   9.711  -7.299  1.00  0.00     0.000 C 
BRANCH  11  12
ATOM     12  C   UNL     1      28.170  10.096  -6.378  1.00  0.00     0.000 C 
BRANCH  12  13
ATOM     13  C   UNL     1      27.490   8.872  -5.746  1.00  0.00     0.006 C 
BRANCH  13  14
ATOM     14  C   UNL     1      27.826   7.567  -6.479  1.00  0.00     0.053 C 
BRANCH  14  15
ATOM     15  C   UNL     1      26.670   7.128  -7.320  1.00  0.00     0.041 C 
ATOM     16  O   UNL     1      25.531   7.634  -7.145  1.00  0.00    -0.550 OA
ATOM     17  O   UNL     1      26.840   6.125  -8.266  1.00  0.00    -0.550 OA
ENDBRANCH  14  15
ENDBRANCH  13  14
ENDBRANCH  12  13
ENDBRANCH  11  12
ENDBRANCH  10  11
ENDBRANCH   9  10
ENDBRANCH   8   9
ENDBRANCH   7   8
ENDBRANCH   6   7
ENDBRANCH   5   6
ENDBRANCH   4   5
ENDBRANCH   3   4
ENDBRANCH   2   3
ENDBRANCH   1   2
BRANCH   1  18
ATOM     18  C   UNL     1      22.246  13.082  -3.421  1.00  0.00     0.000 C 
BRANCH  18  19
ATOM     19  C   UNL     1      21.076  12.184  -2.986  1.00  0.00     0.000 C 
BRANCH  19  20
ATOM     20  C   UNL     1      19.824  12.993  -2.606  1.00  0.00     0.000 C 
BRANCH  20  21
ATOM     21  C   UNL     1      19.160  12.498  -1.308  1.00  0.00     0.000 C 
BRANCH  21  22
ATOM     22  C   UNL     1      19.228  13.480  -0.123  1.00  0.00     0.000 C 
BRANCH  22  23
ATOM     23  C   UNL     1      20.164  14.672  -0.383  1.00  0.00     0.000 C 
BRANCH  23  24
ATOM     24  C   UNL     1      20.038  15.777   0.681  1.00  0.00    -0.000 C 
BRANCH  24  25
ATOM     25  C   UNL     1      21.351  16.161   1.393  1.00  0.00    -0.000 C 
BRANCH  25  26
ATOM     26  C   UNL     1      22.640  15.653   0.719  1.00  0.00    -0.000 C 
BRANCH  26  27
ATOM     27  C   UNL     1      23.559  14.892   1.689  1.00  0.00    -0.000 C 
BRANCH  27  28
ATOM     28  C   UNL     1      22.786  14.229   2.841  1.00  0.00    -0.000 C 
BRANCH  28  29
ATOM     29  C   UNL     1      22.851  12.692   2.795  1.00  0.00    -0.000 C 
BRANCH  29  30
ATOM     30  C   UNL     1      21.836  12.098   1.794  1.00  0.00    -0.000 C 
BRANCH  30  31
ATOM     31  C   UNL     1      22.464  11.690   0.452  1.00  0.00    -0.003 C 
ATOM     32  C   UNL     1      22.095  10.271   0.024  1.00  0.00     0.004 C 
ENDBRANCH  30  31
ENDBRANCH  29  30
ENDBRANCH  28  29
ENDBRANCH  27  28
ENDBRANCH  26  27
ENDBRANCH  25  26
ENDBRANCH  24  25
ENDBRANCH  23  24
ENDBRANCH  22  23
ENDBRANCH  21  22
ENDBRANCH  20  21
ENDBRANCH  19  20
ENDBRANCH  18  19
ENDBRANCH   1  18
TORSDOF 28
ENDMDL
MODEL 7
REMARK VINA RESULT:    -5.860      5.484      9.362
REMARK INTER + INTRA:         -19.432
REMARK INTER:                 -15.657
REMARK INTRA:                  -3.775
REMARK UNBOUND:                -3.979
REMARK SMILES CCCCCCCCCCCCCCCCCCCCCCCCCCCCCC(=O)[O-]
REMARK SMILES IDX 16 1 17 2 18 3 19 4 20 5 21 6 22 7 23 8 24 9 25 10 26 11
REMARK SMILES IDX 27 12 28 13 29 14 30 15 31 16 32 17 15 18 14 19 13 20 12 21
REMARK SMILES IDX 11 22 10 23 9 24 8 25 7 26 6 27 5 28 4 29 3 30 2 31 1 32
REMARK H PARENT
REMARK Flexibility Score: inf
ROOT
ATOM      1  C   UNL     1      21.605  12.756  -2.868  1.00  0.00     0.000 C 
ENDROOT
BRANCH   1   2
ATOM      2  C   UNL     1      22.313  12.706  -4.229  1.00  0.00     0.000 C 
BRANCH   2   3
ATOM      3  C   UNL     1      23.814  12.385  -4.109  1.00  0.00     0.000 C 
BRANCH   3   4
ATOM      4  C   UNL     1      24.352  11.370  -5.140  1.00  0.00     0.000 C 
BRANCH   4   5
ATOM      5  C   UNL     1      23.616  11.366  -6.492  1.00  0.00     0.000 C 
BRANCH   5   6
ATOM      6  C   UNL     1      24.307  10.478  -7.540  1.00  0.00     0.000 C 
BRANCH   6   7
ATOM      7  C   UNL     1      24.978  11.296  -8.656  1.00  0.00     0.000 C 
BRANCH   7   8
ATOM      8  C   UNL     1      26.514  11.198  -8.612  1.00  0.00     0.000 C 
BRANCH   8   9
ATOM      9  C   UNL     1      27.101  10.563  -9.881  1.00  0.00     0.000 C 
BRANCH   9  10
ATOM     10  C   UNL     1      27.992   9.345  -9.578  1.00  0.00     0.000 C 
BRANCH  10  11
ATOM     11  C   UNL     1      27.684   8.717  -8.210  1.00  0.00     0.000 C 
BRANCH  11  12
ATOM     12  C   UNL     1      26.583   7.644  -8.288  1.00  0.00     0.000 C 
BRANCH  12  13
ATOM     13  C   UNL     1      27.128   6.223  -8.077  1.00  0.00     0.006 C 
BRANCH  13  14
ATOM     14  C   UNL     1      28.430   6.205  -7.268  1.00  0.00     0.053 C 
BRANCH  14  15
ATOM     15  C   UNL     1      28.167   5.761  -5.864  1.00  0.00     0.041 C 
ATOM     16  O   UNL     1      27.717   6.575  -5.016  1.00  0.00    -0.550 OA
ATOM     17  O   UNL     1      28.463   4.460  -5.479  1.00  0.00    -0.550 OA
ENDBRANCH  14  15
ENDBRANCH  13  14
ENDBRANCH  12  13
ENDBRANCH  11  12
ENDBRANCH  10  11
ENDBRANCH   9  10
ENDBRANCH   8   9
ENDBRANCH   7   8
ENDBRANCH   6   7
ENDBRANCH   5   6
ENDBRANCH   4   5
ENDBRANCH   3   4
ENDBRANCH   2   3
ENDBRANCH   1   2
BRANCH   1  18
ATOM     18  C   UNL     1      20.157  12.254  -2.982  1.00  0.00     0.000 C 
BRANCH  18  19
ATOM     19  C   UNL     1      19.245  12.845  -1.896  1.00  0.00     0.000 C 
BRANCH  19  20
ATOM     20  C   UNL     1      19.911  14.004  -1.134  1.00  0.00     0.000 C 
BRANCH  20  21
ATOM     21  C   UNL     1      19.360  14.181   0.292  1.00  0.00     0.000 C 
BRANCH  21  22
ATOM     22  C   UNL     1      20.120  15.198   1.164  1.00  0.00     0.000 C 
BRANCH  22  23
ATOM     23  C   UNL     1      21.296  15.862   0.428  1.00  0.00     0.000 C 
BRANCH  23  24
ATOM     24  C   UNL     1      22.483  16.178   1.355  1.00  0.00    -0.000 C 
BRANCH  24  25
ATOM     25  C   UNL     1      22.212  15.986   2.861  1.00  0.00    -0.000 C 
BRANCH  25  26
ATOM     26  C   UNL     1      23.161  15.011   3.584  1.00  0.00    -0.000 C 
BRANCH  26  27
ATOM     27  C   UNL     1      22.429  13.795   4.174  1.00  0.00    -0.000 C 
BRANCH  27  28
ATOM     28  C   UNL     1      22.763  12.487   3.437  1.00  0.00    -0.000 C 
BRANCH  28  29
ATOM     29  C   UNL     1      21.659  12.061   2.451  1.00  0.00    -0.000 C 
BRANCH  29  30
ATOM     30  C   UNL     1      22.169  12.011   0.995  1.00  0.00    -0.000 C 
BRANCH  30  31
ATOM     31  C   UNL     1      23.636  12.446   0.843  1.00  0.00    -0.003 C 
ATOM     32  C   UNL     1      23.902  13.219  -0.447  1.00  0.00     0.004 C 
ENDBRANCH  30  31
ENDBRANCH  29  30
ENDBRANCH  28  29
ENDBRANCH  27  28
ENDBRANCH  26  27
ENDBRANCH  25  26
ENDBRANCH  24  25
ENDBRANCH  23  24
ENDBRANCH  22  23
ENDBRANCH  21  22
ENDBRANCH  20  21
ENDBRANCH  19  20
ENDBRANCH  18  19
ENDBRANCH   1  18
TORSDOF 28
ENDMDL
MODEL 8
REMARK VINA RESULT:    -5.839      1.617      8.243
REMARK INTER + INTRA:         -19.375
REMARK INTER:                 -15.662
REMARK INTRA:                  -3.713
REMARK UNBOUND:                -3.979
REMARK SMILES CCCCCCCCCCCCCCCCCCCCCCCCCCCCCC(=O)[O-]
REMARK SMILES IDX 16 1 17 2 18 3 19 4 20 5 21 6 22 7 23 8 24 9 25 10 26 11
REMARK SMILES IDX 27 12 28 13 29 14 30 15 31 16 32 17 15 18 14 19 13 20 12 21
REMARK SMILES IDX 11 22 10 23 9 24 8 25 7 26 6 27 5 28 4 29 3 30 2 31 1 32
REMARK H PARENT
REMARK Flexibility Score: inf
ROOT
ATOM      1  C   UNL     1      22.193  10.934  -0.212  1.00  0.00     0.000 C 
ENDROOT
BRANCH   1   2
ATOM      2  C   UNL     1      23.134  12.143  -0.118  1.00  0.00     0.000 C 
BRANCH   2   3
ATOM      3  C   UNL     1      23.228  12.930  -1.439  1.00  0.00     0.000 C 
BRANCH   3   4
ATOM      4  C   UNL     1      22.785  12.155  -2.698  1.00  0.00     0.000 C 
BRANCH   4   5
ATOM      5  C   UNL     1      21.632  12.803  -3.486  1.00  0.00     0.000 C 
BRANCH   5   6
ATOM      6  C   UNL     1      20.250  12.300  -3.036  1.00  0.00     0.000 C 
BRANCH   6   7
ATOM      7  C   UNL     1      19.516  13.314  -2.143  1.00  0.00     0.000 C 
BRANCH   7   8
ATOM      8  C   UNL     1      19.159  12.731  -0.764  1.00  0.00     0.000 C 
BRANCH   8   9
ATOM      9  C   UNL     1      19.360  13.742   0.375  1.00  0.00     0.000 C 
BRANCH   9  10
ATOM     10  C   UNL     1      20.553  14.683   0.130  1.00  0.00     0.000 C 
BRANCH  10  11
ATOM     11  C   UNL     1      20.531  15.913   1.051  1.00  0.00     0.000 C 
BRANCH  11  12
ATOM     12  C   UNL     1      21.831  16.065   1.861  1.00  0.00     0.000 C 
BRANCH  12  13
ATOM     13  C   UNL     1      22.459  14.711   2.227  1.00  0.00     0.006 C 
BRANCH  13  14
ATOM     14  C   UNL     1      22.637  14.532   3.740  1.00  0.00     0.053 C 
BRANCH  14  15
ATOM     15  C   UNL     1      22.426  13.103   4.126  1.00  0.00     0.041 C 
ATOM     16  O   UNL     1      21.844  12.313   3.338  1.00  0.00    -0.550 OA
ATOM     17  O   UNL     1      22.830  12.654   5.377  1.00  0.00    -0.550 OA
ENDBRANCH  14  15
ENDBRANCH  13  14
ENDBRANCH  12  13
ENDBRANCH  11  12
ENDBRANCH  10  11
ENDBRANCH   9  10
ENDBRANCH   8   9
ENDBRANCH   7   8
ENDBRANCH   6   7
ENDBRANCH   5   6
ENDBRANCH   4   5
ENDBRANCH   3   4
ENDBRANCH   2   3
ENDBRANCH   1   2
BRANCH   1  18
ATOM     18  C   UNL     1      22.523   9.894   0.869  1.00  0.00     0.000 C 
BRANCH  18  19
ATOM     19  C   UNL     1      22.488   8.456   0.329  1.00  0.00     0.000 C 
BRANCH  19  20
ATOM     20  C   UNL     1      23.117   7.445   1.304  1.00  0.00     0.000 C 
BRANCH  20  21
ATOM     21  C   UNL     1      23.129   6.008   0.755  1.00  0.00     0.000 C 
BRANCH  21  22
ATOM     22  C   UNL     1      21.738   5.384   0.529  1.00  0.00     0.000 C 
BRANCH  22  23
ATOM     23  C   UNL     1      21.434   4.226   1.494  1.00  0.00     0.000 C 
BRANCH  23  24
ATOM     24  C   UNL     1      20.261   4.528   2.442  1.00  0.00    -0.000 C 
BRANCH  24  25
ATOM     25  C   UNL     1      20.622   4.587   3.941  1.00  0.00    -0.000 C 
BRANCH  25  26
ATOM     26  C   UNL     1      21.784   5.529   4.304  1.00  0.00    -0.000 C 
BRANCH  26  27
ATOM     27  C   UNL     1      23.047   4.775   4.752  1.00  0.00    -0.000 C 
BRANCH  27  28
ATOM     28  C   UNL     1      24.342   5.518   4.384  1.00  0.00    -0.000 C 
BRANCH  28  29
ATOM     29  C   UNL     1      24.219   7.045   4.544  1.00  0.00    -0.000 C 
BRANCH  29  30
ATOM     30  C   UNL     1      25.256   7.610   5.538  1.00  0.00    -0.000 C 
BRANCH  30  31
ATOM     31  C   UNL     1      24.625   8.243   6.789  1.00  0.00    -0.003 C 
ATOM     32  C   UNL     1      25.152   9.646   7.081  1.00  0.00     0.004 C 
ENDBRANCH  30  31
ENDBRANCH  29  30
ENDBRANCH  28  29
ENDBRANCH  27  28
ENDBRANCH  26  27
ENDBRANCH  25  26
ENDBRANCH  24  25
ENDBRANCH  23  24
ENDBRANCH  22  23
ENDBRANCH  21  22
ENDBRANCH  20  21
ENDBRANCH  19  20
ENDBRANCH  18  19
ENDBRANCH   1  18
TORSDOF 28
ENDMDL
MODEL 9
REMARK VINA RESULT:    -5.821      1.350      4.157
REMARK INTER + INTRA:         -19.327
REMARK INTER:                 -15.413
REMARK INTRA:                  -3.914
REMARK UNBOUND:                -3.979
REMARK SMILES CCCCCCCCCCCCCCCCCCCCCCCCCCCCCC(=O)[O-]
REMARK SMILES IDX 16 1 17 2 18 3 19 4 20 5 21 6 22 7 23 8 24 9 25 10 26 11
REMARK SMILES IDX 27 12 28 13 29 14 30 15 31 16 32 17 15 18 14 19 13 20 12 21
REMARK SMILES IDX 11 22 10 23 9 24 8 25 7 26 6 27 5 28 4 29 3 30 2 31 1 32
REMARK H PARENT
REMARK Flexibility Score: inf
ROOT
ATOM      1  C   UNL     1      22.843   9.380   1.439  1.00  0.00     0.000 C 
ENDROOT
BRANCH   1   2
ATOM      2  C   UNL     1      22.854   7.994   0.780  1.00  0.00     0.000 C 
BRANCH   2   3
ATOM      3  C   UNL     1      23.634   6.949   1.600  1.00  0.00     0.000 C 
BRANCH   3   4
ATOM      4  C   UNL     1      23.567   5.506   1.058  1.00  0.00     0.000 C 
BRANCH   4   5
ATOM      5  C   UNL     1      22.935   4.481   2.016  1.00  0.00     0.000 C 
BRANCH   5   6
ATOM      6  C   UNL     1      21.397   4.503   1.978  1.00  0.00     0.000 C 
BRANCH   6   7
ATOM      7  C   UNL     1      20.773   4.568   3.382  1.00  0.00     0.000 C 
BRANCH   7   8
ATOM      8  C   UNL     1      21.306   5.754   4.205  1.00  0.00     0.000 C 
BRANCH   8   9
ATOM      9  C   UNL     1      21.802   5.330   5.597  1.00  0.00     0.000 C 
BRANCH   9  10
ATOM     10  C   UNL     1      23.329   5.155   5.654  1.00  0.00     0.000 C 
BRANCH  10  11
ATOM     11  C   UNL     1      24.084   6.444   5.291  1.00  0.00     0.000 C 
BRANCH  11  12
ATOM     12  C   UNL     1      24.298   7.363   6.507  1.00  0.00     0.000 C 
BRANCH  12  13
ATOM     13  C   UNL     1      25.075   8.640   6.151  1.00  0.00     0.006 C 
BRANCH  13  14
ATOM     14  C   UNL     1      24.769   9.801   7.105  1.00  0.00     0.053 C 
BRANCH  14  15
ATOM     15  C   UNL     1      25.547   9.654   8.374  1.00  0.00     0.041 C 
ATOM     16  O   UNL     1      24.948   9.471   9.466  1.00  0.00    -0.550 OA
ATOM     17  O   UNL     1      26.931   9.768   8.359  1.00  0.00    -0.550 OA
ENDBRANCH  14  15
ENDBRANCH  13  14
ENDBRANCH  12  13
ENDBRANCH  11  12
ENDBRANCH  10  11
ENDBRANCH   9  10
ENDBRANCH   8   9
ENDBRANCH   7   8
ENDBRANCH   6   7
ENDBRANCH   5   6
ENDBRANCH   4   5
ENDBRANCH   3   4
ENDBRANCH   2   3
ENDBRANCH   1   2
BRANCH   1  18
ATOM     18  C   UNL     1      22.464  10.469   0.423  1.00  0.00     0.000 C 
BRANCH  18  19
ATOM     19  C   UNL     1      22.624  11.886   0.997  1.00  0.00     0.000 C 
BRANCH  19  20
ATOM     20  C   UNL     1      21.760  12.114   2.250  1.00  0.00     0.000 C 
BRANCH  20  21
ATOM     21  C   UNL     1      22.562  12.673   3.439  1.00  0.00     0.000 C 
BRANCH  21  22
ATOM     22  C   UNL     1      23.563  13.789   3.084  1.00  0.00     0.000 C 
BRANCH  22  23
ATOM     23  C   UNL     1      22.883  15.140   2.804  1.00  0.00     0.000 C 
BRANCH  23  24
ATOM     24  C   UNL     1      23.222  15.705   1.413  1.00  0.00    -0.000 C 
BRANCH  24  25
ATOM     25  C   UNL     1      22.008  16.016   0.514  1.00  0.00    -0.000 C 
BRANCH  25  26
ATOM     26  C   UNL     1      20.656  15.484   1.022  1.00  0.00    -0.000 C 
BRANCH  26  27
ATOM     27  C   UNL     1      19.778  14.913  -0.104  1.00  0.00    -0.000 C 
BRANCH  27  28
ATOM     28  C   UNL     1      19.136  13.567   0.272  1.00  0.00    -0.000 C 
BRANCH  28  29
ATOM     29  C   UNL     1      19.333  12.491  -0.812  1.00  0.00    -0.000 C 
BRANCH  29  30
ATOM     30  C   UNL     1      19.921  13.078  -2.113  1.00  0.00    -0.000 C 
BRANCH  30  31
ATOM     31  C   UNL     1      21.063  12.235  -2.705  1.00  0.00    -0.003 C 
ATOM     32  C   UNL     1      22.420  12.931  -2.636  1.00  0.00     0.004 C 
ENDBRANCH  30  31
ENDBRANCH  29  30
ENDBRANCH  28  29
ENDBRANCH  27  28
ENDBRANCH  26  27
ENDBRANCH  25  26
ENDBRANCH  24  25
ENDBRANCH  23  24
ENDBRANCH  22  23
ENDBRANCH  21  22
ENDBRANCH  20  21
ENDBRANCH  19  20
ENDBRANCH  18  19
ENDBRANCH   1  18
TORSDOF 28
ENDMDL
