MODEL 1
REMARK VINA RESULT:    -3.653      0.000      0.000
REMARK INTER + INTRA:          -4.786
REMARK INTER:                  -5.148
REMARK INTRA:                   0.362
REMARK UNBOUND:                 0.362
REMARK SMILES CC1=CCC(=C(C)C)C(=O)CC(C)=CCC1
REMARK SMILES IDX 12 1 14 2 13 3 15 4 16 5 2 6 1 7 3 8 11 10 9 11 10 12 5 13
REMARK SMILES IDX 6 14 7 15 8 16 4 17
REMARK H PARENT
REMARK Flexibility Score: 60.00
ROOT
ATOM      1  C   UNL     1      31.283  24.180   7.623  1.00  0.00    -0.070 C 
ATOM      2  C   UNL     1      32.437  23.471   7.606  1.00  0.00    -0.027 C 
ATOM      3  C   UNL     1      31.230  25.398   8.514  1.00  0.00     0.039 C 
ENDROOT
BRANCH   2   4
ATOM      4  C   UNL     1      32.747  22.291   6.717  1.00  0.00     0.032 C 
BRANCH   4   5
ATOM      5  C   UNL     1      32.094  20.987   7.214  1.00  0.00     0.034 C 
BRANCH   5   6
ATOM      6  C   UNL     1      31.217  20.347   6.156  1.00  0.00    -0.077 C 
ATOM      7  C   UNL     1      31.864  19.884   4.874  1.00  0.00     0.039 C 
ATOM      8  C   UNL     1      29.880  20.190   6.283  1.00  0.00    -0.023 CG0
ATOM      9  G   UNL     1      29.050  20.620   7.469  1.00  0.00     0.000 G0
ENDBRANCH   5   6
ENDBRANCH   4   5
ENDBRANCH   2   4
BRANCH   1  10
ATOM     10  C   UNL     1      30.080  23.859   6.752  1.00  0.00     0.111 C 
BRANCH  10  11
ATOM     11  C   UNL     1      28.977  23.209   7.550  1.00  0.00     0.163 C 
ATOM     12  O   UNL     1      28.640  23.741   8.641  1.00  0.00    -0.294 OA
BRANCH  11  13
ATOM     13  C   UNL     1      28.320  21.940   7.105  1.00  0.00    -0.002 C 
ATOM     14  C   UNL     1      27.175  21.947   6.357  1.00  0.00    -0.069 C 
ATOM     15  C   UNL     1      26.497  20.658   5.944  1.00  0.00     0.039 C 
ATOM     16  C   UNL     1      26.551  23.236   5.875  1.00  0.00     0.039 C 
BRANCH  13  17
ATOM     17  C   UNL     1      29.021  20.640   7.457  1.00  0.00     0.066 CG0
ATOM     18  G   UNL     1      29.867  20.183   6.294  1.00  0.00     0.000 G0
ENDBRANCH  13  17
ENDBRANCH  11  13
ENDBRANCH  10  11
ENDBRANCH   1  10
TORSDOF 0
ENDMDL
MODEL 2
REMARK VINA RESULT:    -3.443      1.676      4.586
REMARK INTER + INTRA:          -4.490
REMARK INTER:                  -5.877
REMARK INTRA:                   1.387
REMARK UNBOUND:                 0.362
REMARK SMILES CC1=CCC(=C(C)C)C(=O)CC(C)=CCC1
REMARK SMILES IDX 12 1 14 2 13 3 15 4 16 5 2 6 1 7 3 8 11 10 9 11 10 12 5 13
REMARK SMILES IDX 6 14 7 15 8 16 4 17
REMARK H PARENT
REMARK Flexibility Score: 60.00
ROOT
ATOM      1  C   UNL     1      29.929  19.970   5.846  1.00  0.00    -0.070 C 
ATOM      2  C   UNL     1      29.466  19.950   4.573  1.00  0.00    -0.027 C 
ATOM      3  C   UNL     1      31.413  20.164   6.042  1.00  0.00     0.039 C 
ENDROOT
BRANCH   2   4
ATOM      4  C   UNL     1      28.019  19.876   4.151  1.00  0.00     0.032 C 
BRANCH   4   5
ATOM      5  C   UNL     1      27.370  21.267   4.012  1.00  0.00     0.034 C 
BRANCH   5   6
ATOM      6  C   UNL     1      26.706  21.719   5.297  1.00  0.00    -0.077 C 
ATOM      7  C   UNL     1      25.270  21.327   5.537  1.00  0.00     0.039 C 
ATOM      8  C   UNL     1      27.320  22.478   6.233  1.00  0.00    -0.023 CG0
ATOM      9  G   UNL     1      28.736  22.998   6.157  1.00  0.00     0.000 G0
ENDBRANCH   5   6
ENDBRANCH   4   5
ENDBRANCH   2   4
BRANCH   1  10
ATOM     10  C   UNL     1      29.036  19.876   7.072  1.00  0.00     0.111 C 
BRANCH  10  11
ATOM     11  C   UNL     1      29.112  21.129   7.909  1.00  0.00     0.163 C 
ATOM     12  O   UNL     1      28.757  21.058   9.117  1.00  0.00    -0.294 OA
BRANCH  11  13
ATOM     13  C   UNL     1      29.543  22.441   7.333  1.00  0.00    -0.002 C 
ATOM     14  C   UNL     1      30.648  23.100   7.796  1.00  0.00    -0.069 C 
ATOM     15  C   UNL     1      31.055  24.446   7.233  1.00  0.00     0.039 C 
ATOM     16  C   UNL     1      31.538  22.505   8.862  1.00  0.00     0.039 C 
BRANCH  13  17
ATOM     17  C   UNL     1      28.742  22.976   6.161  1.00  0.00     0.066 CG0
ATOM     18  G   UNL     1      27.321  22.471   6.238  1.00  0.00     0.000 G0
ENDBRANCH  13  17
ENDBRANCH  11  13
ENDBRANCH  10  11
ENDBRANCH   1  10
TORSDOF 0
ENDMDL
MODEL 3
REMARK VINA RESULT:    -3.359      3.326      5.967
REMARK INTER + INTRA:          -4.371
REMARK INTER:                  -5.184
REMARK INTRA:                   0.813
REMARK UNBOUND:                 0.362
REMARK SMILES CC1=CCC(=C(C)C)C(=O)CC(C)=CCC1
REMARK SMILES IDX 12 1 14 2 13 3 15 4 16 5 2 6 1 7 3 8 11 10 9 11 10 12 5 13
REMARK SMILES IDX 6 14 7 15 8 16 4 17
REMARK H PARENT
REMARK Flexibility Score: 60.00
ROOT
ATOM      1  C   UNL     1      24.234  20.603   5.924  1.00  0.00    -0.070 C 
ATOM      2  C   UNL     1      25.285  19.902   5.435  1.00  0.00    -0.027 C 
ATOM      3  C   UNL     1      23.799  20.307   7.338  1.00  0.00     0.039 C 
ENDROOT
BRANCH   2   4
ATOM      4  C   UNL     1      25.951  20.108   4.096  1.00  0.00     0.032 C 
BRANCH   4   5
ATOM      5  C   UNL     1      27.458  20.405   4.223  1.00  0.00     0.034 C 
BRANCH   5   6
ATOM      6  C   UNL     1      27.725  21.712   4.942  1.00  0.00    -0.077 C 
ATOM      7  C   UNL     1      28.674  21.702   6.114  1.00  0.00     0.039 C 
ATOM      8  C   UNL     1      27.139  22.884   4.610  1.00  0.00    -0.023 CG0
ATOM      9  G   UNL     1      26.139  23.088   3.497  1.00  0.00     0.000 G0
ENDBRANCH   5   6
ENDBRANCH   4   5
ENDBRANCH   2   4
BRANCH   1  10
ATOM     10  C   UNL     1      23.524  21.706   5.156  1.00  0.00     0.111 C 
BRANCH  10  11
ATOM     11  C   UNL     1      24.270  23.014   5.247  1.00  0.00     0.163 C 
ATOM     12  O   UNL     1      24.361  23.568   6.376  1.00  0.00    -0.294 OA
BRANCH  11  13
ATOM     13  C   UNL     1      24.851  23.681   4.039  1.00  0.00    -0.002 C 
ATOM     14  C   UNL     1      24.290  24.805   3.500  1.00  0.00    -0.069 C 
ATOM     15  C   UNL     1      24.862  25.451   2.256  1.00  0.00     0.039 C 
ATOM     16  C   UNL     1      23.098  25.480   4.138  1.00  0.00     0.039 C 
BRANCH  13  17
ATOM     17  C   UNL     1      26.135  23.097   3.480  1.00  0.00     0.066 CG0
ATOM     18  G   UNL     1      27.132  22.890   4.595  1.00  0.00     0.000 G0
ENDBRANCH  13  17
ENDBRANCH  11  13
ENDBRANCH  10  11
ENDBRANCH   1  10
TORSDOF 0
ENDMDL
MODEL 4
REMARK VINA RESULT:    -3.219      1.808      4.669
REMARK INTER + INTRA:          -4.175
REMARK INTER:                  -6.417
REMARK INTRA:                   2.242
REMARK UNBOUND:                 0.362
REMARK SMILES CC1=CCC(=C(C)C)C(=O)CC(C)=CCC1
REMARK SMILES IDX 12 1 14 2 13 3 15 4 16 5 2 6 1 7 3 8 11 10 9 11 10 12 5 13
REMARK SMILES IDX 6 14 7 15 8 16 4 17
REMARK H PARENT
REMARK Flexibility Score: 60.00
ROOT
ATOM      1  C   UNL     1      27.750  22.420   5.961  1.00  0.00    -0.070 C 
ATOM      2  C   UNL     1      27.617  23.013   7.171  1.00  0.00    -0.027 C 
ATOM      3  C   UNL     1      26.569  22.484   5.023  1.00  0.00     0.039 C 
ENDROOT
BRANCH   2   4
ATOM      4  C   UNL     1      28.696  23.162   8.216  1.00  0.00     0.032 C 
BRANCH   4   5
ATOM      5  C   UNL     1      29.326  24.569   8.220  1.00  0.00     0.034 C 
BRANCH   5   6
ATOM      6  C   UNL     1      30.815  24.530   7.942  1.00  0.00    -0.077 C 
ATOM      7  C   UNL     1      31.503  25.812   7.545  1.00  0.00     0.039 C 
ATOM      8  C   UNL     1      31.561  23.404   8.003  1.00  0.00    -0.023 CG0
ATOM      9  G   UNL     1      31.051  22.024   8.345  1.00  0.00     0.000 G0
ENDBRANCH   5   6
ENDBRANCH   4   5
ENDBRANCH   2   4
BRANCH   1  10
ATOM     10  C   UNL     1      29.033  21.763   5.478  1.00  0.00     0.111 C 
BRANCH  10  11
ATOM     11  C   UNL     1      29.634  20.876   6.540  1.00  0.00     0.163 C 
ATOM     12  O   UNL     1      28.944  19.914   6.972  1.00  0.00    -0.294 OA
BRANCH  11  13
ATOM     13  C   UNL     1      30.989  21.141   7.119  1.00  0.00    -0.002 C 
ATOM     14  C   UNL     1      32.128  20.666   6.529  1.00  0.00    -0.069 C 
ATOM     15  C   UNL     1      33.491  20.906   7.142  1.00  0.00     0.039 C 
ATOM     16  C   UNL     1      32.087  19.911   5.220  1.00  0.00     0.039 C 
BRANCH  13  17
ATOM     17  C   UNL     1      31.052  22.024   8.351  1.00  0.00     0.066 CG0
ATOM     18  G   UNL     1      31.583  23.388   7.978  1.00  0.00     0.000 G0
ENDBRANCH  13  17
ENDBRANCH  11  13
ENDBRANCH  10  11
ENDBRANCH   1  10
TORSDOF 0
ENDMDL
MODEL 5
REMARK VINA RESULT:    -3.195      3.850      6.393
REMARK INTER + INTRA:          -4.141
REMARK INTER:                  -5.145
REMARK INTRA:                   1.005
REMARK UNBOUND:                 0.362
REMARK SMILES CC1=CCC(=C(C)C)C(=O)CC(C)=CCC1
REMARK SMILES IDX 12 1 14 2 13 3 15 4 16 5 2 6 1 7 3 8 11 10 9 11 10 12 5 13
REMARK SMILES IDX 6 14 7 15 8 16 4 17
REMARK H PARENT
REMARK Flexibility Score: 60.00
ROOT
ATOM      1  C   UNL     1      27.054  21.681   5.583  1.00  0.00    -0.070 C 
ATOM      2  C   UNL     1      26.584  20.876   6.565  1.00  0.00    -0.027 C 
ATOM      3  C   UNL     1      28.359  22.396   5.837  1.00  0.00     0.039 C 
ENDROOT
BRANCH   2   4
ATOM      4  C   UNL     1      25.365  19.989   6.485  1.00  0.00     0.032 C 
BRANCH   4   5
ATOM      5  C   UNL     1      24.125  20.626   7.144  1.00  0.00     0.034 C 
BRANCH   5   6
ATOM      6  C   UNL     1      23.116  21.105   6.119  1.00  0.00    -0.077 C 
ATOM      7  C   UNL     1      22.003  20.168   5.720  1.00  0.00     0.039 C 
ATOM      8  C   UNL     1      23.170  22.316   5.521  1.00  0.00    -0.023 CG0
ATOM      9  G   UNL     1      24.222  23.372   5.761  1.00  0.00     0.000 G0
ENDBRANCH   5   6
ENDBRANCH   4   5
ENDBRANCH   2   4
BRANCH   1  10
ATOM     10  C   UNL     1      26.381  21.847   4.230  1.00  0.00     0.111 C 
BRANCH  10  11
ATOM     11  C   UNL     1      26.037  23.291   3.956  1.00  0.00     0.163 C 
ATOM     12  O   UNL     1      26.874  23.991   3.326  1.00  0.00    -0.294 OA
BRANCH  11  13
ATOM     13  C   UNL     1      24.768  23.910   4.453  1.00  0.00    -0.002 C 
ATOM     14  C   UNL     1      24.098  24.856   3.728  1.00  0.00    -0.069 C 
ATOM     15  C   UNL     1      22.836  25.505   4.255  1.00  0.00     0.039 C 
ATOM     16  C   UNL     1      24.561  25.273   2.351  1.00  0.00     0.039 C 
BRANCH  13  17
ATOM     17  C   UNL     1      24.215  23.390   5.767  1.00  0.00     0.066 CG0
ATOM     18  G   UNL     1      23.179  22.324   5.500  1.00  0.00     0.000 G0
ENDBRANCH  13  17
ENDBRANCH  11  13
ENDBRANCH  10  11
ENDBRANCH   1  10
TORSDOF 0
ENDMDL
MODEL 6
REMARK VINA RESULT:    -3.017      1.711      2.206
REMARK INTER + INTRA:          -3.889
REMARK INTER:                  -4.455
REMARK INTRA:                   0.566
REMARK UNBOUND:                 0.362
REMARK SMILES CC1=CCC(=C(C)C)C(=O)CC(C)=CCC1
REMARK SMILES IDX 12 1 14 2 13 3 15 4 16 5 2 6 1 7 3 8 11 10 9 11 10 12 5 13
REMARK SMILES IDX 6 14 7 15 8 16 4 17
REMARK H PARENT
REMARK Flexibility Score: 60.00
ROOT
ATOM      1  C   UNL     1      28.857  23.530   7.845  1.00  0.00    -0.070 C 
ATOM      2  C   UNL     1      29.877  22.852   8.423  1.00  0.00    -0.027 C 
ATOM      3  C   UNL     1      28.044  24.447   8.727  1.00  0.00     0.039 C 
ENDROOT
BRANCH   2   4
ATOM      4  C   UNL     1      30.877  21.970   7.716  1.00  0.00     0.032 C 
BRANCH   4   5
ATOM      5  C   UNL     1      30.366  20.529   7.526  1.00  0.00     0.034 C 
BRANCH   5   6
ATOM      6  C   UNL     1      30.259  20.148   6.062  1.00  0.00    -0.077 C 
ATOM      7  C   UNL     1      31.532  19.888   5.296  1.00  0.00     0.039 C 
ATOM      8  C   UNL     1      29.087  20.054   5.395  1.00  0.00    -0.023 CG0
ATOM      9  G   UNL     1      27.717  20.311   5.976  1.00  0.00     0.000 G0
ENDBRANCH   5   6
ENDBRANCH   4   5
ENDBRANCH   2   4
BRANCH   1  10
ATOM     10  C   UNL     1      28.535  23.470   6.361  1.00  0.00     0.111 C 
BRANCH  10  11
ATOM     11  C   UNL     1      27.203  22.807   6.110  1.00  0.00     0.163 C 
ATOM     12  O   UNL     1      26.171  23.344   6.595  1.00  0.00    -0.294 OA
BRANCH  11  13
ATOM     13  C   UNL     1      27.089  21.519   5.355  1.00  0.00    -0.002 C 
ATOM     14  C   UNL     1      26.506  21.460   4.120  1.00  0.00    -0.069 C 
ATOM     15  C   UNL     1      26.360  20.147   3.380  1.00  0.00     0.039 C 
ATOM     16  C   UNL     1      26.011  22.703   3.416  1.00  0.00     0.039 C 
BRANCH  13  17
ATOM     17  C   UNL     1      27.716  20.291   5.988  1.00  0.00     0.066 CG0
ATOM     18  G   UNL     1      29.081  20.046   5.390  1.00  0.00     0.000 G0
ENDBRANCH  13  17
ENDBRANCH  11  13
ENDBRANCH  10  11
ENDBRANCH   1  10
TORSDOF 0
ENDMDL
MODEL 7
REMARK VINA RESULT:    -2.851      1.713      3.568
REMARK INTER + INTRA:          -3.655
REMARK INTER:                  -5.412
REMARK INTRA:                   1.757
REMARK UNBOUND:                 0.362
REMARK SMILES CC1=CCC(=C(C)C)C(=O)CC(C)=CCC1
REMARK SMILES IDX 12 1 14 2 13 3 15 4 16 5 2 6 1 7 3 8 11 10 9 11 10 12 5 13
REMARK SMILES IDX 6 14 7 15 8 16 4 17
REMARK H PARENT
REMARK Flexibility Score: 60.00
ROOT
ATOM      1  C   UNL     1      31.609  20.818   6.252  1.00  0.00    -0.070 C 
ATOM      2  C   UNL     1      32.001  21.155   7.504  1.00  0.00    -0.027 C 
ATOM      3  C   UNL     1      32.504  19.885   5.472  1.00  0.00     0.039 C 
ENDROOT
BRANCH   2   4
ATOM      4  C   UNL     1      31.215  21.981   8.494  1.00  0.00     0.032 C 
BRANCH   4   5
ATOM      5  C   UNL     1      31.744  23.423   8.614  1.00  0.00     0.034 C 
BRANCH   5   6
ATOM      6  C   UNL     1      30.832  24.426   7.936  1.00  0.00    -0.077 C 
ATOM      7  C   UNL     1      31.432  25.716   7.437  1.00  0.00     0.039 C 
ATOM      8  C   UNL     1      29.502  24.241   7.774  1.00  0.00    -0.023 CG0
ATOM      9  G   UNL     1      28.716  23.038   8.236  1.00  0.00     0.000 G0
ENDBRANCH   5   6
ENDBRANCH   4   5
ENDBRANCH   2   4
BRANCH   1  10
ATOM     10  C   UNL     1      30.300  21.269   5.626  1.00  0.00     0.111 C 
BRANCH  10  11
ATOM     11  C   UNL     1      29.143  21.097   6.579  1.00  0.00     0.163 C 
ATOM     12  O   UNL     1      28.890  19.938   7.004  1.00  0.00    -0.294 OA
BRANCH  11  13
ATOM     13  C   UNL     1      28.272  22.246   6.982  1.00  0.00    -0.002 C 
ATOM     14  C   UNL     1      27.111  22.535   6.320  1.00  0.00    -0.069 C 
ATOM     15  C   UNL     1      26.256  23.722   6.711  1.00  0.00     0.039 C 
ATOM     16  C   UNL     1      26.604  21.666   5.193  1.00  0.00     0.039 C 
BRANCH  13  17
ATOM     17  C   UNL     1      28.696  23.036   8.207  1.00  0.00     0.066 CG0
ATOM     18  G   UNL     1      29.485  24.252   7.785  1.00  0.00     0.000 G0
ENDBRANCH  13  17
ENDBRANCH  11  13
ENDBRANCH  10  11
ENDBRANCH   1  10
TORSDOF 0
ENDMDL
MODEL 8
REMARK VINA RESULT:    -2.843      2.813      5.341
REMARK INTER + INTRA:          -3.645
REMARK INTER:                  -4.389
REMARK INTRA:                   0.744
REMARK UNBOUND:                 0.362
REMARK SMILES CC1=CCC(=C(C)C)C(=O)CC(C)=CCC1
REMARK SMILES IDX 12 1 14 2 13 3 15 4 16 5 2 6 1 7 3 8 11 10 9 11 10 12 5 13
REMARK SMILES IDX 6 14 7 15 8 16 4 17
REMARK H PARENT
REMARK Flexibility Score: 60.00
ROOT
ATOM      1  C   UNL     1      24.384  20.920   5.725  1.00  0.00    -0.070 C 
ATOM      2  C   UNL     1      25.151  20.368   6.696  1.00  0.00    -0.027 C 
ATOM      3  C   UNL     1      23.021  21.431   6.123  1.00  0.00     0.039 C 
ENDROOT
BRANCH   2   4
ATOM      4  C   UNL     1      26.576  19.893   6.547  1.00  0.00     0.032 C 
BRANCH   4   5
ATOM      5  C   UNL     1      27.560  20.687   7.428  1.00  0.00     0.034 C 
BRANCH   5   6
ATOM      6  C   UNL     1      28.406  21.649   6.617  1.00  0.00    -0.077 C 
ATOM      7  C   UNL     1      29.841  21.280   6.339  1.00  0.00     0.039 C 
ATOM      8  C   UNL     1      27.954  22.835   6.150  1.00  0.00    -0.023 CG0
ATOM      9  G   UNL     1      26.566  23.394   6.355  1.00  0.00     0.000 G0
ENDBRANCH   5   6
ENDBRANCH   4   5
ENDBRANCH   2   4
BRANCH   1  10
ATOM     10  C   UNL     1      24.846  21.111   4.290  1.00  0.00     0.111 C 
BRANCH  10  11
ATOM     11  C   UNL     1      25.877  22.208   4.182  1.00  0.00     0.163 C 
ATOM     12  O   UNL     1      26.835  22.046   3.379  1.00  0.00    -0.294 OA
BRANCH  11  13
ATOM     13  C   UNL     1      25.814  23.440   5.029  1.00  0.00    -0.002 C 
ATOM     14  C   UNL     1      25.053  24.519   4.673  1.00  0.00    -0.069 C 
ATOM     15  C   UNL     1      25.025  25.776   5.517  1.00  0.00     0.039 C 
ATOM     16  C   UNL     1      24.174  24.499   3.443  1.00  0.00     0.039 C 
BRANCH  13  17
ATOM     17  C   UNL     1      26.574  23.414   6.342  1.00  0.00     0.066 CG0
ATOM     18  G   UNL     1      27.946  22.820   6.127  1.00  0.00     0.000 G0
ENDBRANCH  13  17
ENDBRANCH  11  13
ENDBRANCH  10  11
ENDBRANCH   1  10
TORSDOF 0
ENDMDL
MODEL 9
REMARK VINA RESULT:    -2.614      2.826      6.235
REMARK INTER + INTRA:          -3.322
REMARK INTER:                  -4.244
REMARK INTRA:                   0.922
REMARK UNBOUND:                 0.362
REMARK SMILES CC1=CCC(=C(C)C)C(=O)CC(C)=CCC1
REMARK SMILES IDX 12 1 14 2 13 3 15 4 16 5 2 6 1 7 3 8 11 10 9 11 10 12 5 13
REMARK SMILES IDX 6 14 7 15 8 16 4 17
REMARK H PARENT
REMARK Flexibility Score: 60.00
ROOT
ATOM      1  C   UNL     1      24.825  20.550   6.476  1.00  0.00    -0.070 C 
ATOM      2  C   UNL     1      23.948  21.580   6.403  1.00  0.00    -0.027 C 
ATOM      3  C   UNL     1      25.003  19.883   7.819  1.00  0.00     0.039 C 
ENDROOT
BRANCH   2   4
ATOM      4  C   UNL     1      23.537  22.316   5.151  1.00  0.00     0.032 C 
BRANCH   4   5
ATOM      5  C   UNL     1      23.925  23.807   5.187  1.00  0.00     0.034 C 
BRANCH   5   6
ATOM      6  C   UNL     1      25.189  24.089   4.400  1.00  0.00    -0.077 C 
ATOM      7  C   UNL     1      25.058  24.707   3.031  1.00  0.00     0.039 C 
ATOM      8  C   UNL     1      26.432  23.793   4.845  1.00  0.00    -0.023 CG0
ATOM      9  G   UNL     1      26.765  23.143   6.167  1.00  0.00     0.000 G0
ENDBRANCH   5   6
ENDBRANCH   4   5
ENDBRANCH   2   4
BRANCH   1  10
ATOM     10  C   UNL     1      25.578  19.996   5.279  1.00  0.00     0.111 C 
BRANCH  10  11
ATOM     11  C   UNL     1      26.746  20.875   4.903  1.00  0.00     0.163 C 
ATOM     12  O   UNL     1      27.180  20.814   3.722  1.00  0.00    -0.294 OA
BRANCH  11  13
ATOM     13  C   UNL     1      27.420  21.765   5.901  1.00  0.00    -0.002 C 
ATOM     14  C   UNL     1      28.593  21.407   6.506  1.00  0.00    -0.069 C 
ATOM     15  C   UNL     1      29.247  22.296   7.542  1.00  0.00     0.039 C 
ATOM     16  C   UNL     1      29.313  20.128   6.146  1.00  0.00     0.039 C 
BRANCH  13  17
ATOM     17  C   UNL     1      26.783  23.118   6.158  1.00  0.00     0.066 CG0
ATOM     18  G   UNL     1      26.447  23.784   4.846  1.00  0.00     0.000 G0
ENDBRANCH  13  17
ENDBRANCH  11  13
ENDBRANCH  10  11
ENDBRANCH   1  10
TORSDOF 0
ENDMDL
