MODEL 1
REMARK VINA RESULT:    -5.487      0.000      0.000
REMARK INTER + INTRA:          -6.835
REMARK INTER:                  -6.610
REMARK INTRA:                  -0.226
REMARK UNBOUND:                -0.226
REMARK SMILES O=c1c(O)c(-c2ccc(O)c(O)c2)oc2cc(O)cc(O)c12
REMARK SMILES IDX 5 1 3 2 2 3 1 4 22 5 20 6 19 7 17 8 16 9 15 10 14 11 6 12
REMARK SMILES IDX 7 13 8 14 9 15 13 16 11 17 10 18 12 20 4 22 21 24 18 26
REMARK H PARENT 10 19 12 21 4 23 21 25 18 27
REMARK Flexibility Score: inf
ROOT
ATOM      1  C   UNL     1      -4.556   7.345  -7.130  1.00  0.00     0.180 A 
ATOM      2  C   UNL     1      -4.698   6.383  -8.145  1.00  0.00     0.208 A 
ATOM      3  C   UNL     1      -5.936   5.742  -8.308  1.00  0.00     0.238 A 
ATOM      4  O   UNL     1      -6.077   4.937  -9.265  1.00  0.00    -0.285 OA
ATOM      5  C   UNL     1      -7.001   6.029  -7.420  1.00  0.00     0.111 A 
ATOM      6  C   UNL     1      -8.285   5.407  -7.464  1.00  0.00     0.134 A 
ATOM      7  C   UNL     1      -9.297   5.848  -6.601  1.00  0.00     0.093 A 
ATOM      8  C   UNL     1      -9.051   6.845  -5.652  1.00  0.00     0.123 A 
ATOM      9  C   UNL     1      -7.786   7.419  -5.565  1.00  0.00     0.094 A 
ATOM     10  C   UNL     1      -6.768   7.027  -6.438  1.00  0.00     0.146 A 
ATOM     11  O   UNL     1      -5.583   7.617  -6.333  1.00  0.00    -0.452 OA
ENDROOT
BRANCH   1  12
ATOM     12  C   UNL     1      -3.287   8.074  -6.906  1.00  0.00     0.025 A 
ATOM     13  C   UNL     1      -2.867   9.032  -7.843  1.00  0.00     0.016 A 
ATOM     14  C   UNL     1      -1.663   9.717  -7.663  1.00  0.00     0.051 A 
ATOM     15  C   UNL     1      -0.853   9.443  -6.554  1.00  0.00     0.157 A 
ATOM     16  C   UNL     1      -2.461   7.787  -5.805  1.00  0.00     0.062 A 
ATOM     17  C   UNL     1      -1.251   8.473  -5.625  1.00  0.00     0.158 A 
BRANCH  15  18
ATOM     18  O   UNL     1       0.348  10.125  -6.370  1.00  0.00    -0.504 OA
ATOM     19  H   UNL     1       0.398  11.135  -6.427  1.00  0.00     0.293 HD
ENDBRANCH  15  18
BRANCH  17  20
ATOM     20  O   UNL     1      -0.436   8.192  -4.530  1.00  0.00    -0.504 OA
ATOM     21  H   UNL     1       0.071   8.922  -4.044  1.00  0.00     0.293 HD
ENDBRANCH  17  20
ENDBRANCH   1  12
BRANCH   2  22
ATOM     22  O   UNL     1      -3.611   6.057  -8.962  1.00  0.00    -0.502 OA
ATOM     23  H   UNL     1      -2.730   5.729  -8.589  1.00  0.00     0.293 HD
ENDBRANCH   2  22
BRANCH   6  24
ATOM     24  O   UNL     1      -8.612   4.343  -8.310  1.00  0.00    -0.507 OA
ATOM     25  H   UNL     1      -7.944   3.727  -8.747  1.00  0.00     0.293 HD
ENDBRANCH   6  24
BRANCH   8  26
ATOM     26  O   UNL     1     -10.058   7.265  -4.786  1.00  0.00    -0.508 OA
ATOM     27  H   UNL     1      -9.859   7.513  -3.824  1.00  0.00     0.293 HD
ENDBRANCH   8  26
TORSDOF 6
ENDMDL
MODEL 2
REMARK VINA RESULT:    -5.390      2.397      2.852
REMARK INTER + INTRA:          -6.719
REMARK INTER:                  -6.399
REMARK INTRA:                  -0.320
REMARK UNBOUND:                -0.226
REMARK SMILES O=c1c(O)c(-c2ccc(O)c(O)c2)oc2cc(O)cc(O)c12
REMARK SMILES IDX 5 1 3 2 2 3 1 4 22 5 20 6 19 7 17 8 16 9 15 10 14 11 6 12
REMARK SMILES IDX 7 13 8 14 9 15 13 16 11 17 10 18 12 20 4 22 21 24 18 26
REMARK H PARENT 10 19 12 21 4 23 21 25 18 27
REMARK Flexibility Score: inf
ROOT
ATOM      1  C   UNL     1      -6.090   7.904  -6.089  1.00  0.00     0.180 A 
ATOM      2  C   UNL     1      -6.625   8.596  -7.190  1.00  0.00     0.208 A 
ATOM      3  C   UNL     1      -7.781   8.097  -7.810  1.00  0.00     0.238 A 
ATOM      4  O   UNL     1      -8.297   8.761  -8.747  1.00  0.00    -0.285 OA
ATOM      5  C   UNL     1      -8.356   6.884  -7.360  1.00  0.00     0.111 A 
ATOM      6  C   UNL     1      -9.502   6.263  -7.943  1.00  0.00     0.134 A 
ATOM      7  C   UNL     1     -10.046   5.119  -7.346  1.00  0.00     0.093 A 
ATOM      8  C   UNL     1      -9.448   4.537  -6.225  1.00  0.00     0.123 A 
ATOM      9  C   UNL     1      -8.298   5.104  -5.683  1.00  0.00     0.094 A 
ATOM     10  C   UNL     1      -7.754   6.267  -6.232  1.00  0.00     0.146 A 
ATOM     11  O   UNL     1      -6.670   6.787  -5.669  1.00  0.00    -0.452 OA
ENDROOT
BRANCH   1  12
ATOM     12  C   UNL     1      -4.882   8.375  -5.374  1.00  0.00     0.025 A 
ATOM     13  C   UNL     1      -5.015   9.327  -4.349  1.00  0.00     0.016 A 
ATOM     14  C   UNL     1      -3.888   9.802  -3.674  1.00  0.00     0.051 A 
ATOM     15  C   UNL     1      -2.611   9.345  -4.023  1.00  0.00     0.157 A 
ATOM     16  C   UNL     1      -3.596   7.935  -5.735  1.00  0.00     0.062 A 
ATOM     17  C   UNL     1      -2.464   8.414  -5.059  1.00  0.00     0.158 A 
BRANCH  15  18
ATOM     18  O   UNL     1      -1.484   9.815  -3.352  1.00  0.00    -0.504 OA
ATOM     19  H   UNL     1      -0.841   9.184  -2.888  1.00  0.00     0.293 HD
ENDBRANCH  15  18
BRANCH  17  20
ATOM     20  O   UNL     1      -1.191   7.971  -5.414  1.00  0.00    -0.504 OA
ATOM     21  H   UNL     1      -0.361   8.316  -4.947  1.00  0.00     0.293 HD
ENDBRANCH  17  20
ENDBRANCH   1  12
BRANCH   2  22
ATOM     22  O   UNL     1      -5.998   9.750  -7.668  1.00  0.00    -0.502 OA
ATOM     23  H   UNL     1      -5.438  10.350  -7.075  1.00  0.00     0.293 HD
ENDBRANCH   2  22
BRANCH   6  24
ATOM     24  O   UNL     1     -10.125   6.708  -9.113  1.00  0.00    -0.507 OA
ATOM     25  H   UNL     1     -11.036   7.138  -9.154  1.00  0.00     0.293 HD
ENDBRANCH   6  24
BRANCH   8  26
ATOM     26  O   UNL     1      -9.986   3.388  -5.648  1.00  0.00    -0.508 OA
ATOM     27  H   UNL     1      -9.947   2.492  -6.118  1.00  0.00     0.293 HD
ENDBRANCH   8  26
TORSDOF 6
ENDMDL
MODEL 3
REMARK VINA RESULT:    -5.047      2.709      5.031
REMARK INTER + INTRA:          -6.306
REMARK INTER:                  -6.011
REMARK INTRA:                  -0.294
REMARK UNBOUND:                -0.226
REMARK SMILES O=c1c(O)c(-c2ccc(O)c(O)c2)oc2cc(O)cc(O)c12
REMARK SMILES IDX 5 1 3 2 2 3 1 4 22 5 20 6 19 7 17 8 16 9 15 10 14 11 6 12
REMARK SMILES IDX 7 13 8 14 9 15 13 16 11 17 10 18 12 20 4 22 21 24 18 26
REMARK H PARENT 10 19 12 21 4 23 21 25 18 27
REMARK Flexibility Score: inf
ROOT
ATOM      1  C   UNL     1      -1.051   8.997  -6.715  1.00  0.00     0.180 A 
ATOM      2  C   UNL     1      -1.147   9.564  -5.433  1.00  0.00     0.208 A 
ATOM      3  C   UNL     1      -2.393   9.576  -4.786  1.00  0.00     0.238 A 
ATOM      4  O   UNL     1      -2.457  10.018  -3.609  1.00  0.00    -0.285 OA
ATOM      5  C   UNL     1      -3.538   9.074  -5.450  1.00  0.00     0.111 A 
ATOM      6  C   UNL     1      -4.858   9.077  -4.908  1.00  0.00     0.134 A 
ATOM      7  C   UNL     1      -5.897   8.455  -5.613  1.00  0.00     0.093 A 
ATOM      8  C   UNL     1      -5.674   7.887  -6.870  1.00  0.00     0.123 A 
ATOM      9  C   UNL     1      -4.401   7.927  -7.432  1.00  0.00     0.094 A 
ATOM     10  C   UNL     1      -3.337   8.506  -6.736  1.00  0.00     0.146 A 
ATOM     11  O   UNL     1      -2.135   8.503  -7.300  1.00  0.00    -0.452 OA
ENDROOT
BRANCH   1  12
ATOM     12  C   UNL     1       0.231   8.933  -7.454  1.00  0.00     0.025 A 
ATOM     13  C   UNL     1       0.454   9.812  -8.526  1.00  0.00     0.016 A 
ATOM     14  C   UNL     1       1.646   9.756  -9.251  1.00  0.00     0.051 A 
ATOM     15  C   UNL     1       2.627   8.811  -8.926  1.00  0.00     0.157 A 
ATOM     16  C   UNL     1       1.210   7.971  -7.144  1.00  0.00     0.062 A 
ATOM     17  C   UNL     1       2.406   7.914  -7.873  1.00  0.00     0.158 A 
BRANCH  15  18
ATOM     18  O   UNL     1       3.819   8.752  -9.646  1.00  0.00    -0.504 OA
ATOM     19  H   UNL     1       4.145   7.887 -10.061  1.00  0.00     0.293 HD
ENDBRANCH  15  18
BRANCH  17  20
ATOM     20  O   UNL     1       3.378   6.964  -7.560  1.00  0.00    -0.504 OA
ATOM     21  H   UNL     1       3.628   6.758  -6.600  1.00  0.00     0.293 HD
ENDBRANCH  17  20
ENDBRANCH   1  12
BRANCH   2  22
ATOM     22  O   UNL     1      -0.020  10.125  -4.825  1.00  0.00    -0.502 OA
ATOM     23  H   UNL     1       0.892   9.688  -4.864  1.00  0.00     0.293 HD
ENDBRANCH   2  22
BRANCH   6  24
ATOM     24  O   UNL     1      -5.210   9.694  -3.703  1.00  0.00    -0.507 OA
ATOM     25  H   UNL     1      -6.027  10.269  -3.565  1.00  0.00     0.293 HD
ENDBRANCH   6  24
BRANCH   8  26
ATOM     26  O   UNL     1      -6.716   7.286  -7.573  1.00  0.00    -0.508 OA
ATOM     27  H   UNL     1      -7.309   7.818  -8.199  1.00  0.00     0.293 HD
ENDBRANCH   8  26
TORSDOF 6
ENDMDL
MODEL 4
REMARK VINA RESULT:    -4.998      1.158      2.859
REMARK INTER + INTRA:          -6.246
REMARK INTER:                  -6.013
REMARK INTRA:                  -0.233
REMARK UNBOUND:                -0.226
REMARK SMILES O=c1c(O)c(-c2ccc(O)c(O)c2)oc2cc(O)cc(O)c12
REMARK SMILES IDX 5 1 3 2 2 3 1 4 22 5 20 6 19 7 17 8 16 9 15 10 14 11 6 12
REMARK SMILES IDX 7 13 8 14 9 15 13 16 11 17 10 18 12 20 4 22 21 24 18 26
REMARK H PARENT 10 19 12 21 4 23 21 25 18 27
REMARK Flexibility Score: inf
ROOT
ATOM      1  C   UNL     1      -4.744   7.894  -6.357  1.00  0.00     0.180 A 
ATOM      2  C   UNL     1      -5.535   8.447  -5.335  1.00  0.00     0.208 A 
ATOM      3  C   UNL     1      -6.867   8.025  -5.202  1.00  0.00     0.238 A 
ATOM      4  O   UNL     1      -7.547   8.469  -4.240  1.00  0.00    -0.285 OA
ATOM      5  C   UNL     1      -7.410   7.099  -6.125  1.00  0.00     0.111 A 
ATOM      6  C   UNL     1      -8.761   6.636  -6.112  1.00  0.00     0.134 A 
ATOM      7  C   UNL     1      -9.157   5.637  -7.010  1.00  0.00     0.093 A 
ATOM      8  C   UNL     1      -8.269   5.131  -7.963  1.00  0.00     0.123 A 
ATOM      9  C   UNL     1      -6.965   5.616  -8.019  1.00  0.00     0.094 A 
ATOM     10  C   UNL     1      -6.529   6.584  -7.112  1.00  0.00     0.146 A 
ATOM     11  O   UNL     1      -5.271   7.003  -7.188  1.00  0.00    -0.452 OA
ENDROOT
BRANCH   1  12
ATOM     12  C   UNL     1      -3.327   8.276  -6.551  1.00  0.00     0.025 A 
ATOM     13  C   UNL     1      -2.955   8.978  -7.710  1.00  0.00     0.016 A 
ATOM     14  C   UNL     1      -1.621   9.331  -7.925  1.00  0.00     0.051 A 
ATOM     15  C   UNL     1      -0.637   8.976  -6.993  1.00  0.00     0.157 A 
ATOM     16  C   UNL     1      -2.333   7.903  -5.629  1.00  0.00     0.062 A 
ATOM     17  C   UNL     1      -0.993   8.256  -5.846  1.00  0.00     0.158 A 
BRANCH  15  18
ATOM     18  O   UNL     1       0.695   9.327  -7.203  1.00  0.00    -0.504 OA
ATOM     19  H   UNL     1       1.250   9.759  -6.474  1.00  0.00     0.293 HD
ENDBRANCH  15  18
BRANCH  17  20
ATOM     20  O   UNL     1      -0.010   7.890  -4.928  1.00  0.00    -0.504 OA
ATOM     21  H   UNL     1       0.884   7.519  -5.227  1.00  0.00     0.293 HD
ENDBRANCH  17  20
ENDBRANCH   1  12
BRANCH   2  22
ATOM     22  O   UNL     1      -5.004   9.418  -4.481  1.00  0.00    -0.502 OA
ATOM     23  H   UNL     1      -5.526   9.804  -3.706  1.00  0.00     0.293 HD
ENDBRANCH   2  22
BRANCH   6  24
ATOM     24  O   UNL     1      -9.753   7.135  -5.263  1.00  0.00    -0.507 OA
ATOM     25  H   UNL     1     -10.736   7.173  -5.484  1.00  0.00     0.293 HD
ENDBRANCH   6  24
BRANCH   8  26
ATOM     26  O   UNL     1      -8.676   4.150  -8.865  1.00  0.00    -0.508 OA
ATOM     27  H   UNL     1      -8.229   3.242  -8.898  1.00  0.00     0.293 HD
ENDBRANCH   8  26
TORSDOF 6
ENDMDL
MODEL 5
REMARK VINA RESULT:    -4.992      1.892      7.171
REMARK INTER + INTRA:          -6.239
REMARK INTER:                  -5.919
REMARK INTRA:                  -0.320
REMARK UNBOUND:                -0.226
REMARK SMILES O=c1c(O)c(-c2ccc(O)c(O)c2)oc2cc(O)cc(O)c12
REMARK SMILES IDX 5 1 3 2 2 3 1 4 22 5 20 6 19 7 17 8 16 9 15 10 14 11 6 12
REMARK SMILES IDX 7 13 8 14 9 15 13 16 11 17 10 18 12 20 4 22 21 24 18 26
REMARK H PARENT 10 19 12 21 4 23 21 25 18 27
REMARK Flexibility Score: inf
ROOT
ATOM      1  C   UNL     1      -5.392   7.845  -6.256  1.00  0.00     0.180 A 
ATOM      2  C   UNL     1      -5.581   8.527  -5.042  1.00  0.00     0.208 A 
ATOM      3  C   UNL     1      -4.464   9.053  -4.375  1.00  0.00     0.238 A 
ATOM      4  O   UNL     1      -4.649   9.726  -3.328  1.00  0.00    -0.285 OA
ATOM      5  C   UNL     1      -3.166   8.842  -4.899  1.00  0.00     0.111 A 
ATOM      6  C   UNL     1      -1.958   9.291  -4.283  1.00  0.00     0.134 A 
ATOM      7  C   UNL     1      -0.738   9.118  -4.948  1.00  0.00     0.093 A 
ATOM      8  C   UNL     1      -0.674   8.455  -6.177  1.00  0.00     0.123 A 
ATOM      9  C   UNL     1      -1.840   7.965  -6.759  1.00  0.00     0.094 A 
ATOM     10  C   UNL     1      -3.077   8.156  -6.139  1.00  0.00     0.146 A 
ATOM     11  O   UNL     1      -4.165   7.691  -6.740  1.00  0.00    -0.452 OA
ENDROOT
BRANCH   1  12
ATOM     12  C   UNL     1      -6.522   7.276  -7.026  1.00  0.00     0.025 A 
ATOM     13  C   UNL     1      -7.149   8.057  -8.010  1.00  0.00     0.016 A 
ATOM     14  C   UNL     1      -8.230   7.549  -8.734  1.00  0.00     0.051 A 
ATOM     15  C   UNL     1      -8.711   6.260  -8.474  1.00  0.00     0.157 A 
ATOM     16  C   UNL     1      -7.021   5.990  -6.754  1.00  0.00     0.062 A 
ATOM     17  C   UNL     1      -8.108   5.480  -7.479  1.00  0.00     0.158 A 
BRANCH  15  18
ATOM     18  O   UNL     1      -9.788   5.749  -9.195  1.00  0.00    -0.504 OA
ATOM     19  H   UNL     1     -10.583   6.327  -9.440  1.00  0.00     0.293 HD
ENDBRANCH  15  18
BRANCH  17  20
ATOM     20  O   UNL     1      -8.597   4.202  -7.212  1.00  0.00    -0.504 OA
ATOM     21  H   UNL     1      -8.249   3.388  -7.705  1.00  0.00     0.293 HD
ENDBRANCH  17  20
ENDBRANCH   1  12
BRANCH   2  22
ATOM     22  O   UNL     1      -6.864   8.658  -4.502  1.00  0.00    -0.502 OA
ATOM     23  H   UNL     1      -7.168   8.134  -3.691  1.00  0.00     0.293 HD
ENDBRANCH   2  22
BRANCH   6  24
ATOM     24  O   UNL     1      -1.897   9.885  -3.019  1.00  0.00    -0.507 OA
ATOM     25  H   UNL     1      -2.222   9.459  -2.164  1.00  0.00     0.293 HD
ENDBRANCH   6  24
BRANCH   8  26
ATOM     26  O   UNL     1       0.547   8.271  -6.823  1.00  0.00    -0.508 OA
ATOM     27  H   UNL     1       0.665   7.567  -7.541  1.00  0.00     0.293 HD
ENDBRANCH   8  26
TORSDOF 6
ENDMDL
MODEL 6
REMARK VINA RESULT:    -4.871      3.970      5.713
REMARK INTER + INTRA:          -6.094
REMARK INTER:                  -6.219
REMARK INTRA:                   0.125
REMARK UNBOUND:                -0.226
REMARK SMILES O=c1c(O)c(-c2ccc(O)c(O)c2)oc2cc(O)cc(O)c12
REMARK SMILES IDX 5 1 3 2 2 3 1 4 22 5 20 6 19 7 17 8 16 9 15 10 14 11 6 12
REMARK SMILES IDX 7 13 8 14 9 15 13 16 11 17 10 18 12 20 4 22 21 24 18 26
REMARK H PARENT 10 19 12 21 4 23 21 25 18 27
REMARK Flexibility Score: inf
ROOT
ATOM      1  C   UNL     1      -0.193   9.187  -7.928  1.00  0.00     0.180 A 
ATOM      2  C   UNL     1      -1.288   9.538  -8.737  1.00  0.00     0.208 A 
ATOM      3  C   UNL     1      -2.556   9.663  -8.149  1.00  0.00     0.238 A 
ATOM      4  O   UNL     1      -3.517  10.050  -8.864  1.00  0.00    -0.285 OA
ATOM      5  C   UNL     1      -2.726   9.382  -6.772  1.00  0.00     0.111 A 
ATOM      6  C   UNL     1      -3.974   9.432  -6.080  1.00  0.00     0.134 A 
ATOM      7  C   UNL     1      -4.004   9.238  -4.693  1.00  0.00     0.093 A 
ATOM      8  C   UNL     1      -2.840   8.930  -3.983  1.00  0.00     0.123 A 
ATOM      9  C   UNL     1      -1.627   8.824  -4.658  1.00  0.00     0.094 A 
ATOM     10  C   UNL     1      -1.559   9.051  -6.034  1.00  0.00     0.146 A 
ATOM     11  O   UNL     1      -0.377   8.960  -6.633  1.00  0.00    -0.452 OA
ENDROOT
BRANCH   1  12
ATOM     12  C   UNL     1       1.177   9.050  -8.472  1.00  0.00     0.025 A 
ATOM     13  C   UNL     1       1.655  10.005  -9.385  1.00  0.00     0.016 A 
ATOM     14  C   UNL     1       2.937   9.885  -9.928  1.00  0.00     0.051 A 
ATOM     15  C   UNL     1       3.754   8.802  -9.579  1.00  0.00     0.157 A 
ATOM     16  C   UNL     1       1.993   7.953  -8.140  1.00  0.00     0.062 A 
ATOM     17  C   UNL     1       3.279   7.832  -8.687  1.00  0.00     0.158 A 
BRANCH  15  18
ATOM     18  O   UNL     1       5.033   8.679 -10.117  1.00  0.00    -0.504 OA
ATOM     19  H   UNL     1       5.852   9.008  -9.618  1.00  0.00     0.293 HD
ENDBRANCH  15  18
BRANCH  17  20
ATOM     20  O   UNL     1       4.088   6.748  -8.352  1.00  0.00    -0.504 OA
ATOM     21  H   UNL     1       3.865   6.140  -7.572  1.00  0.00     0.293 HD
ENDBRANCH  17  20
ENDBRANCH   1  12
BRANCH   2  22
ATOM     22  O   UNL     1      -1.113   9.737 -10.110  1.00  0.00    -0.502 OA
ATOM     23  H   UNL     1      -0.260   9.482 -10.591  1.00  0.00     0.293 HD
ENDBRANCH   2  22
BRANCH   6  24
ATOM     24  O   UNL     1      -5.207   9.643  -6.703  1.00  0.00    -0.507 OA
ATOM     25  H   UNL     1      -5.564   9.102  -7.476  1.00  0.00     0.293 HD
ENDBRANCH   6  24
BRANCH   8  26
ATOM     26  O   UNL     1      -2.882   8.721  -2.607  1.00  0.00    -0.508 OA
ATOM     27  H   UNL     1      -2.374   7.960  -2.171  1.00  0.00     0.293 HD
ENDBRANCH   8  26
TORSDOF 6
ENDMDL
MODEL 7
REMARK VINA RESULT:    -4.767      1.497      6.910
REMARK INTER + INTRA:          -5.968
REMARK INTER:                  -5.637
REMARK INTRA:                  -0.331
REMARK UNBOUND:                -0.226
REMARK SMILES O=c1c(O)c(-c2ccc(O)c(O)c2)oc2cc(O)cc(O)c12
REMARK SMILES IDX 5 1 3 2 2 3 1 4 22 5 20 6 19 7 17 8 16 9 15 10 14 11 6 12
REMARK SMILES IDX 7 13 8 14 9 15 13 16 11 17 10 18 12 20 4 22 21 24 18 26
REMARK H PARENT 10 19 12 21 4 23 21 25 18 27
REMARK Flexibility Score: inf
ROOT
ATOM      1  C   UNL     1      -4.916   8.000  -6.993  1.00  0.00     0.180 A 
ATOM      2  C   UNL     1      -4.628   8.670  -8.195  1.00  0.00     0.208 A 
ATOM      3  C   UNL     1      -3.314   9.099  -8.436  1.00  0.00     0.238 A 
ATOM      4  O   UNL     1      -3.047   9.632  -9.545  1.00  0.00    -0.285 OA
ATOM      5  C   UNL     1      -2.316   8.904  -7.451  1.00  0.00     0.111 A 
ATOM      6  C   UNL     1      -0.961   9.339  -7.570  1.00  0.00     0.134 A 
ATOM      7  C   UNL     1      -0.035   8.996  -6.577  1.00  0.00     0.093 A 
ATOM      8  C   UNL     1      -0.430   8.290  -5.437  1.00  0.00     0.123 A 
ATOM      9  C   UNL     1      -1.760   7.910  -5.286  1.00  0.00     0.094 A 
ATOM     10  C   UNL     1      -2.699   8.204  -6.278  1.00  0.00     0.146 A 
ATOM     11  O   UNL     1      -3.953   7.803  -6.102  1.00  0.00    -0.452 OA
ENDROOT
BRANCH   1  12
ATOM     12  C   UNL     1      -6.274   7.504  -6.674  1.00  0.00     0.025 A 
ATOM     13  C   UNL     1      -7.154   8.323  -5.947  1.00  0.00     0.016 A 
ATOM     14  C   UNL     1      -8.433   7.868  -5.616  1.00  0.00     0.051 A 
ATOM     15  C   UNL     1      -8.846   6.583  -5.993  1.00  0.00     0.157 A 
ATOM     16  C   UNL     1      -6.685   6.207  -7.032  1.00  0.00     0.062 A 
ATOM     17  C   UNL     1      -7.968   5.750  -6.698  1.00  0.00     0.158 A 
BRANCH  15  18
ATOM     18  O   UNL     1     -10.120   6.126  -5.665  1.00  0.00    -0.504 OA
ATOM     19  H   UNL     1     -10.719   6.638  -5.028  1.00  0.00     0.293 HD
ENDBRANCH  15  18
BRANCH  17  20
ATOM     20  O   UNL     1      -8.375   4.467  -7.059  1.00  0.00    -0.504 OA
ATOM     21  H   UNL     1      -7.810   3.652  -6.850  1.00  0.00     0.293 HD
ENDBRANCH  17  20
ENDBRANCH   1  12
BRANCH   2  22
ATOM     22  O   UNL     1      -5.644   8.921  -9.122  1.00  0.00    -0.502 OA
ATOM     23  H   UNL     1      -6.614   8.701  -8.937  1.00  0.00     0.293 HD
ENDBRANCH   2  22
BRANCH   6  24
ATOM     24  O   UNL     1      -0.479  10.125  -8.622  1.00  0.00    -0.507 OA
ATOM     25  H   UNL     1       0.357  10.688  -8.586  1.00  0.00     0.293 HD
ENDBRANCH   6  24
BRANCH   8  26
ATOM     26  O   UNL     1       0.494   7.969  -4.445  1.00  0.00    -0.508 OA
ATOM     27  H   UNL     1       0.253   8.016  -3.462  1.00  0.00     0.293 HD
ENDBRANCH   8  26
TORSDOF 6
ENDMDL
MODEL 8
REMARK VINA RESULT:    -4.252      3.006      7.237
REMARK INTER + INTRA:          -5.347
REMARK INTER:                  -5.812
REMARK INTRA:                   0.464
REMARK UNBOUND:                -0.226
REMARK SMILES O=c1c(O)c(-c2ccc(O)c(O)c2)oc2cc(O)cc(O)c12
REMARK SMILES IDX 5 1 3 2 2 3 1 4 22 5 20 6 19 7 17 8 16 9 15 10 14 11 6 12
REMARK SMILES IDX 7 13 8 14 9 15 13 16 11 17 10 18 12 20 4 22 21 24 18 26
REMARK H PARENT 10 19 12 21 4 23 21 25 18 27
REMARK Flexibility Score: inf
ROOT
ATOM      1  C   UNL     1      -4.857   9.195  -6.421  1.00  0.00     0.180 A 
ATOM      2  C   UNL     1      -4.590   9.029  -5.051  1.00  0.00     0.208 A 
ATOM      3  C   UNL     1      -3.263   8.845  -4.633  1.00  0.00     0.238 A 
ATOM      4  O   UNL     1      -3.024   8.771  -3.399  1.00  0.00    -0.285 OA
ATOM      5  C   UNL     1      -2.225   8.773  -5.593  1.00  0.00     0.111 A 
ATOM      6  C   UNL     1      -0.849   8.544  -5.286  1.00  0.00     0.134 A 
ATOM      7  C   UNL     1       0.106   8.600  -6.310  1.00  0.00     0.093 A 
ATOM      8  C   UNL     1      -0.273   8.811  -7.638  1.00  0.00     0.123 A 
ATOM      9  C   UNL     1      -1.619   8.980  -7.954  1.00  0.00     0.094 A 
ATOM     10  C   UNL     1      -2.590   8.969  -6.951  1.00  0.00     0.146 A 
ATOM     11  O   UNL     1      -3.859   9.156  -7.295  1.00  0.00    -0.452 OA
ENDROOT
BRANCH   1  12
ATOM     12  C   UNL     1      -6.228   9.409  -6.937  1.00  0.00     0.025 A 
ATOM     13  C   UNL     1      -6.427   9.584  -8.317  1.00  0.00     0.016 A 
ATOM     14  C   UNL     1      -7.709   9.808  -8.824  1.00  0.00     0.051 A 
ATOM     15  C   UNL     1      -8.809   9.877  -7.959  1.00  0.00     0.157 A 
ATOM     16  C   UNL     1      -7.332   9.499  -6.071  1.00  0.00     0.062 A 
ATOM     17  C   UNL     1      -8.619   9.727  -6.580  1.00  0.00     0.158 A 
BRANCH  15  18
ATOM     18  O   UNL     1     -10.089  10.099  -8.461  1.00  0.00    -0.504 OA
ATOM     19  H   UNL     1     -10.297  10.899  -9.048  1.00  0.00     0.293 HD
ENDBRANCH  15  18
BRANCH  17  20
ATOM     20  O   UNL     1      -9.713   9.809  -5.720  1.00  0.00    -0.504 OA
ATOM     21  H   UNL     1     -10.218   8.983  -5.423  1.00  0.00     0.293 HD
ENDBRANCH  17  20
ENDBRANCH   1  12
BRANCH   2  22
ATOM     22  O   UNL     1      -5.638   9.026  -4.126  1.00  0.00    -0.502 OA
ATOM     23  H   UNL     1      -5.625   8.453  -3.292  1.00  0.00     0.293 HD
ENDBRANCH   2  22
BRANCH   6  24
ATOM     24  O   UNL     1      -0.372   8.236  -4.009  1.00  0.00    -0.507 OA
ATOM     25  H   UNL     1       0.590   8.030  -3.786  1.00  0.00     0.293 HD
ENDBRANCH   6  24
BRANCH   8  26
ATOM     26  O   UNL     1       0.681   8.847  -8.652  1.00  0.00    -0.508 OA
ATOM     27  H   UNL     1       0.729   9.618  -9.307  1.00  0.00     0.293 HD
ENDBRANCH   8  26
TORSDOF 6
ENDMDL
