MODEL 1
REMARK VINA RESULT:    -3.562      0.000      0.000
REMARK INTER + INTRA:          -4.748
REMARK INTER:                  -4.603
REMARK INTRA:                  -0.145
REMARK UNBOUND:                -0.145
REMARK SMILES CCCCCCC(=O)[O-]
REMARK SMILES IDX 5 1 6 2 7 3 8 4 9 5 4 6 3 7 2 8 1 9
REMARK H PARENT
REMARK Flexibility Score: inf
ROOT
ATOM      1  C   UNL     1     -33.333 -54.106  29.338  1.00  0.00     0.006 C 
ENDROOT
BRANCH   1   2
ATOM      2  C   UNL     1     -34.558 -54.064  28.417  1.00  0.00     0.053 C 
BRANCH   2   3
ATOM      3  C   UNL     1     -35.501 -55.176  28.751  1.00  0.00     0.041 C 
ATOM      4  O   UNL     1     -35.145 -56.375  28.599  1.00  0.00    -0.550 OA
ATOM      5  O   UNL     1     -36.755 -54.892  29.278  1.00  0.00    -0.550 OA
ENDBRANCH   2   3
ENDBRANCH   1   2
BRANCH   1   6
ATOM      6  C   UNL     1     -33.710 -54.041  30.827  1.00  0.00     0.000 C 
BRANCH   6   7
ATOM      7  C   UNL     1     -32.891 -52.997  31.600  1.00  0.00    -0.000 C 
BRANCH   7   8
ATOM      8  C   UNL     1     -33.030 -53.202  33.113  1.00  0.00    -0.003 C 
ATOM      9  C   UNL     1     -31.757 -53.795  33.709  1.00  0.00     0.004 C 
ENDBRANCH   7   8
ENDBRANCH   6   7
ENDBRANCH   1   6
TORSDOF 5
ENDMDL
MODEL 2
REMARK VINA RESULT:    -3.555      2.565      5.154
REMARK INTER + INTRA:          -4.739
REMARK INTER:                  -4.583
REMARK INTRA:                  -0.156
REMARK UNBOUND:                -0.145
REMARK SMILES CCCCCCC(=O)[O-]
REMARK SMILES IDX 5 1 6 2 7 3 8 4 9 5 4 6 3 7 2 8 1 9
REMARK H PARENT
REMARK Flexibility Score: inf
ROOT
ATOM      1  C   UNL     1     -35.187 -52.615  28.617  1.00  0.00     0.006 C 
ENDROOT
BRANCH   1   2
ATOM      2  C   UNL     1     -34.863 -53.715  29.635  1.00  0.00     0.053 C 
BRANCH   2   3
ATOM      3  C   UNL     1     -35.763 -54.893  29.435  1.00  0.00     0.041 C 
ATOM      4  O   UNL     1     -37.012 -54.758  29.525  1.00  0.00    -0.550 OA
ATOM      5  O   UNL     1     -35.227 -56.130  29.099  1.00  0.00    -0.550 OA
ENDBRANCH   2   3
ENDBRANCH   1   2
BRANCH   1   6
ATOM      6  C   UNL     1     -34.864 -53.032  27.172  1.00  0.00     0.000 C 
BRANCH   6   7
ATOM      7  C   UNL     1     -33.989 -52.004  26.441  1.00  0.00    -0.000 C 
BRANCH   7   8
ATOM      8  C   UNL     1     -34.148 -52.131  24.922  1.00  0.00    -0.003 C 
ATOM      9  C   UNL     1     -34.872 -50.919  24.340  1.00  0.00     0.004 C 
ENDBRANCH   7   8
ENDBRANCH   6   7
ENDBRANCH   1   6
TORSDOF 5
ENDMDL
MODEL 3
REMARK VINA RESULT:    -3.471      0.358      1.118
REMARK INTER + INTRA:          -4.631
REMARK INTER:                  -4.489
REMARK INTRA:                  -0.141
REMARK UNBOUND:                -0.145
REMARK SMILES CCCCCCC(=O)[O-]
REMARK SMILES IDX 5 1 6 2 7 3 8 4 9 5 4 6 3 7 2 8 1 9
REMARK H PARENT
REMARK Flexibility Score: inf
ROOT
ATOM      1  C   UNL     1     -33.341 -54.147  29.340  1.00  0.00     0.006 C 
ENDROOT
BRANCH   1   2
ATOM      2  C   UNL     1     -34.456 -54.037  28.292  1.00  0.00     0.053 C 
BRANCH   2   3
ATOM      3  C   UNL     1     -35.512 -55.067  28.545  1.00  0.00     0.041 C 
ATOM      4  O   UNL     1     -36.716 -54.720  28.671  1.00  0.00    -0.550 OA
ATOM      5  O   UNL     1     -35.174 -56.413  28.592  1.00  0.00    -0.550 OA
ENDBRANCH   2   3
ENDBRANCH   1   2
BRANCH   1   6
ATOM      6  C   UNL     1     -33.849 -53.917  30.772  1.00  0.00     0.000 C 
BRANCH   6   7
ATOM      7  C   UNL     1     -32.890 -53.062  31.612  1.00  0.00    -0.000 C 
BRANCH   7   8
ATOM      8  C   UNL     1     -33.018 -53.396  33.102  1.00  0.00    -0.003 C 
ATOM      9  C   UNL     1     -31.742 -53.041  33.860  1.00  0.00     0.004 C 
ENDBRANCH   7   8
ENDBRANCH   6   7
ENDBRANCH   1   6
TORSDOF 5
ENDMDL
MODEL 4
REMARK VINA RESULT:    -3.416      0.892      1.798
REMARK INTER + INTRA:          -4.559
REMARK INTER:                  -4.286
REMARK INTRA:                  -0.273
REMARK UNBOUND:                -0.145
REMARK SMILES CCCCCCC(=O)[O-]
REMARK SMILES IDX 5 1 6 2 7 3 8 4 9 5 4 6 3 7 2 8 1 9
REMARK H PARENT
REMARK Flexibility Score: inf
ROOT
ATOM      1  C   UNL     1     -34.834 -52.728  28.463  1.00  0.00     0.006 C 
ENDROOT
BRANCH   1   2
ATOM      2  C   UNL     1     -35.569 -53.900  27.801  1.00  0.00     0.053 C 
BRANCH   2   3
ATOM      3  C   UNL     1     -35.923 -54.936  28.821  1.00  0.00     0.041 C 
ATOM      4  O   UNL     1     -36.866 -54.731  29.631  1.00  0.00    -0.550 OA
ATOM      5  O   UNL     1     -35.247 -56.149  28.845  1.00  0.00    -0.550 OA
ENDBRANCH   2   3
ENDBRANCH   1   2
BRANCH   1   6
ATOM      6  C   UNL     1     -33.443 -53.122  28.988  1.00  0.00     0.000 C 
BRANCH   6   7
ATOM      7  C   UNL     1     -33.189 -52.628  30.419  1.00  0.00    -0.000 C 
BRANCH   7   8
ATOM      8  C   UNL     1     -33.472 -53.736  31.439  1.00  0.00    -0.003 C 
ATOM      9  C   UNL     1     -33.008 -53.333  32.836  1.00  0.00     0.004 C 
ENDBRANCH   7   8
ENDBRANCH   6   7
ENDBRANCH   1   6
TORSDOF 5
ENDMDL
MODEL 5
REMARK VINA RESULT:    -3.385      2.144      4.106
REMARK INTER + INTRA:          -4.520
REMARK INTER:                  -4.245
REMARK INTRA:                  -0.274
REMARK UNBOUND:                -0.145
REMARK SMILES CCCCCCC(=O)[O-]
REMARK SMILES IDX 5 1 6 2 7 3 8 4 9 5 4 6 3 7 2 8 1 9
REMARK H PARENT
REMARK Flexibility Score: inf
ROOT
ATOM      1  C   UNL     1     -34.005 -53.388  29.863  1.00  0.00     0.006 C 
ENDROOT
BRANCH   1   2
ATOM      2  C   UNL     1     -34.531 -54.769  30.273  1.00  0.00     0.053 C 
BRANCH   2   3
ATOM      3  C   UNL     1     -35.469 -55.299  29.236  1.00  0.00     0.041 C 
ATOM      4  O   UNL     1     -35.163 -56.322  28.569  1.00  0.00    -0.550 OA
ATOM      5  O   UNL     1     -36.705 -54.695  29.040  1.00  0.00    -0.550 OA
ENDBRANCH   2   3
ENDBRANCH   1   2
BRANCH   1   6
ATOM      6  C   UNL     1     -33.085 -53.446  28.632  1.00  0.00     0.000 C 
BRANCH   6   7
ATOM      7  C   UNL     1     -33.372 -52.323  27.626  1.00  0.00    -0.000 C 
BRANCH   7   8
ATOM      8  C   UNL     1     -34.502 -52.720  26.669  1.00  0.00    -0.003 C 
ATOM      9  C   UNL     1     -34.293 -52.111  25.285  1.00  0.00     0.004 C 
ENDBRANCH   7   8
ENDBRANCH   6   7
ENDBRANCH   1   6
TORSDOF 5
ENDMDL
MODEL 6
REMARK VINA RESULT:    -3.260      8.855     10.024
REMARK INTER + INTRA:          -4.358
REMARK INTER:                  -4.150
REMARK INTRA:                  -0.208
REMARK UNBOUND:                -0.145
REMARK SMILES CCCCCCC(=O)[O-]
REMARK SMILES IDX 5 1 6 2 7 3 8 4 9 5 4 6 3 7 2 8 1 9
REMARK H PARENT
REMARK Flexibility Score: inf
ROOT
ATOM      1  C   UNL     1     -26.853 -52.049  32.482  1.00  0.00     0.006 C 
ENDROOT
BRANCH   1   2
ATOM      2  C   UNL     1     -26.220 -51.722  33.840  1.00  0.00     0.053 C 
BRANCH   2   3
ATOM      3  C   UNL     1     -24.863 -51.119  33.651  1.00  0.00     0.041 C 
ATOM      4  O   UNL     1     -24.510 -50.699  32.517  1.00  0.00    -0.550 OA
ATOM      5  O   UNL     1     -24.008 -50.974  34.736  1.00  0.00    -0.550 OA
ENDBRANCH   2   3
ENDBRANCH   1   2
BRANCH   1   6
ATOM      6  C   UNL     1     -26.830 -53.554  32.165  1.00  0.00     0.000 C 
BRANCH   6   7
ATOM      7  C   UNL     1     -25.660 -53.949  31.253  1.00  0.00    -0.000 C 
BRANCH   7   8
ATOM      8  C   UNL     1     -25.967 -53.608  29.790  1.00  0.00    -0.003 C 
ATOM      9  C   UNL     1     -25.928 -54.856  28.912  1.00  0.00     0.004 C 
ENDBRANCH   7   8
ENDBRANCH   6   7
ENDBRANCH   1   6
TORSDOF 5
ENDMDL
MODEL 7
REMARK VINA RESULT:    -3.242     10.510     11.180
REMARK INTER + INTRA:          -4.334
REMARK INTER:                  -4.039
REMARK INTRA:                  -0.295
REMARK UNBOUND:                -0.145
REMARK SMILES CCCCCCC(=O)[O-]
REMARK SMILES IDX 5 1 6 2 7 3 8 4 9 5 4 6 3 7 2 8 1 9
REMARK H PARENT
REMARK Flexibility Score: inf
ROOT
ATOM      1  C   UNL     1     -33.796 -45.622  25.833  1.00  0.00     0.006 C 
ENDROOT
BRANCH   1   2
ATOM      2  C   UNL     1     -33.535 -44.149  25.492  1.00  0.00     0.053 C 
BRANCH   2   3
ATOM      3  C   UNL     1     -33.248 -43.995  24.032  1.00  0.00     0.041 C 
ATOM      4  O   UNL     1     -33.164 -45.012  23.293  1.00  0.00    -0.550 OA
ATOM      5  O   UNL     1     -33.122 -42.728  23.477  1.00  0.00    -0.550 OA
ENDBRANCH   2   3
ENDBRANCH   1   2
BRANCH   1   6
ATOM      6  C   UNL     1     -35.283 -45.916  26.088  1.00  0.00     0.000 C 
BRANCH   6   7
ATOM      7  C   UNL     1     -35.994 -44.775  26.830  1.00  0.00    -0.000 C 
BRANCH   7   8
ATOM      8  C   UNL     1     -35.984 -45.015  28.344  1.00  0.00    -0.003 C 
ATOM      9  C   UNL     1     -35.433 -43.804  29.091  1.00  0.00     0.004 C 
ENDBRANCH   7   8
ENDBRANCH   6   7
ENDBRANCH   1   6
TORSDOF 5
ENDMDL
MODEL 8
REMARK VINA RESULT:    -3.197      8.747      9.422
REMARK INTER + INTRA:          -4.277
REMARK INTER:                  -4.103
REMARK INTRA:                  -0.174
REMARK UNBOUND:                -0.145
REMARK SMILES CCCCCCC(=O)[O-]
REMARK SMILES IDX 5 1 6 2 7 3 8 4 9 5 4 6 3 7 2 8 1 9
REMARK H PARENT
REMARK Flexibility Score: inf
ROOT
ATOM      1  C   UNL     1     -35.386 -44.039  31.039  1.00  0.00     0.006 C 
ENDROOT
BRANCH   1   2
ATOM      2  C   UNL     1     -34.969 -44.278  29.582  1.00  0.00     0.053 C 
BRANCH   2   3
ATOM      3  C   UNL     1     -36.123 -44.806  28.789  1.00  0.00     0.041 C 
ATOM      4  O   UNL     1     -37.101 -45.341  29.375  1.00  0.00    -0.550 OA
ATOM      5  O   UNL     1     -36.143 -44.662  27.408  1.00  0.00    -0.550 OA
ENDBRANCH   2   3
ENDBRANCH   1   2
BRANCH   1   6
ATOM      6  C   UNL     1     -34.642 -44.954  32.025  1.00  0.00     0.000 C 
BRANCH   6   7
ATOM      7  C   UNL     1     -35.411 -46.248  32.328  1.00  0.00    -0.000 C 
BRANCH   7   8
ATOM      8  C   UNL     1     -35.221 -46.669  33.789  1.00  0.00    -0.003 C 
ATOM      9  C   UNL     1     -36.498 -47.281  34.358  1.00  0.00     0.004 C 
ENDBRANCH   7   8
ENDBRANCH   6   7
ENDBRANCH   1   6
TORSDOF 5
ENDMDL
MODEL 9
REMARK VINA RESULT:    -3.185      8.492      9.813
REMARK INTER + INTRA:          -4.261
REMARK INTER:                  -3.833
REMARK INTRA:                  -0.428
REMARK UNBOUND:                -0.145
REMARK SMILES CCCCCCC(=O)[O-]
REMARK SMILES IDX 5 1 6 2 7 3 8 4 9 5 4 6 3 7 2 8 1 9
REMARK H PARENT
REMARK Flexibility Score: inf
ROOT
ATOM      1  C   UNL     1     -25.303 -51.335  30.675  1.00  0.00     0.006 C 
ENDROOT
BRANCH   1   2
ATOM      2  C   UNL     1     -24.449 -50.485  31.623  1.00  0.00     0.053 C 
BRANCH   2   3
ATOM      3  C   UNL     1     -25.024 -50.507  33.005  1.00  0.00     0.041 C 
ATOM      4  O   UNL     1     -24.377 -51.029  33.951  1.00  0.00    -0.550 OA
ATOM      5  O   UNL     1     -26.250 -49.906  33.258  1.00  0.00    -0.550 OA
ENDBRANCH   2   3
ENDBRANCH   1   2
BRANCH   1   6
ATOM      6  C   UNL     1     -24.763 -52.766  30.513  1.00  0.00     0.000 C 
BRANCH   6   7
ATOM      7  C   UNL     1     -25.622 -53.809  31.242  1.00  0.00    -0.000 C 
BRANCH   7   8
ATOM      8  C   UNL     1     -27.022 -53.258  31.535  1.00  0.00    -0.003 C 
ATOM      9  C   UNL     1     -27.399 -53.460  33.000  1.00  0.00     0.004 C 
ENDBRANCH   7   8
ENDBRANCH   6   7
ENDBRANCH   1   6
TORSDOF 5
ENDMDL
