MODEL 1
REMARK VINA RESULT:     1.743      0.000      0.000
REMARK INTER + INTRA:           1.920
REMARK INTER:                   2.100
REMARK INTRA:                  -0.180
REMARK UNBOUND:                -0.180
REMARK SMILES O=c1c(O)c(-c2ccc(O)c(O)c2)oc2cc(O)cc(O)c12
REMARK SMILES IDX 5 1 3 2 2 3 1 4 22 5 20 6 19 7 17 8 16 9 15 10 14 11 6 12
REMARK SMILES IDX 7 13 8 14 9 15 13 16 11 17 10 18 12 20 4 22 21 24 18 26
REMARK H PARENT 10 19 12 21 4 23 21 25 18 27
REMARK Flexibility Score: inf
ROOT
ATOM      1  C   UNL     1     -21.707 -15.785 -13.941  1.00  0.00     0.180 A 
ATOM      2  C   UNL     1     -22.345 -15.049 -14.952  1.00  0.00     0.208 A 
ATOM      3  C   UNL     1     -23.598 -15.477 -15.420  1.00  0.00     0.238 A 
ATOM      4  O   UNL     1     -24.189 -14.783 -16.287  1.00  0.00    -0.285 OA
ATOM      5  C   UNL     1     -24.188 -16.646 -14.883  1.00  0.00     0.111 A 
ATOM      6  C   UNL     1     -25.435 -17.195 -15.311  1.00  0.00     0.134 A 
ATOM      7  C   UNL     1     -25.984 -18.280 -14.619  1.00  0.00     0.093 A 
ATOM      8  C   UNL     1     -25.302 -18.878 -13.556  1.00  0.00     0.123 A 
ATOM      9  C   UNL     1     -24.058 -18.387 -13.170  1.00  0.00     0.094 A 
ATOM     10  C   UNL     1     -23.500 -17.282 -13.817  1.00  0.00     0.146 A 
ATOM     11  O   UNL     1     -22.316 -16.840 -13.411  1.00  0.00    -0.452 OA
ENDROOT
BRANCH   1  12
ATOM     12  C   UNL     1     -20.375 -15.410 -13.413  1.00  0.00     0.025 A 
ATOM     13  C   UNL     1     -20.184 -14.221 -12.687  1.00  0.00     0.016 A 
ATOM     14  C   UNL     1     -18.913 -13.875 -12.219  1.00  0.00     0.051 A 
ATOM     15  C   UNL     1     -17.814 -14.704 -12.481  1.00  0.00     0.157 A 
ATOM     16  C   UNL     1     -19.266 -16.225 -13.691  1.00  0.00     0.062 A 
ATOM     17  C   UNL     1     -17.992 -15.882 -13.223  1.00  0.00     0.158 A 
BRANCH  15  18
ATOM     18  O   UNL     1     -16.548 -14.357 -12.010  1.00  0.00    -0.504 OA
ATOM     19  H   UNL     1     -16.158 -13.435 -12.166  1.00  0.00     0.293 HD
ENDBRANCH  15  18
BRANCH  17  20
ATOM     20  O   UNL     1     -16.917 -16.724 -13.507  1.00  0.00    -0.504 OA
ATOM     21  H   UNL     1     -16.843 -17.654 -13.113  1.00  0.00     0.293 HD
ENDBRANCH  17  20
ENDBRANCH   1  12
BRANCH   2  22
ATOM     22  O   UNL     1     -21.755 -13.884 -15.454  1.00  0.00    -0.502 OA
ATOM     23  H   UNL     1     -21.970 -13.518 -16.373  1.00  0.00     0.293 HD
ENDBRANCH   2  22
BRANCH   6  24
ATOM     24  O   UNL     1     -26.153 -16.731 -16.417  1.00  0.00    -0.507 OA
ATOM     25  H   UNL     1     -26.699 -17.313 -17.033  1.00  0.00     0.293 HD
ENDBRANCH   6  24
BRANCH   8  26
ATOM     26  O   UNL     1     -25.850 -19.968 -12.884  1.00  0.00    -0.508 OA
ATOM     27  H   UNL     1     -26.658 -20.463 -13.244  1.00  0.00     0.293 HD
ENDBRANCH   8  26
TORSDOF 6
ENDMDL
