MODEL 1
REMARK VINA RESULT:    -3.967      0.000      0.000
REMARK INTER + INTRA:          -5.216
REMARK INTER:                  -5.126
REMARK INTRA:                  -0.090
REMARK UNBOUND:                -0.090
REMARK SMILES CCCCCCC=O
REMARK SMILES IDX 4 1 3 2 2 3 1 4 5 5 6 6 7 7 8 8
REMARK H PARENT
REMARK Flexibility Score: inf
ROOT
ATOM      1  C   UNL     1      27.198  45.372  -1.129  1.00  0.00     0.000 C 
ENDROOT
BRANCH   1   2
ATOM      2  C   UNL     1      28.207  45.381   0.030  1.00  0.00    -0.000 C 
BRANCH   2   3
ATOM      3  C   UNL     1      29.405  44.454  -0.224  1.00  0.00    -0.003 C 
ATOM      4  C   UNL     1      30.541  44.668   0.777  1.00  0.00     0.004 C 
ENDBRANCH   2   3
ENDBRANCH   1   2
BRANCH   1   5
ATOM      5  C   UNL     1      26.636  46.780  -1.378  1.00  0.00     0.008 C 
BRANCH   5   6
ATOM      6  C   UNL     1      25.127  46.857  -1.108  1.00  0.00     0.072 C 
BRANCH   6   7
ATOM      7  C   UNL     1      24.357  47.274  -2.327  1.00  0.00     0.224 C 
ATOM      8  O   UNL     1      24.867  47.206  -3.435  1.00  0.00    -0.303 OA
ENDBRANCH   6   7
ENDBRANCH   5   6
ENDBRANCH   1   5
TORSDOF 5
ENDMDL
MODEL 2
REMARK VINA RESULT:    -3.825      2.843      5.422
REMARK INTER + INTRA:          -5.034
REMARK INTER:                  -4.974
REMARK INTRA:                  -0.060
REMARK UNBOUND:                -0.090
REMARK SMILES CCCCCCC=O
REMARK SMILES IDX 4 1 3 2 2 3 1 4 5 5 6 6 7 7 8 8
REMARK H PARENT
REMARK Flexibility Score: inf
ROOT
ATOM      1  C   UNL     1      26.534  45.366  -1.088  1.00  0.00     0.000 C 
ENDROOT
BRANCH   1   2
ATOM      2  C   UNL     1      25.558  46.552  -1.038  1.00  0.00    -0.000 C 
BRANCH   2   3
ATOM      3  C   UNL     1      25.257  47.128  -2.429  1.00  0.00    -0.003 C 
ATOM      4  C   UNL     1      23.791  47.529  -2.599  1.00  0.00     0.004 C 
ENDBRANCH   2   3
ENDBRANCH   1   2
BRANCH   1   5
ATOM      5  C   UNL     1      27.839  45.698  -0.351  1.00  0.00     0.008 C 
BRANCH   5   6
ATOM      6  C   UNL     1      28.834  44.529  -0.381  1.00  0.00     0.072 C 
BRANCH   6   7
ATOM      7  C   UNL     1      29.976  44.735   0.571  1.00  0.00     0.224 C 
ATOM      8  O   UNL     1      31.089  44.312   0.303  1.00  0.00    -0.303 OA
ENDBRANCH   6   7
ENDBRANCH   5   6
ENDBRANCH   1   5
TORSDOF 5
ENDMDL
MODEL 3
REMARK VINA RESULT:    -3.735      3.267      5.675
REMARK INTER + INTRA:          -4.916
REMARK INTER:                  -4.865
REMARK INTRA:                  -0.051
REMARK UNBOUND:                -0.090
REMARK SMILES CCCCCCC=O
REMARK SMILES IDX 4 1 3 2 2 3 1 4 5 5 6 6 7 7 8 8
REMARK H PARENT
REMARK Flexibility Score: inf
ROOT
ATOM      1  C   UNL     1      27.718  45.185  -0.792  1.00  0.00     0.000 C 
ENDROOT
BRANCH   1   2
ATOM      2  C   UNL     1      26.957  46.518  -0.871  1.00  0.00    -0.000 C 
BRANCH   2   3
ATOM      3  C   UNL     1      25.437  46.326  -0.971  1.00  0.00    -0.003 C 
ATOM      4  C   UNL     1      24.779  47.307  -1.941  1.00  0.00     0.004 C 
ENDBRANCH   2   3
ENDBRANCH   1   2
BRANCH   1   5
ATOM      5  C   UNL     1      28.727  45.197   0.365  1.00  0.00     0.008 C 
BRANCH   5   6
ATOM      6  C   UNL     1      30.023  44.456   0.010  1.00  0.00     0.072 C 
BRANCH   6   7
ATOM      7  C   UNL     1      31.157  44.837   0.917  1.00  0.00     0.224 C 
ATOM      8  O   UNL     1      31.711  43.992   1.604  1.00  0.00    -0.303 OA
ENDBRANCH   6   7
ENDBRANCH   5   6
ENDBRANCH   1   5
TORSDOF 5
ENDMDL
MODEL 4
REMARK VINA RESULT:    -3.563     12.510     14.495
REMARK INTER + INTRA:          -4.695
REMARK INTER:                  -4.637
REMARK INTRA:                  -0.058
REMARK UNBOUND:                -0.090
REMARK SMILES CCCCCCC=O
REMARK SMILES IDX 4 1 3 2 2 3 1 4 5 5 6 6 7 7 8 8
REMARK H PARENT
REMARK Flexibility Score: inf
ROOT
ATOM      1  C   UNL     1      25.480  58.005  -9.490  1.00  0.00     0.000 C 
ENDROOT
BRANCH   1   2
ATOM      2  C   UNL     1      26.587  58.168 -10.543  1.00  0.00    -0.000 C 
BRANCH   2   3
ATOM      3  C   UNL     1      27.344  59.497 -10.403  1.00  0.00    -0.003 C 
ATOM      4  C   UNL     1      28.811  59.390 -10.822  1.00  0.00     0.004 C 
ENDBRANCH   2   3
ENDBRANCH   1   2
BRANCH   1   5
ATOM      5  C   UNL     1      25.286  56.527  -9.122  1.00  0.00     0.008 C 
BRANCH   5   6
ATOM      6  C   UNL     1      23.806  56.121  -9.118  1.00  0.00     0.072 C 
BRANCH   6   7
ATOM      7  C   UNL     1      23.589  54.788  -8.462  1.00  0.00     0.224 C 
ATOM      8  O   UNL     1      22.562  54.564  -7.841  1.00  0.00    -0.303 OA
ENDBRANCH   6   7
ENDBRANCH   5   6
ENDBRANCH   1   5
TORSDOF 5
ENDMDL
MODEL 5
REMARK VINA RESULT:    -3.408     12.652     14.598
REMARK INTER + INTRA:          -4.494
REMARK INTER:                  -4.437
REMARK INTRA:                  -0.058
REMARK UNBOUND:                -0.090
REMARK SMILES CCCCCCC=O
REMARK SMILES IDX 4 1 3 2 2 3 1 4 5 5 6 6 7 7 8 8
REMARK H PARENT
REMARK Flexibility Score: inf
ROOT
ATOM      1  C   UNL     1      24.754  57.087  -8.983  1.00  0.00     0.000 C 
ENDROOT
BRANCH   1   2
ATOM      2  C   UNL     1      24.881  55.636  -8.493  1.00  0.00    -0.000 C 
BRANCH   2   3
ATOM      3  C   UNL     1      23.631  54.798  -8.799  1.00  0.00    -0.003 C 
ATOM      4  C   UNL     1      22.778  54.533  -7.558  1.00  0.00     0.004 C 
ENDBRANCH   2   3
ENDBRANCH   1   2
BRANCH   1   5
ATOM      5  C   UNL     1      25.883  57.435  -9.964  1.00  0.00     0.008 C 
BRANCH   5   6
ATOM      6  C   UNL     1      26.248  58.925  -9.921  1.00  0.00     0.072 C 
BRANCH   6   7
ATOM      7  C   UNL     1      27.561  59.204 -10.593  1.00  0.00     0.224 C 
ATOM      8  O   UNL     1      27.895  60.351 -10.847  1.00  0.00    -0.303 OA
ENDBRANCH   6   7
ENDBRANCH   5   6
ENDBRANCH   1   5
TORSDOF 5
ENDMDL
MODEL 6
REMARK VINA RESULT:    -3.353      0.991      1.849
REMARK INTER + INTRA:          -4.423
REMARK INTER:                  -4.327
REMARK INTRA:                  -0.096
REMARK UNBOUND:                -0.090
REMARK SMILES CCCCCCC=O
REMARK SMILES IDX 4 1 3 2 2 3 1 4 5 5 6 6 7 7 8 8
REMARK H PARENT
REMARK Flexibility Score: inf
ROOT
ATOM      1  C   UNL     1      28.991  44.659  -0.538  1.00  0.00     0.000 C 
ENDROOT
BRANCH   1   2
ATOM      2  C   UNL     1      29.528  44.978   0.865  1.00  0.00    -0.000 C 
BRANCH   2   3
ATOM      3  C   UNL     1      30.961  44.468   1.079  1.00  0.00    -0.003 C 
ATOM      4  C   UNL     1      31.966  45.108   0.119  1.00  0.00     0.004 C 
ENDBRANCH   2   3
ENDBRANCH   1   2
BRANCH   1   5
ATOM      5  C   UNL     1      27.515  45.064  -0.666  1.00  0.00     0.008 C 
BRANCH   5   6
ATOM      6  C   UNL     1      27.348  46.442  -1.321  1.00  0.00     0.072 C 
BRANCH   6   7
ATOM      7  C   UNL     1      25.905  46.841  -1.435  1.00  0.00     0.224 C 
ATOM      8  O   UNL     1      25.412  47.075  -2.527  1.00  0.00    -0.303 OA
ENDBRANCH   6   7
ENDBRANCH   5   6
ENDBRANCH   1   5
TORSDOF 5
ENDMDL
MODEL 7
REMARK VINA RESULT:    -3.071     10.344     11.518
REMARK INTER + INTRA:          -4.058
REMARK INTER:                  -3.696
REMARK INTRA:                  -0.363
REMARK UNBOUND:                -0.090
REMARK SMILES CCCCCCC=O
REMARK SMILES IDX 4 1 3 2 2 3 1 4 5 5 6 6 7 7 8 8
REMARK H PARENT
REMARK Flexibility Score: inf
ROOT
ATOM      1  C   UNL     1      17.218  43.920   1.053  1.00  0.00     0.000 C 
ENDROOT
BRANCH   1   2
ATOM      2  C   UNL     1      15.708  44.180   1.170  1.00  0.00    -0.000 C 
BRANCH   2   3
ATOM      3  C   UNL     1      15.164  45.031   0.013  1.00  0.00    -0.003 C 
ATOM      4  C   UNL     1      16.233  45.370  -1.026  1.00  0.00     0.004 C 
ENDBRANCH   2   3
ENDBRANCH   1   2
BRANCH   1   5
ATOM      5  C   UNL     1      17.518  42.414   1.067  1.00  0.00     0.008 C 
BRANCH   5   6
ATOM      6  C   UNL     1      18.152  41.937  -0.247  1.00  0.00     0.072 C 
BRANCH   6   7
ATOM      7  C   UNL     1      17.190  41.142  -1.081  1.00  0.00     0.224 C 
ATOM      8  O   UNL     1      16.114  41.617  -1.408  1.00  0.00    -0.303 OA
ENDBRANCH   6   7
ENDBRANCH   5   6
ENDBRANCH   1   5
TORSDOF 5
ENDMDL
MODEL 8
REMARK VINA RESULT:    -3.055     13.422     14.460
REMARK INTER + INTRA:          -4.038
REMARK INTER:                  -3.857
REMARK INTRA:                  -0.182
REMARK UNBOUND:                -0.090
REMARK SMILES CCCCCCC=O
REMARK SMILES IDX 4 1 3 2 2 3 1 4 5 5 6 6 7 7 8 8
REMARK H PARENT
REMARK Flexibility Score: inf
ROOT
ATOM      1  C   UNL     1      31.877  59.649  -0.029  1.00  0.00     0.000 C 
ENDROOT
BRANCH   1   2
ATOM      2  C   UNL     1      31.325  60.821  -0.855  1.00  0.00    -0.000 C 
BRANCH   2   3
ATOM      3  C   UNL     1      30.198  60.395  -1.807  1.00  0.00    -0.003 C 
ATOM      4  C   UNL     1      28.871  61.090  -1.501  1.00  0.00     0.004 C 
ENDBRANCH   2   3
ENDBRANCH   1   2
BRANCH   1   5
ATOM      5  C   UNL     1      32.149  58.429  -0.921  1.00  0.00     0.008 C 
BRANCH   5   6
ATOM      6  C   UNL     1      32.285  57.135  -0.107  1.00  0.00     0.072 C 
BRANCH   6   7
ATOM      7  C   UNL     1      32.117  57.375   1.365  1.00  0.00     0.224 C 
ATOM      8  O   UNL     1      31.473  56.595   2.050  1.00  0.00    -0.303 OA
ENDBRANCH   6   7
ENDBRANCH   5   6
ENDBRANCH   1   5
TORSDOF 5
ENDMDL
MODEL 9
REMARK VINA RESULT:    -3.037     16.315     17.178
REMARK INTER + INTRA:          -4.015
REMARK INTER:                  -3.870
REMARK INTRA:                  -0.145
REMARK UNBOUND:                -0.090
REMARK SMILES CCCCCCC=O
REMARK SMILES IDX 4 1 3 2 2 3 1 4 5 5 6 6 7 7 8 8
REMARK H PARENT
REMARK Flexibility Score: inf
ROOT
ATOM      1  C   UNL     1      30.972  58.912 -11.233  1.00  0.00     0.000 C 
ENDROOT
BRANCH   1   2
ATOM      2  C   UNL     1      29.853  59.278 -10.247  1.00  0.00    -0.000 C 
BRANCH   2   3
ATOM      3  C   UNL     1      28.581  59.771 -10.954  1.00  0.00    -0.003 C 
ATOM      4  C   UNL     1      27.339  58.967 -10.566  1.00  0.00     0.004 C 
ENDBRANCH   2   3
ENDBRANCH   1   2
BRANCH   1   5
ATOM      5  C   UNL     1      30.394  58.312 -12.523  1.00  0.00     0.008 C 
BRANCH   5   6
ATOM      6  C   UNL     1      31.493  57.867 -13.498  1.00  0.00     0.072 C 
BRANCH   6   7
ATOM      7  C   UNL     1      31.400  56.404 -13.822  1.00  0.00     0.224 C 
ATOM      8  O   UNL     1      30.312  55.857 -13.907  1.00  0.00    -0.303 OA
ENDBRANCH   6   7
ENDBRANCH   5   6
ENDBRANCH   1   5
TORSDOF 5
ENDMDL
