MODEL 1
REMARK VINA RESULT:    35.807      0.000      0.000
REMARK INTER + INTRA:          42.948
REMARK INTER:                  43.134
REMARK INTRA:                  -0.186
REMARK UNBOUND:                -0.186
REMARK SMILES Oc1cc(O)c2c(c1)O[C@@H](c1ccc(O)c(O)c1)[C@@H](O)C2
REMARK SMILES IDX 21 1 19 2 10 3 9 4 7 5 8 6 2 7 3 8 4 9 6 10 20 11 11 13
REMARK SMILES IDX 18 14 12 15 16 16 13 17 14 18 17 19 15 21 5 23 1 25
REMARK H PARENT 20 12 17 20 15 22 5 24 1 26
REMARK Flexibility Score: inf
ROOT
ATOM      1  C   UNL     1      12.257  61.529  22.677  1.00  0.00     0.079 C 
ATOM      2  C   UNL     1      11.399  60.541  21.860  1.00  0.00     0.164 C 
ATOM      3  C   UNL     1      10.255  59.980  22.730  1.00  0.00     0.232 C 
ATOM      4  O   UNL     1       9.482  61.046  23.277  1.00  0.00    -0.482 OA
ATOM      5  C   UNL     1      10.069  62.226  23.747  1.00  0.00     0.131 A 
ATOM      6  C   UNL     1       9.285  63.134  24.464  1.00  0.00     0.093 A 
ATOM      7  C   UNL     1       9.847  64.316  24.957  1.00  0.00     0.122 A 
ATOM      8  C   UNL     1      11.200  64.585  24.738  1.00  0.00     0.092 A 
ATOM      9  C   UNL     1      12.000  63.688  24.021  1.00  0.00     0.126 A 
ATOM     10  C   UNL     1      11.428  62.511  23.484  1.00  0.00     0.039 A 
ENDROOT
BRANCH   2  11
ATOM     11  O   UNL     1      10.911  61.150  20.687  1.00  0.00    -0.389 OA
ATOM     12  H   UNL     1      10.779  62.116  20.873  1.00  0.00     0.211 HD
ENDBRANCH   2  11
BRANCH   3  13
ATOM     13  C   UNL     1       9.376  59.032  21.946  1.00  0.00    -0.001 A 
ATOM     14  C   UNL     1       8.263  59.528  21.246  1.00  0.00     0.057 A 
ATOM     15  C   UNL     1       9.615  57.647  21.957  1.00  0.00     0.012 A 
ATOM     16  C   UNL     1       7.417  58.662  20.544  1.00  0.00     0.157 A 
ATOM     17  C   UNL     1       8.771  56.779  21.258  1.00  0.00     0.050 A 
ATOM     18  C   UNL     1       7.673  57.281  20.548  1.00  0.00     0.157 A 
BRANCH  16  19
ATOM     19  O   UNL     1       6.328  59.192  19.853  1.00  0.00    -0.504 OA
ATOM     20  H   UNL     1       5.513  58.635  19.624  1.00  0.00     0.293 HD
ENDBRANCH  16  19
BRANCH  18  21
ATOM     21  O   UNL     1       6.835  56.413  19.849  1.00  0.00    -0.504 OA
ATOM     22  H   UNL     1       6.644  56.540  18.862  1.00  0.00     0.293 HD
ENDBRANCH  18  21
ENDBRANCH   3  13
BRANCH   9  23
ATOM     23  O   UNL     1      13.355  63.993  23.871  1.00  0.00    -0.507 OA
ATOM     24  H   UNL     1      14.000  63.415  23.349  1.00  0.00     0.293 HD
ENDBRANCH   9  23
BRANCH   7  25
ATOM     25  O   UNL     1       9.072  65.227  25.672  1.00  0.00    -0.508 OA
ATOM     26  H   UNL     1       8.062  65.236  25.597  1.00  0.00     0.293 HD
ENDBRANCH   7  25
TORSDOF 6
ENDMDL
MODEL 2
REMARK VINA RESULT:    37.628      1.497      6.739
REMARK INTER + INTRA:          45.141
REMARK INTER:                  45.149
REMARK INTRA:                  -0.008
REMARK UNBOUND:                -0.186
REMARK SMILES Oc1cc(O)c2c(c1)O[C@@H](c1ccc(O)c(O)c1)[C@@H](O)C2
REMARK SMILES IDX 21 1 19 2 10 3 9 4 7 5 8 6 2 7 3 8 4 9 6 10 20 11 11 13
REMARK SMILES IDX 18 14 12 15 16 16 13 17 14 18 17 19 15 21 5 23 1 25
REMARK H PARENT 20 12 17 20 15 22 5 24 1 26
REMARK Flexibility Score: inf
ROOT
ATOM      1  C   UNL     1      11.504  59.336  22.619  1.00  0.00     0.079 C 
ATOM      2  C   UNL     1      11.408  60.673  23.382  1.00  0.00     0.164 C 
ATOM      3  C   UNL     1      10.710  61.737  22.510  1.00  0.00     0.232 C 
ATOM      4  O   UNL     1       9.435  61.264  22.079  1.00  0.00    -0.482 OA
ATOM      5  C   UNL     1       9.226  59.937  21.688  1.00  0.00     0.131 A 
ATOM      6  C   UNL     1       8.019  59.593  21.075  1.00  0.00     0.093 A 
ATOM      7  C   UNL     1       7.787  58.278  20.661  1.00  0.00     0.122 A 
ATOM      8  C   UNL     1       8.771  57.306  20.854  1.00  0.00     0.092 A 
ATOM      9  C   UNL     1       9.987  57.632  21.466  1.00  0.00     0.126 A 
ATOM     10  C   UNL     1      10.211  58.951  21.925  1.00  0.00     0.039 A 
ENDROOT
BRANCH   2  11
ATOM     11  O   UNL     1      10.753  60.501  24.617  1.00  0.00    -0.389 OA
ATOM     12  H   UNL     1      10.520  61.398  24.970  1.00  0.00     0.211 HD
ENDBRANCH   2  11
BRANCH   3  13
ATOM     13  C   UNL     1      10.571  63.052  23.243  1.00  0.00    -0.001 A 
ATOM     14  C   UNL     1       9.572  63.205  24.220  1.00  0.00     0.057 A 
ATOM     15  C   UNL     1      11.385  64.150  22.920  1.00  0.00     0.012 A 
ATOM     16  C   UNL     1       9.405  64.425  24.884  1.00  0.00     0.157 A 
ATOM     17  C   UNL     1      11.221  65.371  23.582  1.00  0.00     0.050 A 
ATOM     18  C   UNL     1      10.234  65.513  24.565  1.00  0.00     0.157 A 
BRANCH  16  19
ATOM     19  O   UNL     1       8.409  64.537  25.853  1.00  0.00    -0.504 OA
ATOM     20  H   UNL     1       8.581  64.968  26.754  1.00  0.00     0.293 HD
ENDBRANCH  16  19
BRANCH  18  21
ATOM     21  O   UNL     1      10.074  66.731  25.225  1.00  0.00    -0.504 OA
ATOM     22  H   UNL     1      10.804  67.117  25.813  1.00  0.00     0.293 HD
ENDBRANCH  18  21
ENDBRANCH   3  13
BRANCH   9  23
ATOM     23  O   UNL     1      10.949  56.626  21.593  1.00  0.00    -0.507 OA
ATOM     24  H   UNL     1      11.507  56.291  20.820  1.00  0.00     0.293 HD
ENDBRANCH   9  23
BRANCH   7  25
ATOM     25  O   UNL     1       6.585  57.926  20.051  1.00  0.00    -0.508 OA
ATOM     26  H   UNL     1       5.974  57.223  20.451  1.00  0.00     0.293 HD
ENDBRANCH   7  25
TORSDOF 6
ENDMDL
