MODEL 1
REMARK VINA RESULT:     5.526      0.000      0.000
REMARK INTER + INTRA:           6.669
REMARK INTER:                   6.656
REMARK INTRA:                   0.013
REMARK UNBOUND:                 0.013
REMARK SMILES Oc1cc(O)c2cc(O)c(-c3ccc(O)c(O)c3)[o+]c2c1
REMARK SMILES IDX 10 1 19 2 20 3 21 4 2 5 3 6 4 7 6 8 7 9 8 10 11 11 12 12
REMARK SMILES IDX 13 13 14 14 18 15 16 16 15 17 17 19 9 21 1 23 5 25
REMARK H PARENT 15 18 17 20 9 22 1 24 5 26
REMARK Flexibility Score: inf
ROOT
ATOM      1  C   UNL     1       0.817  20.458  11.983  1.00  0.00     0.402 A 
ATOM      2  O   UNL     1       0.949  20.555  13.305  1.00  0.00    -0.202 OA
ATOM      3  C   UNL     1      -0.080  20.736  14.128  1.00  0.00     0.368 A 
ATOM      4  C   UNL     1       0.143  20.834  15.505  1.00  0.00     0.162 A 
ATOM      5  C   UNL     1      -0.929  21.027  16.380  1.00  0.00     0.128 A 
ATOM      6  C   UNL     1      -2.234  21.124  15.877  1.00  0.00     0.093 A 
ATOM      7  C   UNL     1      -2.473  21.027  14.498  1.00  0.00     0.136 A 
ATOM      8  C   UNL     1      -1.394  20.832  13.618  1.00  0.00     0.125 A 
ATOM      9  C   UNL     1      -1.573  20.721  12.234  1.00  0.00     0.078 A 
ATOM     10  C   UNL     1      -0.467  20.521  11.404  1.00  0.00     0.223 A 
ENDROOT
BRANCH   1  11
ATOM     11  C   UNL     1       2.038  20.267  11.170  1.00  0.00     0.087 A 
ATOM     12  C   UNL     1       3.134  21.125  11.359  1.00  0.00     0.022 A 
ATOM     13  C   UNL     1       4.291  20.975  10.589  1.00  0.00     0.051 A 
ATOM     14  C   UNL     1       4.365  19.981   9.609  1.00  0.00     0.157 A 
ATOM     15  C   UNL     1       2.108  19.280  10.170  1.00  0.00     0.068 A 
ATOM     16  C   UNL     1       3.267  19.131   9.394  1.00  0.00     0.158 A 
BRANCH  14  17
ATOM     17  O   UNL     1       5.533  19.855   8.858  1.00  0.00    -0.504 OA
ATOM     18  H   UNL     1       5.520  19.816   7.846  1.00  0.00     0.293 HD
ENDBRANCH  14  17
BRANCH  16  19
ATOM     19  O   UNL     1       3.329  18.146   8.410  1.00  0.00    -0.504 OA
ATOM     20  H   UNL     1       4.152  17.570   8.285  1.00  0.00     0.293 HD
ENDBRANCH  16  19
ENDBRANCH   1  11
BRANCH  10  21
ATOM     21  O   UNL     1      -0.645  20.359  10.030  1.00  0.00    -0.500 OA
ATOM     22  H   UNL     1      -0.542  19.456   9.583  1.00  0.00     0.294 HD
ENDBRANCH  10  21
BRANCH   5  23
ATOM     23  O   UNL     1      -0.688  21.122  17.749  1.00  0.00    -0.507 OA
ATOM     24  H   UNL     1      -0.222  21.927  18.151  1.00  0.00     0.293 HD
ENDBRANCH   5  23
BRANCH   7  25
ATOM     25  O   UNL     1      -3.777  21.123  14.009  1.00  0.00    -0.507 OA
ATOM     26  H   UNL     1      -4.159  20.430  13.376  1.00  0.00     0.293 HD
ENDBRANCH   7  25
TORSDOF 6
ENDMDL
MODEL 2
REMARK VINA RESULT:     6.387      1.154      1.613
REMARK INTER + INTRA:           7.706
REMARK INTER:                   7.221
REMARK INTRA:                   0.485
REMARK UNBOUND:                 0.013
REMARK SMILES Oc1cc(O)c2cc(O)c(-c3ccc(O)c(O)c3)[o+]c2c1
REMARK SMILES IDX 10 1 19 2 20 3 21 4 2 5 3 6 4 7 6 8 7 9 8 10 11 11 12 12
REMARK SMILES IDX 13 13 14 14 18 15 16 16 15 17 17 19 9 21 1 23 5 25
REMARK H PARENT 15 18 17 20 9 22 1 24 5 26
REMARK Flexibility Score: inf
ROOT
ATOM      1  C   UNL     1       0.584  21.106  12.214  1.00  0.00     0.402 A 
ATOM      2  O   UNL     1       0.774  21.111  13.532  1.00  0.00    -0.202 OA
ATOM      3  C   UNL     1      -0.223  21.104  14.411  1.00  0.00     0.368 A 
ATOM      4  C   UNL     1       0.060  21.116  15.781  1.00  0.00     0.162 A 
ATOM      5  C   UNL     1      -0.979  21.112  16.715  1.00  0.00     0.128 A 
ATOM      6  C   UNL     1      -2.311  21.095  16.280  1.00  0.00     0.093 A 
ATOM      7  C   UNL     1      -2.611  21.083  14.910  1.00  0.00     0.136 A 
ATOM      8  C   UNL     1      -1.565  21.087  13.970  1.00  0.00     0.125 A 
ATOM      9  C   UNL     1      -1.804  21.067  12.590  1.00  0.00     0.078 A 
ATOM     10  C   UNL     1      -0.728  21.065  11.699  1.00  0.00     0.223 A 
ENDROOT
BRANCH   1  11
ATOM     11  C   UNL     1       1.774  21.125  11.335  1.00  0.00     0.087 A 
ATOM     12  C   UNL     1       1.603  21.091   9.942  1.00  0.00     0.022 A 
ATOM     13  C   UNL     1       2.713  21.089   9.092  1.00  0.00     0.051 A 
ATOM     14  C   UNL     1       4.007  21.103   9.620  1.00  0.00     0.157 A 
ATOM     15  C   UNL     1       3.077  21.119  11.864  1.00  0.00     0.068 A 
ATOM     16  C   UNL     1       4.192  21.113  11.012  1.00  0.00     0.158 A 
BRANCH  14  17
ATOM     17  O   UNL     1       5.094  21.102   8.747  1.00  0.00    -0.504 OA
ATOM     18  H   UNL     1       5.849  21.773   8.826  1.00  0.00     0.293 HD
ENDBRANCH  14  17
BRANCH  16  19
ATOM     19  O   UNL     1       5.480  21.114  11.545  1.00  0.00    -0.504 OA
ATOM     20  H   UNL     1       5.911  21.961  11.895  1.00  0.00     0.293 HD
ENDBRANCH  16  19
ENDBRANCH   1  11
BRANCH  10  21
ATOM     21  O   UNL     1      -0.960  20.994  10.325  1.00  0.00    -0.500 OA
ATOM     22  H   UNL     1      -1.730  21.485   9.889  1.00  0.00     0.294 HD
ENDBRANCH  10  21
BRANCH   5  23
ATOM     23  O   UNL     1      -0.677  21.124  18.076  1.00  0.00    -0.507 OA
ATOM     24  H   UNL     1      -1.214  20.581  18.743  1.00  0.00     0.293 HD
ENDBRANCH   5  23
BRANCH   7  25
ATOM     25  O   UNL     1      -3.941  21.065  14.488  1.00  0.00    -0.507 OA
ATOM     26  H   UNL     1      -4.510  21.903  14.490  1.00  0.00     0.293 HD
ENDBRANCH   7  25
TORSDOF 6
ENDMDL
