MODEL 1
REMARK VINA RESULT:    -4.812      0.000      0.000
REMARK INTER + INTRA:          -5.834
REMARK INTER:                  -5.656
REMARK INTRA:                  -0.177
REMARK UNBOUND:                -0.177
REMARK SMILES O=C([O-])CCC(=O)[O-]
REMARK SMILES IDX 4 1 2 2 1 3 3 4 5 5 6 6 7 7 8 8
REMARK H PARENT
REMARK Flexibility Score: inf
ROOT
ATOM      1  C   UNL     1      24.682  23.246  11.834  1.00  0.00     0.059 C 
ENDROOT
BRANCH   1   2
ATOM      2  C   UNL     1      25.394  22.790  10.597  1.00  0.00     0.042 C 
ATOM      3  O   UNL     1      24.777  22.718   9.501  1.00  0.00    -0.550 OA
ATOM      4  O   UNL     1      26.726  22.404  10.664  1.00  0.00    -0.550 OA
ENDBRANCH   1   2
BRANCH   1   5
ATOM      5  C   UNL     1      23.623  22.234  12.281  1.00  0.00     0.059 C 
BRANCH   5   6
ATOM      6  C   UNL     1      24.244  20.944  12.720  1.00  0.00     0.042 C 
ATOM      7  O   UNL     1      25.134  20.938  13.610  1.00  0.00    -0.550 OA
ATOM      8  O   UNL     1      23.869  19.750  12.115  1.00  0.00    -0.550 OA
ENDBRANCH   5   6
ENDBRANCH   1   5
TORSDOF 3
ENDMDL
MODEL 2
REMARK VINA RESULT:    -4.798      0.162      3.526
REMARK INTER + INTRA:          -5.817
REMARK INTER:                  -5.649
REMARK INTRA:                  -0.169
REMARK UNBOUND:                -0.177
REMARK SMILES O=C([O-])CCC(=O)[O-]
REMARK SMILES IDX 4 1 2 2 1 3 3 4 5 5 6 6 7 7 8 8
REMARK H PARENT
REMARK Flexibility Score: inf
ROOT
ATOM      1  C   UNL     1      23.547  22.018  12.236  1.00  0.00     0.059 C 
ENDROOT
BRANCH   1   2
ATOM      2  C   UNL     1      24.205  20.759  12.713  1.00  0.00     0.042 C 
ATOM      3  O   UNL     1      25.085  20.806  13.612  1.00  0.00    -0.550 OA
ATOM      4  O   UNL     1      23.874  19.541  12.135  1.00  0.00    -0.550 OA
ENDBRANCH   1   2
BRANCH   1   5
ATOM      5  C   UNL     1      24.578  23.097  11.891  1.00  0.00     0.059 C 
BRANCH   5   6
ATOM      6  C   UNL     1      25.353  22.744  10.658  1.00  0.00     0.042 C 
ATOM      7  O   UNL     1      24.781  22.710   9.537  1.00  0.00    -0.550 OA
ATOM      8  O   UNL     1      26.699  22.412  10.754  1.00  0.00    -0.550 OA
ENDBRANCH   5   6
ENDBRANCH   1   5
TORSDOF 3
ENDMDL
MODEL 3
REMARK VINA RESULT:    -4.591      3.282      4.746
REMARK INTER + INTRA:          -5.574
REMARK INTER:                  -5.525
REMARK INTRA:                  -0.049
REMARK UNBOUND:                -0.177
REMARK SMILES O=C([O-])CCC(=O)[O-]
REMARK SMILES IDX 4 1 2 2 1 3 3 4 5 5 6 6 7 7 8 8
REMARK H PARENT
REMARK Flexibility Score: inf
ROOT
ATOM      1  C   UNL     1      23.249  19.809  14.828  1.00  0.00     0.059 C 
ENDROOT
BRANCH   1   2
ATOM      2  C   UNL     1      24.122  19.906  13.613  1.00  0.00     0.042 C 
ATOM      3  O   UNL     1      25.098  20.701  13.596  1.00  0.00    -0.550 OA
ATOM      4  O   UNL     1      23.831  19.148  12.486  1.00  0.00    -0.550 OA
ENDBRANCH   1   2
BRANCH   1   5
ATOM      5  C   UNL     1      23.253  21.113  15.630  1.00  0.00     0.059 C 
BRANCH   5   6
ATOM      6  C   UNL     1      23.009  20.864  17.087  1.00  0.00     0.042 C 
ATOM      7  O   UNL     1      22.868  19.688  17.515  1.00  0.00    -0.550 OA
ATOM      8  O   UNL     1      22.896  21.934  17.967  1.00  0.00    -0.550 OA
ENDBRANCH   5   6
ENDBRANCH   1   5
TORSDOF 3
ENDMDL
MODEL 4
REMARK VINA RESULT:    -4.586      3.304      5.413
REMARK INTER + INTRA:          -5.567
REMARK INTER:                  -5.518
REMARK INTRA:                  -0.049
REMARK UNBOUND:                -0.177
REMARK SMILES O=C([O-])CCC(=O)[O-]
REMARK SMILES IDX 4 1 2 2 1 3 3 4 5 5 6 6 7 7 8 8
REMARK H PARENT
REMARK Flexibility Score: inf
ROOT
ATOM      1  C   UNL     1      23.241  21.099  15.648  1.00  0.00     0.059 C 
ENDROOT
BRANCH   1   2
ATOM      2  C   UNL     1      23.004  20.868  17.109  1.00  0.00     0.042 C 
ATOM      3  O   UNL     1      22.859  19.698  17.551  1.00  0.00    -0.550 OA
ATOM      4  O   UNL     1      22.902  21.949  17.975  1.00  0.00    -0.550 OA
ENDBRANCH   1   2
BRANCH   1   5
ATOM      5  C   UNL     1      23.243  19.783  14.862  1.00  0.00     0.059 C 
BRANCH   5   6
ATOM      6  C   UNL     1      24.113  19.870  13.646  1.00  0.00     0.042 C 
ATOM      7  O   UNL     1      25.084  20.671  13.616  1.00  0.00    -0.550 OA
ATOM      8  O   UNL     1      23.827  19.094  12.530  1.00  0.00    -0.550 OA
ENDBRANCH   5   6
ENDBRANCH   1   5
TORSDOF 3
ENDMDL
MODEL 5
REMARK VINA RESULT:    -4.500      1.180      1.903
REMARK INTER + INTRA:          -5.467
REMARK INTER:                  -5.392
REMARK INTRA:                  -0.075
REMARK UNBOUND:                -0.177
REMARK SMILES O=C([O-])CCC(=O)[O-]
REMARK SMILES IDX 4 1 2 2 1 3 3 4 5 5 6 6 7 7 8 8
REMARK H PARENT
REMARK Flexibility Score: inf
ROOT
ATOM      1  C   UNL     1      23.981  22.094  11.979  1.00  0.00     0.059 C 
ENDROOT
BRANCH   1   2
ATOM      2  C   UNL     1      25.162  22.431  11.121  1.00  0.00     0.042 C 
ATOM      3  O   UNL     1      26.303  22.569  11.638  1.00  0.00    -0.550 OA
ATOM      4  O   UNL     1      24.995  22.634   9.758  1.00  0.00    -0.550 OA
ENDBRANCH   1   2
BRANCH   1   5
ATOM      5  C   UNL     1      24.377  21.195  13.155  1.00  0.00     0.059 C 
BRANCH   5   6
ATOM      6  C   UNL     1      23.724  19.850  13.064  1.00  0.00     0.042 C 
ATOM      7  O   UNL     1      23.990  19.080  12.104  1.00  0.00    -0.550 OA
ATOM      8  O   UNL     1      22.791  19.464  14.017  1.00  0.00    -0.550 OA
ENDBRANCH   5   6
ENDBRANCH   1   5
TORSDOF 3
ENDMDL
MODEL 6
REMARK VINA RESULT:    -4.131      1.570      3.899
REMARK INTER + INTRA:          -5.033
REMARK INTER:                  -5.000
REMARK INTRA:                  -0.033
REMARK UNBOUND:                -0.177
REMARK SMILES O=C([O-])CCC(=O)[O-]
REMARK SMILES IDX 4 1 2 2 1 3 3 4 5 5 6 6 7 7 8 8
REMARK H PARENT
REMARK Flexibility Score: inf
ROOT
ATOM      1  C   UNL     1      24.463  21.813  12.903  1.00  0.00     0.059 C 
ENDROOT
BRANCH   1   2
ATOM      2  C   UNL     1      23.413  21.942  13.964  1.00  0.00     0.042 C 
ATOM      3  O   UNL     1      22.711  22.985  14.039  1.00  0.00    -0.550 OA
ATOM      4  O   UNL     1      23.239  20.927  14.896  1.00  0.00    -0.550 OA
ENDBRANCH   1   2
BRANCH   1   5
ATOM      5  C   UNL     1      24.302  22.883  11.818  1.00  0.00     0.059 C 
BRANCH   5   6
ATOM      6  C   UNL     1      25.269  22.676  10.693  1.00  0.00     0.042 C 
ATOM      7  O   UNL     1      24.871  22.712   9.499  1.00  0.00    -0.550 OA
ATOM      8  O   UNL     1      26.604  22.403  10.965  1.00  0.00    -0.550 OA
ENDBRANCH   5   6
ENDBRANCH   1   5
TORSDOF 3
ENDMDL
MODEL 7
REMARK VINA RESULT:    -3.928      2.211      3.720
REMARK INTER + INTRA:          -4.794
REMARK INTER:                  -4.687
REMARK INTRA:                  -0.107
REMARK UNBOUND:                -0.177
REMARK SMILES O=C([O-])CCC(=O)[O-]
REMARK SMILES IDX 4 1 2 2 1 3 3 4 5 5 6 6 7 7 8 8
REMARK H PARENT
REMARK Flexibility Score: inf
ROOT
ATOM      1  C   UNL     1      23.954  22.959  11.628  1.00  0.00     0.059 C 
ENDROOT
BRANCH   1   2
ATOM      2  C   UNL     1      25.192  22.732  10.816  1.00  0.00     0.042 C 
ATOM      3  O   UNL     1      25.127  22.689   9.559  1.00  0.00    -0.550 OA
ATOM      4  O   UNL     1      26.410  22.526  11.450  1.00  0.00    -0.550 OA
ENDBRANCH   1   2
BRANCH   1   5
ATOM      5  C   UNL     1      23.974  24.328  12.316  1.00  0.00     0.059 C 
BRANCH   5   6
ATOM      6  C   UNL     1      23.791  25.442  11.331  1.00  0.00     0.042 C 
ATOM      7  O   UNL     1      23.038  25.290  10.334  1.00  0.00    -0.550 OA
ATOM      8  O   UNL     1      24.485  26.635  11.493  1.00  0.00    -0.550 OA
ENDBRANCH   5   6
ENDBRANCH   1   5
TORSDOF 3
ENDMDL
MODEL 8
REMARK VINA RESULT:    -3.879      2.174      3.348
REMARK INTER + INTRA:          -4.737
REMARK INTER:                  -4.647
REMARK INTRA:                  -0.090
REMARK UNBOUND:                -0.177
REMARK SMILES O=C([O-])CCC(=O)[O-]
REMARK SMILES IDX 4 1 2 2 1 3 3 4 5 5 6 6 7 7 8 8
REMARK H PARENT
REMARK Flexibility Score: inf
ROOT
ATOM      1  C   UNL     1      24.123  22.643  11.807  1.00  0.00     0.059 C 
ENDROOT
BRANCH   1   2
ATOM      2  C   UNL     1      25.305  22.618  10.886  1.00  0.00     0.042 C 
ATOM      3  O   UNL     1      26.471  22.531  11.354  1.00  0.00    -0.550 OA
ATOM      4  O   UNL     1      25.120  22.731   9.514  1.00  0.00    -0.550 OA
ENDBRANCH   1   2
BRANCH   1   5
ATOM      5  C   UNL     1      23.420  24.004  11.784  1.00  0.00     0.059 C 
BRANCH   5   6
ATOM      6  C   UNL     1      22.232  23.995  10.871  1.00  0.00     0.042 C 
ATOM      7  O   UNL     1      22.311  24.505   9.722  1.00  0.00    -0.550 OA
ATOM      8  O   UNL     1      21.026  23.459  11.304  1.00  0.00    -0.550 OA
ENDBRANCH   5   6
ENDBRANCH   1   5
TORSDOF 3
ENDMDL
MODEL 9
REMARK VINA RESULT:    -3.789      4.181      5.227
REMARK INTER + INTRA:          -4.631
REMARK INTER:                  -4.594
REMARK INTRA:                  -0.037
REMARK UNBOUND:                -0.177
REMARK SMILES O=C([O-])CCC(=O)[O-]
REMARK SMILES IDX 4 1 2 2 1 3 3 4 5 5 6 6 7 7 8 8
REMARK H PARENT
REMARK Flexibility Score: inf
ROOT
ATOM      1  C   UNL     1      22.977  21.896  16.582  1.00  0.00     0.059 C 
ENDROOT
BRANCH   1   2
ATOM      2  C   UNL     1      22.886  23.391  16.616  1.00  0.00     0.042 C 
ATOM      3  O   UNL     1      22.787  23.995  17.717  1.00  0.00    -0.550 OA
ATOM      4  O   UNL     1      22.868  24.114  15.431  1.00  0.00    -0.550 OA
ENDBRANCH   1   2
BRANCH   1   5
ATOM      5  C   UNL     1      23.216  21.378  15.160  1.00  0.00     0.059 C 
BRANCH   5   6
ATOM      6  C   UNL     1      23.095  19.887  15.089  1.00  0.00     0.042 C 
ATOM      7  O   UNL     1      23.096  19.200  16.144  1.00  0.00    -0.550 OA
ATOM      8  O   UNL     1      23.023  19.252  13.856  1.00  0.00    -0.550 OA
ENDBRANCH   5   6
ENDBRANCH   1   5
TORSDOF 3
ENDMDL
