MODEL 1
REMARK VINA RESULT:    -8.336      0.000      0.000
REMARK INTER + INTRA:         -10.381
REMARK INTER:                 -10.041
REMARK INTRA:                  -0.340
REMARK UNBOUND:                -0.340
REMARK SMILES Oc1cc(O)c2cc(O)c(-c3ccc(O)c(O)c3)[o+]c2c1
REMARK SMILES IDX 10 1 19 2 20 3 21 4 2 5 3 6 4 7 6 8 7 9 8 10 11 11 12 12
REMARK SMILES IDX 13 13 14 14 18 15 16 16 15 17 17 19 9 21 1 23 5 25
REMARK H PARENT 15 18 17 20 9 22 1 24 5 26
REMARK Flexibility Score: inf
ROOT
ATOM      1  C   UNL     1     -32.582  25.051   2.280  1.00  0.00     0.402 A 
ATOM      2  O   UNL     1     -31.839  24.945   1.180  1.00  0.00    -0.202 OA
ATOM      3  C   UNL     1     -30.587  25.384   1.100  1.00  0.00     0.368 A 
ATOM      4  C   UNL     1     -29.887  25.230  -0.098  1.00  0.00     0.162 A 
ATOM      5  C   UNL     1     -28.571  25.686  -0.211  1.00  0.00     0.128 A 
ATOM      6  C   UNL     1     -27.951  26.297   0.881  1.00  0.00     0.093 A 
ATOM      7  C   UNL     1     -28.630  26.463   2.094  1.00  0.00     0.136 A 
ATOM      8  C   UNL     1     -29.966  26.000   2.214  1.00  0.00     0.125 A 
ATOM      9  C   UNL     1     -30.719  26.112   3.394  1.00  0.00     0.078 A 
ATOM     10  C   UNL     1     -32.030  25.629   3.438  1.00  0.00     0.223 A 
ENDROOT
BRANCH   1  11
ATOM     11  C   UNL     1     -33.968  24.532   2.240  1.00  0.00     0.087 A 
ATOM     12  C   UNL     1     -35.066  25.391   2.057  1.00  0.00     0.022 A 
ATOM     13  C   UNL     1     -36.364  24.875   2.000  1.00  0.00     0.051 A 
ATOM     14  C   UNL     1     -36.582  23.496   2.110  1.00  0.00     0.157 A 
ATOM     15  C   UNL     1     -34.191  23.148   2.329  1.00  0.00     0.068 A 
ATOM     16  C   UNL     1     -35.494  22.631   2.272  1.00  0.00     0.158 A 
BRANCH  14  17
ATOM     17  O   UNL     1     -37.875  22.978   2.056  1.00  0.00    -0.504 OA
ATOM     18  H   UNL     1     -38.640  23.506   1.652  1.00  0.00     0.293 HD
ENDBRANCH  14  17
BRANCH  16  19
ATOM     19  O   UNL     1     -35.711  21.258   2.375  1.00  0.00    -0.504 OA
ATOM     20  H   UNL     1     -35.729  20.789   3.273  1.00  0.00     0.293 HD
ENDBRANCH  16  19
ENDBRANCH   1  11
BRANCH  10  21
ATOM     21  O   UNL     1     -32.761  25.694   4.625  1.00  0.00    -0.500 OA
ATOM     22  H   UNL     1     -33.574  25.111   4.783  1.00  0.00     0.294 HD
ENDBRANCH  10  21
BRANCH   5  23
ATOM     23  O   UNL     1     -27.867  25.535  -1.404  1.00  0.00    -0.507 OA
ATOM     24  H   UNL     1     -27.670  24.620  -1.791  1.00  0.00     0.293 HD
ENDBRANCH   5  23
BRANCH   7  25
ATOM     25  O   UNL     1     -27.941  27.088   3.138  1.00  0.00    -0.507 OA
ATOM     26  H   UNL     1     -27.312  27.869   3.020  1.00  0.00     0.293 HD
ENDBRANCH   7  25
TORSDOF 6
ENDMDL
MODEL 2
REMARK VINA RESULT:    -7.474      1.553      7.021
REMARK INTER + INTRA:          -9.344
REMARK INTER:                  -9.133
REMARK INTRA:                  -0.210
REMARK UNBOUND:                -0.340
REMARK SMILES Oc1cc(O)c2cc(O)c(-c3ccc(O)c(O)c3)[o+]c2c1
REMARK SMILES IDX 10 1 19 2 20 3 21 4 2 5 3 6 4 7 6 8 7 9 8 10 11 11 12 12
REMARK SMILES IDX 13 13 14 14 18 15 16 16 15 17 17 19 9 21 1 23 5 25
REMARK H PARENT 15 18 17 20 9 22 1 24 5 26
REMARK Flexibility Score: inf
ROOT
ATOM      1  C   UNL     1     -31.405  25.175   1.478  1.00  0.00     0.402 A 
ATOM      2  O   UNL     1     -31.681  23.880   1.614  1.00  0.00    -0.202 OA
ATOM      3  C   UNL     1     -32.903  23.416   1.859  1.00  0.00     0.368 A 
ATOM      4  C   UNL     1     -33.094  22.038   1.987  1.00  0.00     0.162 A 
ATOM      5  C   UNL     1     -34.367  21.524   2.248  1.00  0.00     0.128 A 
ATOM      6  C   UNL     1     -35.454  22.390   2.381  1.00  0.00     0.093 A 
ATOM      7  C   UNL     1     -35.289  23.776   2.256  1.00  0.00     0.136 A 
ATOM      8  C   UNL     1     -33.999  24.303   1.988  1.00  0.00     0.125 A 
ATOM      9  C   UNL     1     -33.742  25.675   1.835  1.00  0.00     0.078 A 
ATOM     10  C   UNL     1     -32.444  26.120   1.569  1.00  0.00     0.223 A 
ENDROOT
BRANCH   1  11
ATOM     11  C   UNL     1     -30.002  25.567   1.216  1.00  0.00     0.087 A 
ATOM     12  C   UNL     1     -29.365  25.247   0.004  1.00  0.00     0.022 A 
ATOM     13  C   UNL     1     -28.047  25.649  -0.229  1.00  0.00     0.051 A 
ATOM     14  C   UNL     1     -27.352  26.387   0.738  1.00  0.00     0.157 A 
ATOM     15  C   UNL     1     -29.307  26.326   2.173  1.00  0.00     0.068 A 
ATOM     16  C   UNL     1     -27.984  26.729   1.939  1.00  0.00     0.158 A 
BRANCH  14  17
ATOM     17  O   UNL     1     -26.037  26.789   0.510  1.00  0.00    -0.504 OA
ATOM     18  H   UNL     1     -25.675  27.656   0.888  1.00  0.00     0.293 HD
ENDBRANCH  14  17
BRANCH  16  19
ATOM     19  O   UNL     1     -27.294  27.470   2.897  1.00  0.00    -0.504 OA
ATOM     20  H   UNL     1     -27.529  27.415   3.881  1.00  0.00     0.293 HD
ENDBRANCH  16  19
ENDBRANCH   1  11
BRANCH  10  21
ATOM     21  O   UNL     1     -32.198  27.478   1.366  1.00  0.00    -0.500 OA
ATOM     22  H   UNL     1     -31.611  27.806   0.607  1.00  0.00     0.294 HD
ENDBRANCH  10  21
BRANCH   5  23
ATOM     23  O   UNL     1     -34.565  20.151   2.377  1.00  0.00    -0.507 OA
ATOM     24  H   UNL     1     -35.268  19.773   3.001  1.00  0.00     0.293 HD
ENDBRANCH   5  23
BRANCH   7  25
ATOM     25  O   UNL     1     -36.425  24.575   2.406  1.00  0.00    -0.507 OA
ATOM     26  H   UNL     1     -37.120  24.452   3.128  1.00  0.00     0.293 HD
ENDBRANCH   7  25
TORSDOF 6
ENDMDL
MODEL 3
REMARK VINA RESULT:    -7.348      1.105      1.396
REMARK INTER + INTRA:          -9.191
REMARK INTER:                  -8.942
REMARK INTRA:                  -0.249
REMARK UNBOUND:                -0.340
REMARK SMILES Oc1cc(O)c2cc(O)c(-c3ccc(O)c(O)c3)[o+]c2c1
REMARK SMILES IDX 10 1 19 2 20 3 21 4 2 5 3 6 4 7 6 8 7 9 8 10 11 11 12 12
REMARK SMILES IDX 13 13 14 14 18 15 16 16 15 17 17 19 9 21 1 23 5 25
REMARK H PARENT 15 18 17 20 9 22 1 24 5 26
REMARK Flexibility Score: inf
ROOT
ATOM      1  C   UNL     1     -31.335  25.151   1.881  1.00  0.00     0.402 A 
ATOM      2  O   UNL     1     -30.624  24.883   0.789  1.00  0.00    -0.202 OA
ATOM      3  C   UNL     1     -29.421  25.400   0.556  1.00  0.00     0.368 A 
ATOM      4  C   UNL     1     -28.751  25.060  -0.621  1.00  0.00     0.162 A 
ATOM      5  C   UNL     1     -27.487  25.592  -0.892  1.00  0.00     0.128 A 
ATOM      6  C   UNL     1     -26.891  26.466   0.018  1.00  0.00     0.093 A 
ATOM      7  C   UNL     1     -27.542  26.823   1.206  1.00  0.00     0.136 A 
ATOM      8  C   UNL     1     -28.824  26.283   1.487  1.00  0.00     0.125 A 
ATOM      9  C   UNL     1     -29.544  26.574   2.657  1.00  0.00     0.078 A 
ATOM     10  C   UNL     1     -30.802  26.001   2.867  1.00  0.00     0.223 A 
ENDROOT
BRANCH   1  11
ATOM     11  C   UNL     1     -32.668  24.520   2.020  1.00  0.00     0.087 A 
ATOM     12  C   UNL     1     -33.846  25.286   1.999  1.00  0.00     0.022 A 
ATOM     13  C   UNL     1     -35.094  24.666   2.109  1.00  0.00     0.051 A 
ATOM     14  C   UNL     1     -35.183  23.273   2.227  1.00  0.00     0.157 A 
ATOM     15  C   UNL     1     -32.764  23.122   2.117  1.00  0.00     0.068 A 
ATOM     16  C   UNL     1     -34.016  22.500   2.228  1.00  0.00     0.158 A 
BRANCH  14  17
ATOM     17  O   UNL     1     -36.425  22.651   2.338  1.00  0.00    -0.504 OA
ATOM     18  H   UNL     1     -37.106  22.949   3.027  1.00  0.00     0.293 HD
ENDBRANCH  14  17
BRANCH  16  19
ATOM     19  O   UNL     1     -34.106  21.114   2.338  1.00  0.00    -0.504 OA
ATOM     20  H   UNL     1     -33.289  20.520   2.257  1.00  0.00     0.293 HD
ENDBRANCH  16  19
ENDBRANCH   1  11
BRANCH  10  21
ATOM     21  O   UNL     1     -31.495  26.249   4.052  1.00  0.00    -0.500 OA
ATOM     22  H   UNL     1     -31.027  26.599   4.880  1.00  0.00     0.294 HD
ENDBRANCH  10  21
BRANCH   5  23
ATOM     23  O   UNL     1     -26.813  25.257  -2.065  1.00  0.00    -0.507 OA
ATOM     24  H   UNL     1     -27.096  25.630  -2.964  1.00  0.00     0.293 HD
ENDBRANCH   5  23
BRANCH   7  25
ATOM     25  O   UNL     1     -26.879  27.706   2.063  1.00  0.00    -0.507 OA
ATOM     26  H   UNL     1     -25.951  27.556   2.432  1.00  0.00     0.293 HD
ENDBRANCH   7  25
TORSDOF 6
ENDMDL
MODEL 4
REMARK VINA RESULT:    -7.216      1.392      3.155
REMARK INTER + INTRA:          -9.033
REMARK INTER:                  -8.695
REMARK INTRA:                  -0.337
REMARK UNBOUND:                -0.340
REMARK SMILES Oc1cc(O)c2cc(O)c(-c3ccc(O)c(O)c3)[o+]c2c1
REMARK SMILES IDX 10 1 19 2 20 3 21 4 2 5 3 6 4 7 6 8 7 9 8 10 11 11 12 12
REMARK SMILES IDX 13 13 14 14 18 15 16 16 15 17 17 19 9 21 1 23 5 25
REMARK H PARENT 15 18 17 20 9 22 1 24 5 26
REMARK Flexibility Score: inf
ROOT
ATOM      1  C   UNL     1     -32.222  23.778   0.848  1.00  0.00     0.402 A 
ATOM      2  O   UNL     1     -31.573  24.676   1.585  1.00  0.00    -0.202 OA
ATOM      3  C   UNL     1     -30.384  25.170   1.255  1.00  0.00     0.368 A 
ATOM      4  C   UNL     1     -29.781  26.108   2.095  1.00  0.00     0.162 A 
ATOM      5  C   UNL     1     -28.529  26.642   1.773  1.00  0.00     0.128 A 
ATOM      6  C   UNL     1     -27.879  26.235   0.606  1.00  0.00     0.093 A 
ATOM      7  C   UNL     1     -28.463  25.295  -0.252  1.00  0.00     0.136 A 
ATOM      8  C   UNL     1     -29.735  24.753   0.068  1.00  0.00     0.125 A 
ATOM      9  C   UNL     1     -30.401  23.817  -0.740  1.00  0.00     0.078 A 
ATOM     10  C   UNL     1     -31.655  23.330  -0.360  1.00  0.00     0.223 A 
ENDROOT
BRANCH   1  11
ATOM     11  C   UNL     1     -33.537  23.296   1.328  1.00  0.00     0.087 A 
ATOM     12  C   UNL     1     -33.670  22.058   1.980  1.00  0.00     0.022 A 
ATOM     13  C   UNL     1     -34.918  21.634   2.445  1.00  0.00     0.051 A 
ATOM     14  C   UNL     1     -36.047  22.447   2.278  1.00  0.00     0.157 A 
ATOM     15  C   UNL     1     -34.668  24.116   1.182  1.00  0.00     0.068 A 
ATOM     16  C   UNL     1     -35.921  23.690   1.649  1.00  0.00     0.158 A 
BRANCH  14  17
ATOM     17  O   UNL     1     -37.294  22.028   2.739  1.00  0.00    -0.504 OA
ATOM     18  H   UNL     1     -37.389  21.231   3.357  1.00  0.00     0.293 HD
ENDBRANCH  14  17
BRANCH  16  19
ATOM     19  O   UNL     1     -37.044  24.501   1.489  1.00  0.00    -0.504 OA
ATOM     20  H   UNL     1     -37.154  25.104   0.682  1.00  0.00     0.293 HD
ENDBRANCH  16  19
ENDBRANCH   1  11
BRANCH  10  21
ATOM     21  O   UNL     1     -32.339  22.440  -1.188  1.00  0.00    -0.500 OA
ATOM     22  H   UNL     1     -32.506  21.478  -0.914  1.00  0.00     0.294 HD
ENDBRANCH  10  21
BRANCH   5  23
ATOM     23  O   UNL     1     -27.921  27.578   2.607  1.00  0.00    -0.507 OA
ATOM     24  H   UNL     1     -26.919  27.728   2.594  1.00  0.00     0.293 HD
ENDBRANCH   5  23
BRANCH   7  25
ATOM     25  O   UNL     1     -27.746  24.938  -1.398  1.00  0.00    -0.507 OA
ATOM     26  H   UNL     1     -27.197  24.096  -1.490  1.00  0.00     0.293 HD
ENDBRANCH   7  25
TORSDOF 6
ENDMDL
MODEL 5
REMARK VINA RESULT:    -7.117      2.944      4.721
REMARK INTER + INTRA:          -8.913
REMARK INTER:                  -8.966
REMARK INTRA:                   0.053
REMARK UNBOUND:                -0.340
REMARK SMILES Oc1cc(O)c2cc(O)c(-c3ccc(O)c(O)c3)[o+]c2c1
REMARK SMILES IDX 10 1 19 2 20 3 21 4 2 5 3 6 4 7 6 8 7 9 8 10 11 11 12 12
REMARK SMILES IDX 13 13 14 14 18 15 16 16 15 17 17 19 9 21 1 23 5 25
REMARK H PARENT 15 18 17 20 9 22 1 24 5 26
REMARK Flexibility Score: inf
ROOT
ATOM      1  C   UNL     1     -33.634  22.426   1.350  1.00  0.00     0.402 A 
ATOM      2  O   UNL     1     -33.211  22.927   2.507  1.00  0.00    -0.202 OA
ATOM      3  C   UNL     1     -32.721  24.157   2.635  1.00  0.00     0.368 A 
ATOM      4  C   UNL     1     -32.299  24.594   3.892  1.00  0.00     0.162 A 
ATOM      5  C   UNL     1     -31.777  25.880   4.054  1.00  0.00     0.128 A 
ATOM      6  C   UNL     1     -31.676  26.733   2.952  1.00  0.00     0.093 A 
ATOM      7  C   UNL     1     -32.092  26.319   1.681  1.00  0.00     0.136 A 
ATOM      8  C   UNL     1     -32.626  25.014   1.513  1.00  0.00     0.125 A 
ATOM      9  C   UNL     1     -33.079  24.519   0.279  1.00  0.00     0.078 A 
ATOM     10  C   UNL     1     -33.597  23.223   0.191  1.00  0.00     0.223 A 
ENDROOT
BRANCH   1  11
ATOM     11  C   UNL     1     -34.150  21.038   1.335  1.00  0.00     0.087 A 
ATOM     12  C   UNL     1     -35.069  20.588   2.299  1.00  0.00     0.022 A 
ATOM     13  C   UNL     1     -35.559  19.279   2.251  1.00  0.00     0.051 A 
ATOM     14  C   UNL     1     -35.150  18.409   1.233  1.00  0.00     0.157 A 
ATOM     15  C   UNL     1     -33.760  20.167   0.304  1.00  0.00     0.068 A 
ATOM     16  C   UNL     1     -34.252  18.854   0.257  1.00  0.00     0.158 A 
BRANCH  14  17
ATOM     17  O   UNL     1     -35.636  17.103   1.183  1.00  0.00    -0.504 OA
ATOM     18  H   UNL     1     -36.586  16.881   1.455  1.00  0.00     0.293 HD
ENDBRANCH  14  17
BRANCH  16  19
ATOM     19  O   UNL     1     -33.851  17.988  -0.760  1.00  0.00    -0.504 OA
ATOM     20  H   UNL     1     -33.384  17.112  -0.558  1.00  0.00     0.293 HD
ENDBRANCH  16  19
ENDBRANCH   1  11
BRANCH  10  21
ATOM     21  O   UNL     1     -34.094  22.750  -1.023  1.00  0.00    -0.500 OA
ATOM     22  H   UNL     1     -34.444  21.804  -1.123  1.00  0.00     0.294 HD
ENDBRANCH  10  21
BRANCH   5  23
ATOM     23  O   UNL     1     -31.354  26.323   5.305  1.00  0.00    -0.507 OA
ATOM     24  H   UNL     1     -31.016  25.677   6.009  1.00  0.00     0.293 HD
ENDBRANCH   5  23
BRANCH   7  25
ATOM     25  O   UNL     1     -31.956  27.230   0.630  1.00  0.00    -0.507 OA
ATOM     26  H   UNL     1     -31.370  28.052   0.659  1.00  0.00     0.293 HD
ENDBRANCH   7  25
TORSDOF 6
ENDMDL
MODEL 6
REMARK VINA RESULT:    -7.022      2.025      3.542
REMARK INTER + INTRA:          -8.799
REMARK INTER:                  -8.523
REMARK INTRA:                  -0.275
REMARK UNBOUND:                -0.340
REMARK SMILES Oc1cc(O)c2cc(O)c(-c3ccc(O)c(O)c3)[o+]c2c1
REMARK SMILES IDX 10 1 19 2 20 3 21 4 2 5 3 6 4 7 6 8 7 9 8 10 11 11 12 12
REMARK SMILES IDX 13 13 14 14 18 15 16 16 15 17 17 19 9 21 1 23 5 25
REMARK H PARENT 15 18 17 20 9 22 1 24 5 26
REMARK Flexibility Score: inf
ROOT
ATOM      1  C   UNL     1     -30.449  25.073   0.752  1.00  0.00     0.402 A 
ATOM      2  O   UNL     1     -29.577  25.961   1.222  1.00  0.00    -0.202 OA
ATOM      3  C   UNL     1     -28.358  26.127   0.716  1.00  0.00     0.368 A 
ATOM      4  C   UNL     1     -27.513  27.085   1.279  1.00  0.00     0.162 A 
ATOM      5  C   UNL     1     -26.226  27.277   0.769  1.00  0.00     0.128 A 
ATOM      6  C   UNL     1     -25.783  26.509  -0.310  1.00  0.00     0.093 A 
ATOM      7  C   UNL     1     -26.612  25.542  -0.892  1.00  0.00     0.136 A 
ATOM      8  C   UNL     1     -27.921  25.344  -0.379  1.00  0.00     0.125 A 
ATOM      9  C   UNL     1     -28.824  24.408  -0.908  1.00  0.00     0.078 A 
ATOM     10  C   UNL     1     -30.099  24.272  -0.352  1.00  0.00     0.223 A 
ENDROOT
BRANCH   1  11
ATOM     11  C   UNL     1     -31.772  24.976   1.409  1.00  0.00     0.087 A 
ATOM     12  C   UNL     1     -32.759  25.958   1.216  1.00  0.00     0.022 A 
ATOM     13  C   UNL     1     -34.010  25.833   1.828  1.00  0.00     0.051 A 
ATOM     14  C   UNL     1     -34.296  24.719   2.628  1.00  0.00     0.157 A 
ATOM     15  C   UNL     1     -32.073  23.851   2.195  1.00  0.00     0.068 A 
ATOM     16  C   UNL     1     -33.328  23.725   2.809  1.00  0.00     0.158 A 
BRANCH  14  17
ATOM     17  O   UNL     1     -35.542  24.592   3.241  1.00  0.00    -0.504 OA
ATOM     18  H   UNL     1     -36.355  25.086   2.895  1.00  0.00     0.293 HD
ENDBRANCH  14  17
BRANCH  16  19
ATOM     19  O   UNL     1     -33.617  22.615   3.600  1.00  0.00    -0.504 OA
ATOM     20  H   UNL     1     -34.538  22.193   3.606  1.00  0.00     0.293 HD
ENDBRANCH  16  19
ENDBRANCH   1  11
BRANCH  10  21
ATOM     21  O   UNL     1     -31.014  23.379  -0.909  1.00  0.00    -0.500 OA
ATOM     22  H   UNL     1     -31.585  22.772  -0.333  1.00  0.00     0.294 HD
ENDBRANCH  10  21
BRANCH   5  23
ATOM     23  O   UNL     1     -25.377  28.231   1.326  1.00  0.00    -0.507 OA
ATOM     24  H   UNL     1     -24.448  28.396   0.955  1.00  0.00     0.293 HD
ENDBRANCH   5  23
BRANCH   7  25
ATOM     25  O   UNL     1     -26.094  24.812  -1.966  1.00  0.00    -0.507 OA
ATOM     26  H   UNL     1     -25.498  25.198  -2.685  1.00  0.00     0.293 HD
ENDBRANCH   7  25
TORSDOF 6
ENDMDL
MODEL 7
REMARK VINA RESULT:    -6.956      1.471      7.196
REMARK INTER + INTRA:          -8.719
REMARK INTER:                  -8.595
REMARK INTRA:                  -0.124
REMARK UNBOUND:                -0.340
REMARK SMILES Oc1cc(O)c2cc(O)c(-c3ccc(O)c(O)c3)[o+]c2c1
REMARK SMILES IDX 10 1 19 2 20 3 21 4 2 5 3 6 4 7 6 8 7 9 8 10 11 11 12 12
REMARK SMILES IDX 13 13 14 14 18 15 16 16 15 17 17 19 9 21 1 23 5 25
REMARK H PARENT 15 18 17 20 9 22 1 24 5 26
REMARK Flexibility Score: inf
ROOT
ATOM      1  C   UNL     1     -31.246  24.471   1.192  1.00  0.00     0.402 A 
ATOM      2  O   UNL     1     -32.295  25.226   1.509  1.00  0.00    -0.202 OA
ATOM      3  C   UNL     1     -33.507  24.730   1.745  1.00  0.00     0.368 A 
ATOM      4  C   UNL     1     -34.547  25.603   2.069  1.00  0.00     0.162 A 
ATOM      5  C   UNL     1     -35.831  25.109   2.318  1.00  0.00     0.128 A 
ATOM      6  C   UNL     1     -36.074  23.736   2.243  1.00  0.00     0.093 A 
ATOM      7  C   UNL     1     -35.048  22.840   1.921  1.00  0.00     0.136 A 
ATOM      8  C   UNL     1     -33.742  23.336   1.670  1.00  0.00     0.125 A 
ATOM      9  C   UNL     1     -32.650  22.511   1.352  1.00  0.00     0.078 A 
ATOM     10  C   UNL     1     -31.391  23.073   1.121  1.00  0.00     0.223 A 
ENDROOT
BRANCH   1  11
ATOM     11  C   UNL     1     -29.951  25.143   0.943  1.00  0.00     0.087 A 
ATOM     12  C   UNL     1     -29.240  24.942  -0.253  1.00  0.00     0.022 A 
ATOM     13  C   UNL     1     -28.029  25.605  -0.476  1.00  0.00     0.051 A 
ATOM     14  C   UNL     1     -27.521  26.489   0.485  1.00  0.00     0.157 A 
ATOM     15  C   UNL     1     -29.447  26.047   1.893  1.00  0.00     0.068 A 
ATOM     16  C   UNL     1     -28.232  26.712   1.670  1.00  0.00     0.158 A 
BRANCH  14  17
ATOM     17  O   UNL     1     -26.314  27.152   0.267  1.00  0.00    -0.504 OA
ATOM     18  H   UNL     1     -26.010  27.405  -0.666  1.00  0.00     0.293 HD
ENDBRANCH  14  17
BRANCH  16  19
ATOM     19  O   UNL     1     -27.729  27.597   2.621  1.00  0.00    -0.504 OA
ATOM     20  H   UNL     1     -27.623  27.329   3.593  1.00  0.00     0.293 HD
ENDBRANCH  16  19
ENDBRANCH   1  11
BRANCH  10  21
ATOM     21  O   UNL     1     -30.296  22.251   0.856  1.00  0.00    -0.500 OA
ATOM     22  H   UNL     1     -29.408  22.377   1.327  1.00  0.00     0.294 HD
ENDBRANCH  10  21
BRANCH   5  23
ATOM     23  O   UNL     1     -36.874  25.974   2.642  1.00  0.00    -0.507 OA
ATOM     24  H   UNL     1     -36.703  26.944   2.884  1.00  0.00     0.293 HD
ENDBRANCH   5  23
BRANCH   7  25
ATOM     25  O   UNL     1     -35.373  21.482   1.863  1.00  0.00    -0.507 OA
ATOM     26  H   UNL     1     -36.232  21.085   2.217  1.00  0.00     0.293 HD
ENDBRANCH   7  25
TORSDOF 6
ENDMDL
MODEL 8
REMARK VINA RESULT:    -6.885      1.536      7.040
REMARK INTER + INTRA:          -8.634
REMARK INTER:                  -8.985
REMARK INTRA:                   0.352
REMARK UNBOUND:                -0.340
REMARK SMILES Oc1cc(O)c2cc(O)c(-c3ccc(O)c(O)c3)[o+]c2c1
REMARK SMILES IDX 10 1 19 2 20 3 21 4 2 5 3 6 4 7 6 8 7 9 8 10 11 11 12 12
REMARK SMILES IDX 13 13 14 14 18 15 16 16 15 17 17 19 9 21 1 23 5 25
REMARK H PARENT 15 18 17 20 9 22 1 24 5 26
REMARK Flexibility Score: inf
ROOT
ATOM      1  C   UNL     1     -30.260  25.416   1.144  1.00  0.00     0.402 A 
ATOM      2  O   UNL     1     -31.363  24.946   0.567  1.00  0.00    -0.202 OA
ATOM      3  C   UNL     1     -32.538  24.876   1.186  1.00  0.00     0.368 A 
ATOM      4  C   UNL     1     -33.640  24.365   0.497  1.00  0.00     0.162 A 
ATOM      5  C   UNL     1     -34.885  24.277   1.125  1.00  0.00     0.128 A 
ATOM      6  C   UNL     1     -35.029  24.702   2.448  1.00  0.00     0.093 A 
ATOM      7  C   UNL     1     -33.940  25.218   3.160  1.00  0.00     0.136 A 
ATOM      8  C   UNL     1     -32.674  25.312   2.526  1.00  0.00     0.125 A 
ATOM      9  C   UNL     1     -31.530  25.828   3.158  1.00  0.00     0.078 A 
ATOM     10  C   UNL     1     -30.317  25.893   2.467  1.00  0.00     0.223 A 
ENDROOT
BRANCH   1  11
ATOM     11  C   UNL     1     -29.009  25.434   0.353  1.00  0.00     0.087 A 
ATOM     12  C   UNL     1     -28.823  24.573  -0.743  1.00  0.00     0.022 A 
ATOM     13  C   UNL     1     -27.642  24.624  -1.489  1.00  0.00     0.051 A 
ATOM     14  C   UNL     1     -26.638  25.543  -1.161  1.00  0.00     0.157 A 
ATOM     15  C   UNL     1     -28.007  26.368   0.664  1.00  0.00     0.068 A 
ATOM     16  C   UNL     1     -26.822  26.419  -0.085  1.00  0.00     0.158 A 
BRANCH  14  17
ATOM     17  O   UNL     1     -25.459  25.596  -1.902  1.00  0.00    -0.504 OA
ATOM     18  H   UNL     1     -24.600  25.959  -1.505  1.00  0.00     0.293 HD
ENDBRANCH  14  17
BRANCH  16  19
ATOM     19  O   UNL     1     -25.825  27.338   0.236  1.00  0.00    -0.504 OA
ATOM     20  H   UNL     1     -24.865  27.049   0.387  1.00  0.00     0.293 HD
ENDBRANCH  16  19
ENDBRANCH   1  11
BRANCH  10  21
ATOM     21  O   UNL     1     -29.194  26.452   3.077  1.00  0.00    -0.500 OA
ATOM     22  H   UNL     1     -29.274  27.178   3.779  1.00  0.00     0.294 HD
ENDBRANCH  10  21
BRANCH   5  23
ATOM     23  O   UNL     1     -35.989  23.768   0.444  1.00  0.00    -0.507 OA
ATOM     24  H   UNL     1     -35.923  23.464  -0.521  1.00  0.00     0.293 HD
ENDBRANCH   5  23
BRANCH   7  25
ATOM     25  O   UNL     1     -34.166  25.619   4.480  1.00  0.00    -0.507 OA
ATOM     26  H   UNL     1     -34.403  26.560   4.759  1.00  0.00     0.293 HD
ENDBRANCH   7  25
TORSDOF 6
ENDMDL
MODEL 9
REMARK VINA RESULT:    -6.803      2.062      7.526
REMARK INTER + INTRA:          -8.535
REMARK INTER:                  -8.759
REMARK INTRA:                   0.224
REMARK UNBOUND:                -0.340
REMARK SMILES Oc1cc(O)c2cc(O)c(-c3ccc(O)c(O)c3)[o+]c2c1
REMARK SMILES IDX 10 1 19 2 20 3 21 4 2 5 3 6 4 7 6 8 7 9 8 10 11 11 12 12
REMARK SMILES IDX 13 13 14 14 18 15 16 16 15 17 17 19 9 21 1 23 5 25
REMARK H PARENT 15 18 17 20 9 22 1 24 5 26
REMARK Flexibility Score: inf
ROOT
ATOM      1  C   UNL     1     -29.972  25.308   0.815  1.00  0.00     0.402 A 
ATOM      2  O   UNL     1     -31.022  25.826   1.448  1.00  0.00    -0.202 OA
ATOM      3  C   UNL     1     -32.239  25.294   1.398  1.00  0.00     0.368 A 
ATOM      4  C   UNL     1     -33.280  25.911   2.095  1.00  0.00     0.162 A 
ATOM      5  C   UNL     1     -34.570  25.375   2.057  1.00  0.00     0.128 A 
ATOM      6  C   UNL     1     -34.820  24.216   1.319  1.00  0.00     0.093 A 
ATOM      7  C   UNL     1     -33.794  23.578   0.611  1.00  0.00     0.136 A 
ATOM      8  C   UNL     1     -32.481  24.117   0.649  1.00  0.00     0.125 A 
ATOM      9  C   UNL     1     -31.390  23.538  -0.018  1.00  0.00     0.078 A 
ATOM     10  C   UNL     1     -30.124  24.125   0.068  1.00  0.00     0.223 A 
ENDROOT
BRANCH   1  11
ATOM     11  C   UNL     1     -28.669  26.000   0.940  1.00  0.00     0.087 A 
ATOM     12  C   UNL     1     -28.293  26.645   2.131  1.00  0.00     0.022 A 
ATOM     13  C   UNL     1     -27.047  27.272   2.233  1.00  0.00     0.051 A 
ATOM     14  C   UNL     1     -26.156  27.250   1.153  1.00  0.00     0.157 A 
ATOM     15  C   UNL     1     -27.761  25.963  -0.132  1.00  0.00     0.068 A 
ATOM     16  C   UNL     1     -26.512  26.592  -0.030  1.00  0.00     0.158 A 
BRANCH  14  17
ATOM     17  O   UNL     1     -24.913  27.875   1.250  1.00  0.00    -0.504 OA
ATOM     18  H   UNL     1     -24.694  28.500   2.017  1.00  0.00     0.293 HD
ENDBRANCH  14  17
BRANCH  16  19
ATOM     19  O   UNL     1     -25.620  26.566  -1.101  1.00  0.00    -0.504 OA
ATOM     20  H   UNL     1     -25.246  27.418  -1.502  1.00  0.00     0.293 HD
ENDBRANCH  16  19
ENDBRANCH   1  11
BRANCH  10  21
ATOM     21  O   UNL     1     -29.029  23.522  -0.552  1.00  0.00    -0.500 OA
ATOM     22  H   UNL     1     -28.424  24.035  -1.182  1.00  0.00     0.294 HD
ENDBRANCH  10  21
BRANCH   5  23
ATOM     23  O   UNL     1     -35.613  25.985   2.750  1.00  0.00    -0.507 OA
ATOM     24  H   UNL     1     -35.969  25.603   3.619  1.00  0.00     0.293 HD
ENDBRANCH   5  23
BRANCH   7  25
ATOM     25  O   UNL     1     -34.126  22.425  -0.106  1.00  0.00    -0.507 OA
ATOM     26  H   UNL     1     -33.606  22.074  -0.897  1.00  0.00     0.293 HD
ENDBRANCH   7  25
TORSDOF 6
ENDMDL
