MODEL 1
REMARK VINA RESULT:    -7.208      0.000      0.000
REMARK INTER + INTRA:          -8.739
REMARK INTER:                  -8.472
REMARK INTRA:                  -0.268
REMARK UNBOUND:                -0.268
REMARK SMILES O=c1cc(-c2ccc(O)c(O)c2)oc2cc(O)cc(O)c12
REMARK SMILES IDX 4 1 3 2 2 3 1 4 21 5 19 6 18 7 16 8 15 9 14 10 13 11 5 12
REMARK SMILES IDX 6 13 7 14 8 15 12 16 10 17 9 18 11 20 20 22 17 24
REMARK H PARENT 9 19 11 21 20 23 17 25
REMARK Flexibility Score: inf
ROOT
ATOM      1  C   UNL     1      30.913 -92.250  37.488  1.00  0.00     0.138 A 
ATOM      2  C   UNL     1      29.694 -92.868  37.166  1.00  0.00     0.100 A 
ATOM      3  C   UNL     1      29.562 -94.249  37.320  1.00  0.00     0.197 A 
ATOM      4  O   UNL     1      28.464 -94.795  37.026  1.00  0.00    -0.289 OA
ATOM      5  C   UNL     1      30.654 -95.003  37.792  1.00  0.00     0.107 A 
ATOM      6  C   UNL     1      30.605 -96.404  37.977  1.00  0.00     0.134 A 
ATOM      7  C   UNL     1      31.739 -97.084  38.447  1.00  0.00     0.093 A 
ATOM      8  C   UNL     1      32.918 -96.391  38.733  1.00  0.00     0.123 A 
ATOM      9  C   UNL     1      32.973 -95.004  38.552  1.00  0.00     0.094 A 
ATOM     10  C   UNL     1      31.853 -94.309  38.086  1.00  0.00     0.146 A 
ATOM     11  O   UNL     1      31.929 -92.992  37.924  1.00  0.00    -0.456 OA
ENDROOT
BRANCH   1  12
ATOM     12  C   UNL     1      31.111 -90.785  37.345  1.00  0.00     0.021 A 
ATOM     13  C   UNL     1      32.101 -90.303  36.473  1.00  0.00     0.016 A 
ATOM     14  C   UNL     1      32.309 -88.933  36.325  1.00  0.00     0.051 A 
ATOM     15  C   UNL     1      31.546 -88.011  37.048  1.00  0.00     0.157 A 
ATOM     16  C   UNL     1      30.352 -89.859  38.085  1.00  0.00     0.062 A 
ATOM     17  C   UNL     1      30.557 -88.480  37.944  1.00  0.00     0.158 A 
BRANCH  15  18
ATOM     18  O   UNL     1      31.802 -86.652  36.849  1.00  0.00    -0.504 OA
ATOM     19  H   UNL     1      32.170 -86.037  37.560  1.00  0.00     0.293 HD
ENDBRANCH  15  18
BRANCH  17  20
ATOM     20  O   UNL     1      29.767 -87.622  38.712  1.00  0.00    -0.504 OA
ATOM     21  H   UNL     1      29.487 -87.811  39.662  1.00  0.00     0.293 HD
ENDBRANCH  17  20
ENDBRANCH   1  12
BRANCH   6  22
ATOM     22  O   UNL     1      29.442 -97.125  37.699  1.00  0.00    -0.507 OA
ATOM     23  H   UNL     1      29.126 -97.280  36.749  1.00  0.00     0.293 HD
ENDBRANCH   6  22
BRANCH   8  24
ATOM     24  O   UNL     1      34.030 -97.090  39.198  1.00  0.00    -0.508 OA
ATOM     25  H   UNL     1      34.098 -98.097  39.108  1.00  0.00     0.293 HD
ENDBRANCH   8  24
TORSDOF 5
ENDMDL
MODEL 2
REMARK VINA RESULT:    -5.670      9.234     10.837
REMARK INTER + INTRA:          -6.932
REMARK INTER:                  -6.654
REMARK INTRA:                  -0.278
REMARK UNBOUND:                -0.268
REMARK SMILES O=c1cc(-c2ccc(O)c(O)c2)oc2cc(O)cc(O)c12
REMARK SMILES IDX 4 1 3 2 2 3 1 4 21 5 19 6 18 7 16 8 15 9 14 10 13 11 5 12
REMARK SMILES IDX 6 13 7 14 8 15 12 16 10 17 9 18 11 20 20 22 17 24
REMARK H PARENT 9 19 11 21 20 23 17 25
REMARK Flexibility Score: inf
ROOT
ATOM      1  C   UNL     1      37.378 -95.382  30.950  1.00  0.00     0.138 A 
ATOM      2  C   UNL     1      38.009 -96.056  29.892  1.00  0.00     0.100 A 
ATOM      3  C   UNL     1      37.337 -96.212  28.679  1.00  0.00     0.197 A 
ATOM      4  O   UNL     1      37.911 -96.821  27.735  1.00  0.00    -0.289 OA
ATOM      5  C   UNL     1      36.034 -95.695  28.534  1.00  0.00     0.107 A 
ATOM      6  C   UNL     1      35.284 -95.808  27.340  1.00  0.00     0.134 A 
ATOM      7  C   UNL     1      33.990 -95.270  27.277  1.00  0.00     0.093 A 
ATOM      8  C   UNL     1      33.434 -94.623  28.384  1.00  0.00     0.123 A 
ATOM      9  C   UNL     1      34.170 -94.507  29.567  1.00  0.00     0.094 A 
ATOM     10  C   UNL     1      35.461 -95.037  29.649  1.00  0.00     0.146 A 
ATOM     11  O   UNL     1      36.143 -94.912  30.783  1.00  0.00    -0.456 OA
ENDROOT
BRANCH   1  12
ATOM     12  C   UNL     1      38.043 -95.186  32.262  1.00  0.00     0.021 A 
ATOM     13  C   UNL     1      39.258 -94.485  32.325  1.00  0.00     0.016 A 
ATOM     14  C   UNL     1      39.904 -94.293  33.545  1.00  0.00     0.051 A 
ATOM     15  C   UNL     1      39.363 -94.804  34.729  1.00  0.00     0.157 A 
ATOM     16  C   UNL     1      37.504 -95.714  33.451  1.00  0.00     0.062 A 
ATOM     17  C   UNL     1      38.149 -95.528  34.681  1.00  0.00     0.158 A 
BRANCH  15  18
ATOM     18  O   UNL     1      40.058 -94.572  35.918  1.00  0.00    -0.504 OA
ATOM     19  H   UNL     1      40.700 -95.230  36.334  1.00  0.00     0.293 HD
ENDBRANCH  15  18
BRANCH  17  20
ATOM     20  O   UNL     1      37.556 -96.081  35.818  1.00  0.00    -0.504 OA
ATOM     21  H   UNL     1      38.071 -96.393  36.628  1.00  0.00     0.293 HD
ENDBRANCH  17  20
ENDBRANCH   1  12
BRANCH   6  22
ATOM     22  O   UNL     1      35.813 -96.450  26.218  1.00  0.00    -0.507 OA
ATOM     23  H   UNL     1      35.558 -97.401  25.979  1.00  0.00     0.293 HD
ENDBRANCH   6  22
BRANCH   8  24
ATOM     24  O   UNL     1      32.146 -94.098  28.296  1.00  0.00    -0.508 OA
ATOM     25  H   UNL     1      31.356 -94.674  28.030  1.00  0.00     0.293 HD
ENDBRANCH   8  24
TORSDOF 5
ENDMDL
MODEL 3
REMARK VINA RESULT:    -5.669      8.889     11.064
REMARK INTER + INTRA:          -6.931
REMARK INTER:                  -6.614
REMARK INTRA:                  -0.317
REMARK UNBOUND:                -0.268
REMARK SMILES O=c1cc(-c2ccc(O)c(O)c2)oc2cc(O)cc(O)c12
REMARK SMILES IDX 4 1 3 2 2 3 1 4 21 5 19 6 18 7 16 8 15 9 14 10 13 11 5 12
REMARK SMILES IDX 6 13 7 14 8 15 12 16 10 17 9 18 11 20 20 22 17 24
REMARK H PARENT 9 19 11 21 20 23 17 25
REMARK Flexibility Score: inf
ROOT
ATOM      1  C   UNL     1      40.583 -95.111  35.726  1.00  0.00     0.138 A 
ATOM      2  C   UNL     1      41.716 -95.337  34.927  1.00  0.00     0.100 A 
ATOM      3  C   UNL     1      41.579 -95.379  33.539  1.00  0.00     0.197 A 
ATOM      4  O   UNL     1      42.601 -95.583  32.829  1.00  0.00    -0.289 OA
ATOM      5  C   UNL     1      40.307 -95.199  32.959  1.00  0.00     0.107 A 
ATOM      6  C   UNL     1      40.082 -95.226  31.563  1.00  0.00     0.134 A 
ATOM      7  C   UNL     1      38.783 -95.043  31.065  1.00  0.00     0.093 A 
ATOM      8  C   UNL     1      37.709 -94.836  31.935  1.00  0.00     0.123 A 
ATOM      9  C   UNL     1      37.926 -94.808  33.316  1.00  0.00     0.094 A 
ATOM     10  C   UNL     1      39.213 -94.987  33.832  1.00  0.00     0.146 A 
ATOM     11  O   UNL     1      39.394 -94.954  35.148  1.00  0.00    -0.456 OA
ENDROOT
BRANCH   1  12
ATOM     12  C   UNL     1      40.668 -95.057  37.208  1.00  0.00     0.021 A 
ATOM     13  C   UNL     1      41.860 -95.433  37.847  1.00  0.00     0.016 A 
ATOM     14  C   UNL     1      41.962 -95.396  39.237  1.00  0.00     0.051 A 
ATOM     15  C   UNL     1      40.877 -94.994  40.023  1.00  0.00     0.157 A 
ATOM     16  C   UNL     1      39.570 -94.665  37.998  1.00  0.00     0.062 A 
ATOM     17  C   UNL     1      39.663 -94.628  39.396  1.00  0.00     0.158 A 
BRANCH  15  18
ATOM     18  O   UNL     1      41.047 -94.973  41.409  1.00  0.00    -0.504 OA
ATOM     19  H   UNL     1      40.940 -95.782  42.003  1.00  0.00     0.293 HD
ENDBRANCH  15  18
BRANCH  17  20
ATOM     20  O   UNL     1      38.534 -94.231  40.114  1.00  0.00    -0.504 OA
ATOM     21  H   UNL     1      38.140 -94.754  40.882  1.00  0.00     0.293 HD
ENDBRANCH  17  20
ENDBRANCH   1  12
BRANCH   6  22
ATOM     22  O   UNL     1      41.134 -95.432  30.670  1.00  0.00    -0.507 OA
ATOM     23  H   UNL     1      41.168 -96.243  30.064  1.00  0.00     0.293 HD
ENDBRANCH   6  22
BRANCH   8  24
ATOM     24  O   UNL     1      36.429 -94.658  31.414  1.00  0.00    -0.508 OA
ATOM     25  H   UNL     1      35.852 -93.870  31.685  1.00  0.00     0.293 HD
ENDBRANCH   8  24
TORSDOF 5
ENDMDL
MODEL 4
REMARK VINA RESULT:    -5.622     15.354     17.426
REMARK INTER + INTRA:          -6.875
REMARK INTER:                  -6.579
REMARK INTRA:                  -0.296
REMARK UNBOUND:                -0.268
REMARK SMILES O=c1cc(-c2ccc(O)c(O)c2)oc2cc(O)cc(O)c12
REMARK SMILES IDX 4 1 3 2 2 3 1 4 21 5 19 6 18 7 16 8 15 9 14 10 13 11 5 12
REMARK SMILES IDX 6 13 7 14 8 15 12 16 10 17 9 18 11 20 20 22 17 24
REMARK H PARENT 9 19 11 21 20 23 17 25
REMARK Flexibility Score: inf
ROOT
ATOM      1  C   UNL     1      37.617 -77.432  34.435  1.00  0.00     0.138 A 
ATOM      2  C   UNL     1      37.877 -77.297  35.808  1.00  0.00     0.100 A 
ATOM      3  C   UNL     1      36.822 -77.379  36.718  1.00  0.00     0.197 A 
ATOM      4  O   UNL     1      37.065 -77.256  37.950  1.00  0.00    -0.289 OA
ATOM      5  C   UNL     1      35.511 -77.592  36.247  1.00  0.00     0.107 A 
ATOM      6  C   UNL     1      34.388 -77.689  37.100  1.00  0.00     0.134 A 
ATOM      7  C   UNL     1      33.113 -77.897  36.550  1.00  0.00     0.093 A 
ATOM      8  C   UNL     1      32.943 -78.008  35.169  1.00  0.00     0.123 A 
ATOM      9  C   UNL     1      34.051 -77.913  34.319  1.00  0.00     0.094 A 
ATOM     10  C   UNL     1      35.328 -77.707  34.847  1.00  0.00     0.146 A 
ATOM     11  O   UNL     1      36.366 -77.623  34.021  1.00  0.00    -0.456 OA
ENDROOT
BRANCH   1  12
ATOM     12  C   UNL     1      38.699 -77.353  33.421  1.00  0.00     0.021 A 
ATOM     13  C   UNL     1      38.366 -77.261  32.060  1.00  0.00     0.016 A 
ATOM     14  C   UNL     1      39.364 -77.191  31.089  1.00  0.00     0.051 A 
ATOM     15  C   UNL     1      40.715 -77.221  31.448  1.00  0.00     0.157 A 
ATOM     16  C   UNL     1      40.058 -77.399  33.784  1.00  0.00     0.062 A 
ATOM     17  C   UNL     1      41.067 -77.332  32.814  1.00  0.00     0.158 A 
BRANCH  15  18
ATOM     18  O   UNL     1      41.665 -77.142  30.427  1.00  0.00    -0.504 OA
ATOM     19  H   UNL     1      41.437 -76.987  29.456  1.00  0.00     0.293 HD
ENDBRANCH  15  18
BRANCH  17  20
ATOM     20  O   UNL     1      42.394 -77.384  33.248  1.00  0.00    -0.504 OA
ATOM     21  H   UNL     1      42.670 -77.397  34.219  1.00  0.00     0.293 HD
ENDBRANCH  17  20
ENDBRANCH   1  12
BRANCH   6  22
ATOM     22  O   UNL     1      34.526 -77.580  38.485  1.00  0.00    -0.507 OA
ATOM     23  H   UNL     1      35.130 -78.202  39.010  1.00  0.00     0.293 HD
ENDBRANCH   6  22
BRANCH   8  24
ATOM     24  O   UNL     1      31.667 -78.213  34.648  1.00  0.00    -0.508 OA
ATOM     25  H   UNL     1      31.402 -79.096  34.226  1.00  0.00     0.293 HD
ENDBRANCH   8  24
TORSDOF 5
ENDMDL
MODEL 5
REMARK VINA RESULT:    -5.578     15.518     17.647
REMARK INTER + INTRA:          -6.824
REMARK INTER:                  -6.509
REMARK INTRA:                  -0.315
REMARK UNBOUND:                -0.268
REMARK SMILES O=c1cc(-c2ccc(O)c(O)c2)oc2cc(O)cc(O)c12
REMARK SMILES IDX 4 1 3 2 2 3 1 4 21 5 19 6 18 7 16 8 15 9 14 10 13 11 5 12
REMARK SMILES IDX 6 13 7 14 8 15 12 16 10 17 9 18 11 20 20 22 17 24
REMARK H PARENT 9 19 11 21 20 23 17 25
REMARK Flexibility Score: inf
ROOT
ATOM      1  C   UNL     1      36.318 -77.333  33.706  1.00  0.00     0.138 A 
ATOM      2  C   UNL     1      35.850 -77.143  32.395  1.00  0.00     0.100 A 
ATOM      3  C   UNL     1      36.764 -77.056  31.345  1.00  0.00     0.197 A 
ATOM      4  O   UNL     1      36.334 -76.883  30.172  1.00  0.00    -0.289 OA
ATOM      5  C   UNL     1      38.144 -77.156  31.613  1.00  0.00     0.107 A 
ATOM      6  C   UNL     1      39.136 -77.080  30.608  1.00  0.00     0.134 A 
ATOM      7  C   UNL     1      40.490 -77.184  30.959  1.00  0.00     0.093 A 
ATOM      8  C   UNL     1      40.869 -77.361  32.291  1.00  0.00     0.123 A 
ATOM      9  C   UNL     1      39.893 -77.438  33.290  1.00  0.00     0.094 A 
ATOM     10  C   UNL     1      38.538 -77.337  32.961  1.00  0.00     0.146 A 
ATOM     11  O   UNL     1      37.629 -77.415  33.927  1.00  0.00    -0.456 OA
ENDROOT
BRANCH   1  12
ATOM     12  C   UNL     1      35.393 -77.433  34.862  1.00  0.00     0.021 A 
ATOM     13  C   UNL     1      34.058 -77.021  34.718  1.00  0.00     0.016 A 
ATOM     14  C   UNL     1      33.172 -77.100  35.792  1.00  0.00     0.051 A 
ATOM     15  C   UNL     1      33.595 -77.579  37.035  1.00  0.00     0.157 A 
ATOM     16  C   UNL     1      35.824 -77.902  36.118  1.00  0.00     0.062 A 
ATOM     17  C   UNL     1      34.941 -77.982  37.202  1.00  0.00     0.158 A 
BRANCH  15  18
ATOM     18  O   UNL     1      32.655 -77.637  38.067  1.00  0.00    -0.504 OA
ATOM     19  H   UNL     1      32.806 -78.121  38.940  1.00  0.00     0.293 HD
ENDBRANCH  15  18
BRANCH  17  20
ATOM     20  O   UNL     1      35.440 -78.456  38.417  1.00  0.00    -0.504 OA
ATOM     21  H   UNL     1      36.251 -79.051  38.500  1.00  0.00     0.293 HD
ENDBRANCH  17  20
ENDBRANCH   1  12
BRANCH   6  22
ATOM     22  O   UNL     1      38.788 -76.902  29.268  1.00  0.00    -0.507 OA
ATOM     23  H   UNL     1      39.489 -76.801  28.544  1.00  0.00     0.293 HD
ENDBRANCH   6  22
BRANCH   8  24
ATOM     24  O   UNL     1      42.222 -77.461  32.613  1.00  0.00    -0.508 OA
ATOM     25  H   UNL     1      42.727 -78.335  32.514  1.00  0.00     0.293 HD
ENDBRANCH   8  24
TORSDOF 5
ENDMDL
MODEL 6
REMARK VINA RESULT:    -5.464      9.182     10.644
REMARK INTER + INTRA:          -6.690
REMARK INTER:                  -6.414
REMARK INTRA:                  -0.275
REMARK UNBOUND:                -0.268
REMARK SMILES O=c1cc(-c2ccc(O)c(O)c2)oc2cc(O)cc(O)c12
REMARK SMILES IDX 4 1 3 2 2 3 1 4 21 5 19 6 18 7 16 8 15 9 14 10 13 11 5 12
REMARK SMILES IDX 6 13 7 14 8 15 12 16 10 17 9 18 11 20 20 22 17 24
REMARK H PARENT 9 19 11 21 20 23 17 25
REMARK Flexibility Score: inf
ROOT
ATOM      1  C   UNL     1      36.221 -95.359  29.997  1.00  0.00     0.138 A 
ATOM      2  C   UNL     1      37.305 -95.711  29.175  1.00  0.00     0.100 A 
ATOM      3  C   UNL     1      38.596 -95.707  29.703  1.00  0.00     0.197 A 
ATOM      4  O   UNL     1      39.563 -96.022  28.957  1.00  0.00    -0.289 OA
ATOM      5  C   UNL     1      38.796 -95.347  31.051  1.00  0.00     0.107 A 
ATOM      6  C   UNL     1      40.070 -95.318  31.664  1.00  0.00     0.134 A 
ATOM      7  C   UNL     1      40.185 -94.944  33.012  1.00  0.00     0.093 A 
ATOM      8  C   UNL     1      39.053 -94.598  33.754  1.00  0.00     0.123 A 
ATOM      9  C   UNL     1      37.790 -94.625  33.153  1.00  0.00     0.094 A 
ATOM     10  C   UNL     1      37.655 -94.996  31.812  1.00  0.00     0.146 A 
ATOM     11  O   UNL     1      36.444 -95.016  31.264  1.00  0.00    -0.456 OA
ENDROOT
BRANCH   1  12
ATOM     12  C   UNL     1      34.826 -95.345  29.490  1.00  0.00     0.021 A 
ATOM     13  C   UNL     1      34.471 -94.453  28.465  1.00  0.00     0.016 A 
ATOM     14  C   UNL     1      33.165 -94.417  27.976  1.00  0.00     0.051 A 
ATOM     15  C   UNL     1      32.181 -95.260  28.503  1.00  0.00     0.157 A 
ATOM     16  C   UNL     1      33.832 -96.184  30.031  1.00  0.00     0.062 A 
ATOM     17  C   UNL     1      32.518 -96.152  29.548  1.00  0.00     0.158 A 
BRANCH  15  18
ATOM     18  O   UNL     1      30.895 -95.177  27.965  1.00  0.00    -0.504 OA
ATOM     19  H   UNL     1      30.057 -95.071  28.518  1.00  0.00     0.293 HD
ENDBRANCH  15  18
BRANCH  17  20
ATOM     20  O   UNL     1      31.586 -97.011  30.134  1.00  0.00    -0.504 OA
ATOM     21  H   UNL     1      31.572 -97.243  31.116  1.00  0.00     0.293 HD
ENDBRANCH  17  20
ENDBRANCH   1  12
BRANCH   6  22
ATOM     22  O   UNL     1      41.219 -95.658  30.948  1.00  0.00    -0.507 OA
ATOM     23  H   UNL     1      41.605 -95.046  30.238  1.00  0.00     0.293 HD
ENDBRANCH   6  22
BRANCH   8  24
ATOM     24  O   UNL     1      39.195 -94.229  35.090  1.00  0.00    -0.508 OA
ATOM     25  H   UNL     1      38.754 -93.394  35.459  1.00  0.00     0.293 HD
ENDBRANCH   8  24
TORSDOF 5
ENDMDL
MODEL 7
REMARK VINA RESULT:    -5.360     17.166     18.358
REMARK INTER + INTRA:          -6.567
REMARK INTER:                  -6.254
REMARK INTRA:                  -0.314
REMARK UNBOUND:                -0.268
REMARK SMILES O=c1cc(-c2ccc(O)c(O)c2)oc2cc(O)cc(O)c12
REMARK SMILES IDX 4 1 3 2 2 3 1 4 21 5 19 6 18 7 16 8 15 9 14 10 13 11 5 12
REMARK SMILES IDX 6 13 7 14 8 15 12 16 10 17 9 18 11 20 20 22 17 24
REMARK H PARENT 9 19 11 21 20 23 17 25
REMARK Flexibility Score: inf
ROOT
ATOM      1  C   UNL     1      39.143 -77.276  36.613  1.00  0.00     0.138 A 
ATOM      2  C   UNL     1      37.790 -77.258  36.239  1.00  0.00     0.100 A 
ATOM      3  C   UNL     1      37.452 -77.251  34.885  1.00  0.00     0.197 A 
ATOM      4  O   UNL     1      36.234 -77.233  34.559  1.00  0.00    -0.289 OA
ATOM      5  C   UNL     1      38.472 -77.258  33.913  1.00  0.00     0.107 A 
ATOM      6  C   UNL     1      38.217 -77.254  32.522  1.00  0.00     0.134 A 
ATOM      7  C   UNL     1      39.289 -77.257  31.618  1.00  0.00     0.093 A 
ATOM      8  C   UNL     1      40.608 -77.263  32.078  1.00  0.00     0.123 A 
ATOM      9  C   UNL     1      40.868 -77.269  33.453  1.00  0.00     0.094 A 
ATOM     10  C   UNL     1      39.812 -77.267  34.369  1.00  0.00     0.146 A 
ATOM     11  O   UNL     1      40.084 -77.274  35.670  1.00  0.00    -0.456 OA
ENDROOT
BRANCH   1  12
ATOM     12  C   UNL     1      39.563 -77.284  38.038  1.00  0.00     0.021 A 
ATOM     13  C   UNL     1      38.653 -76.882  39.029  1.00  0.00     0.016 A 
ATOM     14  C   UNL     1      39.025 -76.875  40.373  1.00  0.00     0.051 A 
ATOM     15  C   UNL     1      40.314 -77.257  40.760  1.00  0.00     0.157 A 
ATOM     16  C   UNL     1      40.865 -77.655  38.424  1.00  0.00     0.062 A 
ATOM     17  C   UNL     1      41.247 -77.648  39.772  1.00  0.00     0.158 A 
BRANCH  15  18
ATOM     18  O   UNL     1      40.620 -77.234  42.122  1.00  0.00    -0.504 OA
ATOM     19  H   UNL     1      40.090 -77.723  42.828  1.00  0.00     0.293 HD
ENDBRANCH  15  18
BRANCH  17  20
ATOM     20  O   UNL     1      42.556 -78.028  40.080  1.00  0.00    -0.504 OA
ATOM     21  H   UNL     1      43.253 -78.261  39.389  1.00  0.00     0.293 HD
ENDBRANCH  17  20
ENDBRANCH   1  12
BRANCH   6  22
ATOM     22  O   UNL     1      36.909 -77.246  32.033  1.00  0.00    -0.507 OA
ATOM     23  H   UNL     1      36.158 -77.728  32.512  1.00  0.00     0.293 HD
ENDBRANCH   6  22
BRANCH   8  24
ATOM     24  O   UNL     1      41.656 -77.266  31.159  1.00  0.00    -0.508 OA
ATOM     25  H   UNL     1      41.859 -78.079  30.590  1.00  0.00     0.293 HD
ENDBRANCH   8  24
TORSDOF 5
ENDMDL
MODEL 8
REMARK VINA RESULT:    -5.353     15.682     18.016
REMARK INTER + INTRA:          -6.559
REMARK INTER:                  -6.246
REMARK INTRA:                  -0.313
REMARK UNBOUND:                -0.268
REMARK SMILES O=c1cc(-c2ccc(O)c(O)c2)oc2cc(O)cc(O)c12
REMARK SMILES IDX 4 1 3 2 2 3 1 4 21 5 19 6 18 7 16 8 15 9 14 10 13 11 5 12
REMARK SMILES IDX 6 13 7 14 8 15 12 16 10 17 9 18 11 20 20 22 17 24
REMARK H PARENT 9 19 11 21 20 23 17 25
REMARK Flexibility Score: inf
ROOT
ATOM      1  C   UNL     1      37.872 -77.251  35.185  1.00  0.00     0.138 A 
ATOM      2  C   UNL     1      39.163 -77.254  35.738  1.00  0.00     0.100 A 
ATOM      3  C   UNL     1      40.272 -77.252  34.891  1.00  0.00     0.197 A 
ATOM      4  O   UNL     1      41.428 -77.256  35.397  1.00  0.00    -0.289 OA
ATOM      5  C   UNL     1      40.082 -77.251  33.495  1.00  0.00     0.107 A 
ATOM      6  C   UNL     1      41.150 -77.248  32.568  1.00  0.00     0.134 A 
ATOM      7  C   UNL     1      40.876 -77.252  31.192  1.00  0.00     0.093 A 
ATOM      8  C   UNL     1      39.559 -77.261  30.728  1.00  0.00     0.123 A 
ATOM      9  C   UNL     1      38.498 -77.264  31.640  1.00  0.00     0.094 A 
ATOM     10  C   UNL     1      38.750 -77.259  33.014  1.00  0.00     0.146 A 
ATOM     11  O   UNL     1      37.726 -77.259  33.861  1.00  0.00    -0.456 OA
ENDROOT
BRANCH   1  12
ATOM     12  C   UNL     1      36.655 -77.253  36.036  1.00  0.00     0.021 A 
ATOM     13  C   UNL     1      36.753 -76.876  37.384  1.00  0.00     0.016 A 
ATOM     14  C   UNL     1      35.625 -76.875  38.205  1.00  0.00     0.051 A 
ATOM     15  C   UNL     1      34.377 -77.261  37.705  1.00  0.00     0.157 A 
ATOM     16  C   UNL     1      35.402 -77.655  35.535  1.00  0.00     0.062 A 
ATOM     17  C   UNL     1      34.265 -77.661  36.353  1.00  0.00     0.158 A 
BRANCH  15  18
ATOM     18  O   UNL     1      33.287 -77.232  38.578  1.00  0.00    -0.504 OA
ATOM     19  H   UNL     1      32.339 -77.441  38.303  1.00  0.00     0.293 HD
ENDBRANCH  15  18
BRANCH  17  20
ATOM     20  O   UNL     1      33.056 -78.073  35.787  1.00  0.00    -0.504 OA
ATOM     21  H   UNL     1      32.908 -78.981  35.372  1.00  0.00     0.293 HD
ENDBRANCH  17  20
ENDBRANCH   1  12
BRANCH   6  22
ATOM     22  O   UNL     1      42.477 -77.241  33.001  1.00  0.00    -0.507 OA
ATOM     23  H   UNL     1      42.716 -77.247  33.986  1.00  0.00     0.293 HD
ENDBRANCH   6  22
BRANCH   8  24
ATOM     24  O   UNL     1      39.314 -77.266  29.356  1.00  0.00    -0.508 OA
ATOM     25  H   UNL     1      39.415 -78.109  28.802  1.00  0.00     0.293 HD
ENDBRANCH   8  24
TORSDOF 5
ENDMDL
