MODEL 1
REMARK VINA RESULT:     5.104      0.000      0.000
REMARK INTER + INTRA:           6.511
REMARK INTER:                   6.149
REMARK INTRA:                   0.362
REMARK UNBOUND:                 0.362
REMARK SMILES O=c1c(O)c(-c2ccc(O)c(O)c2)oc2cc(O)cc(O)c12
REMARK SMILES IDX 5 1 3 2 2 3 1 4 22 5 20 6 19 7 17 8 16 9 15 10 14 11 6 12
REMARK SMILES IDX 7 13 8 14 9 15 13 16 11 17 10 18 12 20 4 22 21 24 18 26
REMARK H PARENT 10 19 12 21 4 23 21 25 18 27
REMARK Flexibility Score: inf
ROOT
ATOM      1  C   UNL     1       3.261   1.157 -18.749  1.00  0.00     0.180 A 
ATOM      2  C   UNL     1       3.176  -0.248 -18.743  1.00  0.00     0.208 A 
ATOM      3  C   UNL     1       3.091  -0.927 -19.969  1.00  0.00     0.238 A 
ATOM      4  O   UNL     1       3.025  -2.188 -19.976  1.00  0.00    -0.285 OA
ATOM      5  C   UNL     1       3.072  -0.194 -21.172  1.00  0.00     0.111 A 
ATOM      6  C   UNL     1       2.984  -0.801 -22.448  1.00  0.00     0.134 A 
ATOM      7  C   UNL     1       2.961  -0.001 -23.600  1.00  0.00     0.093 A 
ATOM      8  C   UNL     1       3.024   1.392 -23.501  1.00  0.00     0.123 A 
ATOM      9  C   UNL     1       3.111   1.997 -22.244  1.00  0.00     0.094 A 
ATOM     10  C   UNL     1       3.137   1.216 -21.084  1.00  0.00     0.146 A 
ATOM     11  O   UNL     1       3.225   1.817 -19.903  1.00  0.00    -0.452 OA
ENDROOT
BRANCH   1  12
ATOM     12  C   UNL     1       3.372   1.944 -17.499  1.00  0.00     0.025 A 
ATOM     13  C   UNL     1       2.887   3.261 -17.418  1.00  0.00     0.016 A 
ATOM     14  C   UNL     1       2.981   3.976 -16.221  1.00  0.00     0.051 A 
ATOM     15  C   UNL     1       3.546   3.385 -15.087  1.00  0.00     0.157 A 
ATOM     16  C   UNL     1       3.919   1.346 -16.352  1.00  0.00     0.062 A 
ATOM     17  C   UNL     1       4.014   2.063 -15.150  1.00  0.00     0.158 A 
BRANCH  15  18
ATOM     18  O   UNL     1       3.627   4.125 -13.907  1.00  0.00    -0.504 OA
ATOM     19  H   UNL     1       4.373   4.790 -13.740  1.00  0.00     0.293 HD
ENDBRANCH  15  18
BRANCH  17  20
ATOM     20  O   UNL     1       4.572   1.465 -14.020  1.00  0.00    -0.504 OA
ATOM     21  H   UNL     1       4.210   0.595 -13.646  1.00  0.00     0.293 HD
ENDBRANCH  17  20
ENDBRANCH   1  12
BRANCH   2  22
ATOM     22  O   UNL     1       3.147  -0.949 -17.535  1.00  0.00    -0.502 OA
ATOM     23  H   UNL     1       2.700  -0.582 -16.704  1.00  0.00     0.293 HD
ENDBRANCH   2  22
BRANCH   6  24
ATOM     24  O   UNL     1       2.919  -2.190 -22.580  1.00  0.00    -0.507 OA
ATOM     25  H   UNL     1       3.353  -2.809 -21.906  1.00  0.00     0.293 HD
ENDBRANCH   6  24
BRANCH   8  26
ATOM     26  O   UNL     1       2.998   2.163 -24.661  1.00  0.00    -0.508 OA
ATOM     27  H   UNL     1       3.549   3.008 -24.747  1.00  0.00     0.293 HD
ENDBRANCH   8  26
TORSDOF 6
ENDMDL
MODEL 2
REMARK VINA RESULT:     6.938      1.492      7.191
REMARK INTER + INTRA:           8.720
REMARK INTER:                   8.268
REMARK INTRA:                   0.452
REMARK UNBOUND:                 0.362
REMARK SMILES O=c1c(O)c(-c2ccc(O)c(O)c2)oc2cc(O)cc(O)c12
REMARK SMILES IDX 5 1 3 2 2 3 1 4 22 5 20 6 19 7 17 8 16 9 15 10 14 11 6 12
REMARK SMILES IDX 7 13 8 14 9 15 13 16 11 17 10 18 12 20 4 22 21 24 18 26
REMARK H PARENT 10 19 12 21 4 23 21 25 18 27
REMARK Flexibility Score: inf
ROOT
ATOM      1  C   UNL     1       3.602   0.995 -19.376  1.00  0.00     0.180 A 
ATOM      2  C   UNL     1       3.368   2.365 -19.153  1.00  0.00     0.208 A 
ATOM      3  C   UNL     1       3.608   2.895 -17.876  1.00  0.00     0.238 A 
ATOM      4  O   UNL     1       3.412   4.124 -17.666  1.00  0.00    -0.285 OA
ATOM      5  C   UNL     1       4.058   2.048 -16.842  1.00  0.00     0.111 A 
ATOM      6  C   UNL     1       4.320   2.502 -15.527  1.00  0.00     0.134 A 
ATOM      7  C   UNL     1       4.756   1.593 -14.552  1.00  0.00     0.093 A 
ATOM      8  C   UNL     1       4.935   0.243 -14.864  1.00  0.00     0.123 A 
ATOM      9  C   UNL     1       4.678  -0.210 -16.162  1.00  0.00     0.094 A 
ATOM     10  C   UNL     1       4.244   0.680 -17.148  1.00  0.00     0.146 A 
ATOM     11  O   UNL     1       4.012   0.223 -18.374  1.00  0.00    -0.452 OA
ENDROOT
BRANCH   1  12
ATOM     12  C   UNL     1       3.390   0.366 -20.700  1.00  0.00     0.025 A 
ATOM     13  C   UNL     1       3.071   1.134 -21.833  1.00  0.00     0.016 A 
ATOM     14  C   UNL     1       2.899   0.521 -23.076  1.00  0.00     0.051 A 
ATOM     15  C   UNL     1       3.056  -0.862 -23.211  1.00  0.00     0.157 A 
ATOM     16  C   UNL     1       3.569  -1.020 -20.843  1.00  0.00     0.062 A 
ATOM     17  C   UNL     1       3.396  -1.637 -22.091  1.00  0.00     0.158 A 
BRANCH  15  18
ATOM     18  O   UNL     1       2.877  -1.445 -24.465  1.00  0.00    -0.504 OA
ATOM     19  H   UNL     1       2.274  -1.034 -25.168  1.00  0.00     0.293 HD
ENDBRANCH  15  18
BRANCH  17  20
ATOM     20  O   UNL     1       3.562  -3.016 -22.219  1.00  0.00    -0.504 OA
ATOM     21  H   UNL     1       4.226  -3.526 -21.649  1.00  0.00     0.293 HD
ENDBRANCH  17  20
ENDBRANCH   1  12
BRANCH   2  22
ATOM     22  O   UNL     1       2.875   3.175 -20.180  1.00  0.00    -0.502 OA
ATOM     23  H   UNL     1       2.456   4.079 -20.005  1.00  0.00     0.293 HD
ENDBRANCH   2  22
BRANCH   6  24
ATOM     24  O   UNL     1       4.150   3.844 -15.183  1.00  0.00    -0.507 OA
ATOM     25  H   UNL     1       4.940   4.453 -15.009  1.00  0.00     0.293 HD
ENDBRANCH   6  24
BRANCH   8  26
ATOM     26  O   UNL     1       5.368  -0.638 -13.876  1.00  0.00    -0.508 OA
ATOM     27  H   UNL     1       5.806  -1.521 -14.109  1.00  0.00     0.293 HD
ENDBRANCH   8  26
TORSDOF 6
ENDMDL
