MODEL 1
REMARK VINA RESULT:    -3.445      0.000      0.000
REMARK INTER + INTRA:          -4.220
REMARK INTER:                  -4.049
REMARK INTRA:                  -0.171
REMARK UNBOUND:                -0.171
REMARK SMILES O=C([O-])CCC(=O)[O-]
REMARK SMILES IDX 4 1 2 2 1 3 3 4 5 5 6 6 7 7 8 8
REMARK H PARENT
REMARK Flexibility Score: inf
ROOT
ATOM      1  C   UNL     1      -9.383   4.608  -9.200  1.00  0.00     0.059 C 
ENDROOT
BRANCH   1   2
ATOM      2  C   UNL     1      -8.406   3.762  -8.447  1.00  0.00     0.042 C 
ATOM      3  O   UNL     1      -8.483   3.666  -7.194  1.00  0.00    -0.550 OA
ATOM      4  O   UNL     1      -7.378   3.117  -9.124  1.00  0.00    -0.550 OA
ENDBRANCH   1   2
BRANCH   1   5
ATOM      5  C   UNL     1      -9.151   6.090  -8.898  1.00  0.00     0.059 C 
BRANCH   5   6
ATOM      6  C   UNL     1      -7.844   6.541  -9.466  1.00  0.00     0.042 C 
ATOM      7  O   UNL     1      -7.003   7.124  -8.732  1.00  0.00    -0.550 OA
ATOM      8  O   UNL     1      -7.573   6.364 -10.817  1.00  0.00    -0.550 OA
ENDBRANCH   5   6
ENDBRANCH   1   5
TORSDOF 3
ENDMDL
MODEL 2
REMARK VINA RESULT:    -3.378      1.306      1.609
REMARK INTER + INTRA:          -4.141
REMARK INTER:                  -4.020
REMARK INTRA:                  -0.122
REMARK UNBOUND:                -0.171
REMARK SMILES O=C([O-])CCC(=O)[O-]
REMARK SMILES IDX 4 1 2 2 1 3 3 4 5 5 6 6 7 7 8 8
REMARK H PARENT
REMARK Flexibility Score: inf
ROOT
ATOM      1  C   UNL     1      -8.956   4.280  -7.591  1.00  0.00     0.059 C 
ENDROOT
BRANCH   1   2
ATOM      2  C   UNL     1      -9.159   2.998  -8.335  1.00  0.00     0.042 C 
ATOM      3  O   UNL     1      -8.168   2.317  -8.708  1.00  0.00    -0.550 OA
ATOM      4  O   UNL     1     -10.443   2.579  -8.660  1.00  0.00    -0.550 OA
ENDBRANCH   1   2
BRANCH   1   5
ATOM      5  C   UNL     1      -9.257   5.477  -8.495  1.00  0.00     0.059 C 
BRANCH   5   6
ATOM      6  C   UNL     1      -8.042   5.859  -9.279  1.00  0.00     0.042 C 
ATOM      7  O   UNL     1      -7.233   6.706  -8.819  1.00  0.00    -0.550 OA
ATOM      8  O   UNL     1      -7.829   5.316 -10.540  1.00  0.00    -0.550 OA
ENDBRANCH   5   6
ENDBRANCH   1   5
TORSDOF 3
ENDMDL
MODEL 3
REMARK VINA RESULT:    -3.374      1.388      3.133
REMARK INTER + INTRA:          -4.137
REMARK INTER:                  -3.964
REMARK INTRA:                  -0.174
REMARK UNBOUND:                -0.171
REMARK SMILES O=C([O-])CCC(=O)[O-]
REMARK SMILES IDX 4 1 2 2 1 3 3 4 5 5 6 6 7 7 8 8
REMARK H PARENT
REMARK Flexibility Score: inf
ROOT
ATOM      1  C   UNL     1      -8.997   5.195  -7.997  1.00  0.00     0.059 C 
ENDROOT
BRANCH   1   2
ATOM      2  C   UNL     1      -8.611   6.407  -8.783  1.00  0.00     0.042 C 
ATOM      3  O   UNL     1      -9.466   7.007  -9.485  1.00  0.00    -0.550 OA
ATOM      4  O   UNL     1      -7.293   6.848  -8.779  1.00  0.00    -0.550 OA
ENDBRANCH   1   2
BRANCH   1   5
ATOM      5  C   UNL     1      -9.457   4.074  -8.932  1.00  0.00     0.059 C 
BRANCH   5   6
ATOM      6  C   UNL     1      -8.311   3.576  -9.754  1.00  0.00     0.042 C 
ATOM      7  O   UNL     1      -7.382   2.920  -9.214  1.00  0.00    -0.550 OA
ATOM      8  O   UNL     1      -8.243   3.878 -11.109  1.00  0.00    -0.550 OA
ENDBRANCH   5   6
ENDBRANCH   1   5
TORSDOF 3
ENDMDL
MODEL 4
REMARK VINA RESULT:    -3.333     16.278     18.058
REMARK INTER + INTRA:          -4.089
REMARK INTER:                  -4.004
REMARK INTRA:                  -0.085
REMARK UNBOUND:                -0.171
REMARK SMILES O=C([O-])CCC(=O)[O-]
REMARK SMILES IDX 4 1 2 2 1 3 3 4 5 5 6 6 7 7 8 8
REMARK H PARENT
REMARK Flexibility Score: inf
ROOT
ATOM      1  C   UNL     1      -1.892 -10.366  -9.738  1.00  0.00     0.059 C 
ENDROOT
BRANCH   1   2
ATOM      2  C   UNL     1      -2.898 -10.156 -10.825  1.00  0.00     0.042 C 
ATOM      3  O   UNL     1      -2.558  -9.612 -11.908  1.00  0.00    -0.550 OA
ATOM      4  O   UNL     1      -4.224 -10.519 -10.624  1.00  0.00    -0.550 OA
ENDBRANCH   1   2
BRANCH   1   5
ATOM      5  C   UNL     1      -0.837 -11.385 -10.175  1.00  0.00     0.059 C 
BRANCH   5   6
ATOM      6  C   UNL     1      -0.859 -12.580  -9.277  1.00  0.00     0.042 C 
ATOM      7  O   UNL     1       0.218 -13.124  -8.921  1.00  0.00    -0.550 OA
ATOM      8  O   UNL     1      -2.072 -13.124  -8.873  1.00  0.00    -0.550 OA
ENDBRANCH   5   6
ENDBRANCH   1   5
TORSDOF 3
ENDMDL
MODEL 5
REMARK VINA RESULT:    -3.177     15.325     16.254
REMARK INTER + INTRA:          -3.905
REMARK INTER:                  -3.847
REMARK INTRA:                  -0.058
REMARK UNBOUND:                -0.171
REMARK SMILES O=C([O-])CCC(=O)[O-]
REMARK SMILES IDX 4 1 2 2 1 3 3 4 5 5 6 6 7 7 8 8
REMARK H PARENT
REMARK Flexibility Score: inf
ROOT
ATOM      1  C   UNL     1      -1.884  -9.281 -10.708  1.00  0.00     0.059 C 
ENDROOT
BRANCH   1   2
ATOM      2  C   UNL     1      -2.725 -10.423 -10.232  1.00  0.00     0.042 C 
ATOM      3  O   UNL     1      -2.202 -11.372  -9.590  1.00  0.00    -0.550 OA
ATOM      4  O   UNL     1      -4.079 -10.465 -10.539  1.00  0.00    -0.550 OA
ENDBRANCH   1   2
BRANCH   1   5
ATOM      5  C   UNL     1      -0.409  -9.533 -10.388  1.00  0.00     0.059 C 
BRANCH   5   6
ATOM      6  C   UNL     1       0.270  -8.255 -10.014  1.00  0.00     0.042 C 
ATOM      7  O   UNL     1      -0.393  -7.189  -9.919  1.00  0.00    -0.550 OA
ATOM      8  O   UNL     1       1.646  -8.229  -9.818  1.00  0.00    -0.550 OA
ENDBRANCH   5   6
ENDBRANCH   1   5
TORSDOF 3
ENDMDL
MODEL 6
REMARK VINA RESULT:    -3.172     16.334     17.995
REMARK INTER + INTRA:          -3.899
REMARK INTER:                  -3.867
REMARK INTRA:                  -0.032
REMARK UNBOUND:                -0.171
REMARK SMILES O=C([O-])CCC(=O)[O-]
REMARK SMILES IDX 4 1 2 2 1 3 3 4 5 5 6 6 7 7 8 8
REMARK H PARENT
REMARK Flexibility Score: inf
ROOT
ATOM      1  C   UNL     1      -0.683 -11.583 -10.823  1.00  0.00     0.059 C 
ENDROOT
BRANCH   1   2
ATOM      2  C   UNL     1       0.485 -12.093 -10.041  1.00  0.00     0.042 C 
ATOM      3  O   UNL     1       1.637 -11.626 -10.242  1.00  0.00    -0.550 OA
ATOM      4  O   UNL     1       0.311 -13.120  -9.121  1.00  0.00    -0.550 OA
ENDBRANCH   1   2
BRANCH   1   5
ATOM      5  C   UNL     1      -1.778 -11.076  -9.882  1.00  0.00     0.059 C 
BRANCH   5   6
ATOM      6  C   UNL     1      -2.747 -10.213 -10.624  1.00  0.00     0.042 C 
ATOM      7  O   UNL     1      -2.343  -9.193 -11.241  1.00  0.00    -0.550 OA
ATOM      8  O   UNL     1      -4.106 -10.506 -10.593  1.00  0.00    -0.550 OA
ENDBRANCH   5   6
ENDBRANCH   1   5
TORSDOF 3
ENDMDL
MODEL 7
REMARK VINA RESULT:    -0.690      0.121      3.216
REMARK INTER + INTRA:          -0.982
REMARK INTER:                  -0.806
REMARK INTRA:                  -0.177
REMARK UNBOUND:                -0.171
REMARK SMILES O=C([O-])CCC(=O)[O-]
REMARK SMILES IDX 4 1 2 2 1 3 3 4 5 5 6 6 7 7 8 8
REMARK H PARENT
REMARK Flexibility Score: inf
ROOT
ATOM      1  C   UNL     1      -9.175   6.051  -8.775  1.00  0.00     0.059 C 
ENDROOT
BRANCH   1   2
ATOM      2  C   UNL     1      -7.864   6.529  -9.315  1.00  0.00     0.042 C 
ATOM      3  O   UNL     1      -7.048   7.125  -8.564  1.00  0.00    -0.550 OA
ATOM      4  O   UNL     1      -7.563   6.359 -10.661  1.00  0.00    -0.550 OA
ENDBRANCH   1   2
BRANCH   1   5
ATOM      5  C   UNL     1      -9.403   4.584  -9.147  1.00  0.00     0.059 C 
BRANCH   5   6
ATOM      6  C   UNL     1      -8.434   3.704  -8.424  1.00  0.00     0.042 C 
ATOM      7  O   UNL     1      -8.498   3.585  -7.172  1.00  0.00    -0.550 OA
ATOM      8  O   UNL     1      -7.428   3.053  -9.127  1.00  0.00    -0.550 OA
ENDBRANCH   5   6
ENDBRANCH   1   5
TORSDOF 3
ENDMDL
