MODEL 1
REMARK VINA RESULT:    -3.553      0.000      0.000
REMARK INTER + INTRA:          -4.048
REMARK INTER:                  -5.008
REMARK INTRA:                   0.959
REMARK UNBOUND:                 0.959
REMARK SMILES C[C@H](CO)CCC(=O)[C@H](C)[C@@H]1C(=O)C[C@@H]2[C@@H]3CC=C4C[C@H](O)CC[C@@]4(C)[C@H]3CC[C@@]21C
REMARK SMILES IDX 6 1 5 2 2 3 1 4 3 5 4 6 7 8 8 9 9 10 10 11 11 12 12 13 30 14
REMARK SMILES IDX 13 15 14 16 15 17 29 18 31 19 16 20 28 21 27 22 17 23 25 24
REMARK SMILES IDX 18 25 19 26 24 27 26 28 20 29 23 30 21 31 22 32
REMARK H PARENT 4 7 22 33
REMARK Flexibility Score: inf
ROOT
ATOM      1  C   UNL     1       2.889  38.093  12.127  1.00  0.00     0.076 C 
ENDROOT
BRANCH   1   2
ATOM      2  C   UNL     1       1.635  37.631  12.893  1.00  0.00     0.013 C 
BRANCH   2   3
ATOM      3  C   UNL     1       0.522  37.039  11.995  1.00  0.00     0.012 C 
ATOM      4  C   UNL     1      -0.881  37.362  12.538  1.00  0.00     0.010 C 
BRANCH   3   5
ATOM      5  C   UNL     1       0.703  35.525  11.760  1.00  0.00     0.159 C 
BRANCH   5   6
ATOM      6  O   UNL     1       0.362  35.187  10.441  1.00  0.00    -0.396 OA
ATOM      7  H   UNL     1       0.885  34.376  10.204  1.00  0.00     0.210 HD
ENDBRANCH   5   6
ENDBRANCH   3   5
ENDBRANCH   2   3
ENDBRANCH   1   2
BRANCH   1   8
ATOM      8  C   UNL     1       3.552  39.254  12.828  1.00  0.00     0.136 C 
ATOM      9  O   UNL     1       3.864  39.135  14.005  1.00  0.00    -0.299 OA
BRANCH   8  10
ATOM     10  C   UNL     1       3.862  40.559  12.112  1.00  0.00     0.064 C 
ATOM     11  C   UNL     1       5.361  40.859  12.285  1.00  0.00     0.017 C 
BRANCH  10  12
ATOM     12  C   UNL     1       2.945  41.732  12.612  1.00  0.00     0.072 C 
ATOM     13  C   UNL     1       1.495  41.350  12.735  1.00  0.00     0.137 C 
ATOM     14  C   UNL     1       2.867  43.030  11.728  1.00  0.00    -0.019 C 
ATOM     15  O   UNL     1       1.101  40.290  13.195  1.00  0.00    -0.299 OA
ATOM     16  C   UNL     1       0.559  42.414  12.303  1.00  0.00     0.080 C 
ATOM     17  C   UNL     1       1.478  43.626  12.103  1.00  0.00     0.007 C 
ATOM     18  C   UNL     1       2.891  42.693  10.204  1.00  0.00     0.008 C 
ATOM     19  C   UNL     1       3.989  44.032  12.100  1.00  0.00     0.012 C 
ATOM     20  C   UNL     1       0.936  44.726  11.136  1.00  0.00     0.001 C 
ATOM     21  C   UNL     1       2.470  43.865   9.318  1.00  0.00     0.005 C 
ATOM     22  C   UNL     1       1.035  44.343   9.644  1.00  0.00     0.003 C 
ATOM     23  C   UNL     1      -0.521  45.081  11.473  1.00  0.00     0.031 C 
ATOM     24  C   UNL     1       0.516  45.499   8.683  1.00  0.00    -0.008 C 
ATOM     25  C   UNL     1      -1.028  46.170  10.589  1.00  0.00    -0.027 C 
ATOM     26  C   UNL     1      -0.623  46.328   9.311  1.00  0.00    -0.065 C 
ATOM     27  C   UNL     1       1.657  46.506   8.322  1.00  0.00     0.014 C 
ATOM     28  C   UNL     1      -0.014  44.827   7.391  1.00  0.00     0.016 C 
ATOM     29  C   UNL     1      -1.125  47.534   8.542  1.00  0.00     0.063 C 
ATOM     30  C   UNL     1       1.181  47.754   7.549  1.00  0.00     0.033 C 
ATOM     31  C   UNL     1       0.047  48.484   8.279  1.00  0.00     0.118 C 
BRANCH  31  32
ATOM     32  O   UNL     1      -0.384  49.563   7.493  1.00  0.00    -0.393 OA
ATOM     33  H   UNL     1      -1.329  49.378   7.246  1.00  0.00     0.210 HD
ENDBRANCH  31  32
ENDBRANCH  10  12
ENDBRANCH   8  10
ENDBRANCH   1   8
TORSDOF 8
ENDMDL
MODEL 2
REMARK VINA RESULT:    -1.383      2.351      3.444
REMARK INTER + INTRA:          -0.990
REMARK INTER:                  -3.567
REMARK INTRA:                   2.577
REMARK UNBOUND:                 0.959
REMARK SMILES C[C@H](CO)CCC(=O)[C@H](C)[C@@H]1C(=O)C[C@@H]2[C@@H]3CC=C4C[C@H](O)CC[C@@]4(C)[C@H]3CC[C@@]21C
REMARK SMILES IDX 6 1 5 2 2 3 1 4 3 5 4 6 7 8 8 9 9 10 10 11 11 12 12 13 30 14
REMARK SMILES IDX 13 15 14 16 15 17 29 18 31 19 16 20 28 21 27 22 17 23 25 24
REMARK SMILES IDX 18 25 19 26 24 27 26 28 20 29 23 30 21 31 22 32
REMARK H PARENT 4 7 22 33
REMARK Flexibility Score: inf
ROOT
ATOM      1  C   UNL     1       2.087  40.158  13.457  1.00  0.00     0.076 C 
ENDROOT
BRANCH   1   2
ATOM      2  C   UNL     1       0.584  39.867  13.291  1.00  0.00     0.013 C 
BRANCH   2   3
ATOM      3  C   UNL     1      -0.323  40.603  14.307  1.00  0.00     0.012 C 
ATOM      4  C   UNL     1      -1.101  41.755  13.648  1.00  0.00     0.010 C 
BRANCH   3   5
ATOM      5  C   UNL     1       0.457  41.082  15.548  1.00  0.00     0.159 C 
BRANCH   5   6
ATOM      6  O   UNL     1      -0.274  42.061  16.241  1.00  0.00    -0.396 OA
ATOM      7  H   UNL     1      -1.200  42.042  15.879  1.00  0.00     0.210 HD
ENDBRANCH   5   6
ENDBRANCH   3   5
ENDBRANCH   2   3
ENDBRANCH   1   2
BRANCH   1   8
ATOM      8  C   UNL     1       2.532  41.255  12.520  1.00  0.00     0.136 C 
ATOM      9  O   UNL     1       1.861  42.275  12.441  1.00  0.00    -0.299 OA
BRANCH   8  10
ATOM     10  C   UNL     1       3.798  41.139  11.685  1.00  0.00     0.064 C 
ATOM     11  C   UNL     1       4.878  40.459  12.542  1.00  0.00     0.017 C 
BRANCH  10  12
ATOM     12  C   UNL     1       4.256  42.533  11.121  1.00  0.00     0.072 C 
ATOM     13  C   UNL     1       4.379  43.596  12.179  1.00  0.00     0.137 C 
ATOM     14  C   UNL     1       3.331  43.233  10.060  1.00  0.00    -0.019 C 
ATOM     15  O   UNL     1       4.869  43.413  13.282  1.00  0.00    -0.299 OA
ATOM     16  C   UNL     1       3.909  44.930  11.741  1.00  0.00     0.080 C 
ATOM     17  C   UNL     1       3.678  44.741  10.236  1.00  0.00     0.007 C 
ATOM     18  C   UNL     1       1.819  43.011  10.374  1.00  0.00     0.008 C 
ATOM     19  C   UNL     1       3.680  42.776   8.621  1.00  0.00     0.012 C 
ATOM     20  C   UNL     1       2.675  45.742   9.580  1.00  0.00     0.001 C 
ATOM     21  C   UNL     1       0.895  43.945   9.594  1.00  0.00     0.005 C 
ATOM     22  C   UNL     1       1.196  45.432   9.896  1.00  0.00     0.003 C 
ATOM     23  C   UNL     1       2.991  47.186   9.999  1.00  0.00     0.031 C 
ATOM     24  C   UNL     1       0.196  46.442   9.180  1.00  0.00    -0.008 C 
ATOM     25  C   UNL     1       2.070  48.154   9.334  1.00  0.00    -0.027 C 
ATOM     26  C   UNL     1       0.790  47.856   9.023  1.00  0.00    -0.065 C 
ATOM     27  C   UNL     1      -0.188  45.954   7.745  1.00  0.00     0.014 C 
ATOM     28  C   UNL     1      -1.079  46.533  10.058  1.00  0.00     0.016 C 
ATOM     29  C   UNL     1      -0.019  48.879   8.252  1.00  0.00     0.063 C 
ATOM     30  C   UNL     1      -1.002  46.976   6.924  1.00  0.00     0.033 C 
ATOM     31  C   UNL     1      -0.302  48.339   6.847  1.00  0.00     0.118 C 
BRANCH  31  32
ATOM     32  O   UNL     1      -1.124  49.237   6.151  1.00  0.00    -0.393 OA
ATOM     33  H   UNL     1      -2.016  49.208   6.587  1.00  0.00     0.210 HD
ENDBRANCH  31  32
ENDBRANCH  10  12
ENDBRANCH   8  10
ENDBRANCH   1   8
TORSDOF 8
ENDMDL
MODEL 3
REMARK VINA RESULT:    -0.741      2.500      8.488
REMARK INTER + INTRA:          -0.086
REMARK INTER:                  -1.714
REMARK INTRA:                   1.629
REMARK UNBOUND:                 0.959
REMARK SMILES C[C@H](CO)CCC(=O)[C@H](C)[C@@H]1C(=O)C[C@@H]2[C@@H]3CC=C4C[C@H](O)CC[C@@]4(C)[C@H]3CC[C@@]21C
REMARK SMILES IDX 6 1 5 2 2 3 1 4 3 5 4 6 7 8 8 9 9 10 10 11 11 12 12 13 30 14
REMARK SMILES IDX 13 15 14 16 15 17 29 18 31 19 16 20 28 21 27 22 17 23 25 24
REMARK SMILES IDX 18 25 19 26 24 27 26 28 20 29 23 30 21 31 22 32
REMARK H PARENT 4 7 22 33
REMARK Flexibility Score: inf
ROOT
ATOM      1  C   UNL     1       3.365  47.902   7.495  1.00  0.00     0.076 C 
ENDROOT
BRANCH   1   2
ATOM      2  C   UNL     1       4.475  48.590   8.311  1.00  0.00     0.013 C 
BRANCH   2   3
ATOM      3  C   UNL     1       5.524  47.618   8.905  1.00  0.00     0.012 C 
ATOM      4  C   UNL     1       5.015  46.946  10.192  1.00  0.00     0.010 C 
BRANCH   3   5
ATOM      5  C   UNL     1       6.892  48.297   9.124  1.00  0.00     0.159 C 
BRANCH   5   6
ATOM      6  O   UNL     1       7.857  47.349   9.500  1.00  0.00    -0.396 OA
ATOM      7  H   UNL     1       7.384  46.640  10.012  1.00  0.00     0.210 HD
ENDBRANCH   5   6
ENDBRANCH   3   5
ENDBRANCH   2   3
ENDBRANCH   1   2
BRANCH   1   8
ATOM      8  C   UNL     1       2.023  48.059   8.169  1.00  0.00     0.136 C 
ATOM      9  O   UNL     1       1.980  48.512   9.305  1.00  0.00    -0.299 OA
BRANCH   8  10
ATOM     10  C   UNL     1       0.722  47.691   7.474  1.00  0.00     0.064 C 
ATOM     11  C   UNL     1      -0.098  48.977   7.276  1.00  0.00     0.017 C 
BRANCH  10  12
ATOM     12  C   UNL     1      -0.066  46.581   8.259  1.00  0.00     0.072 C 
ATOM     13  C   UNL     1      -0.602  47.049   9.584  1.00  0.00     0.137 C 
ATOM     14  C   UNL     1       0.713  45.277   8.664  1.00  0.00    -0.019 C 
ATOM     15  O   UNL     1      -1.125  48.137   9.767  1.00  0.00    -0.299 OA
ATOM     16  C   UNL     1      -0.503  46.036  10.659  1.00  0.00     0.080 C 
ATOM     17  C   UNL     1      -0.077  44.769   9.906  1.00  0.00     0.007 C 
ATOM     18  C   UNL     1       2.185  45.589   9.080  1.00  0.00     0.008 C 
ATOM     19  C   UNL     1       0.661  44.217   7.535  1.00  0.00     0.012 C 
ATOM     20  C   UNL     1       0.648  43.688  10.768  1.00  0.00     0.001 C 
ATOM     21  C   UNL     1       2.867  44.430   9.806  1.00  0.00     0.005 C 
ATOM     22  C   UNL     1       2.114  44.042  11.101  1.00  0.00     0.003 C 
ATOM     23  C   UNL     1      -0.118  43.424  12.073  1.00  0.00     0.031 C 
ATOM     24  C   UNL     1       2.839  42.904  11.942  1.00  0.00    -0.008 C 
ATOM     25  C   UNL     1       0.540  42.353  12.878  1.00  0.00    -0.027 C 
ATOM     26  C   UNL     1       1.874  42.153  12.882  1.00  0.00    -0.065 C 
ATOM     27  C   UNL     1       3.492  41.827  11.015  1.00  0.00     0.014 C 
ATOM     28  C   UNL     1       3.936  43.587  12.799  1.00  0.00     0.016 C 
ATOM     29  C   UNL     1       2.420  40.967  13.652  1.00  0.00     0.063 C 
ATOM     30  C   UNL     1       4.048  40.598  11.763  1.00  0.00     0.033 C 
ATOM     31  C   UNL     1       2.990  39.946  12.663  1.00  0.00     0.118 C 
BRANCH  31  32
ATOM     32  O   UNL     1       3.577  38.883  13.365  1.00  0.00    -0.393 OA
ATOM     33  H   UNL     1       4.414  38.649  12.884  1.00  0.00     0.210 HD
ENDBRANCH  31  32
ENDBRANCH  10  12
ENDBRANCH   8  10
ENDBRANCH   1   8
TORSDOF 8
ENDMDL
