MODEL 1
REMARK VINA RESULT:    17.136      0.000      0.000
REMARK INTER + INTRA:          27.686
REMARK INTER:                  28.156
REMARK INTRA:                  -0.470
REMARK UNBOUND:                -0.470
REMARK SMILES C[C@@H]1O[C@@H](OC[C@H]2O[C@H](Oc3c(-c4ccc(O)c(O)c4)oc4cc(O)cc(O)c4c3=O)[C@@H](O)[C@@H](O)[C@@H]2O)[C@H](O)[C@@H](O)[C@@H]1O
REMARK SMILES IDX 7 1 36 2 34 3 32 4 9 5 8 6 6 7 5 8 4 9 1 10 2 11 42 12 3 13
REMARK SMILES IDX 40 14 38 15 43 16 41 18 39 20 37 22 35 24 10 26 11 27 12 28
REMARK SMILES IDX 30 29 21 30 29 31 31 32 22 33 27 34 23 35 26 36 24 37 13 38
REMARK SMILES IDX 20 39 14 40 18 41 15 42 16 43 19 44 17 46 28 48 25 50 33 52
REMARK H PARENT 43 17 41 19 39 21 37 23 35 25 19 45 17 47 28 49 25 51 33 53
REMARK Flexibility Score: inf
ROOT
ATOM      1  C   UNL     1       2.081   9.765  12.454  1.00  0.00     0.180 C 
ATOM      2  C   UNL     1       1.167  10.418  11.377  1.00  0.00     0.177 C 
ATOM      3  C   UNL     1       0.712  11.806  11.843  1.00  0.00     0.180 C 
ATOM      4  C   UNL     1       1.946  12.695  12.113  1.00  0.00     0.214 C 
ATOM      5  C   UNL     1       3.081  11.892  12.822  1.00  0.00     0.339 C 
ATOM      6  O   UNL     1       2.603  10.692  13.401  1.00  0.00    -0.332 OA
ENDROOT
BRANCH   1   7
ATOM      7  C   UNL     1       3.193   8.906  11.831  1.00  0.00     0.198 C 
BRANCH   7   8
ATOM      8  O   UNL     1       4.362   9.016  12.618  1.00  0.00    -0.347 OA
BRANCH   8   9
ATOM      9  C   UNL     1       5.465   8.404  11.966  1.00  0.00     0.281 C 
ATOM     10  C   UNL     1       4.478   4.875  12.335  1.00  0.00     0.041 C 
ATOM     11  C   UNL     1       4.923   6.268  12.781  1.00  0.00     0.150 C 
ATOM     12  C   UNL     1       6.163   6.195  13.704  1.00  0.00     0.174 C 
ATOM     13  O   UNL     1       5.194   7.049  11.629  1.00  0.00    -0.344 OA
ATOM     14  C   UNL     1       6.602   7.614  14.096  1.00  0.00     0.179 C 
ATOM     15  C   UNL     1       6.722   8.513  12.847  1.00  0.00     0.202 C 
BRANCH  12  16
ATOM     16  O   UNL     1       7.227   5.541  13.054  1.00  0.00    -0.388 OA
ATOM     17  H   UNL     1       6.877   5.199  12.192  1.00  0.00     0.211 HD
ENDBRANCH  12  16
BRANCH  14  18
ATOM     18  O   UNL     1       5.669   8.165  14.993  1.00  0.00    -0.387 OA
ATOM     19  H   UNL     1       4.779   7.779  14.757  1.00  0.00     0.211 HD
ENDBRANCH  14  18
BRANCH  15  20
ATOM     20  O   UNL     1       7.848   8.142  12.095  1.00  0.00    -0.385 OA
ATOM     21  H   UNL     1       8.527   8.854  12.226  1.00  0.00     0.211 HD
ENDBRANCH  15  20
ENDBRANCH   8   9
ENDBRANCH   7   8
ENDBRANCH   1   7
BRANCH   2  22
ATOM     22  O   UNL     1       0.069   9.588  11.076  1.00  0.00    -0.387 OA
ATOM     23  H   UNL     1      -0.054   8.960  11.841  1.00  0.00     0.211 HD
ENDBRANCH   2  22
BRANCH   3  24
ATOM     24  O   UNL     1      -0.124  12.388  10.875  1.00  0.00    -0.387 OA
ATOM     25  H   UNL     1       0.064  11.922  10.020  1.00  0.00     0.211 HD
ENDBRANCH   3  24
BRANCH   5  26
ATOM     26  O   UNL     1       3.713  12.692  13.836  1.00  0.00    -0.454 OA
BRANCH  26  27
ATOM     27  C   UNL     1       3.515  14.078  13.954  1.00  0.00     0.214 A 
ATOM     28  C   UNL     1       2.858  14.643  15.071  1.00  0.00     0.180 A 
ATOM     29  C   UNL     1       3.968  14.934  12.941  1.00  0.00     0.239 A 
ATOM     30  O   UNL     1       2.580  15.944  15.091  1.00  0.00    -0.452 OA
ATOM     31  C   UNL     1       3.669  16.310  13.005  1.00  0.00     0.111 A 
ATOM     32  O   UNL     1       4.627  14.459  11.977  1.00  0.00    -0.285 OA
ATOM     33  C   UNL     1       2.935  16.777  14.122  1.00  0.00     0.146 A 
ATOM     34  C   UNL     1       4.042  17.227  11.995  1.00  0.00     0.134 A 
ATOM     35  C   UNL     1       2.576  18.124  14.214  1.00  0.00     0.094 A 
ATOM     36  C   UNL     1       3.670  18.574  12.103  1.00  0.00     0.093 A 
ATOM     37  C   UNL     1       2.936  19.020  13.207  1.00  0.00     0.123 A 
BRANCH  28  38
ATOM     38  C   UNL     1       2.490  13.839  16.248  1.00  0.00     0.025 A 
ATOM     39  C   UNL     1       2.992  14.172  17.513  1.00  0.00     0.062 A 
ATOM     40  C   UNL     1       1.654  12.715  16.107  1.00  0.00     0.016 A 
ATOM     41  C   UNL     1       2.638  13.416  18.637  1.00  0.00     0.158 A 
ATOM     42  C   UNL     1       1.320  11.940  17.221  1.00  0.00     0.051 A 
ATOM     43  C   UNL     1       1.804  12.290  18.489  1.00  0.00     0.157 A 
BRANCH  41  44
ATOM     44  O   UNL     1       3.124  13.799  19.892  1.00  0.00    -0.504 OA
ATOM     45  H   UNL     1       4.113  13.768  20.105  1.00  0.00     0.293 HD
ENDBRANCH  41  44
BRANCH  43  46
ATOM     46  O   UNL     1       1.471  11.517  19.600  1.00  0.00    -0.504 OA
ATOM     47  H   UNL     1       2.057  10.742  19.903  1.00  0.00     0.293 HD
ENDBRANCH  43  46
ENDBRANCH  28  38
BRANCH  34  48
ATOM     48  O   UNL     1       4.770  16.811  10.882  1.00  0.00    -0.507 OA
ATOM     49  H   UNL     1       4.410  16.907   9.940  1.00  0.00     0.293 HD
ENDBRANCH  34  48
BRANCH  37  50
ATOM     50  O   UNL     1       2.565  20.358  13.316  1.00  0.00    -0.508 OA
ATOM     51  H   UNL     1       1.618  20.662  13.134  1.00  0.00     0.293 HD
ENDBRANCH  37  50
ENDBRANCH  26  27
ENDBRANCH   5  26
BRANCH   4  52
ATOM     52  O   UNL     1       2.415  13.292  10.926  1.00  0.00    -0.384 OA
ATOM     53  H   UNL     1       2.031  14.206  10.864  1.00  0.00     0.211 HD
ENDBRANCH   4  52
TORSDOF 16
ENDMDL
MODEL 2
REMARK VINA RESULT:    18.015      1.136      1.872
REMARK INTER + INTRA:          29.130
REMARK INTER:                  30.456
REMARK INTRA:                  -1.326
REMARK UNBOUND:                -0.470
REMARK SMILES C[C@@H]1O[C@@H](OC[C@H]2O[C@H](Oc3c(-c4ccc(O)c(O)c4)oc4cc(O)cc(O)c4c3=O)[C@@H](O)[C@@H](O)[C@@H]2O)[C@H](O)[C@@H](O)[C@@H]1O
REMARK SMILES IDX 7 1 36 2 34 3 32 4 9 5 8 6 6 7 5 8 4 9 1 10 2 11 42 12 3 13
REMARK SMILES IDX 40 14 38 15 43 16 41 18 39 20 37 22 35 24 10 26 11 27 12 28
REMARK SMILES IDX 30 29 21 30 29 31 31 32 22 33 27 34 23 35 26 36 24 37 13 38
REMARK SMILES IDX 20 39 14 40 18 41 15 42 16 43 19 44 17 46 28 48 25 50 33 52
REMARK H PARENT 43 17 41 19 39 21 37 23 35 25 19 45 17 47 28 49 25 51 33 53
REMARK Flexibility Score: inf
ROOT
ATOM      1  C   UNL     1       1.896   9.204  13.822  1.00  0.00     0.180 C 
ATOM      2  C   UNL     1       1.159   9.520  12.488  1.00  0.00     0.177 C 
ATOM      3  C   UNL     1       1.029  11.036  12.304  1.00  0.00     0.180 C 
ATOM      4  C   UNL     1       2.430  11.684  12.313  1.00  0.00     0.214 C 
ATOM      5  C   UNL     1       3.350  11.038  13.394  1.00  0.00     0.339 C 
ATOM      6  O   UNL     1       2.610  10.313  14.359  1.00  0.00    -0.332 OA
ENDROOT
BRANCH   1   7
ATOM      7  C   UNL     1       2.787   7.957  13.714  1.00  0.00     0.198 C 
BRANCH   7   8
ATOM      8  O   UNL     1       4.136   8.358  13.585  1.00  0.00    -0.347 OA
BRANCH   8   9
ATOM      9  C   UNL     1       4.995   7.228  13.548  1.00  0.00     0.281 C 
ATOM     10  C   UNL     1       8.160   8.865  14.479  1.00  0.00     0.041 C 
ATOM     11  C   UNL     1       6.940   8.544  13.615  1.00  0.00     0.150 C 
ATOM     12  C   UNL     1       7.352   8.189  12.167  1.00  0.00     0.174 C 
ATOM     13  O   UNL     1       6.226   7.476  14.216  1.00  0.00    -0.344 OA
ATOM     14  C   UNL     1       6.105   7.835  11.344  1.00  0.00     0.179 C 
ATOM     15  C   UNL     1       5.235   6.800  12.089  1.00  0.00     0.202 C 
BRANCH  12  16
ATOM     16  O   UNL     1       8.241   7.098  12.158  1.00  0.00    -0.388 OA
ATOM     17  H   UNL     1       7.696   6.277  12.275  1.00  0.00     0.211 HD
ENDBRANCH  12  16
BRANCH  14  18
ATOM     18  O   UNL     1       5.355   9.000  11.099  1.00  0.00    -0.387 OA
ATOM     19  H   UNL     1       6.008   9.722  10.880  1.00  0.00     0.211 HD
ENDBRANCH  14  18
BRANCH  15  20
ATOM     20  O   UNL     1       5.864   5.545  12.073  1.00  0.00    -0.385 OA
ATOM     21  H   UNL     1       5.143   4.863  12.070  1.00  0.00     0.211 HD
ENDBRANCH  15  20
ENDBRANCH   8   9
ENDBRANCH   7   8
ENDBRANCH   1   7
BRANCH   2  22
ATOM     22  O   UNL     1      -0.097   8.883  12.442  1.00  0.00    -0.387 OA
ATOM     23  H   UNL     1      -0.473   8.890  13.364  1.00  0.00     0.211 HD
ENDBRANCH   2  22
BRANCH   3  24
ATOM     24  O   UNL     1       0.351  11.319  11.106  1.00  0.00    -0.387 OA
ATOM     25  H   UNL     1       0.390  12.302  10.983  1.00  0.00     0.211 HD
ENDBRANCH   3  24
BRANCH   5  26
ATOM     26  O   UNL     1       4.142  12.040  14.054  1.00  0.00    -0.454 OA
BRANCH  26  27
ATOM     27  C   UNL     1       3.897  13.417  13.928  1.00  0.00     0.214 A 
ATOM     28  C   UNL     1       2.987  14.092  14.772  1.00  0.00     0.180 A 
ATOM     29  C   UNL     1       4.561  14.153  12.937  1.00  0.00     0.239 A 
ATOM     30  O   UNL     1       2.689  15.368  14.544  1.00  0.00    -0.452 OA
ATOM     31  C   UNL     1       4.231  15.509  12.735  1.00  0.00     0.111 A 
ATOM     32  O   UNL     1       5.436  13.588  12.227  1.00  0.00    -0.285 OA
ATOM     33  C   UNL     1       3.247  16.082  13.577  1.00  0.00     0.146 A 
ATOM     34  C   UNL     1       4.816  16.301  11.720  1.00  0.00     0.134 A 
ATOM     35  C   UNL     1       2.854  17.410  13.393  1.00  0.00     0.094 A 
ATOM     36  C   UNL     1       4.406  17.630  11.550  1.00  0.00     0.093 A 
ATOM     37  C   UNL     1       3.424  18.182  12.380  1.00  0.00     0.123 A 
BRANCH  28  38
ATOM     38  C   UNL     1       2.365  13.434  15.933  1.00  0.00     0.025 A 
ATOM     39  C   UNL     1       2.895  13.625  17.217  1.00  0.00     0.062 A 
ATOM     40  C   UNL     1       1.255  12.587  15.760  1.00  0.00     0.016 A 
ATOM     41  C   UNL     1       2.302  13.008  18.326  1.00  0.00     0.158 A 
ATOM     42  C   UNL     1       0.677  11.946  16.859  1.00  0.00     0.051 A 
ATOM     43  C   UNL     1       1.193  12.158  18.145  1.00  0.00     0.157 A 
BRANCH  41  44
ATOM     44  O   UNL     1       2.831  13.251  19.599  1.00  0.00    -0.504 OA
ATOM     45  H   UNL     1       2.239  13.272  20.419  1.00  0.00     0.293 HD
ENDBRANCH  41  44
BRANCH  43  46
ATOM     46  O   UNL     1       0.617  11.519  19.242  1.00  0.00    -0.504 OA
ATOM     47  H   UNL     1      -0.290  11.802  19.606  1.00  0.00     0.293 HD
ENDBRANCH  43  46
ENDBRANCH  28  38
BRANCH  34  48
ATOM     48  O   UNL     1       5.792  15.779  10.875  1.00  0.00    -0.507 OA
ATOM     49  H   UNL     1       5.754  15.903   9.871  1.00  0.00     0.293 HD
ENDBRANCH  34  48
BRANCH  37  50
ATOM     50  O   UNL     1       3.015  19.502  12.211  1.00  0.00    -0.508 OA
ATOM     51  H   UNL     1       3.662  20.274  12.305  1.00  0.00     0.293 HD
ENDBRANCH  37  50
ENDBRANCH  26  27
ENDBRANCH   5  26
BRANCH   4  52
ATOM     52  O   UNL     1       3.029  11.623  11.038  1.00  0.00    -0.384 OA
ATOM     53  H   UNL     1       3.556  10.783  10.981  1.00  0.00     0.211 HD
ENDBRANCH   4  52
TORSDOF 16
ENDMDL
