MODEL 1
REMARK VINA RESULT:    -2.525      0.000      0.000
REMARK INTER + INTRA:          -3.262
REMARK INTER:                  -3.189
REMARK INTRA:                  -0.073
REMARK UNBOUND:                -0.073
REMARK SMILES CSCC[C@H]([NH3+])C(=O)[O-]
REMARK SMILES IDX 4 1 5 2 6 3 7 7 8 8 9 9 3 10 2 11 1 12
REMARK H PARENT 6 4 6 5 6 6
REMARK Flexibility Score: inf
ROOT
ATOM      1  C   UNL     1       2.994   3.853  -4.216  1.00  0.00     0.082 C 
ENDROOT
BRANCH   1   2
ATOM      2  C   UNL     1       4.125   3.479  -5.203  1.00  0.00     0.228 C 
BRANCH   2   3
ATOM      3  N   UNL     1       4.933   2.356  -4.706  1.00  0.00    -0.350 N 
ATOM      4  H   UNL     1       5.442   2.639  -3.836  1.00  0.00     0.345 HD
ATOM      5  H   UNL     1       5.653   2.089  -5.415  1.00  0.00     0.345 HD
ATOM      6  H   UNL     1       4.329   1.528  -4.492  1.00  0.00     0.345 HD
ENDBRANCH   2   3
BRANCH   2   7
ATOM      7  C   UNL     1       5.002   4.681  -5.433  1.00  0.00     0.099 C 
ATOM      8  O   UNL     1       4.485   5.808  -5.655  1.00  0.00    -0.544 OA
ATOM      9  O   UNL     1       6.385   4.563  -5.372  1.00  0.00    -0.544 OA
ENDBRANCH   2   7
ENDBRANCH   1   2
BRANCH   1  10
ATOM     10  C   UNL     1       1.586   3.838  -4.831  1.00  0.00     0.076 C 
BRANCH  10  11
ATOM     11  S   UNL     1       0.357   3.017  -3.749  1.00  0.00    -0.165 SA
ATOM     12  C   UNL     1       0.721   3.998  -2.256  1.00  0.00     0.085 C 
ENDBRANCH  10  11
ENDBRANCH   1  10
TORSDOF 5
ENDMDL
MODEL 2
REMARK VINA RESULT:    -2.454      3.329      4.294
REMARK INTER + INTRA:          -3.172
REMARK INTER:                  -3.117
REMARK INTRA:                  -0.055
REMARK UNBOUND:                -0.073
REMARK SMILES CSCC[C@H]([NH3+])C(=O)[O-]
REMARK SMILES IDX 4 1 5 2 6 3 7 7 8 8 9 9 3 10 2 11 1 12
REMARK H PARENT 6 4 6 5 6 6
REMARK Flexibility Score: inf
ROOT
ATOM      1  C   UNL     1       5.150   2.108  -5.185  1.00  0.00     0.082 C 
ENDROOT
BRANCH   1   2
ATOM      2  C   UNL     1       5.540   3.565  -5.529  1.00  0.00     0.228 C 
BRANCH   2   3
ATOM      3  N   UNL     1       6.833   3.938  -4.937  1.00  0.00    -0.350 N 
ATOM      4  H   UNL     1       6.682   4.585  -4.128  1.00  0.00     0.345 HD
ATOM      5  H   UNL     1       7.415   4.449  -5.639  1.00  0.00     0.345 HD
ATOM      6  H   UNL     1       7.349   3.091  -4.605  1.00  0.00     0.345 HD
ENDBRANCH   2   3
BRANCH   2   7
ATOM      7  C   UNL     1       4.462   4.496  -5.040  1.00  0.00     0.099 C 
ATOM      8  O   UNL     1       3.655   4.118  -4.151  1.00  0.00    -0.544 OA
ATOM      9  O   UNL     1       4.370   5.788  -5.544  1.00  0.00    -0.544 OA
ENDBRANCH   2   7
ENDBRANCH   1   2
BRANCH   1  10
ATOM     10  C   UNL     1       6.329   1.123  -5.168  1.00  0.00     0.076 C 
BRANCH  10  11
ATOM     11  S   UNL     1       6.033  -0.309  -4.065  1.00  0.00    -0.165 SA
ATOM     12  C   UNL     1       7.533  -0.091  -3.051  1.00  0.00     0.085 C 
ENDBRANCH  10  11
ENDBRANCH   1  10
TORSDOF 5
ENDMDL
MODEL 3
REMARK VINA RESULT:    -2.349      4.753      5.898
REMARK INTER + INTRA:          -3.040
REMARK INTER:                  -2.971
REMARK INTRA:                  -0.069
REMARK UNBOUND:                -0.073
REMARK SMILES CSCC[C@H]([NH3+])C(=O)[O-]
REMARK SMILES IDX 4 1 5 2 6 3 7 7 8 8 9 9 3 10 2 11 1 12
REMARK H PARENT 6 4 6 5 6 6
REMARK Flexibility Score: inf
ROOT
ATOM      1  C   UNL     1       1.030   3.944  -2.686  1.00  0.00     0.082 C 
ENDROOT
BRANCH   1   2
ATOM      2  C   UNL     1      -0.434   4.315  -2.350  1.00  0.00     0.228 C 
BRANCH   2   3
ATOM      3  N   UNL     1      -0.511   5.486  -1.465  1.00  0.00    -0.350 N 
ATOM      4  H   UNL     1      -1.281   5.356  -0.767  1.00  0.00     0.345 HD
ATOM      5  H   UNL     1      -0.735   6.342  -2.020  1.00  0.00     0.345 HD
ATOM      6  H   UNL     1       0.392   5.626  -0.954  1.00  0.00     0.345 HD
ENDBRANCH   2   3
BRANCH   2   7
ATOM      7  C   UNL     1      -1.109   3.135  -1.704  1.00  0.00     0.099 C 
ATOM      8  O   UNL     1      -1.542   3.222  -0.524  1.00  0.00    -0.544 OA
ATOM      9  O   UNL     1      -1.287   1.954  -2.413  1.00  0.00    -0.544 OA
ENDBRANCH   2   7
ENDBRANCH   1   2
BRANCH   1  10
ATOM     10  C   UNL     1       1.358   3.953  -4.188  1.00  0.00     0.076 C 
BRANCH  10  11
ATOM     11  S   UNL     1       3.158   3.868  -4.513  1.00  0.00    -0.165 SA
ATOM     12  C   UNL     1       3.169   5.075  -5.880  1.00  0.00     0.085 C 
ENDBRANCH  10  11
ENDBRANCH   1  10
TORSDOF 5
ENDMDL
MODEL 4
REMARK VINA RESULT:    -2.339      1.568      1.595
REMARK INTER + INTRA:          -3.026
REMARK INTER:                  -2.951
REMARK INTRA:                  -0.075
REMARK UNBOUND:                -0.073
REMARK SMILES CSCC[C@H]([NH3+])C(=O)[O-]
REMARK SMILES IDX 4 1 5 2 6 3 7 7 8 8 9 9 3 10 2 11 1 12
REMARK H PARENT 6 4 6 5 6 6
REMARK Flexibility Score: inf
ROOT
ATOM      1  C   UNL     1       3.752   4.109  -4.373  1.00  0.00     0.082 C 
ENDROOT
BRANCH   1   2
ATOM      2  C   UNL     1       4.879   4.045  -5.431  1.00  0.00     0.228 C 
BRANCH   2   3
ATOM      3  N   UNL     1       6.210   3.999  -4.809  1.00  0.00    -0.350 N 
ATOM      4  H   UNL     1       6.650   4.948  -4.837  1.00  0.00     0.345 HD
ATOM      5  H   UNL     1       6.833   3.351  -5.342  1.00  0.00     0.345 HD
ATOM      6  H   UNL     1       6.145   3.682  -3.814  1.00  0.00     0.345 HD
ENDBRANCH   2   3
BRANCH   2   7
ATOM      7  C   UNL     1       4.776   5.241  -6.339  1.00  0.00     0.099 C 
ATOM      8  O   UNL     1       4.253   6.308  -5.923  1.00  0.00    -0.544 OA
ATOM      9  O   UNL     1       5.285   5.187  -7.631  1.00  0.00    -0.544 OA
ENDBRANCH   2   7
ENDBRANCH   1   2
BRANCH   1  10
ATOM     10  C   UNL     1       2.467   3.366  -4.769  1.00  0.00     0.076 C 
BRANCH  10  11
ATOM     11  S   UNL     1       1.073   3.721  -3.635  1.00  0.00    -0.165 SA
ATOM     12  C   UNL     1       0.112   2.223  -4.029  1.00  0.00     0.085 C 
ENDBRANCH  10  11
ENDBRANCH   1  10
TORSDOF 5
ENDMDL
MODEL 5
REMARK VINA RESULT:    -2.277      2.564      3.017
REMARK INTER + INTRA:          -2.948
REMARK INTER:                  -2.729
REMARK INTRA:                  -0.220
REMARK UNBOUND:                -0.073
REMARK SMILES CSCC[C@H]([NH3+])C(=O)[O-]
REMARK SMILES IDX 4 1 5 2 6 3 7 7 8 8 9 9 3 10 2 11 1 12
REMARK H PARENT 6 4 6 5 6 6
REMARK Flexibility Score: inf
ROOT
ATOM      1  C   UNL     1       5.071   2.192  -5.176  1.00  0.00     0.082 C 
ENDROOT
BRANCH   1   2
ATOM      2  C   UNL     1       5.513   3.631  -5.532  1.00  0.00     0.228 C 
BRANCH   2   3
ATOM      3  N   UNL     1       6.811   3.967  -4.929  1.00  0.00    -0.350 N 
ATOM      4  H   UNL     1       6.985   4.997  -5.008  1.00  0.00     0.345 HD
ATOM      5  H   UNL     1       7.582   3.481  -5.440  1.00  0.00     0.345 HD
ATOM      6  H   UNL     1       6.834   3.695  -3.919  1.00  0.00     0.345 HD
ENDBRANCH   2   3
BRANCH   2   7
ATOM      7  C   UNL     1       4.462   4.603  -5.067  1.00  0.00     0.099 C 
ATOM      8  O   UNL     1       3.674   4.286  -4.137  1.00  0.00    -0.544 OA
ATOM      9  O   UNL     1       4.372   5.866  -5.639  1.00  0.00    -0.544 OA
ENDBRANCH   2   7
ENDBRANCH   1   2
BRANCH   1  10
ATOM     10  C   UNL     1       4.368   1.444  -6.320  1.00  0.00     0.076 C 
BRANCH  10  11
ATOM     11  S   UNL     1       2.612   1.080  -5.946  1.00  0.00    -0.165 SA
ATOM     12  C   UNL     1       1.919   2.502  -6.851  1.00  0.00     0.085 C 
ENDBRANCH  10  11
ENDBRANCH   1  10
TORSDOF 5
ENDMDL
MODEL 6
REMARK VINA RESULT:    -2.244     12.137     12.927
REMARK INTER + INTRA:          -2.907
REMARK INTER:                  -2.729
REMARK INTRA:                  -0.177
REMARK UNBOUND:                -0.073
REMARK SMILES CSCC[C@H]([NH3+])C(=O)[O-]
REMARK SMILES IDX 4 1 5 2 6 3 7 7 8 8 9 9 3 10 2 11 1 12
REMARK H PARENT 6 4 6 5 6 6
REMARK Flexibility Score: inf
ROOT
ATOM      1  C   UNL     1       2.424   7.109   8.109  1.00  0.00     0.082 C 
ENDROOT
BRANCH   1   2
ATOM      2  C   UNL     1       2.326   6.117   6.925  1.00  0.00     0.228 C 
BRANCH   2   3
ATOM      3  N   UNL     1       1.741   6.747   5.733  1.00  0.00    -0.350 N 
ATOM      4  H   UNL     1       2.502   7.058   5.085  1.00  0.00     0.345 HD
ATOM      5  H   UNL     1       1.197   7.596   6.006  1.00  0.00     0.345 HD
ATOM      6  H   UNL     1       1.116   6.077   5.227  1.00  0.00     0.345 HD
ENDBRANCH   2   3
BRANCH   2   7
ATOM      7  C   UNL     1       1.498   4.930   7.340  1.00  0.00     0.099 C 
ATOM      8  O   UNL     1       0.709   4.392   6.519  1.00  0.00    -0.544 OA
ATOM      9  O   UNL     1       1.621   4.401   8.619  1.00  0.00    -0.544 OA
ENDBRANCH   2   7
ENDBRANCH   1   2
BRANCH   1  10
ATOM     10  C   UNL     1       3.831   7.238   8.713  1.00  0.00     0.076 C 
BRANCH  10  11
ATOM     11  S   UNL     1       5.153   7.072   7.457  1.00  0.00    -0.165 SA
ATOM     12  C   UNL     1       4.974   8.747   6.760  1.00  0.00     0.085 C 
ENDBRANCH  10  11
ENDBRANCH   1  10
TORSDOF 5
ENDMDL
MODEL 7
REMARK VINA RESULT:    -2.193     11.615     12.209
REMARK INTER + INTRA:          -2.842
REMARK INTER:                  -2.680
REMARK INTRA:                  -0.162
REMARK UNBOUND:                -0.073
REMARK SMILES CSCC[C@H]([NH3+])C(=O)[O-]
REMARK SMILES IDX 4 1 5 2 6 3 7 7 8 8 9 9 3 10 2 11 1 12
REMARK H PARENT 6 4 6 5 6 6
REMARK Flexibility Score: inf
ROOT
ATOM      1  C   UNL     1       1.016   5.984   5.696  1.00  0.00     0.082 C 
ENDROOT
BRANCH   1   2
ATOM      2  C   UNL     1       2.000   6.299   6.848  1.00  0.00     0.228 C 
BRANCH   2   3
ATOM      3  N   UNL     1       3.391   6.354   6.377  1.00  0.00    -0.350 N 
ATOM      4  H   UNL     1       4.046   6.206   7.180  1.00  0.00     0.345 HD
ATOM      5  H   UNL     1       3.598   7.297   5.976  1.00  0.00     0.345 HD
ATOM      6  H   UNL     1       3.569   5.620   5.652  1.00  0.00     0.345 HD
ENDBRANCH   2   3
BRANCH   2   7
ATOM      7  C   UNL     1       1.860   5.252   7.920  1.00  0.00     0.099 C 
ATOM      8  O   UNL     1       2.439   5.401   9.029  1.00  0.00    -0.544 OA
ATOM      9  O   UNL     1       1.069   4.130   7.706  1.00  0.00    -0.544 OA
ENDBRANCH   2   7
ENDBRANCH   1   2
BRANCH   1  10
ATOM     10  C   UNL     1       0.370   7.223   5.058  1.00  0.00     0.076 C 
BRANCH  10  11
ATOM     11  S   UNL     1       0.446   8.694   6.146  1.00  0.00    -0.165 SA
ATOM     12  C   UNL     1       1.632   9.632   5.128  1.00  0.00     0.085 C 
ENDBRANCH  10  11
ENDBRANCH   1  10
TORSDOF 5
ENDMDL
MODEL 8
REMARK VINA RESULT:    -2.190      8.647      9.451
REMARK INTER + INTRA:          -2.839
REMARK INTER:                  -2.692
REMARK INTRA:                  -0.146
REMARK UNBOUND:                -0.073
REMARK SMILES CSCC[C@H]([NH3+])C(=O)[O-]
REMARK SMILES IDX 4 1 5 2 6 3 7 7 8 8 9 9 3 10 2 11 1 12
REMARK H PARENT 6 4 6 5 6 6
REMARK Flexibility Score: inf
ROOT
ATOM      1  C   UNL     1       9.500  -2.265  -1.705  1.00  0.00     0.082 C 
ENDROOT
BRANCH   1   2
ATOM      2  C   UNL     1       9.118  -3.607  -1.036  1.00  0.00     0.228 C 
BRANCH   2   3
ATOM      3  N   UNL     1       8.978  -4.687  -2.022  1.00  0.00    -0.350 N 
ATOM      4  H   UNL     1       8.436  -5.481  -1.607  1.00  0.00     0.345 HD
ATOM      5  H   UNL     1       9.919  -5.057  -2.286  1.00  0.00     0.345 HD
ATOM      6  H   UNL     1       8.483  -4.348  -2.879  1.00  0.00     0.345 HD
ENDBRANCH   2   3
BRANCH   2   7
ATOM      7  C   UNL     1       7.831  -3.434  -0.275  1.00  0.00     0.099 C 
ATOM      8  O   UNL     1       7.783  -2.664   0.721  1.00  0.00    -0.544 OA
ATOM      9  O   UNL     1       6.680  -4.096  -0.684  1.00  0.00    -0.544 OA
ENDBRANCH   2   7
ENDBRANCH   1   2
BRANCH   1  10
ATOM     10  C   UNL     1       8.756  -1.977  -3.019  1.00  0.00     0.076 C 
BRANCH  10  11
ATOM     11  S   UNL     1       7.583  -0.579  -2.869  1.00  0.00    -0.165 SA
ATOM     12  C   UNL     1       8.839   0.697  -2.524  1.00  0.00     0.085 C 
ENDBRANCH  10  11
ENDBRANCH   1  10
TORSDOF 5
ENDMDL
MODEL 9
REMARK VINA RESULT:    -2.153     11.858     12.322
REMARK INTER + INTRA:          -2.792
REMARK INTER:                  -2.664
REMARK INTRA:                  -0.128
REMARK UNBOUND:                -0.073
REMARK SMILES CSCC[C@H]([NH3+])C(=O)[O-]
REMARK SMILES IDX 4 1 5 2 6 3 7 7 8 8 9 9 3 10 2 11 1 12
REMARK H PARENT 6 4 6 5 6 6
REMARK Flexibility Score: inf
ROOT
ATOM      1  C   UNL     1       0.656   4.906   6.232  1.00  0.00     0.082 C 
ENDROOT
BRANCH   1   2
ATOM      2  C   UNL     1       1.525   5.888   7.054  1.00  0.00     0.228 C 
BRANCH   2   3
ATOM      3  N   UNL     1       2.743   6.277   6.328  1.00  0.00    -0.350 N 
ATOM      4  H   UNL     1       2.723   5.881   5.359  1.00  0.00     0.345 HD
ATOM      5  H   UNL     1       3.586   5.886   6.807  1.00  0.00     0.345 HD
ATOM      6  H   UNL     1       2.825   7.318   6.269  1.00  0.00     0.345 HD
ENDBRANCH   2   3
BRANCH   2   7
ATOM      7  C   UNL     1       1.890   5.249   8.367  1.00  0.00     0.099 C 
ATOM      8  O   UNL     1       1.448   4.106   8.659  1.00  0.00    -0.544 OA
ATOM      9  O   UNL     1       2.740   5.901   9.252  1.00  0.00    -0.544 OA
ENDBRANCH   2   7
ENDBRANCH   1   2
BRANCH   1  10
ATOM     10  C   UNL     1      -0.607   5.534   5.623  1.00  0.00     0.076 C 
BRANCH  10  11
ATOM     11  S   UNL     1      -1.962   4.320   5.411  1.00  0.00    -0.165 SA
ATOM     12  C   UNL     1      -1.696   3.449   6.991  1.00  0.00     0.085 C 
ENDBRANCH  10  11
ENDBRANCH   1  10
TORSDOF 5
ENDMDL
