MODEL 1
REMARK VINA RESULT:    -6.650      0.000      0.000
REMARK INTER + INTRA:          -6.650
REMARK INTER:                  -6.650
REMARK INTRA:                   0.000
REMARK UNBOUND:                 0.000
REMARK SMILES CC1=CC[C@@]2(C)CCCC(C)(C)[C@@]23C[C@@H]13
REMARK SMILES IDX 1 1 2 2 3 3 4 4 5 5 7 6 8 7 9 8 10 9 13 10 15 11 14 12 11 13
REMARK SMILES IDX 12 14 6 15
REMARK H PARENT
REMARK Flexibility Score: inf
ROOT
ATOM      1  C   UNL     1      10.396  32.735  26.442  1.00  0.00     0.039 C 
ATOM      2  C   UNL     1      10.135  33.212  25.042  1.00  0.00    -0.074 C 
ATOM      3  C   UNL     1       9.484  34.380  24.855  1.00  0.00    -0.027 C 
ATOM      4  C   UNL     1       9.198  34.922  23.476  1.00  0.00     0.034 C 
ATOM      5  C   UNL     1       8.922  33.769  22.466  1.00  0.00    -0.022 C 
ATOM      6  C   UNL     1       8.814  34.365  21.042  1.00  0.00     0.008 C 
ATOM      7  C   UNL     1       8.689  33.295  19.942  1.00  0.00     0.001 C 
ATOM      8  C   UNL     1       9.848  32.287  19.970  1.00  0.00     0.007 C 
ATOM      9  C   UNL     1      10.070  31.585  21.340  1.00  0.00    -0.029 C 
ATOM     10  C   UNL     1      10.089  32.702  22.470  1.00  0.00    -0.012 C 
ATOM     11  C   UNL     1      10.613  32.362  23.874  1.00  0.00     0.022 C 
ATOM     12  C   UNL     1      11.508  33.150  22.918  1.00  0.00     0.017 C 
ATOM     13  C   UNL     1      11.392  30.771  21.208  1.00  0.00     0.012 C 
ATOM     14  C   UNL     1       8.955  30.544  21.612  1.00  0.00     0.012 C 
ATOM     15  C   UNL     1       7.561  33.133  22.889  1.00  0.00     0.012 C 
ENDROOT
TORSDOF 0
ENDMDL
MODEL 2
REMARK VINA RESULT:    -6.531      1.210      1.732
REMARK INTER + INTRA:          -6.531
REMARK INTER:                  -6.531
REMARK INTRA:                   0.000
REMARK UNBOUND:                 0.000
REMARK SMILES CC1=CC[C@@]2(C)CCCC(C)(C)[C@@]23C[C@@H]13
REMARK SMILES IDX 1 1 2 2 3 3 4 4 5 5 7 6 8 7 9 8 10 9 13 10 15 11 14 12 11 13
REMARK SMILES IDX 12 14 6 15
REMARK H PARENT
REMARK Flexibility Score: inf
ROOT
ATOM      1  C   UNL     1      10.360  32.390  26.475  1.00  0.00     0.039 C 
ATOM      2  C   UNL     1       9.524  32.746  25.278  1.00  0.00    -0.074 C 
ATOM      3  C   UNL     1       8.184  32.832  25.414  1.00  0.00    -0.027 C 
ATOM      4  C   UNL     1       7.286  33.194  24.256  1.00  0.00     0.034 C 
ATOM      5  C   UNL     1       7.844  32.628  22.916  1.00  0.00    -0.022 C 
ATOM      6  C   UNL     1       6.992  33.176  21.746  1.00  0.00     0.008 C 
ATOM      7  C   UNL     1       7.545  32.799  20.360  1.00  0.00     0.001 C 
ATOM      8  C   UNL     1       9.000  33.251  20.167  1.00  0.00     0.007 C 
ATOM      9  C   UNL     1       9.989  32.759  21.261  1.00  0.00    -0.029 C 
ATOM     10  C   UNL     1       9.346  33.065  22.681  1.00  0.00    -0.012 C 
ATOM     11  C   UNL     1      10.216  32.996  23.946  1.00  0.00     0.022 C 
ATOM     12  C   UNL     1       9.860  34.363  23.363  1.00  0.00     0.017 C 
ATOM     13  C   UNL     1      11.342  33.484  20.990  1.00  0.00     0.012 C 
ATOM     14  C   UNL     1      10.278  31.245  21.100  1.00  0.00     0.012 C 
ATOM     15  C   UNL     1       7.705  31.076  23.005  1.00  0.00     0.012 C 
ENDROOT
TORSDOF 0
ENDMDL
MODEL 3
REMARK VINA RESULT:    -6.488      1.314      3.989
REMARK INTER + INTRA:          -6.488
REMARK INTER:                  -6.488
REMARK INTRA:                   0.000
REMARK UNBOUND:                 0.000
REMARK SMILES CC1=CC[C@@]2(C)CCCC(C)(C)[C@@]23C[C@@H]13
REMARK SMILES IDX 1 1 2 2 3 3 4 4 5 5 7 6 8 7 9 8 10 9 13 10 15 11 14 12 11 13
REMARK SMILES IDX 12 14 6 15
REMARK H PARENT
REMARK Flexibility Score: inf
ROOT
ATOM      1  C   UNL     1      13.173  33.812  20.398  1.00  0.00     0.039 C 
ATOM      2  C   UNL     1      11.884  33.273  20.951  1.00  0.00    -0.074 C 
ATOM      3  C   UNL     1      10.975  32.744  20.105  1.00  0.00    -0.027 C 
ATOM      4  C   UNL     1       9.665  32.177  20.593  1.00  0.00     0.034 C 
ATOM      5  C   UNL     1       9.133  32.973  21.822  1.00  0.00    -0.022 C 
ATOM      6  C   UNL     1       7.891  32.246  22.392  1.00  0.00     0.008 C 
ATOM      7  C   UNL     1       7.370  32.865  23.701  1.00  0.00     0.001 C 
ATOM      8  C   UNL     1       8.450  32.927  24.791  1.00  0.00     0.007 C 
ATOM      9  C   UNL     1       9.761  33.651  24.372  1.00  0.00    -0.029 C 
ATOM     10  C   UNL     1      10.219  33.068  22.967  1.00  0.00    -0.012 C 
ATOM     11  C   UNL     1      11.640  33.343  22.451  1.00  0.00     0.022 C 
ATOM     12  C   UNL     1      11.318  31.972  23.045  1.00  0.00     0.017 C 
ATOM     13  C   UNL     1      10.777  33.428  25.532  1.00  0.00     0.012 C 
ATOM     14  C   UNL     1       9.541  35.183  24.289  1.00  0.00     0.012 C 
ATOM     15  C   UNL     1       8.735  34.385  21.290  1.00  0.00     0.012 C 
ENDROOT
TORSDOF 0
ENDMDL
MODEL 4
REMARK VINA RESULT:    -6.023      1.388      2.194
REMARK INTER + INTRA:          -6.023
REMARK INTER:                  -6.023
REMARK INTRA:                   0.000
REMARK UNBOUND:                 0.000
REMARK SMILES CC1=CC[C@@]2(C)CCCC(C)(C)[C@@]23C[C@@H]13
REMARK SMILES IDX 1 1 2 2 3 3 4 4 5 5 7 6 8 7 9 8 10 9 13 10 15 11 14 12 11 13
REMARK SMILES IDX 12 14 6 15
REMARK H PARENT
REMARK Flexibility Score: inf
ROOT
ATOM      1  C   UNL     1       8.126  31.822  25.333  1.00  0.00     0.039 C 
ATOM      2  C   UNL     1       8.409  32.504  24.025  1.00  0.00    -0.074 C 
ATOM      3  C   UNL     1       7.375  32.922  23.263  1.00  0.00    -0.027 C 
ATOM      4  C   UNL     1       7.588  33.622  21.944  1.00  0.00     0.034 C 
ATOM      5  C   UNL     1       8.849  33.071  21.214  1.00  0.00    -0.022 C 
ATOM      6  C   UNL     1       9.123  33.939  19.962  1.00  0.00     0.008 C 
ATOM      7  C   UNL     1      10.435  33.575  19.245  1.00  0.00     0.001 C 
ATOM      8  C   UNL     1      11.654  33.651  20.177  1.00  0.00     0.007 C 
ATOM      9  C   UNL     1      11.535  32.809  21.479  1.00  0.00    -0.029 C 
ATOM     10  C   UNL     1      10.127  33.123  22.143  1.00  0.00    -0.012 C 
ATOM     11  C   UNL     1       9.855  32.701  23.596  1.00  0.00     0.022 C 
ATOM     12  C   UNL     1      10.170  34.166  23.295  1.00  0.00     0.017 C 
ATOM     13  C   UNL     1      12.767  33.180  22.357  1.00  0.00     0.012 C 
ATOM     14  C   UNL     1      11.674  31.296  21.170  1.00  0.00     0.012 C 
ATOM     15  C   UNL     1       8.506  31.608  20.792  1.00  0.00     0.012 C 
ENDROOT
TORSDOF 0
ENDMDL
MODEL 5
REMARK VINA RESULT:    -5.962      1.677      3.952
REMARK INTER + INTRA:          -5.962
REMARK INTER:                  -5.962
REMARK INTRA:                   0.000
REMARK UNBOUND:                 0.000
REMARK SMILES CC1=CC[C@@]2(C)CCCC(C)(C)[C@@]23C[C@@H]13
REMARK SMILES IDX 1 1 2 2 3 3 4 4 5 5 7 6 8 7 9 8 10 9 13 10 15 11 14 12 11 13
REMARK SMILES IDX 12 14 6 15
REMARK H PARENT
REMARK Flexibility Score: inf
ROOT
ATOM      1  C   UNL     1       6.143  33.013  20.829  1.00  0.00     0.039 C 
ATOM      2  C   UNL     1       7.550  33.486  20.597  1.00  0.00    -0.074 C 
ATOM      3  C   UNL     1       7.831  34.192  19.481  1.00  0.00    -0.027 C 
ATOM      4  C   UNL     1       9.220  34.706  19.191  1.00  0.00     0.034 C 
ATOM      5  C   UNL     1      10.304  33.719  19.717  1.00  0.00    -0.022 C 
ATOM      6  C   UNL     1      11.698  34.373  19.557  1.00  0.00     0.008 C 
ATOM      7  C   UNL     1      12.834  33.544  20.182  1.00  0.00     0.001 C 
ATOM      8  C   UNL     1      12.595  33.247  21.670  1.00  0.00     0.007 C 
ATOM      9  C   UNL     1      11.233  32.566  21.989  1.00  0.00    -0.029 C 
ATOM     10  C   UNL     1      10.088  33.379  21.246  1.00  0.00    -0.012 C 
ATOM     11  C   UNL     1       8.617  33.153  21.629  1.00  0.00     0.022 C 
ATOM     12  C   UNL     1       9.334  34.403  22.138  1.00  0.00     0.017 C 
ATOM     13  C   UNL     1      11.108  32.539  23.542  1.00  0.00     0.012 C 
ATOM     14  C   UNL     1      11.240  31.084  21.537  1.00  0.00     0.012 C 
ATOM     15  C   UNL     1      10.202  32.442  18.825  1.00  0.00     0.012 C 
ENDROOT
TORSDOF 0
ENDMDL
MODEL 6
REMARK VINA RESULT:    -5.738      1.763      3.741
REMARK INTER + INTRA:          -5.738
REMARK INTER:                  -5.738
REMARK INTRA:                   0.000
REMARK UNBOUND:                 0.000
REMARK SMILES CC1=CC[C@@]2(C)CCCC(C)(C)[C@@]23C[C@@H]13
REMARK SMILES IDX 1 1 2 2 3 3 4 4 5 5 7 6 8 7 9 8 10 9 13 10 15 11 14 12 11 13
REMARK SMILES IDX 12 14 6 15
REMARK H PARENT
REMARK Flexibility Score: inf
ROOT
ATOM      1  C   UNL     1       6.568  29.451  24.630  1.00  0.00     0.039 C 
ATOM      2  C   UNL     1       7.012  30.400  23.554  1.00  0.00    -0.074 C 
ATOM      3  C   UNL     1       6.672  30.148  22.272  1.00  0.00    -0.027 C 
ATOM      4  C   UNL     1       7.077  31.064  21.144  1.00  0.00     0.034 C 
ATOM      5  C   UNL     1       8.474  31.699  21.411  1.00  0.00    -0.022 C 
ATOM      6  C   UNL     1       8.760  32.760  20.322  1.00  0.00     0.008 C 
ATOM      7  C   UNL     1      10.052  33.558  20.573  1.00  0.00     0.001 C 
ATOM      8  C   UNL     1      10.060  34.245  21.947  1.00  0.00     0.007 C 
ATOM      9  C   UNL     1       9.805  33.297  23.153  1.00  0.00    -0.029 C 
ATOM     10  C   UNL     1       8.528  32.411  22.822  1.00  0.00    -0.012 C 
ATOM     11  C   UNL     1       7.836  31.619  23.943  1.00  0.00     0.022 C 
ATOM     12  C   UNL     1       7.202  32.920  23.452  1.00  0.00     0.017 C 
ATOM     13  C   UNL     1       9.656  34.210  24.406  1.00  0.00     0.012 C 
ATOM     14  C   UNL     1      11.042  32.404  23.422  1.00  0.00     0.012 C 
ATOM     15  C   UNL     1       9.509  30.535  21.316  1.00  0.00     0.012 C 
ENDROOT
TORSDOF 0
ENDMDL
MODEL 7
REMARK VINA RESULT:    -5.737      3.159      4.735
REMARK INTER + INTRA:          -5.737
REMARK INTER:                  -5.737
REMARK INTRA:                   0.000
REMARK UNBOUND:                 0.000
REMARK SMILES CC1=CC[C@@]2(C)CCCC(C)(C)[C@@]23C[C@@H]13
REMARK SMILES IDX 1 1 2 2 3 3 4 4 5 5 7 6 8 7 9 8 10 9 13 10 15 11 14 12 11 13
REMARK SMILES IDX 12 14 6 15
REMARK H PARENT
REMARK Flexibility Score: inf
ROOT
ATOM      1  C   UNL     1      15.633  29.840  23.765  1.00  0.00     0.039 C 
ATOM      2  C   UNL     1      15.114  30.702  22.649  1.00  0.00    -0.074 C 
ATOM      3  C   UNL     1      15.658  31.921  22.450  1.00  0.00    -0.027 C 
ATOM      4  C   UNL     1      15.192  32.832  21.342  1.00  0.00     0.034 C 
ATOM      5  C   UNL     1      13.663  32.673  21.092  1.00  0.00    -0.022 C 
ATOM      6  C   UNL     1      13.272  33.489  19.836  1.00  0.00     0.008 C 
ATOM      7  C   UNL     1      11.807  33.285  19.408  1.00  0.00     0.001 C 
ATOM      8  C   UNL     1      11.469  31.807  19.163  1.00  0.00     0.007 C 
ATOM      9  C   UNL     1      11.790  30.856  20.351  1.00  0.00    -0.029 C 
ATOM     10  C   UNL     1      13.269  31.162  20.842  1.00  0.00    -0.012 C 
ATOM     11  C   UNL     1      13.985  30.173  21.776  1.00  0.00     0.022 C 
ATOM     12  C   UNL     1      14.350  30.191  20.292  1.00  0.00     0.017 C 
ATOM     13  C   UNL     1      11.564  29.406  19.828  1.00  0.00     0.012 C 
ATOM     14  C   UNL     1      10.773  31.056  21.504  1.00  0.00     0.012 C 
ATOM     15  C   UNL     1      12.950  33.250  22.354  1.00  0.00     0.012 C 
ENDROOT
TORSDOF 0
ENDMDL
MODEL 8
REMARK VINA RESULT:    -5.707      2.771      5.846
REMARK INTER + INTRA:          -5.707
REMARK INTER:                  -5.707
REMARK INTRA:                   0.000
REMARK UNBOUND:                 0.000
REMARK SMILES CC1=CC[C@@]2(C)CCCC(C)(C)[C@@]23C[C@@H]13
REMARK SMILES IDX 1 1 2 2 3 3 4 4 5 5 7 6 8 7 9 8 10 9 13 10 15 11 14 12 11 13
REMARK SMILES IDX 12 14 6 15
REMARK H PARENT
REMARK Flexibility Score: inf
ROOT
ATOM      1  C   UNL     1      12.107  27.033  21.184  1.00  0.00     0.039 C 
ATOM      2  C   UNL     1      12.793  28.333  20.877  1.00  0.00    -0.074 C 
ATOM      3  C   UNL     1      14.121  28.335  20.630  1.00  0.00    -0.027 C 
ATOM      4  C   UNL     1      14.870  29.604  20.306  1.00  0.00     0.034 C 
ATOM      5  C   UNL     1      14.275  30.819  21.077  1.00  0.00    -0.022 C 
ATOM      6  C   UNL     1      14.957  32.115  20.575  1.00  0.00     0.008 C 
ATOM      7  C   UNL     1      14.340  33.396  21.165  1.00  0.00     0.001 C 
ATOM      8  C   UNL     1      12.831  33.496  20.898  1.00  0.00     0.007 C 
ATOM      9  C   UNL     1      12.001  32.268  21.369  1.00  0.00    -0.029 C 
ATOM     10  C   UNL     1      12.718  30.954  20.836  1.00  0.00    -0.012 C 
ATOM     11  C   UNL     1      11.969  29.612  20.856  1.00  0.00     0.022 C 
ATOM     12  C   UNL     1      12.111  30.365  19.533  1.00  0.00     0.017 C 
ATOM     13  C   UNL     1      10.554  32.483  20.831  1.00  0.00     0.012 C 
ATOM     14  C   UNL     1      11.881  32.244  22.913  1.00  0.00     0.012 C 
ATOM     15  C   UNL     1      14.604  30.585  22.584  1.00  0.00     0.012 C 
ENDROOT
TORSDOF 0
ENDMDL
MODEL 9
REMARK VINA RESULT:    -5.584      3.129      4.959
REMARK INTER + INTRA:          -5.584
REMARK INTER:                  -5.584
REMARK INTRA:                   0.000
REMARK UNBOUND:                 0.000
REMARK SMILES CC1=CC[C@@]2(C)CCCC(C)(C)[C@@]23C[C@@H]13
REMARK SMILES IDX 1 1 2 2 3 3 4 4 5 5 7 6 8 7 9 8 10 9 13 10 15 11 14 12 11 13
REMARK SMILES IDX 12 14 6 15
REMARK H PARENT
REMARK Flexibility Score: inf
ROOT
ATOM      1  C   UNL     1       9.805  31.294  22.009  1.00  0.00     0.039 C 
ATOM      2  C   UNL     1      11.208  31.771  21.762  1.00  0.00    -0.074 C 
ATOM      3  C   UNL     1      11.599  32.958  22.271  1.00  0.00    -0.027 C 
ATOM      4  C   UNL     1      12.996  33.492  22.070  1.00  0.00     0.034 C 
ATOM      5  C   UNL     1      13.557  33.082  20.676  1.00  0.00    -0.022 C 
ATOM      6  C   UNL     1      15.046  33.497  20.592  1.00  0.00     0.008 C 
ATOM      7  C   UNL     1      15.743  33.007  19.310  1.00  0.00     0.001 C 
ATOM      8  C   UNL     1      15.643  31.484  19.133  1.00  0.00     0.007 C 
ATOM      9  C   UNL     1      14.196  30.915  19.175  1.00  0.00    -0.029 C 
ATOM     10  C   UNL     1      13.464  31.520  20.448  1.00  0.00    -0.012 C 
ATOM     11  C   UNL     1      12.147  30.900  20.941  1.00  0.00     0.022 C 
ATOM     12  C   UNL     1      13.442  30.586  21.690  1.00  0.00     0.017 C 
ATOM     13  C   UNL     1      14.333  29.363  19.179  1.00  0.00     0.012 C 
ATOM     14  C   UNL     1      13.428  31.271  17.876  1.00  0.00     0.012 C 
ATOM     15  C   UNL     1      12.718  33.866  19.619  1.00  0.00     0.012 C 
ENDROOT
TORSDOF 0
ENDMDL
