MODEL 1
REMARK VINA RESULT:    -5.498      0.000      0.000
REMARK INTER + INTRA:         -11.658
REMARK INTER:                  -9.997
REMARK INTRA:                  -1.660
REMARK UNBOUND:                -1.660
REMARK SMILES CCCCCCCCCCCCCC[C@@H](C)C(=O)[O-]
REMARK SMILES IDX 9 1 10 2 11 3 12 4 13 5 14 6 15 7 16 8 17 9 18 10 19 11 8 12
REMARK SMILES IDX 7 13 6 14 5 15 4 16 3 17 2 18 1 19
REMARK H PARENT
REMARK Flexibility Score: inf
ROOT
ATOM      1  C   UNL     1       0.277  46.707   8.794  1.00  0.00     0.000 C 
ENDROOT
BRANCH   1   2
ATOM      2  C   UNL     1      -0.065  45.904  10.061  1.00  0.00     0.000 C 
BRANCH   2   3
ATOM      3  C   UNL     1       0.929  44.761  10.322  1.00  0.00     0.000 C 
BRANCH   3   4
ATOM      4  C   UNL     1       1.441  44.111   9.028  1.00  0.00     0.000 C 
BRANCH   4   5
ATOM      5  C   UNL     1       2.286  42.867   9.338  1.00  0.00     0.001 C 
BRANCH   5   6
ATOM      6  C   UNL     1       3.723  43.210   9.776  1.00  0.00     0.009 C 
BRANCH   6   7
ATOM      7  C   UNL     1       4.040  42.854  11.246  1.00  0.00     0.032 C 
ATOM      8  C   UNL     1       4.129  44.126  12.097  1.00  0.00     0.014 C 
BRANCH   7   9
ATOM      9  C   UNL     1       3.011  41.921  11.825  1.00  0.00     0.044 C 
ATOM     10  O   UNL     1       1.994  42.374  12.416  1.00  0.00    -0.550 OA
ATOM     11  O   UNL     1       3.178  40.547  11.707  1.00  0.00    -0.550 OA
ENDBRANCH   7   9
ENDBRANCH   6   7
ENDBRANCH   5   6
ENDBRANCH   4   5
ENDBRANCH   3   4
ENDBRANCH   2   3
ENDBRANCH   1   2
BRANCH   1  12
ATOM     12  C   UNL     1       1.406  47.726   9.027  1.00  0.00     0.000 C 
BRANCH  12  13
ATOM     13  C   UNL     1       2.262  47.957   7.769  1.00  0.00    -0.000 C 
BRANCH  13  14
ATOM     14  C   UNL     1       3.761  47.722   8.023  1.00  0.00    -0.000 C 
BRANCH  14  15
ATOM     15  C   UNL     1       4.017  46.652   9.098  1.00  0.00    -0.000 C 
BRANCH  15  16
ATOM     16  C   UNL     1       5.337  46.880   9.854  1.00  0.00    -0.000 C 
BRANCH  16  17
ATOM     17  C   UNL     1       6.377  47.639   9.018  1.00  0.00    -0.000 C 
BRANCH  17  18
ATOM     18  C   UNL     1       6.719  48.988   9.662  1.00  0.00    -0.003 C 
ATOM     19  C   UNL     1       6.409  50.145   8.718  1.00  0.00     0.004 C 
ENDBRANCH  17  18
ENDBRANCH  16  17
ENDBRANCH  15  16
ENDBRANCH  14  15
ENDBRANCH  13  14
ENDBRANCH  12  13
ENDBRANCH   1  12
TORSDOF 14
ENDMDL
MODEL 2
REMARK VINA RESULT:    -5.385      1.569      2.950
REMARK INTER + INTRA:         -11.452
REMARK INTER:                 -10.014
REMARK INTRA:                  -1.438
REMARK UNBOUND:                -1.660
REMARK SMILES CCCCCCCCCCCCCC[C@@H](C)C(=O)[O-]
REMARK SMILES IDX 9 1 10 2 11 3 12 4 13 5 14 6 15 7 16 8 17 9 18 10 19 11 8 12
REMARK SMILES IDX 7 13 6 14 5 15 4 16 3 17 2 18 1 19
REMARK H PARENT
REMARK Flexibility Score: inf
ROOT
ATOM      1  C   UNL     1       1.663  44.813  10.379  1.00  0.00     0.000 C 
ENDROOT
BRANCH   1   2
ATOM      2  C   UNL     1       1.845  43.782   9.252  1.00  0.00     0.000 C 
BRANCH   2   3
ATOM      3  C   UNL     1       2.852  42.680   9.618  1.00  0.00     0.000 C 
BRANCH   3   4
ATOM      4  C   UNL     1       3.993  43.189  10.512  1.00  0.00     0.000 C 
BRANCH   4   5
ATOM      5  C   UNL     1       4.125  42.325  11.775  1.00  0.00     0.001 C 
BRANCH   5   6
ATOM      6  C   UNL     1       3.113  41.165  11.818  1.00  0.00     0.009 C 
BRANCH   6   7
ATOM      7  C   UNL     1       3.744  39.783  12.102  1.00  0.00     0.032 C 
ATOM      8  C   UNL     1       4.818  39.898  13.189  1.00  0.00     0.014 C 
BRANCH   7   9
ATOM      9  C   UNL     1       2.707  38.772  12.510  1.00  0.00     0.044 C 
ATOM     10  O   UNL     1       2.844  37.555  12.209  1.00  0.00    -0.550 OA
ATOM     11  O   UNL     1       1.590  39.177  13.229  1.00  0.00    -0.550 OA
ENDBRANCH   7   9
ENDBRANCH   6   7
ENDBRANCH   5   6
ENDBRANCH   4   5
ENDBRANCH   3   4
ENDBRANCH   2   3
ENDBRANCH   1   2
BRANCH   1  12
ATOM     12  C   UNL     1       0.323  45.561  10.285  1.00  0.00     0.000 C 
BRANCH  12  13
ATOM     13  C   UNL     1       0.415  46.835   9.425  1.00  0.00    -0.000 C 
BRANCH  13  14
ATOM     14  C   UNL     1       1.821  47.458   9.442  1.00  0.00    -0.000 C 
BRANCH  14  15
ATOM     15  C   UNL     1       2.403  47.644   8.030  1.00  0.00    -0.000 C 
BRANCH  15  16
ATOM     16  C   UNL     1       3.940  47.690   8.027  1.00  0.00    -0.000 C 
BRANCH  16  17
ATOM     17  C   UNL     1       4.561  46.851   9.153  1.00  0.00    -0.000 C 
BRANCH  17  18
ATOM     18  C   UNL     1       6.023  47.251   9.391  1.00  0.00    -0.003 C 
ATOM     19  C   UNL     1       6.258  48.716   9.039  1.00  0.00     0.004 C 
ENDBRANCH  17  18
ENDBRANCH  16  17
ENDBRANCH  15  16
ENDBRANCH  14  15
ENDBRANCH  13  14
ENDBRANCH  12  13
ENDBRANCH   1  12
TORSDOF 14
ENDMDL
MODEL 3
REMARK VINA RESULT:    -5.278      2.991      6.350
REMARK INTER + INTRA:         -11.258
REMARK INTER:                  -9.550
REMARK INTRA:                  -1.708
REMARK UNBOUND:                -1.660
REMARK SMILES CCCCCCCCCCCCCC[C@@H](C)C(=O)[O-]
REMARK SMILES IDX 9 1 10 2 11 3 12 4 13 5 14 6 15 7 16 8 17 9 18 10 19 11 8 12
REMARK SMILES IDX 7 13 6 14 5 15 4 16 3 17 2 18 1 19
REMARK H PARENT
REMARK Flexibility Score: inf
ROOT
ATOM      1  C   UNL     1       0.552  45.807   9.980  1.00  0.00     0.000 C 
ENDROOT
BRANCH   1   2
ATOM      2  C   UNL     1       0.127  45.689   8.506  1.00  0.00     0.000 C 
BRANCH   2   3
ATOM      3  C   UNL     1       0.722  46.802   7.629  1.00  0.00     0.000 C 
BRANCH   3   4
ATOM      4  C   UNL     1       1.479  47.861   8.444  1.00  0.00     0.000 C 
BRANCH   4   5
ATOM      5  C   UNL     1       2.874  48.113   7.854  1.00  0.00     0.001 C 
BRANCH   5   6
ATOM      6  C   UNL     1       3.896  47.028   8.245  1.00  0.00     0.009 C 
BRANCH   6   7
ATOM      7  C   UNL     1       4.686  47.337   9.537  1.00  0.00     0.032 C 
ATOM      8  C   UNL     1       4.841  46.071  10.386  1.00  0.00     0.014 C 
BRANCH   7   9
ATOM      9  C   UNL     1       6.040  47.920   9.234  1.00  0.00     0.044 C 
ATOM     10  O   UNL     1       7.085  47.236   9.404  1.00  0.00    -0.550 OA
ATOM     11  O   UNL     1       6.143  49.221   8.759  1.00  0.00    -0.550 OA
ENDBRANCH   7   9
ENDBRANCH   6   7
ENDBRANCH   5   6
ENDBRANCH   4   5
ENDBRANCH   3   4
ENDBRANCH   2   3
ENDBRANCH   1   2
BRANCH   1  12
ATOM     12  C   UNL     1       1.333  44.577  10.470  1.00  0.00     0.000 C 
BRANCH  12  13
ATOM     13  C   UNL     1       1.741  43.638   9.320  1.00  0.00    -0.000 C 
BRANCH  13  14
ATOM     14  C   UNL     1       2.925  42.730   9.691  1.00  0.00    -0.000 C 
BRANCH  14  15
ATOM     15  C   UNL     1       3.139  42.627  11.211  1.00  0.00    -0.000 C 
BRANCH  15  16
ATOM     16  C   UNL     1       3.100  41.176  11.716  1.00  0.00    -0.000 C 
BRANCH  16  17
ATOM     17  C   UNL     1       4.439  40.719  12.314  1.00  0.00    -0.000 C 
BRANCH  17  18
ATOM     18  C   UNL     1       4.340  39.285  12.849  1.00  0.00    -0.003 C 
ATOM     19  C   UNL     1       3.027  38.630  12.431  1.00  0.00     0.004 C 
ENDBRANCH  17  18
ENDBRANCH  16  17
ENDBRANCH  15  16
ENDBRANCH  14  15
ENDBRANCH  13  14
ENDBRANCH  12  13
ENDBRANCH   1  12
TORSDOF 14
ENDMDL
MODEL 4
REMARK VINA RESULT:    -5.277      2.668      6.641
REMARK INTER + INTRA:         -11.256
REMARK INTER:                  -9.436
REMARK INTRA:                  -1.820
REMARK UNBOUND:                -1.660
REMARK SMILES CCCCCCCCCCCCCC[C@@H](C)C(=O)[O-]
REMARK SMILES IDX 9 1 10 2 11 3 12 4 13 5 14 6 15 7 16 8 17 9 18 10 19 11 8 12
REMARK SMILES IDX 7 13 6 14 5 15 4 16 3 17 2 18 1 19
REMARK H PARENT
REMARK Flexibility Score: inf
ROOT
ATOM      1  C   UNL     1       4.240  44.823  11.032  1.00  0.00     0.000 C 
ENDROOT
BRANCH   1   2
ATOM      2  C   UNL     1       4.495  46.261  10.548  1.00  0.00     0.000 C 
BRANCH   2   3
ATOM      3  C   UNL     1       4.646  46.352   9.021  1.00  0.00     0.000 C 
BRANCH   3   4
ATOM      4  C   UNL     1       4.283  47.739   8.470  1.00  0.00     0.000 C 
BRANCH   4   5
ATOM      5  C   UNL     1       2.994  47.678   7.637  1.00  0.00     0.001 C 
BRANCH   5   6
ATOM      6  C   UNL     1       1.721  47.651   8.504  1.00  0.00     0.009 C 
BRANCH   6   7
ATOM      7  C   UNL     1       1.092  46.247   8.663  1.00  0.00     0.032 C 
ATOM      8  C   UNL     1       0.384  46.128  10.017  1.00  0.00     0.014 C 
BRANCH   7   9
ATOM      9  C   UNL     1       0.126  45.942   7.550  1.00  0.00     0.044 C 
ATOM     10  O   UNL     1      -0.678  46.822   7.140  1.00  0.00    -0.550 OA
ATOM     11  O   UNL     1       0.121  44.683   6.964  1.00  0.00    -0.550 OA
ENDBRANCH   7   9
ENDBRANCH   6   7
ENDBRANCH   5   6
ENDBRANCH   4   5
ENDBRANCH   3   4
ENDBRANCH   2   3
ENDBRANCH   1   2
BRANCH   1  12
ATOM     12  C   UNL     1       3.873  43.869   9.883  1.00  0.00     0.000 C 
BRANCH  12  13
ATOM     13  C   UNL     1       2.533  43.148  10.118  1.00  0.00    -0.000 C 
BRANCH  13  14
ATOM     14  C   UNL     1       2.069  43.226  11.582  1.00  0.00    -0.000 C 
BRANCH  14  15
ATOM     15  C   UNL     1       2.069  41.853  12.277  1.00  0.00    -0.000 C 
BRANCH  15  16
ATOM     16  C   UNL     1       3.023  40.852  11.605  1.00  0.00    -0.000 C 
BRANCH  16  17
ATOM     17  C   UNL     1       4.330  40.660  12.388  1.00  0.00    -0.000 C 
BRANCH  17  18
ATOM     18  C   UNL     1       4.462  39.216  12.888  1.00  0.00    -0.003 C 
ATOM     19  C   UNL     1       3.294  38.358  12.412  1.00  0.00     0.004 C 
ENDBRANCH  17  18
ENDBRANCH  16  17
ENDBRANCH  15  16
ENDBRANCH  14  15
ENDBRANCH  13  14
ENDBRANCH  12  13
ENDBRANCH   1  12
TORSDOF 14
ENDMDL
MODEL 5
REMARK VINA RESULT:    -5.274      1.582      2.946
REMARK INTER + INTRA:         -11.251
REMARK INTER:                  -9.621
REMARK INTRA:                  -1.630
REMARK UNBOUND:                -1.660
REMARK SMILES CCCCCCCCCCCCCC[C@@H](C)C(=O)[O-]
REMARK SMILES IDX 9 1 10 2 11 3 12 4 13 5 14 6 15 7 16 8 17 9 18 10 19 11 8 12
REMARK SMILES IDX 7 13 6 14 5 15 4 16 3 17 2 18 1 19
REMARK H PARENT
REMARK Flexibility Score: inf
ROOT
ATOM      1  C   UNL     1       1.291  44.266   9.514  1.00  0.00     0.000 C 
ENDROOT
BRANCH   1   2
ATOM      2  C   UNL     1       0.858  44.343  10.989  1.00  0.00     0.000 C 
BRANCH   2   3
ATOM      3  C   UNL     1       1.799  43.565  11.922  1.00  0.00     0.000 C 
BRANCH   3   4
ATOM      4  C   UNL     1       3.279  43.726  11.543  1.00  0.00     0.000 C 
BRANCH   4   5
ATOM      5  C   UNL     1       3.986  42.363  11.509  1.00  0.00     0.001 C 
BRANCH   5   6
ATOM      6  C   UNL     1       3.004  41.176  11.509  1.00  0.00     0.009 C 
BRANCH   6   7
ATOM      7  C   UNL     1       2.971  40.381  12.834  1.00  0.00     0.032 C 
ATOM      8  C   UNL     1       1.527  40.041  13.219  1.00  0.00     0.014 C 
BRANCH   7   9
ATOM      9  C   UNL     1       3.788  39.121  12.746  1.00  0.00     0.044 C 
ATOM     10  O   UNL     1       4.934  39.061  13.269  1.00  0.00    -0.550 OA
ATOM     11  O   UNL     1       3.278  38.010  12.087  1.00  0.00    -0.550 OA
ENDBRANCH   7   9
ENDBRANCH   6   7
ENDBRANCH   5   6
ENDBRANCH   4   5
ENDBRANCH   3   4
ENDBRANCH   2   3
ENDBRANCH   1   2
BRANCH   1  12
ATOM     12  C   UNL     1       0.663  45.376   8.655  1.00  0.00     0.000 C 
BRANCH  12  13
ATOM     13  C   UNL     1       0.367  46.653   9.462  1.00  0.00    -0.000 C 
BRANCH  13  14
ATOM     14  C   UNL     1       1.490  47.697   9.347  1.00  0.00    -0.000 C 
BRANCH  14  15
ATOM     15  C   UNL     1       2.219  47.635   7.994  1.00  0.00    -0.000 C 
BRANCH  15  16
ATOM     16  C   UNL     1       3.746  47.551   8.150  1.00  0.00    -0.000 C 
BRANCH  16  17
ATOM     17  C   UNL     1       4.189  46.383   9.043  1.00  0.00    -0.000 C 
BRANCH  17  18
ATOM     18  C   UNL     1       5.330  46.809   9.976  1.00  0.00    -0.003 C 
ATOM     19  C   UNL     1       6.390  47.605   9.222  1.00  0.00     0.004 C 
ENDBRANCH  17  18
ENDBRANCH  16  17
ENDBRANCH  15  16
ENDBRANCH  14  15
ENDBRANCH  13  14
ENDBRANCH  12  13
ENDBRANCH   1  12
TORSDOF 14
ENDMDL
MODEL 6
REMARK VINA RESULT:    -5.257      1.024      2.021
REMARK INTER + INTRA:         -11.220
REMARK INTER:                  -9.542
REMARK INTRA:                  -1.678
REMARK UNBOUND:                -1.660
REMARK SMILES CCCCCCCCCCCCCC[C@@H](C)C(=O)[O-]
REMARK SMILES IDX 9 1 10 2 11 3 12 4 13 5 14 6 15 7 16 8 17 9 18 10 19 11 8 12
REMARK SMILES IDX 7 13 6 14 5 15 4 16 3 17 2 18 1 19
REMARK H PARENT
REMARK Flexibility Score: inf
ROOT
ATOM      1  C   UNL     1       0.175  45.714   7.891  1.00  0.00     0.000 C 
ENDROOT
BRANCH   1   2
ATOM      2  C   UNL     1       0.700  44.272   8.010  1.00  0.00     0.000 C 
BRANCH   2   3
ATOM      3  C   UNL     1       1.474  44.031   9.316  1.00  0.00     0.000 C 
BRANCH   3   4
ATOM      4  C   UNL     1       2.467  42.864   9.212  1.00  0.00     0.000 C 
BRANCH   4   5
ATOM      5  C   UNL     1       3.777  43.193   9.943  1.00  0.00     0.001 C 
BRANCH   5   6
ATOM      6  C   UNL     1       3.765  42.758  11.421  1.00  0.00     0.009 C 
BRANCH   6   7
ATOM      7  C   UNL     1       3.254  41.318  11.654  1.00  0.00     0.032 C 
ATOM      8  C   UNL     1       4.345  40.462  12.306  1.00  0.00     0.014 C 
BRANCH   7   9
ATOM      9  C   UNL     1       2.012  41.300  12.504  1.00  0.00     0.044 C 
ATOM     10  O   UNL     1       1.720  40.285  13.192  1.00  0.00    -0.550 OA
ATOM     11  O   UNL     1       1.181  42.412  12.539  1.00  0.00    -0.550 OA
ENDBRANCH   7   9
ENDBRANCH   6   7
ENDBRANCH   5   6
ENDBRANCH   4   5
ENDBRANCH   3   4
ENDBRANCH   2   3
ENDBRANCH   1   2
BRANCH   1  12
ATOM     12  C   UNL     1       0.226  46.473   9.227  1.00  0.00     0.000 C 
BRANCH  12  13
ATOM     13  C   UNL     1       1.173  47.686   9.182  1.00  0.00    -0.000 C 
BRANCH  13  14
ATOM     14  C   UNL     1       2.036  47.715   7.909  1.00  0.00    -0.000 C 
BRANCH  14  15
ATOM     15  C   UNL     1       3.533  47.522   8.206  1.00  0.00    -0.000 C 
BRANCH  15  16
ATOM     16  C   UNL     1       3.781  46.734   9.502  1.00  0.00    -0.000 C 
BRANCH  16  17
ATOM     17  C   UNL     1       5.269  46.656   9.875  1.00  0.00    -0.000 C 
BRANCH  17  18
ATOM     18  C   UNL     1       6.038  47.858   9.311  1.00  0.00    -0.003 C 
ATOM     19  C   UNL     1       7.541  47.602   9.318  1.00  0.00     0.004 C 
ENDBRANCH  17  18
ENDBRANCH  16  17
ENDBRANCH  15  16
ENDBRANCH  14  15
ENDBRANCH  13  14
ENDBRANCH  12  13
ENDBRANCH   1  12
TORSDOF 14
ENDMDL
MODEL 7
REMARK VINA RESULT:    -5.151      1.822      4.361
REMARK INTER + INTRA:         -11.026
REMARK INTER:                  -8.868
REMARK INTRA:                  -2.158
REMARK UNBOUND:                -1.660
REMARK SMILES CCCCCCCCCCCCCC[C@@H](C)C(=O)[O-]
REMARK SMILES IDX 9 1 10 2 11 3 12 4 13 5 14 6 15 7 16 8 17 9 18 10 19 11 8 12
REMARK SMILES IDX 7 13 6 14 5 15 4 16 3 17 2 18 1 19
REMARK H PARENT
REMARK Flexibility Score: inf
ROOT
ATOM      1  C   UNL     1       4.245  45.644  10.988  1.00  0.00     0.000 C 
ENDROOT
BRANCH   1   2
ATOM      2  C   UNL     1       4.064  44.203  11.497  1.00  0.00     0.000 C 
BRANCH   2   3
ATOM      3  C   UNL     1       4.066  43.170  10.359  1.00  0.00     0.000 C 
BRANCH   3   4
ATOM      4  C   UNL     1       3.038  42.049  10.571  1.00  0.00     0.000 C 
BRANCH   4   5
ATOM      5  C   UNL     1       2.361  42.179  11.943  1.00  0.00     0.001 C 
BRANCH   5   6
ATOM      6  C   UNL     1       2.393  40.870  12.755  1.00  0.00     0.009 C 
BRANCH   6   7
ATOM      7  C   UNL     1       3.395  39.819  12.225  1.00  0.00     0.032 C 
ATOM      8  C   UNL     1       4.702  39.876  13.022  1.00  0.00     0.014 C 
BRANCH   7   9
ATOM      9  C   UNL     1       2.821  38.429  12.278  1.00  0.00     0.044 C 
ATOM     10  O   UNL     1       1.706  38.216  12.827  1.00  0.00    -0.550 OA
ATOM     11  O   UNL     1       3.521  37.370  11.716  1.00  0.00    -0.550 OA
ENDBRANCH   7   9
ENDBRANCH   6   7
ENDBRANCH   5   6
ENDBRANCH   4   5
ENDBRANCH   3   4
ENDBRANCH   2   3
ENDBRANCH   1   2
BRANCH   1  12
ATOM     12  C   UNL     1       4.347  45.721   9.456  1.00  0.00     0.000 C 
BRANCH  12  13
ATOM     13  C   UNL     1       4.427  47.170   8.941  1.00  0.00    -0.000 C 
BRANCH  13  14
ATOM     14  C   UNL     1       3.289  47.514   7.966  1.00  0.00    -0.000 C 
BRANCH  14  15
ATOM     15  C   UNL     1       2.001  47.944   8.689  1.00  0.00    -0.000 C 
BRANCH  15  16
ATOM     16  C   UNL     1       0.868  46.916   8.538  1.00  0.00    -0.000 C 
BRANCH  16  17
ATOM     17  C   UNL     1       0.493  46.245   9.868  1.00  0.00    -0.000 C 
BRANCH  17  18
ATOM     18  C   UNL     1       0.804  44.743   9.831  1.00  0.00    -0.003 C 
ATOM     19  C   UNL     1       0.927  44.241   8.396  1.00  0.00     0.004 C 
ENDBRANCH  17  18
ENDBRANCH  16  17
ENDBRANCH  15  16
ENDBRANCH  14  15
ENDBRANCH  13  14
ENDBRANCH  12  13
ENDBRANCH   1  12
TORSDOF 14
ENDMDL
MODEL 8
REMARK VINA RESULT:    -4.946      2.455      4.803
REMARK INTER + INTRA:         -10.654
REMARK INTER:                  -8.883
REMARK INTRA:                  -1.771
REMARK UNBOUND:                -1.660
REMARK SMILES CCCCCCCCCCCCCC[C@@H](C)C(=O)[O-]
REMARK SMILES IDX 9 1 10 2 11 3 12 4 13 5 14 6 15 7 16 8 17 9 18 10 19 11 8 12
REMARK SMILES IDX 7 13 6 14 5 15 4 16 3 17 2 18 1 19
REMARK H PARENT
REMARK Flexibility Score: inf
ROOT
ATOM      1  C   UNL     1       2.778  41.994  11.412  1.00  0.00     0.000 C 
ENDROOT
BRANCH   1   2
ATOM      2  C   UNL     1       1.703  42.911  12.022  1.00  0.00     0.000 C 
BRANCH   2   3
ATOM      3  C   UNL     1       0.999  43.778  10.967  1.00  0.00     0.000 C 
BRANCH   3   4
ATOM      4  C   UNL     1      -0.103  44.665  11.566  1.00  0.00     0.000 C 
BRANCH   4   5
ATOM      5  C   UNL     1      -0.416  45.850  10.640  1.00  0.00     0.001 C 
BRANCH   5   6
ATOM      6  C   UNL     1       0.716  46.143   9.637  1.00  0.00     0.009 C 
BRANCH   6   7
ATOM      7  C   UNL     1       0.252  46.867   8.352  1.00  0.00     0.032 C 
ATOM      8  C   UNL     1       1.382  47.738   7.791  1.00  0.00     0.014 C 
BRANCH   7   9
ATOM      9  C   UNL     1      -0.213  45.893   7.304  1.00  0.00     0.044 C 
ATOM     10  O   UNL     1      -1.009  46.260   6.396  1.00  0.00    -0.550 OA
ATOM     11  O   UNL     1       0.238  44.581   7.329  1.00  0.00    -0.550 OA
ENDBRANCH   7   9
ENDBRANCH   6   7
ENDBRANCH   5   6
ENDBRANCH   4   5
ENDBRANCH   3   4
ENDBRANCH   2   3
ENDBRANCH   1   2
BRANCH   1  12
ATOM     12  C   UNL     1       4.126  42.708  11.223  1.00  0.00     0.000 C 
BRANCH  12  13
ATOM     13  C   UNL     1       4.268  43.951  12.121  1.00  0.00    -0.000 C 
BRANCH  13  14
ATOM     14  C   UNL     1       4.464  45.244  11.313  1.00  0.00    -0.000 C 
BRANCH  14  15
ATOM     15  C   UNL     1       4.307  45.025   9.798  1.00  0.00    -0.000 C 
BRANCH  15  16
ATOM     16  C   UNL     1       4.468  46.325   8.993  1.00  0.00    -0.000 C 
BRANCH  16  17
ATOM     17  C   UNL     1       5.087  47.462   9.819  1.00  0.00    -0.000 C 
BRANCH  17  18
ATOM     18  C   UNL     1       6.271  48.096   9.079  1.00  0.00    -0.003 C 
ATOM     19  C   UNL     1       7.583  47.411   9.448  1.00  0.00     0.004 C 
ENDBRANCH  17  18
ENDBRANCH  16  17
ENDBRANCH  15  16
ENDBRANCH  14  15
ENDBRANCH  13  14
ENDBRANCH  12  13
ENDBRANCH   1  12
TORSDOF 14
ENDMDL
MODEL 9
REMARK VINA RESULT:    -4.921      2.814      4.779
REMARK INTER + INTRA:         -10.610
REMARK INTER:                  -8.883
REMARK INTRA:                  -1.727
REMARK UNBOUND:                -1.660
REMARK SMILES CCCCCCCCCCCCCC[C@@H](C)C(=O)[O-]
REMARK SMILES IDX 9 1 10 2 11 3 12 4 13 5 14 6 15 7 16 8 17 9 18 10 19 11 8 12
REMARK SMILES IDX 7 13 6 14 5 15 4 16 3 17 2 18 1 19
REMARK H PARENT
REMARK Flexibility Score: inf
ROOT
ATOM      1  C   UNL     1       4.198  43.017  11.266  1.00  0.00     0.000 C 
ENDROOT
BRANCH   1   2
ATOM      2  C   UNL     1       2.732  42.726  10.898  1.00  0.00     0.000 C 
BRANCH   2   3
ATOM      3  C   UNL     1       2.509  42.644   9.380  1.00  0.00     0.000 C 
BRANCH   3   4
ATOM      4  C   UNL     1       1.519  43.700   8.867  1.00  0.00     0.000 C 
BRANCH   4   5
ATOM      5  C   UNL     1       1.072  44.631  10.004  1.00  0.00     0.001 C 
BRANCH   5   6
ATOM      6  C   UNL     1       0.098  45.728   9.534  1.00  0.00     0.009 C 
BRANCH   6   7
ATOM      7  C   UNL     1       0.343  46.217   8.089  1.00  0.00     0.032 C 
ATOM      8  C   UNL     1      -0.702  45.623   7.138  1.00  0.00     0.014 C 
BRANCH   7   9
ATOM      9  C   UNL     1       0.322  47.719   7.999  1.00  0.00     0.044 C 
ATOM     10  O   UNL     1      -0.773  48.343   7.951  1.00  0.00    -0.550 OA
ATOM     11  O   UNL     1       1.515  48.428   7.974  1.00  0.00    -0.550 OA
ENDBRANCH   7   9
ENDBRANCH   6   7
ENDBRANCH   5   6
ENDBRANCH   4   5
ENDBRANCH   3   4
ENDBRANCH   2   3
ENDBRANCH   1   2
BRANCH   1  12
ATOM     12  C   UNL     1       4.347  44.260  12.160  1.00  0.00     0.000 C 
BRANCH  12  13
ATOM     13  C   UNL     1       4.171  45.575  11.378  1.00  0.00    -0.000 C 
BRANCH  13  14
ATOM     14  C   UNL     1       4.800  45.517   9.976  1.00  0.00    -0.000 C 
BRANCH  14  15
ATOM     15  C   UNL     1       4.069  46.413   8.962  1.00  0.00    -0.000 C 
BRANCH  15  16
ATOM     16  C   UNL     1       4.813  47.733   8.697  1.00  0.00    -0.000 C 
BRANCH  16  17
ATOM     17  C   UNL     1       6.296  47.668   9.088  1.00  0.00    -0.000 C 
BRANCH  17  18
ATOM     18  C   UNL     1       6.775  49.013   9.649  1.00  0.00    -0.003 C 
ATOM     19  C   UNL     1       6.387  50.164   8.726  1.00  0.00     0.004 C 
ENDBRANCH  17  18
ENDBRANCH  16  17
ENDBRANCH  15  16
ENDBRANCH  14  15
ENDBRANCH  13  14
ENDBRANCH  12  13
ENDBRANCH   1  12
TORSDOF 14
ENDMDL
