MODEL 1
REMARK VINA RESULT:    -6.197      0.000      0.000
REMARK INTER + INTRA:          -7.577
REMARK INTER:                  -7.284
REMARK INTRA:                  -0.293
REMARK UNBOUND:                -0.293
REMARK SMILES O=c1c(O)c(-c2ccc(O)cc2)oc2cc(O)cc(O)c12
REMARK SMILES IDX 5 1 3 2 2 3 1 4 21 5 19 6 18 7 16 8 15 9 14 10 13 11 6 12
REMARK SMILES IDX 7 13 8 14 9 15 12 16 11 17 10 18 4 20 20 22 17 24
REMARK H PARENT 10 19 4 21 20 23 17 25
REMARK Flexibility Score: inf
ROOT
ATOM      1  C   UNL     1      32.589 -35.372  35.274  1.00  0.00     0.180 A 
ATOM      2  C   UNL     1      31.549 -35.693  34.383  1.00  0.00     0.208 A 
ATOM      3  C   UNL     1      31.687 -36.816  33.553  1.00  0.00     0.238 A 
ATOM      4  O   UNL     1      30.730 -37.130  32.797  1.00  0.00    -0.285 OA
ATOM      5  C   UNL     1      32.867 -37.596  33.611  1.00  0.00     0.111 A 
ATOM      6  C   UNL     1      33.130 -38.732  32.787  1.00  0.00     0.134 A 
ATOM      7  C   UNL     1      34.274 -39.505  33.021  1.00  0.00     0.093 A 
ATOM      8  C   UNL     1      35.198 -39.144  34.005  1.00  0.00     0.123 A 
ATOM      9  C   UNL     1      34.980 -38.004  34.774  1.00  0.00     0.094 A 
ATOM     10  C   UNL     1      33.829 -37.233  34.589  1.00  0.00     0.146 A 
ATOM     11  O   UNL     1      33.655 -36.159  35.350  1.00  0.00    -0.452 OA
ENDROOT
BRANCH   1  12
ATOM     12  C   UNL     1      32.528 -34.189  36.162  1.00  0.00     0.021 A 
ATOM     13  C   UNL     1      32.910 -32.912  35.710  1.00  0.00     0.016 A 
ATOM     14  C   UNL     1      32.868 -31.814  36.575  1.00  0.00     0.047 A 
ATOM     15  C   UNL     1      32.457 -31.979  37.902  1.00  0.00     0.115 A 
ATOM     16  C   UNL     1      32.137 -34.349  37.502  1.00  0.00     0.016 A 
ATOM     17  C   UNL     1      32.095 -33.250  38.364  1.00  0.00     0.047 A 
BRANCH  15  18
ATOM     18  O   UNL     1      32.419 -30.875  38.751  1.00  0.00    -0.508 OA
ATOM     19  H   UNL     1      33.017 -30.814  39.567  1.00  0.00     0.293 HD
ENDBRANCH  15  18
ENDBRANCH   1  12
BRANCH   2  20
ATOM     20  O   UNL     1      30.383 -34.923  34.358  1.00  0.00    -0.502 OA
ATOM     21  H   UNL     1      29.808 -34.835  33.529  1.00  0.00     0.293 HD
ENDBRANCH   2  20
BRANCH   6  22
ATOM     22  O   UNL     1      32.320 -39.124  31.718  1.00  0.00    -0.507 OA
ATOM     23  H   UNL     1      31.382 -38.791  31.556  1.00  0.00     0.293 HD
ENDBRANCH   6  22
BRANCH   8  24
ATOM     24  O   UNL     1      36.341 -39.910  34.221  1.00  0.00    -0.508 OA
ATOM     25  H   UNL     1      36.388 -40.595  34.966  1.00  0.00     0.293 HD
ENDBRANCH   8  24
TORSDOF 5
ENDMDL
MODEL 2
REMARK VINA RESULT:    -6.190      1.957      2.814
REMARK INTER + INTRA:          -7.568
REMARK INTER:                  -7.286
REMARK INTRA:                  -0.282
REMARK UNBOUND:                -0.293
REMARK SMILES O=c1c(O)c(-c2ccc(O)cc2)oc2cc(O)cc(O)c12
REMARK SMILES IDX 5 1 3 2 2 3 1 4 21 5 19 6 18 7 16 8 15 9 14 10 13 11 6 12
REMARK SMILES IDX 7 13 8 14 9 15 12 16 11 17 10 18 4 20 20 22 17 24
REMARK H PARENT 10 19 4 21 20 23 17 25
REMARK Flexibility Score: inf
ROOT
ATOM      1  C   UNL     1      31.960 -35.325  35.898  1.00  0.00     0.180 A 
ATOM      2  C   UNL     1      32.915 -35.343  34.867  1.00  0.00     0.208 A 
ATOM      3  C   UNL     1      33.018 -36.483  34.054  1.00  0.00     0.238 A 
ATOM      4  O   UNL     1      33.838 -36.472  33.099  1.00  0.00    -0.285 OA
ATOM      5  C   UNL     1      32.177 -37.597  34.292  1.00  0.00     0.111 A 
ATOM      6  C   UNL     1      32.223 -38.819  33.556  1.00  0.00     0.134 A 
ATOM      7  C   UNL     1      31.255 -39.804  33.792  1.00  0.00     0.093 A 
ATOM      8  C   UNL     1      30.285 -39.637  34.784  1.00  0.00     0.123 A 
ATOM      9  C   UNL     1      30.269 -38.473  35.548  1.00  0.00     0.094 A 
ATOM     10  C   UNL     1      31.198 -37.457  35.311  1.00  0.00     0.146 A 
ATOM     11  O   UNL     1      31.142 -36.359  36.055  1.00  0.00    -0.452 OA
ENDROOT
BRANCH   1  12
ATOM     12  C   UNL     1      31.810 -34.170  36.812  1.00  0.00     0.021 A 
ATOM     13  C   UNL     1      31.015 -33.060  36.468  1.00  0.00     0.016 A 
ATOM     14  C   UNL     1      30.910 -31.970  37.337  1.00  0.00     0.047 A 
ATOM     15  C   UNL     1      31.603 -31.968  38.552  1.00  0.00     0.115 A 
ATOM     16  C   UNL     1      32.520 -34.150  38.025  1.00  0.00     0.016 A 
ATOM     17  C   UNL     1      32.411 -33.060  38.892  1.00  0.00     0.047 A 
BRANCH  15  18
ATOM     18  O   UNL     1      31.486 -30.875  39.408  1.00  0.00    -0.508 OA
ATOM     19  H   UNL     1      32.215 -30.643  40.073  1.00  0.00     0.293 HD
ENDBRANCH  15  18
ENDBRANCH   1  12
BRANCH   2  20
ATOM     20  O   UNL     1      33.721 -34.225  34.635  1.00  0.00    -0.502 OA
ATOM     21  H   UNL     1      34.224 -34.088  33.767  1.00  0.00     0.293 HD
ENDBRANCH   2  20
BRANCH   6  22
ATOM     22  O   UNL     1      33.205 -39.123  32.610  1.00  0.00    -0.507 OA
ATOM     23  H   UNL     1      33.594 -40.042  32.461  1.00  0.00     0.293 HD
ENDBRANCH   6  22
BRANCH   8  24
ATOM     24  O   UNL     1      29.336 -40.629  35.023  1.00  0.00    -0.508 OA
ATOM     25  H   UNL     1      29.584 -41.611  35.027  1.00  0.00     0.293 HD
ENDBRANCH   8  24
TORSDOF 5
ENDMDL
MODEL 3
REMARK VINA RESULT:    -6.166      3.853      5.591
REMARK INTER + INTRA:          -7.541
REMARK INTER:                  -7.297
REMARK INTRA:                  -0.243
REMARK UNBOUND:                -0.293
REMARK SMILES O=c1c(O)c(-c2ccc(O)cc2)oc2cc(O)cc(O)c12
REMARK SMILES IDX 5 1 3 2 2 3 1 4 21 5 19 6 18 7 16 8 15 9 14 10 13 11 6 12
REMARK SMILES IDX 7 13 8 14 9 15 12 16 11 17 10 18 4 20 20 22 17 24
REMARK H PARENT 10 19 4 21 20 23 17 25
REMARK Flexibility Score: inf
ROOT
ATOM      1  C   UNL     1      32.090 -38.522  33.597  1.00  0.00     0.180 A 
ATOM      2  C   UNL     1      32.917 -38.136  34.667  1.00  0.00     0.208 A 
ATOM      3  C   UNL     1      34.302 -38.048  34.459  1.00  0.00     0.238 A 
ATOM      4  O   UNL     1      35.031 -37.649  35.406  1.00  0.00    -0.285 OA
ATOM      5  C   UNL     1      34.846 -38.363  33.191  1.00  0.00     0.111 A 
ATOM      6  C   UNL     1      36.240 -38.346  32.880  1.00  0.00     0.134 A 
ATOM      7  C   UNL     1      36.654 -38.548  31.557  1.00  0.00     0.093 A 
ATOM      8  C   UNL     1      35.730 -38.831  30.548  1.00  0.00     0.123 A 
ATOM      9  C   UNL     1      34.374 -38.908  30.854  1.00  0.00     0.094 A 
ATOM     10  C   UNL     1      33.926 -38.675  32.157  1.00  0.00     0.146 A 
ATOM     11  O   UNL     1      32.624 -38.748  32.403  1.00  0.00    -0.452 OA
ENDROOT
BRANCH   1  12
ATOM     12  C   UNL     1      30.624 -38.663  33.746  1.00  0.00     0.021 A 
ATOM     13  C   UNL     1      29.741 -37.668  33.286  1.00  0.00     0.016 A 
ATOM     14  C   UNL     1      28.361 -37.812  33.461  1.00  0.00     0.047 A 
ATOM     15  C   UNL     1      27.847 -38.941  34.106  1.00  0.00     0.115 A 
ATOM     16  C   UNL     1      30.100 -39.784  34.413  1.00  0.00     0.016 A 
ATOM     17  C   UNL     1      28.721 -39.925  34.585  1.00  0.00     0.047 A 
BRANCH  15  18
ATOM     18  O   UNL     1      26.470 -39.071  34.271  1.00  0.00    -0.508 OA
ATOM     19  H   UNL     1      25.855 -39.239  33.483  1.00  0.00     0.293 HD
ENDBRANCH  15  18
ENDBRANCH   1  12
BRANCH   2  20
ATOM     20  O   UNL     1      32.357 -37.809  35.905  1.00  0.00    -0.502 OA
ATOM     21  H   UNL     1      31.844 -36.949  36.060  1.00  0.00     0.293 HD
ENDBRANCH   2  20
BRANCH   6  22
ATOM     22  O   UNL     1      37.249 -38.165  33.829  1.00  0.00    -0.507 OA
ATOM     23  H   UNL     1      37.140 -37.654  34.692  1.00  0.00     0.293 HD
ENDBRANCH   6  22
BRANCH   8  24
ATOM     24  O   UNL     1      36.153 -39.045  29.238  1.00  0.00    -0.508 OA
ATOM     25  H   UNL     1      36.013 -39.935  28.775  1.00  0.00     0.293 HD
ENDBRANCH   8  24
TORSDOF 5
ENDMDL
MODEL 4
REMARK VINA RESULT:    -6.128      3.910      6.085
REMARK INTER + INTRA:          -7.495
REMARK INTER:                  -7.200
REMARK INTRA:                  -0.295
REMARK UNBOUND:                -0.293
REMARK SMILES O=c1c(O)c(-c2ccc(O)cc2)oc2cc(O)cc(O)c12
REMARK SMILES IDX 5 1 3 2 2 3 1 4 21 5 19 6 18 7 16 8 15 9 14 10 13 11 6 12
REMARK SMILES IDX 7 13 8 14 9 15 12 16 11 17 10 18 4 20 20 22 17 24
REMARK H PARENT 10 19 4 21 20 23 17 25
REMARK Flexibility Score: inf
ROOT
ATOM      1  C   UNL     1      32.300 -37.535  32.794  1.00  0.00     0.180 A 
ATOM      2  C   UNL     1      32.507 -38.850  33.248  1.00  0.00     0.208 A 
ATOM      3  C   UNL     1      31.421 -39.568  33.772  1.00  0.00     0.238 A 
ATOM      4  O   UNL     1      31.601 -40.762  34.127  1.00  0.00    -0.285 OA
ATOM      5  C   UNL     1      30.146 -38.959  33.852  1.00  0.00     0.111 A 
ATOM      6  C   UNL     1      28.984 -39.579  34.403  1.00  0.00     0.134 A 
ATOM      7  C   UNL     1      27.745 -38.931  34.310  1.00  0.00     0.093 A 
ATOM      8  C   UNL     1      27.639 -37.657  33.747  1.00  0.00     0.123 A 
ATOM      9  C   UNL     1      28.778 -37.018  33.261  1.00  0.00     0.094 A 
ATOM     10  C   UNL     1      30.021 -37.655  33.306  1.00  0.00     0.146 A 
ATOM     11  O   UNL     1      31.079 -37.015  32.823  1.00  0.00    -0.452 OA
ENDROOT
BRANCH   1  12
ATOM     12  C   UNL     1      33.401 -36.707  32.253  1.00  0.00     0.021 A 
ATOM     13  C   UNL     1      34.241 -35.958  33.099  1.00  0.00     0.016 A 
ATOM     14  C   UNL     1      35.258 -35.163  32.562  1.00  0.00     0.047 A 
ATOM     15  C   UNL     1      35.442 -35.096  31.177  1.00  0.00     0.115 A 
ATOM     16  C   UNL     1      33.579 -36.616  30.861  1.00  0.00     0.016 A 
ATOM     17  C   UNL     1      34.597 -35.821  30.328  1.00  0.00     0.047 A 
BRANCH  15  18
ATOM     18  O   UNL     1      36.461 -34.300  30.657  1.00  0.00    -0.508 OA
ATOM     19  H   UNL     1      37.254 -34.020  31.222  1.00  0.00     0.293 HD
ENDBRANCH  15  18
ENDBRANCH   1  12
BRANCH   2  20
ATOM     20  O   UNL     1      33.769 -39.440  33.140  1.00  0.00    -0.502 OA
ATOM     21  H   UNL     1      33.921 -40.314  32.651  1.00  0.00     0.293 HD
ENDBRANCH   2  20
BRANCH   6  22
ATOM     22  O   UNL     1      28.997 -40.808  35.068  1.00  0.00    -0.507 OA
ATOM     23  H   UNL     1      29.787 -41.180  35.572  1.00  0.00     0.293 HD
ENDBRANCH   6  22
BRANCH   8  24
ATOM     24  O   UNL     1      26.406 -37.013  33.673  1.00  0.00    -0.508 OA
ATOM     25  H   UNL     1      25.820 -36.894  34.491  1.00  0.00     0.293 HD
ENDBRANCH   8  24
TORSDOF 5
ENDMDL
MODEL 5
REMARK VINA RESULT:    -5.804      2.234      3.278
REMARK INTER + INTRA:          -7.115
REMARK INTER:                  -6.908
REMARK INTRA:                  -0.207
REMARK UNBOUND:                -0.293
REMARK SMILES O=c1c(O)c(-c2ccc(O)cc2)oc2cc(O)cc(O)c12
REMARK SMILES IDX 5 1 3 2 2 3 1 4 21 5 19 6 18 7 16 8 15 9 14 10 13 11 6 12
REMARK SMILES IDX 7 13 8 14 9 15 12 16 11 17 10 18 4 20 20 22 17 24
REMARK H PARENT 10 19 4 21 20 23 17 25
REMARK Flexibility Score: inf
ROOT
ATOM      1  C   UNL     1      33.382 -35.708  33.747  1.00  0.00     0.180 A 
ATOM      2  C   UNL     1      33.719 -36.791  34.580  1.00  0.00     0.208 A 
ATOM      3  C   UNL     1      34.232 -37.961  33.999  1.00  0.00     0.238 A 
ATOM      4  O   UNL     1      34.582 -38.906  34.754  1.00  0.00    -0.285 OA
ATOM      5  C   UNL     1      34.386 -38.043  32.594  1.00  0.00     0.111 A 
ATOM      6  C   UNL     1      34.858 -39.195  31.896  1.00  0.00     0.134 A 
ATOM      7  C   UNL     1      35.094 -39.118  30.517  1.00  0.00     0.093 A 
ATOM      8  C   UNL     1      34.813 -37.952  29.802  1.00  0.00     0.123 A 
ATOM      9  C   UNL     1      34.295 -36.842  30.465  1.00  0.00     0.094 A 
ATOM     10  C   UNL     1      34.084 -36.875  31.846  1.00  0.00     0.146 A 
ATOM     11  O   UNL     1      33.598 -35.792  32.440  1.00  0.00    -0.452 OA
ENDROOT
BRANCH   1  12
ATOM     12  C   UNL     1      32.812 -34.451  34.283  1.00  0.00     0.021 A 
ATOM     13  C   UNL     1      33.602 -33.535  35.003  1.00  0.00     0.016 A 
ATOM     14  C   UNL     1      33.035 -32.366  35.520  1.00  0.00     0.047 A 
ATOM     15  C   UNL     1      31.674 -32.104  35.337  1.00  0.00     0.115 A 
ATOM     16  C   UNL     1      31.440 -34.190  34.122  1.00  0.00     0.016 A 
ATOM     17  C   UNL     1      30.877 -33.020  34.640  1.00  0.00     0.047 A 
BRANCH  15  18
ATOM     18  O   UNL     1      31.124 -30.934  35.857  1.00  0.00    -0.508 OA
ATOM     19  H   UNL     1      30.254 -30.944  36.378  1.00  0.00     0.293 HD
ENDBRANCH  15  18
ENDBRANCH   1  12
BRANCH   2  20
ATOM     20  O   UNL     1      33.580 -36.681  35.966  1.00  0.00    -0.502 OA
ATOM     21  H   UNL     1      32.871 -36.100  36.397  1.00  0.00     0.293 HD
ENDBRANCH   2  20
BRANCH   6  22
ATOM     22  O   UNL     1      35.083 -40.435  32.500  1.00  0.00    -0.507 OA
ATOM     23  H   UNL     1      34.393 -41.166  32.584  1.00  0.00     0.293 HD
ENDBRANCH   6  22
BRANCH   8  24
ATOM     24  O   UNL     1      35.036 -37.890  28.429  1.00  0.00    -0.508 OA
ATOM     25  H   UNL     1      34.290 -37.670  27.779  1.00  0.00     0.293 HD
ENDBRANCH   8  24
TORSDOF 5
ENDMDL
MODEL 6
REMARK VINA RESULT:    -5.749      5.514      8.344
REMARK INTER + INTRA:          -7.049
REMARK INTER:                  -6.758
REMARK INTRA:                  -0.291
REMARK UNBOUND:                -0.293
REMARK SMILES O=c1c(O)c(-c2ccc(O)cc2)oc2cc(O)cc(O)c12
REMARK SMILES IDX 5 1 3 2 2 3 1 4 21 5 19 6 18 7 16 8 15 9 14 10 13 11 6 12
REMARK SMILES IDX 7 13 8 14 9 15 12 16 11 17 10 18 4 20 20 22 17 24
REMARK H PARENT 10 19 4 21 20 23 17 25
REMARK Flexibility Score: inf
ROOT
ATOM      1  C   UNL     1      30.087 -34.171  42.491  1.00  0.00     0.180 A 
ATOM      2  C   UNL     1      29.065 -34.924  41.888  1.00  0.00     0.208 A 
ATOM      3  C   UNL     1      28.957 -34.928  40.489  1.00  0.00     0.238 A 
ATOM      4  O   UNL     1      28.074 -35.647  39.953  1.00  0.00    -0.285 OA
ATOM      5  C   UNL     1      29.862 -34.167  39.710  1.00  0.00     0.111 A 
ATOM      6  C   UNL     1      29.820 -34.065  38.287  1.00  0.00     0.134 A 
ATOM      7  C   UNL     1      30.845 -33.389  37.612  1.00  0.00     0.093 A 
ATOM      8  C   UNL     1      31.873 -32.755  38.314  1.00  0.00     0.123 A 
ATOM      9  C   UNL     1      31.889 -32.797  39.706  1.00  0.00     0.094 A 
ATOM     10  C   UNL     1      30.901 -33.495  40.406  1.00  0.00     0.146 A 
ATOM     11  O   UNL     1      30.959 -33.519  41.732  1.00  0.00    -0.452 OA
ENDROOT
BRANCH   1  12
ATOM     12  C   UNL     1      30.248 -34.097  43.962  1.00  0.00     0.021 A 
ATOM     13  C   UNL     1      29.506 -33.186  44.736  1.00  0.00     0.016 A 
ATOM     14  C   UNL     1      29.694 -33.118  46.120  1.00  0.00     0.047 A 
ATOM     15  C   UNL     1      30.632 -33.946  46.745  1.00  0.00     0.115 A 
ATOM     16  C   UNL     1      31.204 -34.910  44.595  1.00  0.00     0.016 A 
ATOM     17  C   UNL     1      31.389 -34.840  45.978  1.00  0.00     0.047 A 
BRANCH  15  18
ATOM     18  O   UNL     1      30.807 -33.868  48.125  1.00  0.00    -0.508 OA
ATOM     19  H   UNL     1      30.211 -34.381  48.764  1.00  0.00     0.293 HD
ENDBRANCH  15  18
ENDBRANCH   1  12
BRANCH   2  20
ATOM     20  O   UNL     1      28.196 -35.686  42.674  1.00  0.00    -0.502 OA
ATOM     21  H   UNL     1      27.212 -35.463  42.771  1.00  0.00     0.293 HD
ENDBRANCH   2  20
BRANCH   6  22
ATOM     22  O   UNL     1      28.790 -34.583  37.498  1.00  0.00    -0.507 OA
ATOM     23  H   UNL     1      28.898 -35.333  36.832  1.00  0.00     0.293 HD
ENDBRANCH   6  22
BRANCH   8  24
ATOM     24  O   UNL     1      32.879 -32.071  37.636  1.00  0.00    -0.508 OA
ATOM     25  H   UNL     1      32.811 -31.873  36.645  1.00  0.00     0.293 HD
ENDBRANCH   8  24
TORSDOF 5
ENDMDL
MODEL 7
REMARK VINA RESULT:    -5.686      1.625      6.653
REMARK INTER + INTRA:          -6.976
REMARK INTER:                  -6.679
REMARK INTRA:                  -0.297
REMARK UNBOUND:                -0.293
REMARK SMILES O=c1c(O)c(-c2ccc(O)cc2)oc2cc(O)cc(O)c12
REMARK SMILES IDX 5 1 3 2 2 3 1 4 21 5 19 6 18 7 16 8 15 9 14 10 13 11 6 12
REMARK SMILES IDX 7 13 8 14 9 15 12 16 11 17 10 18 4 20 20 22 17 24
REMARK H PARENT 10 19 4 21 20 23 17 25
REMARK Flexibility Score: inf
ROOT
ATOM      1  C   UNL     1      32.455 -35.433  34.938  1.00  0.00     0.180 A 
ATOM      2  C   UNL     1      31.704 -34.517  34.180  1.00  0.00     0.208 A 
ATOM      3  C   UNL     1      31.179 -33.380  34.812  1.00  0.00     0.238 A 
ATOM      4  O   UNL     1      30.553 -32.537  34.117  1.00  0.00    -0.285 OA
ATOM      5  C   UNL     1      31.396 -33.179  36.197  1.00  0.00     0.111 A 
ATOM      6  C   UNL     1      30.876 -32.082  36.949  1.00  0.00     0.134 A 
ATOM      7  C   UNL     1      31.264 -31.915  38.284  1.00  0.00     0.093 A 
ATOM      8  C   UNL     1      32.099 -32.841  38.913  1.00  0.00     0.123 A 
ATOM      9  C   UNL     1      32.563 -33.947  38.205  1.00  0.00     0.094 A 
ATOM     10  C   UNL     1      32.224 -34.122  36.861  1.00  0.00     0.146 A 
ATOM     11  O   UNL     1      32.696 -35.184  36.220  1.00  0.00    -0.452 OA
ENDROOT
BRANCH   1  12
ATOM     12  C   UNL     1      33.019 -36.668  34.348  1.00  0.00     0.021 A 
ATOM     13  C   UNL     1      32.293 -37.874  34.336  1.00  0.00     0.016 A 
ATOM     14  C   UNL     1      32.858 -39.034  33.795  1.00  0.00     0.047 A 
ATOM     15  C   UNL     1      34.154 -39.007  33.272  1.00  0.00     0.115 A 
ATOM     16  C   UNL     1      34.330 -36.656  33.840  1.00  0.00     0.016 A 
ATOM     17  C   UNL     1      34.890 -37.816  33.299  1.00  0.00     0.047 A 
BRANCH  15  18
ATOM     18  O   UNL     1      34.702 -40.170  32.735  1.00  0.00    -0.508 OA
ATOM     19  H   UNL     1      34.163 -40.779  32.130  1.00  0.00     0.293 HD
ENDBRANCH  15  18
ENDBRANCH   1  12
BRANCH   2  20
ATOM     20  O   UNL     1      31.520 -34.723  32.810  1.00  0.00    -0.502 OA
ATOM     21  H   UNL     1      30.944 -35.472  32.445  1.00  0.00     0.293 HD
ENDBRANCH   2  20
BRANCH   6  22
ATOM     22  O   UNL     1      29.964 -31.153  36.443  1.00  0.00    -0.507 OA
ATOM     23  H   UNL     1      29.228 -31.368  35.787  1.00  0.00     0.293 HD
ENDBRANCH   6  22
BRANCH   8  24
ATOM     24  O   UNL     1      32.467 -32.676  40.246  1.00  0.00    -0.508 OA
ATOM     25  H   UNL     1      33.097 -31.937  40.535  1.00  0.00     0.293 HD
ENDBRANCH   8  24
TORSDOF 5
ENDMDL
MODEL 8
REMARK VINA RESULT:    -5.673      6.111      8.631
REMARK INTER + INTRA:          -6.960
REMARK INTER:                  -6.701
REMARK INTRA:                  -0.259
REMARK UNBOUND:                -0.293
REMARK SMILES O=c1c(O)c(-c2ccc(O)cc2)oc2cc(O)cc(O)c12
REMARK SMILES IDX 5 1 3 2 2 3 1 4 21 5 19 6 18 7 16 8 15 9 14 10 13 11 6 12
REMARK SMILES IDX 7 13 8 14 9 15 12 16 11 17 10 18 4 20 20 22 17 24
REMARK H PARENT 10 19 4 21 20 23 17 25
REMARK Flexibility Score: inf
ROOT
ATOM      1  C   UNL     1      29.842 -34.264  42.585  1.00  0.00     0.180 A 
ATOM      2  C   UNL     1      30.249 -33.295  41.651  1.00  0.00     0.208 A 
ATOM      3  C   UNL     1      29.956 -33.492  40.293  1.00  0.00     0.238 A 
ATOM      4  O   UNL     1      30.275 -32.596  39.469  1.00  0.00    -0.285 OA
ATOM      5  C   UNL     1      29.273 -34.663  39.882  1.00  0.00     0.111 A 
ATOM      6  C   UNL     1      28.959 -34.984  38.527  1.00  0.00     0.134 A 
ATOM      7  C   UNL     1      28.166 -36.105  38.250  1.00  0.00     0.093 A 
ATOM      8  C   UNL     1      27.731 -36.951  39.273  1.00  0.00     0.123 A 
ATOM      9  C   UNL     1      28.083 -36.678  40.593  1.00  0.00     0.094 A 
ATOM     10  C   UNL     1      28.842 -35.548  40.905  1.00  0.00     0.146 A 
ATOM     11  O   UNL     1      29.147 -35.319  42.177  1.00  0.00    -0.452 OA
ENDROOT
BRANCH   1  12
ATOM     12  C   UNL     1      30.138 -34.139  44.031  1.00  0.00     0.021 A 
ATOM     13  C   UNL     1      29.364 -33.316  44.869  1.00  0.00     0.016 A 
ATOM     14  C   UNL     1      29.679 -33.194  46.227  1.00  0.00     0.047 A 
ATOM     15  C   UNL     1      30.774 -33.881  46.759  1.00  0.00     0.115 A 
ATOM     16  C   UNL     1      31.250 -34.809  44.569  1.00  0.00     0.016 A 
ATOM     17  C   UNL     1      31.562 -34.686  45.926  1.00  0.00     0.047 A 
BRANCH  15  18
ATOM     18  O   UNL     1      31.074 -33.751  48.113  1.00  0.00    -0.508 OA
ATOM     19  H   UNL     1      30.851 -32.906  48.626  1.00  0.00     0.293 HD
ENDBRANCH  15  18
ENDBRANCH   1  12
BRANCH   2  20
ATOM     20  O   UNL     1      30.903 -32.137  42.081  1.00  0.00    -0.502 OA
ATOM     21  H   UNL     1      30.480 -31.218  42.016  1.00  0.00     0.293 HD
ENDBRANCH   2  20
BRANCH   6  22
ATOM     22  O   UNL     1      29.420 -34.258  37.426  1.00  0.00    -0.507 OA
ATOM     23  H   UNL     1      30.079 -33.496  37.476  1.00  0.00     0.293 HD
ENDBRANCH   6  22
BRANCH   8  24
ATOM     24  O   UNL     1      26.956 -38.072  38.986  1.00  0.00    -0.508 OA
ATOM     25  H   UNL     1      26.435 -38.556  39.708  1.00  0.00     0.293 HD
ENDBRANCH   8  24
TORSDOF 5
ENDMDL
MODEL 9
REMARK VINA RESULT:    -5.573      3.693      5.177
REMARK INTER + INTRA:          -6.843
REMARK INTER:                  -6.543
REMARK INTRA:                  -0.300
REMARK UNBOUND:                -0.293
REMARK SMILES O=c1c(O)c(-c2ccc(O)cc2)oc2cc(O)cc(O)c12
REMARK SMILES IDX 5 1 3 2 2 3 1 4 21 5 19 6 18 7 16 8 15 9 14 10 13 11 6 12
REMARK SMILES IDX 7 13 8 14 9 15 12 16 11 17 10 18 4 20 20 22 17 24
REMARK H PARENT 10 19 4 21 20 23 17 25
REMARK Flexibility Score: inf
ROOT
ATOM      1  C   UNL     1      33.523 -39.143  33.111  1.00  0.00     0.180 A 
ATOM      2  C   UNL     1      33.646 -38.546  31.844  1.00  0.00     0.208 A 
ATOM      3  C   UNL     1      34.746 -38.879  31.039  1.00  0.00     0.238 A 
ATOM      4  O   UNL     1      34.822 -38.383  29.885  1.00  0.00    -0.285 OA
ATOM      5  C   UNL     1      35.718 -39.792  31.516  1.00  0.00     0.111 A 
ATOM      6  C   UNL     1      36.894 -40.170  30.800  1.00  0.00     0.134 A 
ATOM      7  C   UNL     1      37.718 -41.180  31.313  1.00  0.00     0.093 A 
ATOM      8  C   UNL     1      37.445 -41.777  32.545  1.00  0.00     0.123 A 
ATOM      9  C   UNL     1      36.332 -41.372  33.279  1.00  0.00     0.094 A 
ATOM     10  C   UNL     1      35.470 -40.393  32.777  1.00  0.00     0.146 A 
ATOM     11  O   UNL     1      34.416 -40.043  33.503  1.00  0.00    -0.452 OA
ENDROOT
BRANCH   1  12
ATOM     12  C   UNL     1      32.404 -38.823  34.028  1.00  0.00     0.021 A 
ATOM     13  C   UNL     1      32.487 -37.755  34.941  1.00  0.00     0.016 A 
ATOM     14  C   UNL     1      31.427 -37.488  35.814  1.00  0.00     0.047 A 
ATOM     15  C   UNL     1      30.280 -38.288  35.794  1.00  0.00     0.115 A 
ATOM     16  C   UNL     1      31.257 -39.635  34.030  1.00  0.00     0.016 A 
ATOM     17  C   UNL     1      30.200 -39.364  34.902  1.00  0.00     0.047 A 
BRANCH  15  18
ATOM     18  O   UNL     1      29.233 -38.008  36.668  1.00  0.00    -0.508 OA
ATOM     19  H   UNL     1      28.314 -37.750  36.328  1.00  0.00     0.293 HD
ENDBRANCH  15  18
ENDBRANCH   1  12
BRANCH   2  20
ATOM     20  O   UNL     1      32.663 -37.665  31.384  1.00  0.00    -0.502 OA
ATOM     21  H   UNL     1      32.849 -36.683  31.217  1.00  0.00     0.293 HD
ENDBRANCH   2  20
BRANCH   6  22
ATOM     22  O   UNL     1      37.307 -39.572  29.607  1.00  0.00    -0.507 OA
ATOM     23  H   UNL     1      37.766 -38.676  29.542  1.00  0.00     0.293 HD
ENDBRANCH   6  22
BRANCH   8  24
ATOM     24  O   UNL     1      38.279 -42.770  33.054  1.00  0.00    -0.508 OA
ATOM     25  H   UNL     1      38.877 -43.322  32.451  1.00  0.00     0.293 HD
ENDBRANCH   8  24
TORSDOF 5
ENDMDL
