MODEL 1
REMARK VINA RESULT:    -7.581      0.000      0.000
REMARK INTER + INTRA:         -10.514
REMARK INTER:                  -9.575
REMARK INTRA:                  -0.939
REMARK UNBOUND:                -0.939
REMARK SMILES CC(C)[C@H](C)C=C[C@@H](C)[C@@H]1CC[C@H]2C3=CC=C4C[C@H](O)CC[C@]4(C)[C@H]3CC[C@]21C
REMARK SMILES IDX 8 1 9 2 7 3 6 4 4 5 5 6 2 7 1 8 3 9 10 10 11 11 28 12 12 13
REMARK SMILES IDX 13 14 27 15 29 16 14 17 26 18 25 19 15 20 23 21 16 22 17 23
REMARK SMILES IDX 22 24 24 25 18 26 21 27 19 28 20 29
REMARK H PARENT 20 30
REMARK Flexibility Score: inf
ROOT
ATOM      1  C   UNL     1     111.667 117.665 125.681  1.00  0.00     0.012 C 
ATOM      2  C   UNL     1     111.172 117.012 124.374  1.00  0.00     0.012 C 
ENDROOT
BRANCH   1   3
ATOM      3  C   UNL     1     110.995 116.932 126.825  1.00  0.00    -0.028 C 
ATOM      4  C   UNL     1     110.575 117.584 127.923  1.00  0.00    -0.028 C 
BRANCH   4   5
ATOM      5  C   UNL     1     109.885 116.881 129.075  1.00  0.00     0.011 C 
ATOM      6  C   UNL     1     109.282 115.557 128.580  1.00  0.00     0.012 C 
BRANCH   5   7
ATOM      7  C   UNL     1     110.831 116.690 130.300  1.00  0.00    -0.011 C 
ATOM      8  C   UNL     1     111.892 117.801 130.381  1.00  0.00     0.008 C 
ATOM      9  C   UNL     1     111.539 115.324 130.253  1.00  0.00     0.008 C 
ENDBRANCH   5   7
ENDBRANCH   4   5
ENDBRANCH   1   3
BRANCH   1  10
ATOM     10  C   UNL     1     111.368 119.209 125.762  1.00  0.00     0.002 C 
ATOM     11  C   UNL     1     111.171 119.857 124.376  1.00  0.00     0.005 C 
ATOM     12  C   UNL     1     112.497 120.094 126.410  1.00  0.00    -0.023 C 
ATOM     13  C   UNL     1     112.494 120.500 123.985  1.00  0.00     0.009 C 
ATOM     14  C   UNL     1     113.401 120.473 125.224  1.00  0.00     0.021 C 
ATOM     15  C   UNL     1     111.844 121.376 126.996  1.00  0.00     0.008 C 
ATOM     16  C   UNL     1     113.330 119.382 127.513  1.00  0.00     0.012 C 
ATOM     17  C   UNL     1     114.173 121.774 125.382  1.00  0.00    -0.063 C 
ATOM     18  C   UNL     1     112.858 122.374 127.552  1.00  0.00     0.009 C 
ATOM     19  C   UNL     1     114.045 122.698 126.594  1.00  0.00     0.025 C 
ATOM     20  C   UNL     1     115.062 122.099 124.431  1.00  0.00    -0.000 C 
ATOM     21  C   UNL     1     114.142 124.213 126.167  1.00  0.00    -0.005 C 
ATOM     22  C   UNL     1     115.745 123.401 124.431  1.00  0.00    -0.000 C 
ATOM     23  C   UNL     1     115.364 124.394 125.253  1.00  0.00    -0.061 C 
ATOM     24  C   UNL     1     114.304 125.107 127.440  1.00  0.00     0.014 C 
ATOM     25  C   UNL     1     112.880 124.636 125.374  1.00  0.00     0.017 C 
ATOM     26  C   UNL     1     115.974 125.764 125.059  1.00  0.00     0.063 C 
ATOM     27  C   UNL     1     114.801 126.530 127.145  1.00  0.00     0.033 C 
ATOM     28  C   UNL     1     116.130 126.511 126.387  1.00  0.00     0.118 C 
BRANCH  28  29
ATOM     29  O   UNL     1     117.121 125.904 127.177  1.00  0.00    -0.393 OA
ATOM     30  H   UNL     1     116.789 125.915 128.112  1.00  0.00     0.210 HD
ENDBRANCH  28  29
ENDBRANCH   1  10
TORSDOF 5
ENDMDL
MODEL 2
REMARK VINA RESULT:    -7.574      1.706      3.652
REMARK INTER + INTRA:         -10.506
REMARK INTER:                 -10.066
REMARK INTRA:                  -0.439
REMARK UNBOUND:                -0.939
REMARK SMILES CC(C)[C@H](C)C=C[C@@H](C)[C@@H]1CC[C@H]2C3=CC=C4C[C@H](O)CC[C@]4(C)[C@H]3CC[C@]21C
REMARK SMILES IDX 8 1 9 2 7 3 6 4 4 5 5 6 2 7 1 8 3 9 10 10 11 11 28 12 12 13
REMARK SMILES IDX 13 14 27 15 29 16 14 17 26 18 25 19 15 20 23 21 16 22 17 23
REMARK SMILES IDX 22 24 24 25 18 26 21 27 19 28 20 29
REMARK H PARENT 20 30
REMARK Flexibility Score: inf
ROOT
ATOM      1  C   UNL     1     109.521 116.532 127.081  1.00  0.00     0.012 C 
ATOM      2  C   UNL     1     109.568 115.936 128.503  1.00  0.00     0.012 C 
ENDROOT
BRANCH   1   3
ATOM      3  C   UNL     1     110.732 116.001 126.339  1.00  0.00    -0.028 C 
ATOM      4  C   UNL     1     110.600 115.248 125.234  1.00  0.00    -0.028 C 
BRANCH   4   5
ATOM      5  C   UNL     1     111.792 114.717 124.461  1.00  0.00     0.011 C 
ATOM      6  C   UNL     1     111.515 113.268 124.026  1.00  0.00     0.012 C 
BRANCH   5   7
ATOM      7  C   UNL     1     112.178 115.641 123.266  1.00  0.00    -0.011 C 
ATOM      8  C   UNL     1     113.319 116.604 123.635  1.00  0.00     0.008 C 
ATOM      9  C   UNL     1     110.970 116.460 122.778  1.00  0.00     0.008 C 
ENDBRANCH   5   7
ENDBRANCH   4   5
ENDBRANCH   1   3
BRANCH   1  10
ATOM     10  C   UNL     1     109.507 118.106 127.061  1.00  0.00     0.002 C 
ATOM     11  C   UNL     1     108.875 118.685 125.778  1.00  0.00     0.005 C 
ATOM     12  C   UNL     1     110.915 118.806 127.111  1.00  0.00    -0.023 C 
ATOM     13  C   UNL     1     110.015 119.043 124.835  1.00  0.00     0.009 C 
ATOM     14  C   UNL     1     111.322 118.930 125.632  1.00  0.00     0.021 C 
ATOM     15  C   UNL     1     110.740 120.224 127.722  1.00  0.00     0.008 C 
ATOM     16  C   UNL     1     112.002 118.027 127.903  1.00  0.00     0.012 C 
ATOM     17  C   UNL     1     112.274 120.073 125.312  1.00  0.00    -0.063 C 
ATOM     18  C   UNL     1     112.025 121.050 127.716  1.00  0.00     0.009 C 
ATOM     19  C   UNL     1     112.771 121.084 126.347  1.00  0.00     0.025 C 
ATOM     20  C   UNL     1     112.753 120.163 124.062  1.00  0.00    -0.000 C 
ATOM     21  C   UNL     1     112.911 122.522 125.716  1.00  0.00    -0.005 C 
ATOM     22  C   UNL     1     113.563 121.312 123.630  1.00  0.00    -0.000 C 
ATOM     23  C   UNL     1     113.685 122.411 124.394  1.00  0.00    -0.061 C 
ATOM     24  C   UNL     1     113.690 123.453 126.702  1.00  0.00     0.014 C 
ATOM     25  C   UNL     1     111.514 123.119 125.408  1.00  0.00     0.017 C 
ATOM     26  C   UNL     1     114.361 123.628 123.803  1.00  0.00     0.063 C 
ATOM     27  C   UNL     1     114.231 124.736 126.054  1.00  0.00     0.033 C 
ATOM     28  C   UNL     1     115.135 124.420 124.861  1.00  0.00     0.118 C 
BRANCH  28  29
ATOM     29  O   UNL     1     116.258 123.693 125.293  1.00  0.00    -0.393 OA
ATOM     30  H   UNL     1     115.916 122.911 125.799  1.00  0.00     0.210 HD
ENDBRANCH  28  29
ENDBRANCH   1  10
TORSDOF 5
ENDMDL
MODEL 3
REMARK VINA RESULT:    -7.430      2.924      9.080
REMARK INTER + INTRA:         -10.324
REMARK INTER:                  -9.645
REMARK INTRA:                  -0.678
REMARK UNBOUND:                -0.939
REMARK SMILES CC(C)[C@H](C)C=C[C@@H](C)[C@@H]1CC[C@H]2C3=CC=C4C[C@H](O)CC[C@]4(C)[C@H]3CC[C@]21C
REMARK SMILES IDX 8 1 9 2 7 3 6 4 4 5 5 6 2 7 1 8 3 9 10 10 11 11 28 12 12 13
REMARK SMILES IDX 13 14 27 15 29 16 14 17 26 18 25 19 15 20 23 21 16 22 17 23
REMARK SMILES IDX 22 24 24 25 18 26 21 27 19 28 20 29
REMARK H PARENT 20 30
REMARK Flexibility Score: inf
ROOT
ATOM      1  C   UNL     1     114.893 125.113 126.878  1.00  0.00     0.012 C 
ATOM      2  C   UNL     1     113.905 125.754 127.875  1.00  0.00     0.012 C 
ENDROOT
BRANCH   1   3
ATOM      3  C   UNL     1     115.689 126.244 126.256  1.00  0.00    -0.028 C 
ATOM      4  C   UNL     1     115.846 127.419 126.887  1.00  0.00    -0.028 C 
BRANCH   4   5
ATOM      5  C   UNL     1     116.650 128.561 126.298  1.00  0.00     0.011 C 
ATOM      6  C   UNL     1     117.807 127.993 125.460  1.00  0.00     0.012 C 
BRANCH   5   7
ATOM      7  C   UNL     1     115.759 129.558 125.496  1.00  0.00    -0.011 C 
ATOM      8  C   UNL     1     116.509 130.860 125.170  1.00  0.00     0.008 C 
ATOM      9  C   UNL     1     114.471 129.901 126.266  1.00  0.00     0.008 C 
ENDBRANCH   5   7
ENDBRANCH   4   5
ENDBRANCH   1   3
BRANCH   1  10
ATOM     10  C   UNL     1     114.189 124.253 125.763  1.00  0.00     0.002 C 
ATOM     11  C   UNL     1     112.694 124.594 125.595  1.00  0.00     0.005 C 
ATOM     12  C   UNL     1     114.175 122.698 126.002  1.00  0.00    -0.023 C 
ATOM     13  C   UNL     1     111.903 123.560 126.384  1.00  0.00     0.009 C 
ATOM     14  C   UNL     1     112.885 122.457 126.806  1.00  0.00     0.021 C 
ATOM     15  C   UNL     1     114.069 121.988 124.625  1.00  0.00     0.008 C 
ATOM     16  C   UNL     1     115.403 122.147 126.780  1.00  0.00     0.012 C 
ATOM     17  C   UNL     1     112.272 121.073 126.655  1.00  0.00    -0.063 C 
ATOM     18  C   UNL     1     113.928 120.470 124.734  1.00  0.00     0.009 C 
ATOM     19  C   UNL     1     112.834 119.988 125.735  1.00  0.00     0.025 C 
ATOM     20  C   UNL     1     111.211 120.766 127.417  1.00  0.00    -0.000 C 
ATOM     21  C   UNL     1     111.676 119.143 125.077  1.00  0.00    -0.005 C 
ATOM     22  C   UNL     1     110.472 119.509 127.235  1.00  0.00    -0.000 C 
ATOM     23  C   UNL     1     110.691 118.713 126.174  1.00  0.00    -0.061 C 
ATOM     24  C   UNL     1     112.279 117.875 124.388  1.00  0.00     0.014 C 
ATOM     25  C   UNL     1     110.901 119.997 124.041  1.00  0.00     0.017 C 
ATOM     26  C   UNL     1     109.758 117.545 125.944  1.00  0.00     0.063 C 
ATOM     27  C   UNL     1     111.243 116.789 124.065  1.00  0.00     0.033 C 
ATOM     28  C   UNL     1     110.484 116.350 125.319  1.00  0.00     0.118 C 
BRANCH  28  29
ATOM     29  O   UNL     1     111.377 115.781 126.242  1.00  0.00    -0.393 OA
ATOM     30  H   UNL     1     110.857 115.593 127.066  1.00  0.00     0.210 HD
ENDBRANCH  28  29
ENDBRANCH   1  10
TORSDOF 5
ENDMDL
MODEL 4
REMARK VINA RESULT:    -7.111      1.910      3.582
REMARK INTER + INTRA:          -9.920
REMARK INTER:                  -9.828
REMARK INTRA:                  -0.092
REMARK UNBOUND:                -0.939
REMARK SMILES CC(C)[C@H](C)C=C[C@@H](C)[C@@H]1CC[C@H]2C3=CC=C4C[C@H](O)CC[C@]4(C)[C@H]3CC[C@]21C
REMARK SMILES IDX 8 1 9 2 7 3 6 4 4 5 5 6 2 7 1 8 3 9 10 10 11 11 28 12 12 13
REMARK SMILES IDX 13 14 27 15 29 16 14 17 26 18 25 19 15 20 23 21 16 22 17 23
REMARK SMILES IDX 22 24 24 25 18 26 21 27 19 28 20 29
REMARK H PARENT 20 30
REMARK Flexibility Score: inf
ROOT
ATOM      1  C   UNL     1     109.519 116.636 126.726  1.00  0.00     0.012 C 
ATOM      2  C   UNL     1     109.635 115.976 128.116  1.00  0.00     0.012 C 
ENDROOT
BRANCH   1   3
ATOM      3  C   UNL     1     110.690 116.139 125.901  1.00  0.00    -0.028 C 
ATOM      4  C   UNL     1     110.510 115.619 124.675  1.00  0.00    -0.028 C 
BRANCH   4   5
ATOM      5  C   UNL     1     111.663 115.130 123.820  1.00  0.00     0.011 C 
ATOM      6  C   UNL     1     112.665 116.276 123.607  1.00  0.00     0.012 C 
BRANCH   5   7
ATOM      7  C   UNL     1     112.329 113.848 124.406  1.00  0.00    -0.011 C 
ATOM      8  C   UNL     1     113.864 113.924 124.344  1.00  0.00     0.008 C 
ATOM      9  C   UNL     1     111.860 112.583 123.666  1.00  0.00     0.008 C 
ENDBRANCH   5   7
ENDBRANCH   4   5
ENDBRANCH   1   3
BRANCH   1  10
ATOM     10  C   UNL     1     109.507 118.209 126.778  1.00  0.00     0.002 C 
ATOM     11  C   UNL     1     108.897 118.848 125.514  1.00  0.00     0.005 C 
ATOM     12  C   UNL     1     110.916 118.903 126.883  1.00  0.00    -0.023 C 
ATOM     13  C   UNL     1     110.052 119.247 124.606  1.00  0.00     0.009 C 
ATOM     14  C   UNL     1     111.347 119.094 125.418  1.00  0.00     0.021 C 
ATOM     15  C   UNL     1     110.733 120.292 127.556  1.00  0.00     0.008 C 
ATOM     16  C   UNL     1     111.989 118.086 127.656  1.00  0.00     0.012 C 
ATOM     17  C   UNL     1     112.306 120.248 125.166  1.00  0.00    -0.063 C 
ATOM     18  C   UNL     1     112.019 121.115 127.608  1.00  0.00     0.009 C 
ATOM     19  C   UNL     1     112.787 121.209 126.254  1.00  0.00     0.025 C 
ATOM     20  C   UNL     1     112.804 120.395 123.929  1.00  0.00    -0.000 C 
ATOM     21  C   UNL     1     112.939 122.675 125.693  1.00  0.00    -0.005 C 
ATOM     22  C   UNL     1     113.623 121.560 123.564  1.00  0.00    -0.000 C 
ATOM     23  C   UNL     1     113.734 122.623 124.379  1.00  0.00    -0.061 C 
ATOM     24  C   UNL     1     113.704 123.558 126.732  1.00  0.00     0.014 C 
ATOM     25  C   UNL     1     111.549 123.288 125.390  1.00  0.00     0.017 C 
ATOM     26  C   UNL     1     114.422 123.864 123.855  1.00  0.00     0.063 C 
ATOM     27  C   UNL     1     114.257 124.867 126.153  1.00  0.00     0.033 C 
ATOM     28  C   UNL     1     115.180 124.604 124.961  1.00  0.00     0.118 C 
BRANCH  28  29
ATOM     29  O   UNL     1     116.294 123.857 125.377  1.00  0.00    -0.393 OA
ATOM     30  H   UNL     1     117.084 124.231 124.907  1.00  0.00     0.210 HD
ENDBRANCH  28  29
ENDBRANCH   1  10
TORSDOF 5
ENDMDL
MODEL 5
REMARK VINA RESULT:    -7.057      2.164      3.745
REMARK INTER + INTRA:          -9.852
REMARK INTER:                  -9.034
REMARK INTRA:                  -0.818
REMARK UNBOUND:                -0.939
REMARK SMILES CC(C)[C@H](C)C=C[C@@H](C)[C@@H]1CC[C@H]2C3=CC=C4C[C@H](O)CC[C@]4(C)[C@H]3CC[C@]21C
REMARK SMILES IDX 8 1 9 2 7 3 6 4 4 5 5 6 2 7 1 8 3 9 10 10 11 11 28 12 12 13
REMARK SMILES IDX 13 14 27 15 29 16 14 17 26 18 25 19 15 20 23 21 16 22 17 23
REMARK SMILES IDX 22 24 24 25 18 26 21 27 19 28 20 29
REMARK H PARENT 20 30
REMARK Flexibility Score: inf
ROOT
ATOM      1  C   UNL     1     110.484 119.856 125.707  1.00  0.00     0.012 C 
ATOM      2  C   UNL     1     110.017 119.445 127.118  1.00  0.00     0.012 C 
ENDROOT
BRANCH   1   3
ATOM      3  C   UNL     1     110.257 118.663 124.800  1.00  0.00    -0.028 C 
ATOM      4  C   UNL     1     109.818 117.490 125.285  1.00  0.00    -0.028 C 
BRANCH   4   5
ATOM      5  C   UNL     1     109.566 116.285 124.401  1.00  0.00     0.011 C 
ATOM      6  C   UNL     1     109.315 116.752 122.957  1.00  0.00     0.012 C 
BRANCH   5   7
ATOM      7  C   UNL     1     110.710 115.230 124.501  1.00  0.00    -0.011 C 
ATOM      8  C   UNL     1     111.756 115.622 125.558  1.00  0.00     0.008 C 
ATOM      9  C   UNL     1     111.414 115.037 123.147  1.00  0.00     0.008 C 
ENDBRANCH   5   7
ENDBRANCH   4   5
ENDBRANCH   1   3
BRANCH   1  10
ATOM     10  C   UNL     1     111.990 120.313 125.654  1.00  0.00     0.002 C 
ATOM     11  C   UNL     1     112.728 120.107 126.993  1.00  0.00     0.005 C 
ATOM     12  C   UNL     1     112.235 121.836 125.343  1.00  0.00    -0.023 C 
ATOM     13  C   UNL     1     112.725 121.445 127.721  1.00  0.00     0.009 C 
ATOM     14  C   UNL     1     112.227 122.505 126.729  1.00  0.00     0.021 C 
ATOM     15  C   UNL     1     113.642 121.988 124.702  1.00  0.00     0.008 C 
ATOM     16  C   UNL     1     111.168 122.493 124.424  1.00  0.00     0.012 C 
ATOM     17  C   UNL     1     113.030 123.793 126.836  1.00  0.00    -0.063 C 
ATOM     18  C   UNL     1     114.044 123.442 124.460  1.00  0.00     0.009 C 
ATOM     19  C   UNL     1     113.848 124.385 125.687  1.00  0.00     0.025 C 
ATOM     20  C   UNL     1     112.968 124.481 127.986  1.00  0.00    -0.000 C 
ATOM     21  C   UNL     1     115.176 125.049 126.217  1.00  0.00    -0.005 C 
ATOM     22  C   UNL     1     113.819 125.656 128.226  1.00  0.00    -0.000 C 
ATOM     23  C   UNL     1     114.833 125.967 127.400  1.00  0.00    -0.061 C 
ATOM     24  C   UNL     1     115.833 125.891 125.075  1.00  0.00     0.014 C 
ATOM     25  C   UNL     1     116.164 123.965 126.718  1.00  0.00     0.017 C 
ATOM     26  C   UNL     1     115.789 127.064 127.815  1.00  0.00     0.063 C 
ATOM     27  C   UNL     1     116.892 126.889 125.565  1.00  0.00     0.033 C 
ATOM     28  C   UNL     1     116.315 127.847 126.609  1.00  0.00     0.118 C 
BRANCH  28  29
ATOM     29  O   UNL     1     115.287 128.614 126.036  1.00  0.00    -0.393 OA
ATOM     30  H   UNL     1     114.733 128.958 126.784  1.00  0.00     0.210 HD
ENDBRANCH  28  29
ENDBRANCH   1  10
TORSDOF 5
ENDMDL
MODEL 6
REMARK VINA RESULT:    -7.039      2.771      9.031
REMARK INTER + INTRA:          -9.830
REMARK INTER:                  -9.460
REMARK INTRA:                  -0.369
REMARK UNBOUND:                -0.939
REMARK SMILES CC(C)[C@H](C)C=C[C@@H](C)[C@@H]1CC[C@H]2C3=CC=C4C[C@H](O)CC[C@]4(C)[C@H]3CC[C@]21C
REMARK SMILES IDX 8 1 9 2 7 3 6 4 4 5 5 6 2 7 1 8 3 9 10 10 11 11 28 12 12 13
REMARK SMILES IDX 13 14 27 15 29 16 14 17 26 18 25 19 15 20 23 21 16 22 17 23
REMARK SMILES IDX 22 24 24 25 18 26 21 27 19 28 20 29
REMARK H PARENT 20 30
REMARK Flexibility Score: inf
ROOT
ATOM      1  C   UNL     1     115.324 124.997 125.353  1.00  0.00     0.012 C 
ATOM      2  C   UNL     1     115.974 124.378 124.099  1.00  0.00     0.012 C 
ENDROOT
BRANCH   1   3
ATOM      3  C   UNL     1     116.309 126.006 125.910  1.00  0.00    -0.028 C 
ATOM      4  C   UNL     1     116.152 127.324 125.704  1.00  0.00    -0.028 C 
BRANCH   4   5
ATOM      5  C   UNL     1     117.110 128.358 126.263  1.00  0.00     0.011 C 
ATOM      6  C   UNL     1     118.260 128.580 125.267  1.00  0.00     0.012 C 
BRANCH   5   7
ATOM      7  C   UNL     1     116.386 129.683 126.652  1.00  0.00    -0.011 C 
ATOM      8  C   UNL     1     115.158 129.944 125.764  1.00  0.00     0.008 C 
ATOM      9  C   UNL     1     117.338 130.889 126.558  1.00  0.00     0.008 C 
ENDBRANCH   5   7
ENDBRANCH   4   5
ENDBRANCH   1   3
BRANCH   1  10
ATOM     10  C   UNL     1     114.940 123.934 126.449  1.00  0.00     0.002 C 
ATOM     11  C   UNL     1     115.995 122.820 126.601  1.00  0.00     0.005 C 
ATOM     12  C   UNL     1     113.610 123.133 126.193  1.00  0.00    -0.023 C 
ATOM     13  C   UNL     1     115.511 121.625 125.791  1.00  0.00     0.009 C 
ATOM     14  C   UNL     1     114.063 121.914 125.369  1.00  0.00     0.021 C 
ATOM     15  C   UNL     1     113.050 122.656 127.561  1.00  0.00     0.008 C 
ATOM     16  C   UNL     1     112.512 123.921 125.425  1.00  0.00     0.012 C 
ATOM     17  C   UNL     1     113.185 120.679 125.498  1.00  0.00    -0.063 C 
ATOM     18  C   UNL     1     111.817 121.763 127.434  1.00  0.00     0.009 C 
ATOM     19  C   UNL     1     111.962 120.593 126.414  1.00  0.00     0.025 C 
ATOM     20  C   UNL     1     113.464 119.623 124.718  1.00  0.00    -0.000 C 
ATOM     21  C   UNL     1     111.824 119.156 127.047  1.00  0.00    -0.005 C 
ATOM     22  C   UNL     1     112.759 118.342 124.877  1.00  0.00    -0.000 C 
ATOM     23  C   UNL     1     111.960 118.107 125.932  1.00  0.00    -0.061 C 
ATOM     24  C   UNL     1     110.425 119.016 127.730  1.00  0.00     0.014 C 
ATOM     25  C   UNL     1     112.951 118.907 128.081  1.00  0.00     0.017 C 
ATOM     26  C   UNL     1     111.430 116.705 126.137  1.00  0.00     0.063 C 
ATOM     27  C   UNL     1     110.017 117.566 128.028  1.00  0.00     0.033 C 
ATOM     28  C   UNL     1     110.031 116.711 126.759  1.00  0.00     0.118 C 
BRANCH  28  29
ATOM     29  O   UNL     1     109.088 117.204 125.842  1.00  0.00    -0.393 OA
ATOM     30  H   UNL     1     109.154 116.638 125.030  1.00  0.00     0.210 HD
ENDBRANCH  28  29
ENDBRANCH   1  10
TORSDOF 5
ENDMDL
MODEL 7
REMARK VINA RESULT:    -6.953      3.026      9.199
REMARK INTER + INTRA:          -9.720
REMARK INTER:                  -9.086
REMARK INTRA:                  -0.634
REMARK UNBOUND:                -0.939
REMARK SMILES CC(C)[C@H](C)C=C[C@@H](C)[C@@H]1CC[C@H]2C3=CC=C4C[C@H](O)CC[C@]4(C)[C@H]3CC[C@]21C
REMARK SMILES IDX 8 1 9 2 7 3 6 4 4 5 5 6 2 7 1 8 3 9 10 10 11 11 28 12 12 13
REMARK SMILES IDX 13 14 27 15 29 16 14 17 26 18 25 19 15 20 23 21 16 22 17 23
REMARK SMILES IDX 22 24 24 25 18 26 21 27 19 28 20 29
REMARK H PARENT 20 30
REMARK Flexibility Score: inf
ROOT
ATOM      1  C   UNL     1     115.605 125.414 126.055  1.00  0.00     0.012 C 
ATOM      2  C   UNL     1     116.770 124.970 126.962  1.00  0.00     0.012 C 
ENDROOT
BRANCH   1   3
ATOM      3  C   UNL     1     115.527 126.926 126.142  1.00  0.00    -0.028 C 
ATOM      4  C   UNL     1     116.404 127.710 125.491  1.00  0.00    -0.028 C 
BRANCH   4   5
ATOM      5  C   UNL     1     116.341 129.223 125.545  1.00  0.00     0.011 C 
ATOM      6  C   UNL     1     115.011 129.658 126.181  1.00  0.00     0.012 C 
BRANCH   5   7
ATOM      7  C   UNL     1     117.581 129.839 126.264  1.00  0.00    -0.011 C 
ATOM      8  C   UNL     1     117.313 131.279 126.732  1.00  0.00     0.008 C 
ATOM      9  C   UNL     1     118.819 129.832 125.349  1.00  0.00     0.008 C 
ENDBRANCH   5   7
ENDBRANCH   4   5
ENDBRANCH   1   3
BRANCH   1  10
ATOM     10  C   UNL     1     114.224 124.766 126.445  1.00  0.00     0.002 C 
ATOM     11  C   UNL     1     114.265 124.039 127.804  1.00  0.00     0.005 C 
ATOM     12  C   UNL     1     113.683 123.660 125.465  1.00  0.00    -0.023 C 
ATOM     13  C   UNL     1     114.468 122.557 127.518  1.00  0.00     0.009 C 
ATOM     14  C   UNL     1     114.291 122.354 126.007  1.00  0.00     0.021 C 
ATOM     15  C   UNL     1     112.136 123.604 125.590  1.00  0.00     0.008 C 
ATOM     16  C   UNL     1     114.080 123.858 123.976  1.00  0.00     0.012 C 
ATOM     17  C   UNL     1     113.500 121.091 125.701  1.00  0.00    -0.063 C 
ATOM     18  C   UNL     1     111.502 122.482 124.769  1.00  0.00     0.009 C 
ATOM     19  C   UNL     1     112.162 121.082 124.959  1.00  0.00     0.025 C 
ATOM     20  C   UNL     1     114.036 119.911 126.049  1.00  0.00    -0.000 C 
ATOM     21  C   UNL     1     111.196 119.980 125.540  1.00  0.00    -0.005 C 
ATOM     22  C   UNL     1     113.281 118.656 125.920  1.00  0.00    -0.000 C 
ATOM     23  C   UNL     1     111.964 118.654 125.648  1.00  0.00    -0.061 C 
ATOM     24  C   UNL     1     109.972 119.799 124.585  1.00  0.00     0.014 C 
ATOM     25  C   UNL     1     110.713 120.373 126.959  1.00  0.00     0.017 C 
ATOM     26  C   UNL     1     111.214 117.343 125.731  1.00  0.00     0.063 C 
ATOM     27  C   UNL     1     109.180 118.505 124.822  1.00  0.00     0.033 C 
ATOM     28  C   UNL     1     110.078 117.272 124.705  1.00  0.00     0.118 C 
BRANCH  28  29
ATOM     29  O   UNL     1     110.598 117.182 123.403  1.00  0.00    -0.393 OA
ATOM     30  H   UNL     1     110.207 117.932 122.885  1.00  0.00     0.210 HD
ENDBRANCH  28  29
ENDBRANCH   1  10
TORSDOF 5
ENDMDL
MODEL 8
REMARK VINA RESULT:    -6.574      4.460      8.656
REMARK INTER + INTRA:          -9.242
REMARK INTER:                  -8.218
REMARK INTRA:                  -1.024
REMARK UNBOUND:                -0.939
REMARK SMILES CC(C)[C@H](C)C=C[C@@H](C)[C@@H]1CC[C@H]2C3=CC=C4C[C@H](O)CC[C@]4(C)[C@H]3CC[C@]21C
REMARK SMILES IDX 8 1 9 2 7 3 6 4 4 5 5 6 2 7 1 8 3 9 10 10 11 11 28 12 12 13
REMARK SMILES IDX 13 14 27 15 29 16 14 17 26 18 25 19 15 20 23 21 16 22 17 23
REMARK SMILES IDX 22 24 24 25 18 26 21 27 19 28 20 29
REMARK H PARENT 20 30
REMARK Flexibility Score: inf
ROOT
ATOM      1  C   UNL     1     117.254 119.471 123.675  1.00  0.00     0.012 C 
ATOM      2  C   UNL     1     117.848 120.871 123.935  1.00  0.00     0.012 C 
ENDROOT
BRANCH   1   3
ATOM      3  C   UNL     1     117.623 119.091 122.254  1.00  0.00    -0.028 C 
ATOM      4  C   UNL     1     116.834 118.292 121.516  1.00  0.00    -0.028 C 
BRANCH   4   5
ATOM      5  C   UNL     1     117.168 117.908 120.088  1.00  0.00     0.011 C 
ATOM      6  C   UNL     1     116.556 118.938 119.125  1.00  0.00     0.012 C 
BRANCH   5   7
ATOM      7  C   UNL     1     118.701 117.719 119.872  1.00  0.00    -0.011 C 
ATOM      8  C   UNL     1     119.087 117.836 118.388  1.00  0.00     0.008 C 
ATOM      9  C   UNL     1     119.178 116.357 120.408  1.00  0.00     0.008 C 
ENDBRANCH   5   7
ENDBRANCH   4   5
ENDBRANCH   1   3
BRANCH   1  10
ATOM     10  C   UNL     1     115.694 119.404 123.877  1.00  0.00     0.002 C 
ATOM     11  C   UNL     1     115.118 120.675 124.534  1.00  0.00     0.005 C 
ATOM     12  C   UNL     1     115.173 118.252 124.814  1.00  0.00    -0.023 C 
ATOM     13  C   UNL     1     114.961 120.384 126.020  1.00  0.00     0.009 C 
ATOM     14  C   UNL     1     115.189 118.879 126.220  1.00  0.00     0.021 C 
ATOM     15  C   UNL     1     113.711 117.913 124.413  1.00  0.00     0.008 C 
ATOM     16  C   UNL     1     116.033 116.957 124.796  1.00  0.00     0.012 C 
ATOM     17  C   UNL     1     114.194 118.288 127.208  1.00  0.00    -0.063 C 
ATOM     18  C   UNL     1     113.053 116.884 125.331  1.00  0.00     0.009 C 
ATOM     19  C   UNL     1     113.194 117.186 126.854  1.00  0.00     0.025 C 
ATOM     20  C   UNL     1     114.239 118.716 128.479  1.00  0.00    -0.000 C 
ATOM     21  C   UNL     1     111.823 117.399 127.606  1.00  0.00    -0.005 C 
ATOM     22  C   UNL     1     113.227 118.305 129.464  1.00  0.00    -0.000 C 
ATOM     23  C   UNL     1     112.108 117.659 129.093  1.00  0.00    -0.061 C 
ATOM     24  C   UNL     1     110.940 116.118 127.458  1.00  0.00     0.014 C 
ATOM     25  C   UNL     1     111.077 118.632 127.036  1.00  0.00     0.017 C 
ATOM     26  C   UNL     1     111.022 117.448 130.124  1.00  0.00     0.063 C 
ATOM     27  C   UNL     1     109.776 116.043 128.456  1.00  0.00     0.033 C 
ATOM     28  C   UNL     1     110.272 116.132 129.900  1.00  0.00     0.118 C 
BRANCH  28  29
ATOM     29  O   UNL     1     111.105 115.037 130.186  1.00  0.00    -0.393 OA
ATOM     30  H   UNL     1     110.512 114.259 130.347  1.00  0.00     0.210 HD
ENDBRANCH  28  29
ENDBRANCH   1  10
TORSDOF 5
ENDMDL
MODEL 9
REMARK VINA RESULT:    -6.368      2.766      3.698
REMARK INTER + INTRA:          -8.982
REMARK INTER:                  -7.917
REMARK INTRA:                  -1.065
REMARK UNBOUND:                -0.939
REMARK SMILES CC(C)[C@H](C)C=C[C@@H](C)[C@@H]1CC[C@H]2C3=CC=C4C[C@H](O)CC[C@]4(C)[C@H]3CC[C@]21C
REMARK SMILES IDX 8 1 9 2 7 3 6 4 4 5 5 6 2 7 1 8 3 9 10 10 11 11 28 12 12 13
REMARK SMILES IDX 13 14 27 15 29 16 14 17 26 18 25 19 15 20 23 21 16 22 17 23
REMARK SMILES IDX 22 24 24 25 18 26 21 27 19 28 20 29
REMARK H PARENT 20 30
REMARK Flexibility Score: inf
ROOT
ATOM      1  C   UNL     1     110.321 118.659 125.522  1.00  0.00     0.012 C 
ATOM      2  C   UNL     1     109.042 119.370 125.035  1.00  0.00     0.012 C 
ENDROOT
BRANCH   1   3
ATOM      3  C   UNL     1     109.909 117.726 126.644  1.00  0.00    -0.028 C 
ATOM      4  C   UNL     1     110.083 118.062 127.933  1.00  0.00    -0.028 C 
BRANCH   4   5
ATOM      5  C   UNL     1     109.666 117.158 129.076  1.00  0.00     0.011 C 
ATOM      6  C   UNL     1     109.284 115.775 128.522  1.00  0.00     0.012 C 
BRANCH   5   7
ATOM      7  C   UNL     1     110.752 117.080 130.193  1.00  0.00    -0.011 C 
ATOM      8  C   UNL     1     112.012 117.879 129.820  1.00  0.00     0.008 C 
ATOM      9  C   UNL     1     111.151 115.622 130.484  1.00  0.00     0.008 C 
ENDBRANCH   5   7
ENDBRANCH   4   5
ENDBRANCH   1   3
BRANCH   1  10
ATOM     10  C   UNL     1     111.442 119.650 126.011  1.00  0.00     0.002 C 
ATOM     11  C   UNL     1     111.515 120.938 125.167  1.00  0.00     0.005 C 
ATOM     12  C   UNL     1     112.916 119.101 125.952  1.00  0.00    -0.023 C 
ATOM     13  C   UNL     1     112.631 120.750 124.149  1.00  0.00     0.009 C 
ATOM     14  C   UNL     1     113.396 119.476 124.538  1.00  0.00     0.021 C 
ATOM     15  C   UNL     1     113.768 119.859 127.007  1.00  0.00     0.008 C 
ATOM     16  C   UNL     1     113.051 117.569 126.175  1.00  0.00     0.012 C 
ATOM     17  C   UNL     1     114.899 119.658 124.387  1.00  0.00    -0.063 C 
ATOM     18  C   UNL     1     115.251 119.496 126.965  1.00  0.00     0.009 C 
ATOM     19  C   UNL     1     115.892 119.540 125.545  1.00  0.00     0.025 C 
ATOM     20  C   UNL     1     115.387 119.874 123.156  1.00  0.00    -0.000 C 
ATOM     21  C   UNL     1     117.069 120.580 125.393  1.00  0.00    -0.005 C 
ATOM     22  C   UNL     1     116.805 120.200 122.938  1.00  0.00    -0.000 C 
ATOM     23  C   UNL     1     117.622 120.498 123.962  1.00  0.00    -0.061 C 
ATOM     24  C   UNL     1     118.203 120.239 126.414  1.00  0.00     0.014 C 
ATOM     25  C   UNL     1     116.553 122.022 125.629  1.00  0.00     0.017 C 
ATOM     26  C   UNL     1     119.007 121.019 123.651  1.00  0.00     0.063 C 
ATOM     27  C   UNL     1     119.546 120.915 126.103  1.00  0.00     0.033 C 
ATOM     28  C   UNL     1     120.033 120.567 124.695  1.00  0.00     0.118 C 
BRANCH  28  29
ATOM     29  O   UNL     1     120.257 119.184 124.596  1.00  0.00    -0.393 OA
ATOM     30  H   UNL     1     120.992 119.058 123.942  1.00  0.00     0.210 HD
ENDBRANCH  28  29
ENDBRANCH   1  10
TORSDOF 5
ENDMDL
