MODEL 1
REMARK VINA RESULT:    -3.742      0.000      0.000
REMARK INTER + INTRA:          -3.852
REMARK INTER:                  -3.852
REMARK INTRA:                   0.000
REMARK UNBOUND:                 0.000
REMARK SMILES CC1(C)[C@@H]2CC[C@@](C)(C2)[C@H]1O
REMARK SMILES IDX 1 1 2 2 4 3 5 4 6 5 7 6 9 7 10 8 8 9 3 10 11 11
REMARK H PARENT 11 12
REMARK Flexibility Score: inf
ROOT
ATOM      1  C   UNL     1     146.601 138.609 137.475  1.00  0.00     0.014 C 
ATOM      2  C   UNL     1     146.976 139.260 138.829  1.00  0.00    -0.006 C 
ATOM      3  C   UNL     1     147.757 140.609 138.679  1.00  0.00    -0.002 C 
ATOM      4  C   UNL     1     148.922 140.475 137.675  1.00  0.00     0.005 C 
ATOM      5  C   UNL     1     149.894 139.537 138.406  1.00  0.00     0.010 C 
ATOM      6  C   UNL     1     149.214 139.344 139.782  1.00  0.00    -0.006 C 
ATOM      7  C   UNL     1     148.537 140.682 139.980  1.00  0.00     0.013 C 
ATOM      8  C   UNL     1     148.006 138.379 139.615  1.00  0.00     0.126 C 
ATOM      9  C   UNL     1     150.201 138.970 140.896  1.00  0.00     0.014 C 
ATOM     10  C   UNL     1     145.654 139.503 139.603  1.00  0.00     0.014 C 
ENDROOT
BRANCH   8  11
ATOM     11  O   UNL     1     147.498 137.982 140.868  1.00  0.00    -0.392 OA
ATOM     12  H   UNL     1     147.376 136.998 140.833  1.00  0.00     0.211 HD
ENDBRANCH   8  11
TORSDOF 1
ENDMDL
MODEL 2
REMARK VINA RESULT:    -3.728     12.803     15.194
REMARK INTER + INTRA:          -3.837
REMARK INTER:                  -3.837
REMARK INTRA:                   0.000
REMARK UNBOUND:                 0.000
REMARK SMILES CC1(C)[C@@H]2CC[C@@](C)(C2)[C@H]1O
REMARK SMILES IDX 1 1 2 2 4 3 5 4 6 5 7 6 9 7 10 8 8 9 3 10 11 11
REMARK H PARENT 11 12
REMARK Flexibility Score: inf
ROOT
ATOM      1  C   UNL     1     135.076 142.985 137.500  1.00  0.00     0.014 C 
ATOM      2  C   UNL     1     134.674 142.339 138.848  1.00  0.00    -0.006 C 
ATOM      3  C   UNL     1     133.897 140.988 138.687  1.00  0.00    -0.002 C 
ATOM      4  C   UNL     1     132.753 141.118 137.659  1.00  0.00     0.005 C 
ATOM      5  C   UNL     1     131.766 142.058 138.366  1.00  0.00     0.010 C 
ATOM      6  C   UNL     1     132.417 142.257 139.755  1.00  0.00    -0.006 C 
ATOM      7  C   UNL     1     133.090 140.920 139.973  1.00  0.00     0.013 C 
ATOM      8  C   UNL     1     133.628 143.222 139.610  1.00  0.00     0.126 C 
ATOM      9  C   UNL     1     131.407 142.634 140.847  1.00  0.00     0.014 C 
ATOM     10  C   UNL     1     135.980 142.100 139.651  1.00  0.00     0.014 C 
ENDROOT
BRANCH   8  11
ATOM     11  O   UNL     1     134.109 143.624 140.871  1.00  0.00    -0.392 OA
ATOM     12  H   UNL     1     135.062 143.872 140.753  1.00  0.00     0.211 HD
ENDBRANCH   8  11
TORSDOF 1
ENDMDL
MODEL 3
REMARK VINA RESULT:    -3.715      9.645     10.805
REMARK INTER + INTRA:          -3.824
REMARK INTER:                  -3.824
REMARK INTRA:                   0.000
REMARK UNBOUND:                 0.000
REMARK SMILES CC1(C)[C@@H]2CC[C@@](C)(C2)[C@H]1O
REMARK SMILES IDX 1 1 2 2 4 3 5 4 6 5 7 6 9 7 10 8 8 9 3 10 11 11
REMARK H PARENT 11 12
REMARK Flexibility Score: inf
ROOT
ATOM      1  C   UNL     1     143.048 146.802 137.394  1.00  0.00     0.014 C 
ATOM      2  C   UNL     1     142.366 147.058 138.760  1.00  0.00    -0.006 C 
ATOM      3  C   UNL     1     141.008 147.830 138.646  1.00  0.00    -0.002 C 
ATOM      4  C   UNL     1     141.143 149.074 137.742  1.00  0.00     0.005 C 
ATOM      5  C   UNL     1     142.052 149.996 138.567  1.00  0.00     0.010 C 
ATOM      6  C   UNL     1     142.230 149.211 139.887  1.00  0.00    -0.006 C 
ATOM      7  C   UNL     1     140.899 148.502 140.004  1.00  0.00     0.013 C 
ATOM      8  C   UNL     1     143.216 148.034 139.644  1.00  0.00     0.126 C 
ATOM      9  C   UNL     1     142.567 150.111 141.084  1.00  0.00     0.014 C 
ATOM     10  C   UNL     1     142.129 145.675 139.421  1.00  0.00     0.014 C 
ENDROOT
BRANCH   8  11
ATOM     11  O   UNL     1     143.597 147.433 140.860  1.00  0.00    -0.392 OA
ATOM     12  H   UNL     1     144.528 147.110 140.745  1.00  0.00     0.211 HD
ENDBRANCH   8  11
TORSDOF 1
ENDMDL
MODEL 4
REMARK VINA RESULT:    -3.690      9.709     10.839
REMARK INTER + INTRA:          -3.798
REMARK INTER:                  -3.798
REMARK INTRA:                   0.000
REMARK UNBOUND:                 0.000
REMARK SMILES CC1(C)[C@@H]2CC[C@@](C)(C2)[C@H]1O
REMARK SMILES IDX 1 1 2 2 4 3 5 4 6 5 7 6 9 7 10 8 8 9 3 10 11 11
REMARK H PARENT 11 12
REMARK Flexibility Score: inf
ROOT
ATOM      1  C   UNL     1     140.381 148.627 140.234  1.00  0.00     0.014 C 
ATOM      2  C   UNL     1     141.864 148.897 139.881  1.00  0.00    -0.006 C 
ATOM      3  C   UNL     1     142.056 149.627 138.508  1.00  0.00    -0.002 C 
ATOM      4  C   UNL     1     141.233 148.950 137.391  1.00  0.00     0.005 C 
ATOM      5  C   UNL     1     141.940 147.598 137.221  1.00  0.00     0.010 C 
ATOM      6  C   UNL     1     143.146 147.718 138.181  1.00  0.00    -0.006 C 
ATOM      7  C   UNL     1     143.455 149.197 138.102  1.00  0.00     0.013 C 
ATOM      8  C   UNL     1     142.643 147.559 139.644  1.00  0.00     0.126 C 
ATOM      9  C   UNL     1     144.321 146.811 137.791  1.00  0.00     0.014 C 
ATOM     10  C   UNL     1     142.458 149.763 141.022  1.00  0.00     0.014 C 
ENDROOT
BRANCH   8  11
ATOM     11  O   UNL     1     143.722 147.422 140.539  1.00  0.00    -0.392 OA
ATOM     12  H   UNL     1     144.554 147.536 140.010  1.00  0.00     0.211 HD
ENDBRANCH   8  11
TORSDOF 1
ENDMDL
MODEL 5
REMARK VINA RESULT:    -3.677      9.956     11.305
REMARK INTER + INTRA:          -3.785
REMARK INTER:                  -3.785
REMARK INTRA:                   0.000
REMARK UNBOUND:                 0.000
REMARK SMILES CC1(C)[C@@H]2CC[C@@](C)(C2)[C@H]1O
REMARK SMILES IDX 1 1 2 2 4 3 5 4 6 5 7 6 9 7 10 8 8 9 3 10 11 11
REMARK H PARENT 11 12
REMARK Flexibility Score: inf
ROOT
ATOM      1  C   UNL     1     141.237 132.807 140.354  1.00  0.00     0.014 C 
ATOM      2  C   UNL     1     139.765 132.576 139.930  1.00  0.00    -0.006 C 
ATOM      3  C   UNL     1     139.618 131.905 138.522  1.00  0.00    -0.002 C 
ATOM      4  C   UNL     1     140.497 132.611 137.469  1.00  0.00     0.005 C 
ATOM      5  C   UNL     1     139.819 133.981 137.324  1.00  0.00     0.010 C 
ATOM      6  C   UNL     1     138.573 133.844 138.228  1.00  0.00    -0.006 C 
ATOM      7  C   UNL     1     138.244 132.375 138.078  1.00  0.00     0.013 C 
ATOM      8  C   UNL     1     139.018 133.936 139.716  1.00  0.00     0.126 C 
ATOM      9  C   UNL     1     137.429 134.785 137.828  1.00  0.00     0.014 C 
ATOM     10  C   UNL     1     139.111 131.676 141.011  1.00  0.00     0.014 C 
ENDROOT
BRANCH   8  11
ATOM     11  O   UNL     1     137.904 134.056 140.571  1.00  0.00    -0.392 OA
ATOM     12  H   UNL     1     138.190 134.605 141.346  1.00  0.00     0.211 HD
ENDBRANCH   8  11
TORSDOF 1
ENDMDL
MODEL 6
REMARK VINA RESULT:    -3.675      9.625     10.798
REMARK INTER + INTRA:          -3.783
REMARK INTER:                  -3.783
REMARK INTRA:                   0.000
REMARK UNBOUND:                 0.000
REMARK SMILES CC1(C)[C@@H]2CC[C@@](C)(C2)[C@H]1O
REMARK SMILES IDX 1 1 2 2 4 3 5 4 6 5 7 6 9 7 10 8 8 9 3 10 11 11
REMARK H PARENT 11 12
REMARK Flexibility Score: inf
ROOT
ATOM      1  C   UNL     1     138.568 134.757 137.392  1.00  0.00     0.014 C 
ATOM      2  C   UNL     1     139.243 134.536 138.768  1.00  0.00    -0.006 C 
ATOM      3  C   UNL     1     140.589 133.739 138.684  1.00  0.00    -0.002 C 
ATOM      4  C   UNL     1     140.438 132.469 137.820  1.00  0.00     0.005 C 
ATOM      5  C   UNL     1     139.512 131.588 138.672  1.00  0.00     0.010 C 
ATOM      6  C   UNL     1     139.343 132.418 139.965  1.00  0.00    -0.006 C 
ATOM      7  C   UNL     1     140.685 133.111 140.063  1.00  0.00     0.013 C 
ATOM      8  C   UNL     1     138.376 133.602 139.680  1.00  0.00     0.126 C 
ATOM      9  C   UNL     1     138.989 131.564 141.190  1.00  0.00     0.014 C 
ATOM     10  C   UNL     1     139.500 135.936 139.385  1.00  0.00     0.014 C 
ENDROOT
BRANCH   8  11
ATOM     11  O   UNL     1     138.001 134.248 140.875  1.00  0.00    -0.392 OA
ATOM     12  H   UNL     1     138.167 133.610 141.615  1.00  0.00     0.211 HD
ENDBRANCH   8  11
TORSDOF 1
ENDMDL
MODEL 7
REMARK VINA RESULT:    -3.662     14.396     15.335
REMARK INTER + INTRA:          -3.769
REMARK INTER:                  -3.769
REMARK INTRA:                   0.000
REMARK UNBOUND:                 0.000
REMARK SMILES CC1(C)[C@@H]2CC[C@@](C)(C2)[C@H]1O
REMARK SMILES IDX 1 1 2 2 4 3 5 4 6 5 7 6 9 7 10 8 8 9 3 10 11 11
REMARK H PARENT 11 12
REMARK Flexibility Score: inf
ROOT
ATOM      1  C   UNL     1     133.119 140.286 140.178  1.00  0.00     0.014 C 
ATOM      2  C   UNL     1     132.756 141.744 139.805  1.00  0.00    -0.006 C 
ATOM      3  C   UNL     1     132.085 141.881 138.396  1.00  0.00    -0.002 C 
ATOM      4  C   UNL     1     132.879 141.111 137.319  1.00  0.00     0.005 C 
ATOM      5  C   UNL     1     134.181 141.918 137.215  1.00  0.00     0.010 C 
ATOM      6  C   UNL     1     133.920 143.112 138.162  1.00  0.00    -0.006 C 
ATOM      7  C   UNL     1     132.429 143.308 138.007  1.00  0.00     0.013 C 
ATOM      8  C   UNL     1     134.042 142.623 139.633  1.00  0.00     0.126 C 
ATOM      9  C   UNL     1     134.755 144.352 137.814  1.00  0.00     0.014 C 
ATOM     10  C   UNL     1     131.790 142.271 140.898  1.00  0.00     0.014 C 
ENDROOT
BRANCH   8  11
ATOM     11  O   UNL     1     134.050 143.710 140.530  1.00  0.00    -0.392 OA
ATOM     12  H   UNL     1     133.871 144.527 139.997  1.00  0.00     0.211 HD
ENDBRANCH   8  11
TORSDOF 1
ENDMDL
MODEL 8
REMARK VINA RESULT:    -3.603      0.952      3.025
REMARK INTER + INTRA:          -3.709
REMARK INTER:                  -3.709
REMARK INTRA:                   0.000
REMARK UNBOUND:                 0.000
REMARK SMILES CC1(C)[C@@H]2CC[C@@](C)(C2)[C@H]1O
REMARK SMILES IDX 1 1 2 2 4 3 5 4 6 5 7 6 9 7 10 8 8 9 3 10 11 11
REMARK H PARENT 11 12
REMARK Flexibility Score: inf
ROOT
ATOM      1  C   UNL     1     148.760 141.206 140.445  1.00  0.00     0.014 C 
ATOM      2  C   UNL     1     148.883 139.806 139.796  1.00  0.00    -0.006 C 
ATOM      3  C   UNL     1     149.294 139.850 138.285  1.00  0.00    -0.002 C 
ATOM      4  C   UNL     1     148.430 140.860 137.498  1.00  0.00     0.005 C 
ATOM      5  C   UNL     1     147.043 140.201 137.510  1.00  0.00     0.010 C 
ATOM      6  C   UNL     1     147.313 138.846 138.203  1.00  0.00    -0.006 C 
ATOM      7  C   UNL     1     148.725 138.546 137.753  1.00  0.00     0.013 C 
ATOM      8  C   UNL     1     147.492 139.088 139.729  1.00  0.00     0.126 C 
ATOM      9  C   UNL     1     146.293 137.762 137.829  1.00  0.00     0.014 C 
ATOM     10  C   UNL     1     149.946 139.017 140.605  1.00  0.00     0.014 C 
ENDROOT
BRANCH   8  11
ATOM     11  O   UNL     1     147.503 137.870 140.438  1.00  0.00    -0.392 OA
ATOM     12  H   UNL     1     148.273 137.903 141.061  1.00  0.00     0.211 HD
ENDBRANCH   8  11
TORSDOF 1
ENDMDL
MODEL 9
REMARK VINA RESULT:    -3.553      6.793      9.273
REMARK INTER + INTRA:          -3.657
REMARK INTER:                  -3.657
REMARK INTRA:                   0.000
REMARK UNBOUND:                 0.000
REMARK SMILES CC1(C)[C@@H]2CC[C@@](C)(C2)[C@H]1O
REMARK SMILES IDX 1 1 2 2 4 3 5 4 6 5 7 6 9 7 10 8 8 9 3 10 11 11
REMARK H PARENT 11 12
REMARK Flexibility Score: inf
ROOT
ATOM      1  C   UNL     1     142.603 141.144 141.329  1.00  0.00     0.014 C 
ATOM      2  C   UNL     1     141.431 142.070 141.736  1.00  0.00    -0.006 C 
ATOM      3  C   UNL     1     140.753 141.663 143.088  1.00  0.00    -0.002 C 
ATOM      4  C   UNL     1     140.434 140.153 143.124  1.00  0.00     0.005 C 
ATOM      5  C   UNL     1     139.325 140.015 142.071  1.00  0.00     0.010 C 
ATOM      6  C   UNL     1     139.071 141.481 141.647  1.00  0.00    -0.006 C 
ATOM      7  C   UNL     1     139.351 142.226 142.934  1.00  0.00     0.013 C 
ATOM      8  C   UNL     1     140.237 141.948 140.729  1.00  0.00     0.126 C 
ATOM      9  C   UNL     1     137.663 141.711 141.084  1.00  0.00     0.014 C 
ATOM     10  C   UNL     1     142.000 143.509 141.848  1.00  0.00     0.014 C 
ENDROOT
BRANCH   8  11
ATOM     11  O   UNL     1     139.940 143.186 140.125  1.00  0.00    -0.392 OA
ATOM     12  H   UNL     1     140.161 143.892 140.785  1.00  0.00     0.211 HD
ENDBRANCH   8  11
TORSDOF 1
ENDMDL
