MODEL 1
REMARK VINA RESULT:     3.366      0.000      0.000
REMARK INTER + INTRA:           3.418
REMARK INTER:                   4.153
REMARK INTRA:                  -0.735
REMARK UNBOUND:                -0.735
REMARK SMILES CC(C)=CCC[C@H](C)c1ccc(C)cc1
REMARK SMILES IDX 6 1 7 2 8 3 9 4 13 5 12 6 11 7 14 8 10 9 15 10 5 11 4 12
REMARK SMILES IDX 2 13 1 14 3 15
REMARK H PARENT
REMARK Flexibility Score: inf
ROOT
ATOM      1  C   UNL     1      18.085  30.115  72.633  1.00  0.00     0.012 C 
ENDROOT
BRANCH   1   2
ATOM      2  C   UNL     1      17.083  29.005  73.024  1.00  0.00     0.016 C 
ATOM      3  C   UNL     1      17.391  27.671  72.326  1.00  0.00     0.013 C 
BRANCH   2   4
ATOM      4  C   UNL     1      15.662  29.443  72.719  1.00  0.00    -0.045 A 
ATOM      5  C   UNL     1      11.610  30.645  71.825  1.00  0.00     0.044 C 
ATOM      6  C   UNL     1      13.027  30.257  72.132  1.00  0.00    -0.051 A 
ATOM      7  C   UNL     1      13.878  29.822  71.107  1.00  0.00     0.004 A 
ATOM      8  C   UNL     1      13.488  30.259  73.456  1.00  0.00     0.004 A 
ATOM      9  C   UNL     1      15.186  29.424  71.396  1.00  0.00     0.004 A 
ATOM     10  C   UNL     1      14.796  29.862  73.747  1.00  0.00     0.004 A 
ENDBRANCH   2   4
ENDBRANCH   1   2
BRANCH   1  11
ATOM     11  C   UNL     1      18.124  31.263  73.652  1.00  0.00     0.028 C 
BRANCH  11  12
ATOM     12  C   UNL     1      17.682  32.557  73.014  1.00  0.00    -0.028 C 
ATOM     13  C   UNL     1      17.694  33.759  73.632  1.00  0.00    -0.080 C 
ATOM     14  C   UNL     1      18.110  33.912  75.077  1.00  0.00     0.039 C 
ATOM     15  C   UNL     1      17.259  34.973  72.852  1.00  0.00     0.039 C 
ENDBRANCH  11  12
ENDBRANCH   1  11
TORSDOF 4
ENDMDL
MODEL 2
REMARK VINA RESULT:     4.011     16.040     18.058
REMARK INTER + INTRA:           4.213
REMARK INTER:                   3.394
REMARK INTRA:                   0.819
REMARK UNBOUND:                -0.735
REMARK SMILES CC(C)=CCC[C@H](C)c1ccc(C)cc1
REMARK SMILES IDX 6 1 7 2 8 3 9 4 13 5 12 6 11 7 14 8 10 9 15 10 5 11 4 12
REMARK SMILES IDX 2 13 1 14 3 15
REMARK H PARENT
REMARK Flexibility Score: inf
ROOT
ATOM      1  C   UNL     1       6.035  40.407  64.890  1.00  0.00     0.012 C 
ENDROOT
BRANCH   1   2
ATOM      2  C   UNL     1       4.676  40.876  65.457  1.00  0.00     0.016 C 
ATOM      3  C   UNL     1       4.188  39.984  66.610  1.00  0.00     0.013 C 
BRANCH   2   4
ATOM      4  C   UNL     1       3.633  40.930  64.355  1.00  0.00    -0.045 A 
ATOM      5  C   UNL     1       0.642  41.123  61.245  1.00  0.00     0.044 C 
ATOM      6  C   UNL     1       1.681  41.025  62.322  1.00  0.00    -0.051 A 
ATOM      7  C   UNL     1       1.298  40.940  63.668  1.00  0.00     0.004 A 
ATOM      8  C   UNL     1       3.044  41.089  61.997  1.00  0.00     0.004 A 
ATOM      9  C   UNL     1       2.265  40.887  64.676  1.00  0.00     0.004 A 
ATOM     10  C   UNL     1       4.012  41.036  63.003  1.00  0.00     0.004 A 
ENDBRANCH   2   4
ENDBRANCH   1   2
BRANCH   1  11
ATOM     11  C   UNL     1       6.379  41.073  63.550  1.00  0.00     0.028 C 
BRANCH  11  12
ATOM     12  C   UNL     1       7.868  41.047  63.309  1.00  0.00    -0.028 C 
ATOM     13  C   UNL     1       8.447  41.093  62.088  1.00  0.00    -0.080 C 
ATOM     14  C   UNL     1       7.632  41.122  60.816  1.00  0.00     0.039 C 
ATOM     15  C   UNL     1       9.952  41.098  62.006  1.00  0.00     0.039 C 
ENDBRANCH  11  12
ENDBRANCH   1  11
TORSDOF 4
ENDMDL
MODEL 3
REMARK VINA RESULT:     6.347      0.882      5.070
REMARK INTER + INTRA:           7.096
REMARK INTER:                   6.585
REMARK INTRA:                   0.511
REMARK UNBOUND:                -0.735
REMARK SMILES CC(C)=CCC[C@H](C)c1ccc(C)cc1
REMARK SMILES IDX 6 1 7 2 8 3 9 4 13 5 12 6 11 7 14 8 10 9 15 10 5 11 4 12
REMARK SMILES IDX 2 13 1 14 3 15
REMARK H PARENT
REMARK Flexibility Score: inf
ROOT
ATOM      1  C   UNL     1      15.473  29.173  72.608  1.00  0.00     0.012 C 
ENDROOT
BRANCH   1   2
ATOM      2  C   UNL     1      16.990  29.466  72.566  1.00  0.00     0.016 C 
ATOM      3  C   UNL     1      17.821  28.315  73.154  1.00  0.00     0.013 C 
BRANCH   2   4
ATOM      4  C   UNL     1      17.298  30.763  73.293  1.00  0.00    -0.045 A 
ATOM      5  C   UNL     1      18.125  34.470  75.352  1.00  0.00     0.044 C 
ATOM      6  C   UNL     1      17.866  33.183  74.626  1.00  0.00    -0.051 A 
ATOM      7  C   UNL     1      17.306  33.197  73.341  1.00  0.00     0.004 A 
ATOM      8  C   UNL     1      18.117  31.954  75.254  1.00  0.00     0.004 A 
ATOM      9  C   UNL     1      17.029  31.998  72.677  1.00  0.00     0.004 A 
ATOM     10  C   UNL     1      17.842  30.755  74.591  1.00  0.00     0.004 A 
ENDBRANCH   2   4
ENDBRANCH   1   2
BRANCH   1  11
ATOM     11  C   UNL     1      14.724  30.068  73.606  1.00  0.00     0.028 C 
BRANCH  11  12
ATOM     12  C   UNL     1      13.277  30.216  73.206  1.00  0.00    -0.028 C 
ATOM     13  C   UNL     1      12.835  30.246  71.929  1.00  0.00    -0.080 C 
ATOM     14  C   UNL     1      13.781  30.188  70.752  1.00  0.00     0.039 C 
ATOM     15  C   UNL     1      11.352  30.359  71.684  1.00  0.00     0.039 C 
ENDBRANCH  11  12
ENDBRANCH   1  11
TORSDOF 4
ENDMDL
