MODEL 1
REMARK VINA RESULT:    -3.694      0.000      0.000
REMARK INTER + INTRA:          -9.858
REMARK INTER:                  -7.149
REMARK INTRA:                  -2.709
REMARK UNBOUND:                -2.709
REMARK SMILES CCCCCCCCCCCCCCCCCC(=O)[O-]
REMARK SMILES IDX 10 1 11 2 12 3 13 4 14 5 15 6 16 7 17 8 18 9 19 10 20 11
REMARK SMILES IDX 9 12 8 13 7 14 6 15 5 16 4 17 3 18 2 19 1 20
REMARK H PARENT
REMARK Flexibility Score: inf
ROOT
ATOM      1  C   UNL     1      -3.212 -11.511   8.398  1.00  0.00     0.000 C 
ENDROOT
BRANCH   1   2
ATOM      2  C   UNL     1      -3.590 -11.238   6.931  1.00  0.00     0.000 C 
BRANCH   2   3
ATOM      3  C   UNL     1      -2.526 -11.670   5.905  1.00  0.00     0.000 C 
BRANCH   3   4
ATOM      4  C   UNL     1      -1.284 -12.333   6.543  1.00  0.00     0.000 C 
BRANCH   4   5
ATOM      5  C   UNL     1      -0.060 -12.320   5.611  1.00  0.00     0.000 C 
BRANCH   5   6
ATOM      6  C   UNL     1       0.361 -13.730   5.169  1.00  0.00     0.000 C 
BRANCH   6   7
ATOM      7  C   UNL     1       1.739 -14.136   5.723  1.00  0.00     0.006 C 
BRANCH   7   8
ATOM      8  C   UNL     1       2.273 -13.124   6.745  1.00  0.00     0.053 C 
BRANCH   8   9
ATOM      9  C   UNL     1       3.734 -12.857   6.552  1.00  0.00     0.041 C 
ATOM     10  O   UNL     1       4.208 -11.717   6.800  1.00  0.00    -0.550 OA
ATOM     11  O   UNL     1       4.578 -13.877   6.134  1.00  0.00    -0.550 OA
ENDBRANCH   8   9
ENDBRANCH   7   8
ENDBRANCH   6   7
ENDBRANCH   5   6
ENDBRANCH   4   5
ENDBRANCH   3   4
ENDBRANCH   2   3
ENDBRANCH   1   2
BRANCH   1  12
ATOM     12  C   UNL     1      -3.488 -10.318   9.342  1.00  0.00     0.000 C 
BRANCH  12  13
ATOM     13  C   UNL     1      -2.282  -9.976  10.235  1.00  0.00    -0.000 C 
BRANCH  13  14
ATOM     14  C   UNL     1      -1.065 -10.874   9.959  1.00  0.00    -0.000 C 
BRANCH  14  15
ATOM     15  C   UNL     1       0.242 -10.073   9.826  1.00  0.00    -0.000 C 
BRANCH  15  16
ATOM     16  C   UNL     1       0.841 -10.151   8.412  1.00  0.00    -0.000 C 
BRANCH  16  17
ATOM     17  C   UNL     1       0.863  -8.788   7.697  1.00  0.00    -0.000 C 
BRANCH  17  18
ATOM     18  C   UNL     1      -0.191  -8.705   6.573  1.00  0.00    -0.000 C 
BRANCH  18  19
ATOM     19  C   UNL     1      -1.585  -8.285   7.067  1.00  0.00    -0.003 C 
ATOM     20  C   UNL     1      -2.467  -7.715   5.958  1.00  0.00     0.004 C 
ENDBRANCH  18  19
ENDBRANCH  17  18
ENDBRANCH  16  17
ENDBRANCH  15  16
ENDBRANCH  14  15
ENDBRANCH  13  14
ENDBRANCH  12  13
ENDBRANCH   1  12
TORSDOF 16
ENDMDL
MODEL 2
REMARK VINA RESULT:    -3.654     13.663     15.473
REMARK INTER + INTRA:          -9.781
REMARK INTER:                  -6.891
REMARK INTRA:                  -2.890
REMARK UNBOUND:                -2.709
REMARK SMILES CCCCCCCCCCCCCCCCCC(=O)[O-]
REMARK SMILES IDX 10 1 11 2 12 3 13 4 14 5 15 6 16 7 17 8 18 9 19 10 20 11
REMARK SMILES IDX 9 12 8 13 7 14 6 15 5 16 4 17 3 18 2 19 1 20
REMARK H PARENT
REMARK Flexibility Score: inf
ROOT
ATOM      1  C   UNL     1     -12.773   0.881   6.865  1.00  0.00     0.000 C 
ENDROOT
BRANCH   1   2
ATOM      2  C   UNL     1     -12.110   1.430   5.589  1.00  0.00     0.000 C 
BRANCH   2   3
ATOM      3  C   UNL     1     -11.246   2.686   5.806  1.00  0.00     0.000 C 
BRANCH   3   4
ATOM      4  C   UNL     1      -9.887   2.637   5.069  1.00  0.00     0.000 C 
BRANCH   4   5
ATOM      5  C   UNL     1      -8.751   3.288   5.877  1.00  0.00     0.000 C 
BRANCH   5   6
ATOM      6  C   UNL     1      -7.500   2.400   5.956  1.00  0.00     0.000 C 
BRANCH   6   7
ATOM      7  C   UNL     1      -6.392   3.017   6.829  1.00  0.00     0.006 C 
BRANCH   7   8
ATOM      8  C   UNL     1      -5.949   2.073   7.954  1.00  0.00     0.053 C 
BRANCH   8   9
ATOM      9  C   UNL     1      -4.490   1.745   7.862  1.00  0.00     0.041 C 
ATOM     10  O   UNL     1      -4.027   1.205   6.823  1.00  0.00    -0.550 OA
ATOM     11  O   UNL     1      -3.637   2.068   8.909  1.00  0.00    -0.550 OA
ENDBRANCH   8   9
ENDBRANCH   7   8
ENDBRANCH   6   7
ENDBRANCH   5   6
ENDBRANCH   4   5
ENDBRANCH   3   4
ENDBRANCH   2   3
ENDBRANCH   1   2
BRANCH   1  12
ATOM     12  C   UNL     1     -12.392   1.659   8.146  1.00  0.00     0.000 C 
BRANCH  12  13
ATOM     13  C   UNL     1     -11.407   0.884   9.040  1.00  0.00    -0.000 C 
BRANCH  13  14
ATOM     14  C   UNL     1      -9.941   1.261   8.774  1.00  0.00    -0.000 C 
BRANCH  14  15
ATOM     15  C   UNL     1      -9.047   0.030   8.544  1.00  0.00    -0.000 C 
BRANCH  15  16
ATOM     16  C   UNL     1      -9.647  -0.955   7.527  1.00  0.00    -0.000 C 
BRANCH  16  17
ATOM     17  C   UNL     1      -8.999  -0.847   6.136  1.00  0.00    -0.000 C 
BRANCH  17  18
ATOM     18  C   UNL     1      -9.997  -1.167   5.004  1.00  0.00    -0.000 C 
BRANCH  18  19
ATOM     19  C   UNL     1      -9.337  -1.310   3.623  1.00  0.00    -0.003 C 
ATOM     20  C   UNL     1      -8.243  -0.274   3.373  1.00  0.00     0.004 C 
ENDBRANCH  18  19
ENDBRANCH  17  18
ENDBRANCH  16  17
ENDBRANCH  15  16
ENDBRANCH  14  15
ENDBRANCH  13  14
ENDBRANCH  12  13
ENDBRANCH   1  12
TORSDOF 16
ENDMDL
MODEL 3
REMARK VINA RESULT:    -3.638     13.067     15.610
REMARK INTER + INTRA:          -9.750
REMARK INTER:                  -7.310
REMARK INTRA:                  -2.440
REMARK UNBOUND:                -2.709
REMARK SMILES CCCCCCCCCCCCCCCCCC(=O)[O-]
REMARK SMILES IDX 10 1 11 2 12 3 13 4 14 5 15 6 16 7 17 8 18 9 19 10 20 11
REMARK SMILES IDX 9 12 8 13 7 14 6 15 5 16 4 17 3 18 2 19 1 20
REMARK H PARENT
REMARK Flexibility Score: inf
ROOT
ATOM      1  C   UNL     1      -7.832   2.937   5.504  1.00  0.00     0.000 C 
ENDROOT
BRANCH   1   2
ATOM      2  C   UNL     1      -7.661   2.822   7.030  1.00  0.00     0.000 C 
BRANCH   2   3
ATOM      3  C   UNL     1      -7.931   1.418   7.601  1.00  0.00     0.000 C 
BRANCH   3   4
ATOM      4  C   UNL     1      -7.673   1.307   9.121  1.00  0.00     0.000 C 
BRANCH   4   5
ATOM      5  C   UNL     1      -6.985   2.556   9.699  1.00  0.00     0.000 C 
BRANCH   5   6
ATOM      6  C   UNL     1      -5.506   2.312  10.036  1.00  0.00     0.000 C 
BRANCH   6   7
ATOM      7  C   UNL     1      -4.552   2.993   9.038  1.00  0.00     0.006 C 
BRANCH   7   8
ATOM      8  C   UNL     1      -3.387   2.080   8.636  1.00  0.00     0.053 C 
BRANCH   8   9
ATOM      9  C   UNL     1      -3.760   1.168   7.508  1.00  0.00     0.041 C 
ATOM     10  O   UNL     1      -4.532   1.569   6.597  1.00  0.00    -0.550 OA
ATOM     11  O   UNL     1      -3.226  -0.112   7.442  1.00  0.00    -0.550 OA
ENDBRANCH   8   9
ENDBRANCH   7   8
ENDBRANCH   6   7
ENDBRANCH   5   6
ENDBRANCH   4   5
ENDBRANCH   3   4
ENDBRANCH   2   3
ENDBRANCH   1   2
BRANCH   1  12
ATOM     12  C   UNL     1      -8.930   3.938   5.077  1.00  0.00     0.000 C 
BRANCH  12  13
ATOM     13  C   UNL     1     -10.030   4.102   6.141  1.00  0.00    -0.000 C 
BRANCH  13  14
ATOM     14  C   UNL     1     -11.251   3.207   5.875  1.00  0.00    -0.000 C 
BRANCH  14  15
ATOM     15  C   UNL     1     -11.467   2.160   6.982  1.00  0.00    -0.000 C 
BRANCH  15  16
ATOM     16  C   UNL     1     -11.627   0.736   6.426  1.00  0.00    -0.000 C 
BRANCH  16  17
ATOM     17  C   UNL     1     -10.661   0.436   5.266  1.00  0.00    -0.000 C 
BRANCH  17  18
ATOM     18  C   UNL     1     -10.022  -0.963   5.390  1.00  0.00    -0.000 C 
BRANCH  18  19
ATOM     19  C   UNL     1      -9.081  -1.315   4.226  1.00  0.00    -0.003 C 
ATOM     20  C   UNL     1      -8.543  -0.085   3.498  1.00  0.00     0.004 C 
ENDBRANCH  18  19
ENDBRANCH  17  18
ENDBRANCH  16  17
ENDBRANCH  15  16
ENDBRANCH  14  15
ENDBRANCH  13  14
ENDBRANCH  12  13
ENDBRANCH   1  12
TORSDOF 16
ENDMDL
MODEL 4
REMARK VINA RESULT:    -3.547     13.660     15.620
REMARK INTER + INTRA:          -9.573
REMARK INTER:                  -7.253
REMARK INTRA:                  -2.320
REMARK UNBOUND:                -2.709
REMARK SMILES CCCCCCCCCCCCCCCCCC(=O)[O-]
REMARK SMILES IDX 10 1 11 2 12 3 13 4 14 5 15 6 16 7 17 8 18 9 19 10 20 11
REMARK SMILES IDX 9 12 8 13 7 14 6 15 5 16 4 17 3 18 2 19 1 20
REMARK H PARENT
REMARK Flexibility Score: inf
ROOT
ATOM      1  C   UNL     1      -9.323   0.241   8.726  1.00  0.00     0.000 C 
ENDROOT
BRANCH   1   2
ATOM      2  C   UNL     1      -8.166   1.257   8.735  1.00  0.00     0.000 C 
BRANCH   2   3
ATOM      3  C   UNL     1      -8.609   2.731   8.763  1.00  0.00     0.000 C 
BRANCH   3   4
ATOM      4  C   UNL     1      -8.511   3.433   7.389  1.00  0.00     0.000 C 
BRANCH   4   5
ATOM      5  C   UNL     1      -7.542   2.723   6.427  1.00  0.00     0.000 C 
BRANCH   5   6
ATOM      6  C   UNL     1      -6.340   3.600   6.046  1.00  0.00     0.000 C 
BRANCH   6   7
ATOM      7  C   UNL     1      -5.484   3.992   7.265  1.00  0.00     0.006 C 
BRANCH   7   8
ATOM      8  C   UNL     1      -4.115   3.301   7.257  1.00  0.00     0.053 C 
BRANCH   8   9
ATOM      9  C   UNL     1      -4.209   1.876   7.707  1.00  0.00     0.041 C 
ATOM     10  O   UNL     1      -4.743   1.594   8.812  1.00  0.00    -0.550 OA
ATOM     11  O   UNL     1      -3.739   0.856   6.890  1.00  0.00    -0.550 OA
ENDBRANCH   8   9
ENDBRANCH   7   8
ENDBRANCH   6   7
ENDBRANCH   5   6
ENDBRANCH   4   5
ENDBRANCH   3   4
ENDBRANCH   2   3
ENDBRANCH   1   2
BRANCH   1  12
ATOM     12  C   UNL     1     -10.478   0.608   9.685  1.00  0.00     0.000 C 
BRANCH  12  13
ATOM     13  C   UNL     1     -11.864   0.464   9.030  1.00  0.00    -0.000 C 
BRANCH  13  14
ATOM     14  C   UNL     1     -12.050   1.400   7.825  1.00  0.00    -0.000 C 
BRANCH  14  15
ATOM     15  C   UNL     1     -12.287   0.632   6.512  1.00  0.00    -0.000 C 
BRANCH  15  16
ATOM     16  C   UNL     1     -11.601   1.296   5.307  1.00  0.00    -0.000 C 
BRANCH  16  17
ATOM     17  C   UNL     1     -10.151   0.821   5.109  1.00  0.00    -0.000 C 
BRANCH  17  18
ATOM     18  C   UNL     1     -10.015  -0.709   5.260  1.00  0.00    -0.000 C 
BRANCH  18  19
ATOM     19  C   UNL     1      -9.408  -1.397   4.027  1.00  0.00    -0.003 C 
ATOM     20  C   UNL     1      -8.326  -0.562   3.346  1.00  0.00     0.004 C 
ENDBRANCH  18  19
ENDBRANCH  17  18
ENDBRANCH  16  17
ENDBRANCH  15  16
ENDBRANCH  14  15
ENDBRANCH  13  14
ENDBRANCH  12  13
ENDBRANCH   1  12
TORSDOF 16
ENDMDL
MODEL 5
REMARK VINA RESULT:    -3.495     13.685     16.048
REMARK INTER + INTRA:          -9.473
REMARK INTER:                  -6.514
REMARK INTRA:                  -2.959
REMARK UNBOUND:                -2.709
REMARK SMILES CCCCCCCCCCCCCCCCCC(=O)[O-]
REMARK SMILES IDX 10 1 11 2 12 3 13 4 14 5 15 6 16 7 17 8 18 9 19 10 20 11
REMARK SMILES IDX 9 12 8 13 7 14 6 15 5 16 4 17 3 18 2 19 1 20
REMARK H PARENT
REMARK Flexibility Score: inf
ROOT
ATOM      1  C   UNL     1      -9.996  -1.152   5.455  1.00  0.00     0.000 C 
ENDROOT
BRANCH   1   2
ATOM      2  C   UNL     1      -9.248  -1.164   6.801  1.00  0.00     0.000 C 
BRANCH   2   3
ATOM      3  C   UNL     1      -9.677  -0.059   7.782  1.00  0.00     0.000 C 
BRANCH   3   4
ATOM      4  C   UNL     1      -8.498   0.783   8.321  1.00  0.00     0.000 C 
BRANCH   4   5
ATOM      5  C   UNL     1      -8.878   2.256   8.554  1.00  0.00     0.000 C 
BRANCH   5   6
ATOM      6  C   UNL     1      -8.086   3.219   7.657  1.00  0.00     0.000 C 
BRANCH   6   7
ATOM      7  C   UNL     1      -7.072   2.490   6.757  1.00  0.00     0.006 C 
BRANCH   7   8
ATOM      8  C   UNL     1      -5.637   2.980   6.986  1.00  0.00     0.053 C 
BRANCH   8   9
ATOM      9  C   UNL     1      -4.769   1.908   7.567  1.00  0.00     0.041 C 
ATOM     10  O   UNL     1      -4.030   1.215   6.818  1.00  0.00    -0.550 OA
ATOM     11  O   UNL     1      -4.747   1.697   8.939  1.00  0.00    -0.550 OA
ENDBRANCH   8   9
ENDBRANCH   7   8
ENDBRANCH   6   7
ENDBRANCH   5   6
ENDBRANCH   4   5
ENDBRANCH   3   4
ENDBRANCH   2   3
ENDBRANCH   1   2
BRANCH   1  12
ATOM     12  C   UNL     1      -9.208  -0.468   4.314  1.00  0.00     0.000 C 
BRANCH  12  13
ATOM     13  C   UNL     1      -9.359   1.064   4.325  1.00  0.00    -0.000 C 
BRANCH  13  14
ATOM     14  C   UNL     1     -10.820   1.516   4.480  1.00  0.00    -0.000 C 
BRANCH  14  15
ATOM     15  C   UNL     1     -10.980   2.656   5.501  1.00  0.00    -0.000 C 
BRANCH  15  16
ATOM     16  C   UNL     1     -12.136   2.411   6.484  1.00  0.00    -0.000 C 
BRANCH  16  17
ATOM     17  C   UNL     1     -12.874   1.086   6.220  1.00  0.00    -0.000 C 
BRANCH  17  18
ATOM     18  C   UNL     1     -13.409   0.450   7.521  1.00  0.00    -0.000 C 
BRANCH  18  19
ATOM     19  C   UNL     1     -12.861   1.108   8.797  1.00  0.00    -0.003 C 
ATOM     20  C   UNL     1     -12.996   0.222  10.033  1.00  0.00     0.004 C 
ENDBRANCH  18  19
ENDBRANCH  17  18
ENDBRANCH  16  17
ENDBRANCH  15  16
ENDBRANCH  14  15
ENDBRANCH  13  14
ENDBRANCH  12  13
ENDBRANCH   1  12
TORSDOF 16
ENDMDL
MODEL 6
REMARK VINA RESULT:    -3.479     13.530     16.002
REMARK INTER + INTRA:          -9.442
REMARK INTER:                  -6.732
REMARK INTRA:                  -2.710
REMARK UNBOUND:                -2.709
REMARK SMILES CCCCCCCCCCCCCCCCCC(=O)[O-]
REMARK SMILES IDX 10 1 11 2 12 3 13 4 14 5 15 6 16 7 17 8 18 9 19 10 20 11
REMARK SMILES IDX 9 12 8 13 7 14 6 15 5 16 4 17 3 18 2 19 1 20
REMARK H PARENT
REMARK Flexibility Score: inf
ROOT
ATOM      1  C   UNL     1     -10.765   1.380   4.370  1.00  0.00     0.000 C 
ENDROOT
BRANCH   1   2
ATOM      2  C   UNL     1     -10.382   2.813   4.784  1.00  0.00     0.000 C 
BRANCH   2   3
ATOM      3  C   UNL     1      -9.008   2.935   5.468  1.00  0.00     0.000 C 
BRANCH   3   4
ATOM      4  C   UNL     1      -9.034   3.774   6.766  1.00  0.00     0.000 C 
BRANCH   4   5
ATOM      5  C   UNL     1      -7.631   3.997   7.357  1.00  0.00     0.000 C 
BRANCH   5   6
ATOM      6  C   UNL     1      -7.287   2.985   8.460  1.00  0.00     0.000 C 
BRANCH   6   7
ATOM      7  C   UNL     1      -5.769   2.811   8.650  1.00  0.00     0.006 C 
BRANCH   7   8
ATOM      8  C   UNL     1      -5.072   2.370   7.357  1.00  0.00     0.053 C 
BRANCH   8   9
ATOM      9  C   UNL     1      -3.807   1.617   7.637  1.00  0.00     0.041 C 
ATOM     10  O   UNL     1      -3.562   0.541   7.029  1.00  0.00    -0.550 OA
ATOM     11  O   UNL     1      -2.882   2.122   8.542  1.00  0.00    -0.550 OA
ENDBRANCH   8   9
ENDBRANCH   7   8
ENDBRANCH   6   7
ENDBRANCH   5   6
ENDBRANCH   4   5
ENDBRANCH   3   4
ENDBRANCH   2   3
ENDBRANCH   1   2
BRANCH   1  12
ATOM     12  C   UNL     1      -9.550   0.485   4.036  1.00  0.00     0.000 C 
BRANCH  12  13
ATOM     13  C   UNL     1      -9.580  -0.860   4.783  1.00  0.00    -0.000 C 
BRANCH  13  14
ATOM     14  C   UNL     1     -10.335  -0.780   6.120  1.00  0.00    -0.000 C 
BRANCH  14  15
ATOM     15  C   UNL     1      -9.430  -0.334   7.283  1.00  0.00    -0.000 C 
BRANCH  15  16
ATOM     16  C   UNL     1     -10.128   0.657   8.228  1.00  0.00    -0.000 C 
BRANCH  16  17
ATOM     17  C   UNL     1     -11.662   0.621   8.105  1.00  0.00    -0.000 C 
BRANCH  17  18
ATOM     18  C   UNL     1     -12.269   2.036   7.993  1.00  0.00    -0.000 C 
BRANCH  18  19
ATOM     19  C   UNL     1     -13.356   2.155   6.913  1.00  0.00    -0.003 C 
ATOM     20  C   UNL     1     -13.861   0.801   6.419  1.00  0.00     0.004 C 
ENDBRANCH  18  19
ENDBRANCH  17  18
ENDBRANCH  16  17
ENDBRANCH  15  16
ENDBRANCH  14  15
ENDBRANCH  13  14
ENDBRANCH  12  13
ENDBRANCH   1  12
TORSDOF 16
ENDMDL
MODEL 7
REMARK VINA RESULT:    -3.455     14.260     16.453
REMARK INTER + INTRA:          -9.395
REMARK INTER:                  -6.146
REMARK INTRA:                  -3.249
REMARK UNBOUND:                -2.709
REMARK SMILES CCCCCCCCCCCCCCCCCC(=O)[O-]
REMARK SMILES IDX 10 1 11 2 12 3 13 4 14 5 15 6 16 7 17 8 18 9 19 10 20 11
REMARK SMILES IDX 9 12 8 13 7 14 6 15 5 16 4 17 3 18 2 19 1 20
REMARK H PARENT
REMARK Flexibility Score: inf
ROOT
ATOM      1  C   UNL     1      -7.064   2.507   5.800  1.00  0.00     0.000 C 
ENDROOT
BRANCH   1   2
ATOM      2  C   UNL     1      -7.916   3.497   4.985  1.00  0.00     0.000 C 
BRANCH   2   3
ATOM      3  C   UNL     1      -8.680   4.532   5.831  1.00  0.00     0.000 C 
BRANCH   3   4
ATOM      4  C   UNL     1     -10.194   4.239   5.948  1.00  0.00     0.000 C 
BRANCH   4   5
ATOM      5  C   UNL     1     -10.644   3.075   5.049  1.00  0.00     0.000 C 
BRANCH   5   6
ATOM      6  C   UNL     1     -11.442   2.010   5.818  1.00  0.00     0.000 C 
BRANCH   6   7
ATOM      7  C   UNL     1     -11.027   0.575   5.441  1.00  0.00     0.006 C 
BRANCH   7   8
ATOM      8  C   UNL     1     -10.078   0.545   4.237  1.00  0.00     0.053 C 
BRANCH   8   9
ATOM      9  C   UNL     1      -9.058  -0.545   4.360  1.00  0.00     0.041 C 
ATOM     10  O   UNL     1      -8.043  -0.550   3.614  1.00  0.00    -0.550 OA
ATOM     11  O   UNL     1      -9.209  -1.534   5.323  1.00  0.00    -0.550 OA
ENDBRANCH   8   9
ENDBRANCH   7   8
ENDBRANCH   6   7
ENDBRANCH   5   6
ENDBRANCH   4   5
ENDBRANCH   3   4
ENDBRANCH   2   3
ENDBRANCH   1   2
BRANCH   1  12
ATOM     12  C   UNL     1      -6.826   2.951   7.262  1.00  0.00     0.000 C 
BRANCH  12  13
ATOM     13  C   UNL     1      -7.311   1.908   8.285  1.00  0.00    -0.000 C 
BRANCH  13  14
ATOM     14  C   UNL     1      -8.505   1.085   7.774  1.00  0.00    -0.000 C 
BRANCH  14  15
ATOM     15  C   UNL     1      -8.766  -0.169   8.627  1.00  0.00    -0.000 C 
BRANCH  15  16
ATOM     16  C   UNL     1      -9.757   0.092   9.773  1.00  0.00    -0.000 C 
BRANCH  16  17
ATOM     17  C   UNL     1     -11.110   0.635   9.280  1.00  0.00    -0.000 C 
BRANCH  17  18
ATOM     18  C   UNL     1     -11.554   1.886  10.068  1.00  0.00    -0.000 C 
BRANCH  18  19
ATOM     19  C   UNL     1     -11.335   3.202   9.305  1.00  0.00    -0.003 C 
ATOM     20  C   UNL     1     -10.042   3.914   9.697  1.00  0.00     0.004 C 
ENDBRANCH  18  19
ENDBRANCH  17  18
ENDBRANCH  16  17
ENDBRANCH  15  16
ENDBRANCH  14  15
ENDBRANCH  13  14
ENDBRANCH  12  13
ENDBRANCH   1  12
TORSDOF 16
ENDMDL
MODEL 8
REMARK VINA RESULT:    -3.430      5.962      8.132
REMARK INTER + INTRA:          -9.347
REMARK INTER:                  -7.522
REMARK INTRA:                  -1.825
REMARK UNBOUND:                -2.709
REMARK SMILES CCCCCCCCCCCCCCCCCC(=O)[O-]
REMARK SMILES IDX 10 1 11 2 12 3 13 4 14 5 15 6 16 7 17 8 18 9 19 10 20 11
REMARK SMILES IDX 9 12 8 13 7 14 6 15 5 16 4 17 3 18 2 19 1 20
REMARK H PARENT
REMARK Flexibility Score: inf
ROOT
ATOM      1  C   UNL     1      -3.839 -11.355   8.062  1.00  0.00     0.000 C 
ENDROOT
BRANCH   1   2
ATOM      2  C   UNL     1      -3.865 -12.056   6.691  1.00  0.00     0.000 C 
BRANCH   2   3
ATOM      3  C   UNL     1      -5.265 -12.482   6.216  1.00  0.00     0.000 C 
BRANCH   3   4
ATOM      4  C   UNL     1      -6.416 -11.762   6.956  1.00  0.00     0.000 C 
BRANCH   4   5
ATOM      5  C   UNL     1      -7.806 -12.236   6.497  1.00  0.00     0.000 C 
BRANCH   5   6
ATOM      6  C   UNL     1      -8.714 -11.074   6.067  1.00  0.00     0.000 C 
BRANCH   6   7
ATOM      7  C   UNL     1      -9.081 -11.134   4.572  1.00  0.00     0.006 C 
BRANCH   7   8
ATOM      8  C   UNL     1      -9.450  -9.755   4.012  1.00  0.00     0.053 C 
BRANCH   8   9
ATOM      9  C   UNL     1     -10.629  -9.163   4.722  1.00  0.00     0.041 C 
ATOM     10  O   UNL     1     -10.489  -8.133   5.433  1.00  0.00    -0.550 OA
ATOM     11  O   UNL     1     -11.888  -9.728   4.569  1.00  0.00    -0.550 OA
ENDBRANCH   8   9
ENDBRANCH   7   8
ENDBRANCH   6   7
ENDBRANCH   5   6
ENDBRANCH   4   5
ENDBRANCH   3   4
ENDBRANCH   2   3
ENDBRANCH   1   2
BRANCH   1  12
ATOM     12  C   UNL     1      -3.017 -10.046   8.073  1.00  0.00     0.000 C 
BRANCH  12  13
ATOM     13  C   UNL     1      -2.888  -9.414   6.676  1.00  0.00    -0.000 C 
BRANCH  13  14
ATOM     14  C   UNL     1      -1.961  -8.188   6.662  1.00  0.00    -0.000 C 
BRANCH  14  15
ATOM     15  C   UNL     1      -0.675  -8.411   7.478  1.00  0.00    -0.000 C 
BRANCH  15  16
ATOM     16  C   UNL     1       0.418  -9.133   6.674  1.00  0.00    -0.000 C 
BRANCH  16  17
ATOM     17  C   UNL     1       0.939 -10.399   7.378  1.00  0.00    -0.000 C 
BRANCH  17  18
ATOM     18  C   UNL     1       0.156 -11.661   6.957  1.00  0.00    -0.000 C 
BRANCH  18  19
ATOM     19  C   UNL     1      -0.271 -11.656   5.480  1.00  0.00    -0.003 C 
ATOM     20  C   UNL     1      -0.749 -13.021   4.990  1.00  0.00     0.004 C 
ENDBRANCH  18  19
ENDBRANCH  17  18
ENDBRANCH  16  17
ENDBRANCH  15  16
ENDBRANCH  14  15
ENDBRANCH  13  14
ENDBRANCH  12  13
ENDBRANCH   1  12
TORSDOF 16
ENDMDL
MODEL 9
REMARK VINA RESULT:    -3.423     13.308     15.791
REMARK INTER + INTRA:          -9.333
REMARK INTER:                  -6.284
REMARK INTRA:                  -3.049
REMARK UNBOUND:                -2.709
REMARK SMILES CCCCCCCCCCCCCCCCCC(=O)[O-]
REMARK SMILES IDX 10 1 11 2 12 3 13 4 14 5 15 6 16 7 17 8 18 9 19 10 20 11
REMARK SMILES IDX 9 12 8 13 7 14 6 15 5 16 4 17 3 18 2 19 1 20
REMARK H PARENT
REMARK Flexibility Score: inf
ROOT
ATOM      1  C   UNL     1      -7.093   2.502   4.706  1.00  0.00     0.000 C 
ENDROOT
BRANCH   1   2
ATOM      2  C   UNL     1      -7.416   3.882   5.308  1.00  0.00     0.000 C 
BRANCH   2   3
ATOM      3  C   UNL     1      -8.753   3.952   6.068  1.00  0.00     0.000 C 
BRANCH   3   4
ATOM      4  C   UNL     1      -8.588   4.054   7.602  1.00  0.00     0.000 C 
BRANCH   4   5
ATOM      5  C   UNL     1      -7.117   4.179   8.034  1.00  0.00     0.000 C 
BRANCH   5   6
ATOM      6  C   UNL     1      -6.687   3.061   8.996  1.00  0.00     0.000 C 
BRANCH   6   7
ATOM      7  C   UNL     1      -5.963   1.908   8.276  1.00  0.00     0.006 C 
BRANCH   7   8
ATOM      8  C   UNL     1      -4.681   2.377   7.577  1.00  0.00     0.053 C 
BRANCH   8   9
ATOM      9  C   UNL     1      -3.542   1.435   7.815  1.00  0.00     0.041 C 
ATOM     10  O   UNL     1      -3.495   0.331   7.210  1.00  0.00    -0.550 OA
ATOM     11  O   UNL     1      -2.512   1.791   8.676  1.00  0.00    -0.550 OA
ENDBRANCH   8   9
ENDBRANCH   7   8
ENDBRANCH   6   7
ENDBRANCH   5   6
ENDBRANCH   4   5
ENDBRANCH   3   4
ENDBRANCH   2   3
ENDBRANCH   1   2
BRANCH   1  12
ATOM     12  C   UNL     1      -8.012   1.370   5.221  1.00  0.00     0.000 C 
BRANCH  12  13
ATOM     13  C   UNL     1      -8.402   0.373   4.115  1.00  0.00    -0.000 C 
BRANCH  13  14
ATOM     14  C   UNL     1      -9.910   0.075   4.089  1.00  0.00    -0.000 C 
BRANCH  14  15
ATOM     15  C   UNL     1     -10.763   1.323   4.380  1.00  0.00    -0.000 C 
BRANCH  15  16
ATOM     16  C   UNL     1     -11.766   1.100   5.523  1.00  0.00    -0.000 C 
BRANCH  16  17
ATOM     17  C   UNL     1     -11.168   0.303   6.696  1.00  0.00    -0.000 C 
BRANCH  17  18
ATOM     18  C   UNL     1     -10.925   1.191   7.935  1.00  0.00    -0.000 C 
BRANCH  18  19
ATOM     19  C   UNL     1      -9.770   0.702   8.824  1.00  0.00    -0.003 C 
ATOM     20  C   UNL     1      -9.023  -0.492   8.234  1.00  0.00     0.004 C 
ENDBRANCH  18  19
ENDBRANCH  17  18
ENDBRANCH  16  17
ENDBRANCH  15  16
ENDBRANCH  14  15
ENDBRANCH  13  14
ENDBRANCH  12  13
ENDBRANCH   1  12
TORSDOF 16
ENDMDL
