MODEL 1
REMARK VINA RESULT:    -3.428      0.000      0.000
REMARK INTER + INTRA:          -5.958
REMARK INTER:                  -5.231
REMARK INTRA:                  -0.727
REMARK UNBOUND:                -0.727
REMARK SMILES CCCCCCCCCCC(=O)[O-]
REMARK SMILES IDX 7 1 8 2 9 3 10 4 11 5 12 6 13 7 6 8 5 9 4 10 3 11 2 12 1 13
REMARK H PARENT
REMARK Flexibility Score: inf
ROOT
ATOM      1  C   UNL     1     -19.403  22.033  45.350  1.00  0.00     0.000 C 
ENDROOT
BRANCH   1   2
ATOM      2  C   UNL     1     -20.680  22.157  46.198  1.00  0.00     0.000 C 
BRANCH   2   3
ATOM      3  C   UNL     1     -21.636  23.293  45.785  1.00  0.00     0.006 C 
BRANCH   3   4
ATOM      4  C   UNL     1     -20.988  24.361  44.884  1.00  0.00     0.053 C 
BRANCH   4   5
ATOM      5  C   UNL     1     -21.999  25.251  44.224  1.00  0.00     0.041 C 
ATOM      6  O   UNL     1     -21.715  26.449  43.960  1.00  0.00    -0.550 OA
ATOM      7  O   UNL     1     -23.270  24.769  43.939  1.00  0.00    -0.550 OA
ENDBRANCH   4   5
ENDBRANCH   3   4
ENDBRANCH   2   3
ENDBRANCH   1   2
BRANCH   1   8
ATOM      8  C   UNL     1     -18.843  20.603  45.311  1.00  0.00     0.000 C 
BRANCH   8   9
ATOM      9  C   UNL     1     -17.637  20.512  44.365  1.00  0.00    -0.000 C 
BRANCH   9  10
ATOM     10  C   UNL     1     -17.714  21.522  43.208  1.00  0.00    -0.000 C 
BRANCH  10  11
ATOM     11  C   UNL     1     -16.479  22.438  43.140  1.00  0.00    -0.000 C 
BRANCH  11  12
ATOM     12  C   UNL     1     -16.834  23.871  42.717  1.00  0.00    -0.003 C 
ATOM     13  C   UNL     1     -18.303  24.023  42.320  1.00  0.00     0.004 C 
ENDBRANCH  11  12
ENDBRANCH  10  11
ENDBRANCH   9  10
ENDBRANCH   8   9
ENDBRANCH   1   8
TORSDOF 9
ENDMDL
MODEL 2
REMARK VINA RESULT:    -3.367      1.710      3.878
REMARK INTER + INTRA:          -5.866
REMARK INTER:                  -5.021
REMARK INTRA:                  -0.844
REMARK UNBOUND:                -0.727
REMARK SMILES CCCCCCCCCCC(=O)[O-]
REMARK SMILES IDX 7 1 8 2 9 3 10 4 11 5 12 6 13 7 6 8 5 9 4 10 3 11 2 12 1 13
REMARK H PARENT
REMARK Flexibility Score: inf
ROOT
ATOM      1  C   UNL     1     -18.023  22.695  42.324  1.00  0.00     0.000 C 
ENDROOT
BRANCH   1   2
ATOM      2  C   UNL     1     -18.013  24.164  42.777  1.00  0.00     0.000 C 
BRANCH   2   3
ATOM      3  C   UNL     1     -19.097  25.056  42.141  1.00  0.00     0.006 C 
BRANCH   3   4
ATOM      4  C   UNL     1     -19.869  25.923  43.153  1.00  0.00     0.053 C 
BRANCH   4   5
ATOM      5  C   UNL     1     -20.361  27.208  42.558  1.00  0.00     0.041 C 
ATOM      6  O   UNL     1     -21.589  27.379  42.342  1.00  0.00    -0.550 OA
ATOM      7  O   UNL     1     -19.457  28.201  42.204  1.00  0.00    -0.550 OA
ENDBRANCH   4   5
ENDBRANCH   3   4
ENDBRANCH   2   3
ENDBRANCH   1   2
BRANCH   1   8
ATOM      8  C   UNL     1     -17.700  21.713  43.459  1.00  0.00     0.000 C 
BRANCH   8   9
ATOM      9  C   UNL     1     -18.249  22.223  44.799  1.00  0.00    -0.000 C 
BRANCH   9  10
ATOM     10  C   UNL     1     -19.134  21.186  45.510  1.00  0.00    -0.000 C 
BRANCH  10  11
ATOM     11  C   UNL     1     -20.438  21.796  46.054  1.00  0.00    -0.000 C 
BRANCH  11  12
ATOM     12  C   UNL     1     -20.588  23.281  45.692  1.00  0.00    -0.003 C 
ATOM     13  C   UNL     1     -22.050  23.716  45.579  1.00  0.00     0.004 C 
ENDBRANCH  11  12
ENDBRANCH  10  11
ENDBRANCH   9  10
ENDBRANCH   8   9
ENDBRANCH   1   8
TORSDOF 9
ENDMDL
MODEL 3
REMARK VINA RESULT:    -3.367      2.561      3.566
REMARK INTER + INTRA:          -5.865
REMARK INTER:                  -4.861
REMARK INTRA:                  -1.004
REMARK UNBOUND:                -0.727
REMARK SMILES CCCCCCCCCCC(=O)[O-]
REMARK SMILES IDX 7 1 8 2 9 3 10 4 11 5 12 6 13 7 6 8 5 9 4 10 3 11 2 12 1 13
REMARK H PARENT
REMARK Flexibility Score: inf
ROOT
ATOM      1  C   UNL     1     -18.595  21.379  44.918  1.00  0.00     0.000 C 
ENDROOT
BRANCH   1   2
ATOM      2  C   UNL     1     -18.732  22.704  44.150  1.00  0.00     0.000 C 
BRANCH   2   3
ATOM      3  C   UNL     1     -18.056  22.735  42.765  1.00  0.00     0.006 C 
BRANCH   3   4
ATOM      4  C   UNL     1     -17.237  24.011  42.496  1.00  0.00     0.053 C 
BRANCH   4   5
ATOM      5  C   UNL     1     -18.047  25.263  42.661  1.00  0.00     0.041 C 
ATOM      6  O   UNL     1     -17.748  26.099  43.553  1.00  0.00    -0.550 OA
ATOM      7  O   UNL     1     -19.156  25.485  41.856  1.00  0.00    -0.550 OA
ENDBRANCH   4   5
ENDBRANCH   3   4
ENDBRANCH   2   3
ENDBRANCH   1   2
BRANCH   1   8
ATOM      8  C   UNL     1     -17.485  20.474  44.361  1.00  0.00     0.000 C 
BRANCH   8   9
ATOM      9  C   UNL     1     -16.301  20.396  45.336  1.00  0.00    -0.000 C 
BRANCH   9  10
ATOM     10  C   UNL     1     -15.241  21.476  45.068  1.00  0.00    -0.000 C 
BRANCH  10  11
ATOM     11  C   UNL     1     -14.621  21.361  43.664  1.00  0.00    -0.000 C 
BRANCH  11  12
ATOM     12  C   UNL     1     -13.449  22.331  43.458  1.00  0.00    -0.003 C 
ATOM     13  C   UNL     1     -13.557  23.117  42.151  1.00  0.00     0.004 C 
ENDBRANCH  11  12
ENDBRANCH  10  11
ENDBRANCH   9  10
ENDBRANCH   8   9
ENDBRANCH   1   8
TORSDOF 9
ENDMDL
MODEL 4
REMARK VINA RESULT:    -3.338      3.267      4.856
REMARK INTER + INTRA:          -5.821
REMARK INTER:                  -4.997
REMARK INTRA:                  -0.824
REMARK UNBOUND:                -0.727
REMARK SMILES CCCCCCCCCCC(=O)[O-]
REMARK SMILES IDX 7 1 8 2 9 3 10 4 11 5 12 6 13 7 6 8 5 9 4 10 3 11 2 12 1 13
REMARK H PARENT
REMARK Flexibility Score: inf
ROOT
ATOM      1  C   UNL     1     -19.027  22.563  45.594  1.00  0.00     0.000 C 
ENDROOT
BRANCH   1   2
ATOM      2  C   UNL     1     -18.940  21.050  45.334  1.00  0.00     0.000 C 
BRANCH   2   3
ATOM      3  C   UNL     1     -17.808  20.610  44.383  1.00  0.00     0.006 C 
BRANCH   3   4
ATOM      4  C   UNL     1     -17.529  21.604  43.240  1.00  0.00     0.053 C 
BRANCH   4   5
ATOM      5  C   UNL     1     -16.132  22.145  43.273  1.00  0.00     0.041 C 
ATOM      6  O   UNL     1     -15.170  21.403  43.605  1.00  0.00    -0.550 OA
ATOM      7  O   UNL     1     -15.896  23.481  42.978  1.00  0.00    -0.550 OA
ENDBRANCH   4   5
ENDBRANCH   3   4
ENDBRANCH   2   3
ENDBRANCH   1   2
BRANCH   1   8
ATOM      8  C   UNL     1     -20.456  23.112  45.474  1.00  0.00     0.000 C 
BRANCH   8   9
ATOM      9  C   UNL     1     -20.467  24.455  44.728  1.00  0.00    -0.000 C 
BRANCH   9  10
ATOM     10  C   UNL     1     -19.097  24.810  44.128  1.00  0.00    -0.000 C 
BRANCH  10  11
ATOM     11  C   UNL     1     -19.135  24.921  42.594  1.00  0.00    -0.000 C 
BRANCH  11  12
ATOM     12  C   UNL     1     -19.590  26.309  42.117  1.00  0.00    -0.003 C 
ATOM     13  C   UNL     1     -18.467  27.346  42.163  1.00  0.00     0.004 C 
ENDBRANCH  11  12
ENDBRANCH  10  11
ENDBRANCH   9  10
ENDBRANCH   8   9
ENDBRANCH   1   8
TORSDOF 9
ENDMDL
MODEL 5
REMARK VINA RESULT:    -3.337      2.406      5.134
REMARK INTER + INTRA:          -5.820
REMARK INTER:                  -5.278
REMARK INTRA:                  -0.542
REMARK UNBOUND:                -0.727
REMARK SMILES CCCCCCCCCCC(=O)[O-]
REMARK SMILES IDX 7 1 8 2 9 3 10 4 11 5 12 6 13 7 6 8 5 9 4 10 3 11 2 12 1 13
REMARK H PARENT
REMARK Flexibility Score: inf
ROOT
ATOM      1  C   UNL     1     -18.988  21.731  45.135  1.00  0.00     0.000 C 
ENDROOT
BRANCH   1   2
ATOM      2  C   UNL     1     -17.831  20.934  44.511  1.00  0.00     0.000 C 
BRANCH   2   3
ATOM      3  C   UNL     1     -17.223  21.548  43.234  1.00  0.00     0.006 C 
BRANCH   3   4
ATOM      4  C   UNL     1     -18.173  22.498  42.481  1.00  0.00     0.053 C 
BRANCH   4   5
ATOM      5  C   UNL     1     -17.622  23.887  42.356  1.00  0.00     0.041 C 
ATOM      6  O   UNL     1     -18.378  24.845  42.047  1.00  0.00    -0.550 OA
ATOM      7  O   UNL     1     -16.265  24.116  42.540  1.00  0.00    -0.550 OA
ENDBRANCH   4   5
ENDBRANCH   3   4
ENDBRANCH   2   3
ENDBRANCH   1   2
BRANCH   1   8
ATOM      8  C   UNL     1     -19.847  20.893  46.093  1.00  0.00     0.000 C 
BRANCH   8   9
ATOM      9  C   UNL     1     -20.975  21.740  46.702  1.00  0.00    -0.000 C 
BRANCH   9  10
ATOM     10  C   UNL     1     -21.005  23.173  46.146  1.00  0.00    -0.000 C 
BRANCH  10  11
ATOM     11  C   UNL     1     -22.310  23.487  45.393  1.00  0.00    -0.000 C 
BRANCH  11  12
ATOM     12  C   UNL     1     -23.517  22.734  45.972  1.00  0.00    -0.003 C 
ATOM     13  C   UNL     1     -24.806  22.999  45.193  1.00  0.00     0.004 C 
ENDBRANCH  11  12
ENDBRANCH  10  11
ENDBRANCH   9  10
ENDBRANCH   8   9
ENDBRANCH   1   8
TORSDOF 9
ENDMDL
MODEL 6
REMARK VINA RESULT:    -3.284      2.700      3.771
REMARK INTER + INTRA:          -5.738
REMARK INTER:                  -4.672
REMARK INTRA:                  -1.066
REMARK UNBOUND:                -0.727
REMARK SMILES CCCCCCCCCCC(=O)[O-]
REMARK SMILES IDX 7 1 8 2 9 3 10 4 11 5 12 6 13 7 6 8 5 9 4 10 3 11 2 12 1 13
REMARK H PARENT
REMARK Flexibility Score: inf
ROOT
ATOM      1  C   UNL     1     -16.630  20.968  44.267  1.00  0.00     0.000 C 
ENDROOT
BRANCH   1   2
ATOM      2  C   UNL     1     -17.606  21.735  43.360  1.00  0.00     0.000 C 
BRANCH   2   3
ATOM      3  C   UNL     1     -17.534  23.272  43.468  1.00  0.00     0.006 C 
BRANCH   3   4
ATOM      4  C   UNL     1     -17.996  24.011  42.199  1.00  0.00     0.053 C 
BRANCH   4   5
ATOM      5  C   UNL     1     -19.081  25.009  42.474  1.00  0.00     0.041 C 
ATOM      6  O   UNL     1     -19.182  26.048  41.771  1.00  0.00    -0.550 OA
ATOM      7  O   UNL     1     -19.956  24.811  43.534  1.00  0.00    -0.550 OA
ENDBRANCH   4   5
ENDBRANCH   3   4
ENDBRANCH   2   3
ENDBRANCH   1   2
BRANCH   1   8
ATOM      8  C   UNL     1     -15.381  21.783  44.633  1.00  0.00     0.000 C 
BRANCH   8   9
ATOM      9  C   UNL     1     -14.216  21.453  43.688  1.00  0.00    -0.000 C 
BRANCH   9  10
ATOM     10  C   UNL     1     -13.302  22.663  43.431  1.00  0.00    -0.000 C 
BRANCH  10  11
ATOM     11  C   UNL     1     -13.447  23.219  42.004  1.00  0.00    -0.000 C 
BRANCH  11  12
ATOM     12  C   UNL     1     -14.245  24.531  41.963  1.00  0.00    -0.003 C 
ATOM     13  C   UNL     1     -14.344  25.204  43.333  1.00  0.00     0.004 C 
ENDBRANCH  11  12
ENDBRANCH  10  11
ENDBRANCH   9  10
ENDBRANCH   8   9
ENDBRANCH   1   8
TORSDOF 9
ENDMDL
MODEL 7
REMARK VINA RESULT:    -3.266      1.286      1.899
REMARK INTER + INTRA:          -5.712
REMARK INTER:                  -5.009
REMARK INTRA:                  -0.703
REMARK UNBOUND:                -0.727
REMARK SMILES CCCCCCCCCCC(=O)[O-]
REMARK SMILES IDX 7 1 8 2 9 3 10 4 11 5 12 6 13 7 6 8 5 9 4 10 3 11 2 12 1 13
REMARK H PARENT
REMARK Flexibility Score: inf
ROOT
ATOM      1  C   UNL     1     -19.492  21.385  45.480  1.00  0.00     0.000 C 
ENDROOT
BRANCH   1   2
ATOM      2  C   UNL     1     -20.474  22.222  46.316  1.00  0.00     0.000 C 
BRANCH   2   3
ATOM      3  C   UNL     1     -21.357  23.198  45.512  1.00  0.00     0.006 C 
BRANCH   3   4
ATOM      4  C   UNL     1     -22.859  23.091  45.830  1.00  0.00     0.053 C 
BRANCH   4   5
ATOM      5  C   UNL     1     -23.671  24.153  45.152  1.00  0.00     0.041 C 
ATOM      6  O   UNL     1     -24.787  24.498  45.622  1.00  0.00    -0.550 OA
ATOM      7  O   UNL     1     -23.214  24.734  43.977  1.00  0.00    -0.550 OA
ENDBRANCH   4   5
ENDBRANCH   3   4
ENDBRANCH   2   3
ENDBRANCH   1   2
BRANCH   1   8
ATOM      8  C   UNL     1     -18.251  22.176  45.041  1.00  0.00     0.000 C 
BRANCH   8   9
ATOM      9  C   UNL     1     -17.657  21.592  43.750  1.00  0.00    -0.000 C 
BRANCH   9  10
ATOM     10  C   UNL     1     -18.015  22.420  42.506  1.00  0.00    -0.000 C 
BRANCH  10  11
ATOM     11  C   UNL     1     -17.671  23.911  42.670  1.00  0.00    -0.000 C 
BRANCH  11  12
ATOM     12  C   UNL     1     -18.793  24.832  42.168  1.00  0.00    -0.003 C 
ATOM     13  C   UNL     1     -19.679  25.355  43.299  1.00  0.00     0.004 C 
ENDBRANCH  11  12
ENDBRANCH  10  11
ENDBRANCH   9  10
ENDBRANCH   8   9
ENDBRANCH   1   8
TORSDOF 9
ENDMDL
MODEL 8
REMARK VINA RESULT:    -3.264      4.029      6.539
REMARK INTER + INTRA:          -5.708
REMARK INTER:                  -4.678
REMARK INTRA:                  -1.030
REMARK UNBOUND:                -0.727
REMARK SMILES CCCCCCCCCCC(=O)[O-]
REMARK SMILES IDX 7 1 8 2 9 3 10 4 11 5 12 6 13 7 6 8 5 9 4 10 3 11 2 12 1 13
REMARK H PARENT
REMARK Flexibility Score: inf
ROOT
ATOM      1  C   UNL     1     -14.938  23.156  44.608  1.00  0.00     0.000 C 
ENDROOT
BRANCH   1   2
ATOM      2  C   UNL     1     -14.454  22.140  43.561  1.00  0.00     0.000 C 
BRANCH   2   3
ATOM      3  C   UNL     1     -13.139  22.508  42.845  1.00  0.00     0.006 C 
BRANCH   3   4
ATOM      4  C   UNL     1     -12.808  24.011  42.879  1.00  0.00     0.053 C 
BRANCH   4   5
ATOM      5  C   UNL     1     -13.341  24.748  41.687  1.00  0.00     0.041 C 
ATOM      6  O   UNL     1     -13.187  24.278  40.529  1.00  0.00    -0.550 OA
ATOM      7  O   UNL     1     -13.972  25.974  41.851  1.00  0.00    -0.550 OA
ENDBRANCH   4   5
ENDBRANCH   3   4
ENDBRANCH   2   3
ENDBRANCH   1   2
BRANCH   1   8
ATOM      8  C   UNL     1     -16.250  23.849  44.213  1.00  0.00     0.000 C 
BRANCH   8   9
ATOM      9  C   UNL     1     -16.735  23.362  42.839  1.00  0.00    -0.000 C 
BRANCH   9  10
ATOM     10  C   UNL     1     -17.956  22.434  42.937  1.00  0.00    -0.000 C 
BRANCH  10  11
ATOM     11  C   UNL     1     -18.716  22.596  44.265  1.00  0.00    -0.000 C 
BRANCH  11  12
ATOM     12  C   UNL     1     -18.785  21.287  45.066  1.00  0.00    -0.003 C 
ATOM     13  C   UNL     1     -17.749  20.260  44.607  1.00  0.00     0.004 C 
ENDBRANCH  11  12
ENDBRANCH  10  11
ENDBRANCH   9  10
ENDBRANCH   8   9
ENDBRANCH   1   8
TORSDOF 9
ENDMDL
MODEL 9
REMARK VINA RESULT:    -3.235      3.022      5.098
REMARK INTER + INTRA:          -5.665
REMARK INTER:                  -4.756
REMARK INTRA:                  -0.909
REMARK UNBOUND:                -0.727
REMARK SMILES CCCCCCCCCCC(=O)[O-]
REMARK SMILES IDX 7 1 8 2 9 3 10 4 11 5 12 6 13 7 6 8 5 9 4 10 3 11 2 12 1 13
REMARK H PARENT
REMARK Flexibility Score: inf
ROOT
ATOM      1  C   UNL     1     -17.148  21.401  43.604  1.00  0.00     0.000 C 
ENDROOT
BRANCH   1   2
ATOM      2  C   UNL     1     -17.994  22.124  42.543  1.00  0.00     0.000 C 
BRANCH   2   3
ATOM      3  C   UNL     1     -17.827  23.656  42.500  1.00  0.00     0.006 C 
BRANCH   3   4
ATOM      4  C   UNL     1     -16.849  24.209  43.553  1.00  0.00     0.053 C 
BRANCH   4   5
ATOM      5  C   UNL     1     -15.603  24.779  42.942  1.00  0.00     0.041 C 
ATOM      6  O   UNL     1     -15.418  26.024  42.921  1.00  0.00    -0.550 OA
ATOM      7  O   UNL     1     -14.666  23.936  42.358  1.00  0.00    -0.550 OA
ENDBRANCH   4   5
ENDBRANCH   3   4
ENDBRANCH   2   3
ENDBRANCH   1   2
BRANCH   1   8
ATOM      8  C   UNL     1     -17.992  20.567  44.579  1.00  0.00     0.000 C 
BRANCH   8   9
ATOM      9  C   UNL     1     -18.390  21.398  45.809  1.00  0.00    -0.000 C 
BRANCH   9  10
ATOM     10  C   UNL     1     -19.892  21.721  45.844  1.00  0.00    -0.000 C 
BRANCH  10  11
ATOM     11  C   UNL     1     -20.202  23.147  45.354  1.00  0.00    -0.000 C 
BRANCH  11  12
ATOM     12  C   UNL     1     -21.552  23.665  45.871  1.00  0.00    -0.003 C 
ATOM     13  C   UNL     1     -22.497  22.537  46.287  1.00  0.00     0.004 C 
ENDBRANCH  11  12
ENDBRANCH  10  11
ENDBRANCH   9  10
ENDBRANCH   8   9
ENDBRANCH   1   8
TORSDOF 9
ENDMDL
