MODEL 1
REMARK VINA RESULT:    -4.842      0.000      0.000
REMARK INTER + INTRA:          -4.842
REMARK INTER:                  -4.842
REMARK INTRA:                   0.000
REMARK UNBOUND:                 0.000
REMARK SMILES CC(C)=C1CC[C@H](C)CC1=O
REMARK SMILES IDX 8 1 7 2 6 3 5 4 4 5 2 6 1 7 3 8 10 9 11 10 9 11
REMARK H PARENT
REMARK Flexibility Score: inf
ROOT
ATOM      1  C   UNL     1      35.881  10.557 107.157  1.00  0.00     0.008 C 
ATOM      2  C   UNL     1      34.437  10.042 107.105  1.00  0.00    -0.006 C 
ATOM      3  C   UNL     1      33.941   9.971 105.652  1.00  0.00     0.008 C 
ATOM      4  C   UNL     1      32.465   9.555 105.588  1.00  0.00     0.039 C 
ATOM      5  C   UNL     1      32.183   8.276 106.365  1.00  0.00    -0.006 C 
ATOM      6  C   UNL     1      31.211   7.403 105.969  1.00  0.00    -0.070 C 
ATOM      7  C   UNL     1      30.960   6.105 106.699  1.00  0.00     0.039 C 
ATOM      8  C   UNL     1      30.360   7.679 104.749  1.00  0.00     0.039 C 
ATOM      9  C   UNL     1      32.947   8.101 107.637  1.00  0.00     0.159 C 
ATOM     10  O   UNL     1      32.449   7.494 108.622  1.00  0.00    -0.295 OA
ATOM     11  C   UNL     1      34.336   8.658 107.763  1.00  0.00     0.084 C 
ENDROOT
TORSDOF 0
ENDMDL
MODEL 2
REMARK VINA RESULT:    -4.529      1.768      3.159
REMARK INTER + INTRA:          -4.529
REMARK INTER:                  -4.529
REMARK INTRA:                   0.000
REMARK UNBOUND:                 0.000
REMARK SMILES CC(C)=C1CC[C@H](C)CC1=O
REMARK SMILES IDX 8 1 7 2 6 3 5 4 4 5 2 6 1 7 3 8 10 9 11 10 9 11
REMARK H PARENT
REMARK Flexibility Score: inf
ROOT
ATOM      1  C   UNL     1      31.084  10.578 104.778  1.00  0.00     0.008 C 
ATOM      2  C   UNL     1      31.007   9.378 105.729  1.00  0.00    -0.006 C 
ATOM      3  C   UNL     1      30.791   8.076 104.941  1.00  0.00     0.008 C 
ATOM      4  C   UNL     1      30.610   6.878 105.883  1.00  0.00     0.039 C 
ATOM      5  C   UNL     1      31.732   6.763 106.906  1.00  0.00    -0.006 C 
ATOM      6  C   UNL     1      32.142   5.549 107.376  1.00  0.00    -0.070 C 
ATOM      7  C   UNL     1      33.293   5.418 108.348  1.00  0.00     0.039 C 
ATOM      8  C   UNL     1      31.486   4.267 106.914  1.00  0.00     0.039 C 
ATOM      9  C   UNL     1      32.266   8.052 107.440  1.00  0.00     0.159 C 
ATOM     10  O   UNL     1      32.700   8.142 108.619  1.00  0.00    -0.295 OA
ATOM     11  C   UNL     1      32.289   9.275 106.570  1.00  0.00     0.084 C 
ENDROOT
TORSDOF 0
ENDMDL
MODEL 3
REMARK VINA RESULT:    -4.322      1.487      4.534
REMARK INTER + INTRA:          -4.322
REMARK INTER:                  -4.322
REMARK INTRA:                   0.000
REMARK UNBOUND:                 0.000
REMARK SMILES CC(C)=C1CC[C@H](C)CC1=O
REMARK SMILES IDX 8 1 7 2 6 3 5 4 4 5 2 6 1 7 3 8 10 9 11 10 9 11
REMARK H PARENT
REMARK Flexibility Score: inf
ROOT
ATOM      1  C   UNL     1      30.644   4.966 107.005  1.00  0.00     0.008 C 
ATOM      2  C   UNL     1      31.238   6.364 107.217  1.00  0.00    -0.006 C 
ATOM      3  C   UNL     1      32.702   6.265 107.673  1.00  0.00     0.008 C 
ATOM      4  C   UNL     1      33.282   7.651 107.988  1.00  0.00     0.039 C 
ATOM      5  C   UNL     1      33.091   8.638 106.844  1.00  0.00    -0.006 C 
ATOM      6  C   UNL     1      33.999   9.629 106.602  1.00  0.00    -0.070 C 
ATOM      7  C   UNL     1      33.850  10.578 105.436  1.00  0.00     0.039 C 
ATOM      8  C   UNL     1      35.224   9.798 107.473  1.00  0.00     0.039 C 
ATOM      9  C   UNL     1      31.807   8.526 106.090  1.00  0.00     0.159 C 
ATOM     10  O   UNL     1      31.254   9.539 105.584  1.00  0.00    -0.295 OA
ATOM     11  C   UNL     1      31.146   7.189 105.924  1.00  0.00     0.084 C 
ENDROOT
TORSDOF 0
ENDMDL
MODEL 4
REMARK VINA RESULT:    -4.233      1.648      4.143
REMARK INTER + INTRA:          -4.233
REMARK INTER:                  -4.233
REMARK INTRA:                   0.000
REMARK UNBOUND:                 0.000
REMARK SMILES CC(C)=C1CC[C@H](C)CC1=O
REMARK SMILES IDX 8 1 7 2 6 3 5 4 4 5 2 6 1 7 3 8 10 9 11 10 9 11
REMARK H PARENT
REMARK Flexibility Score: inf
ROOT
ATOM      1  C   UNL     1      31.404   6.902 107.946  1.00  0.00     0.008 C 
ATOM      2  C   UNL     1      32.389   7.704 107.087  1.00  0.00    -0.006 C 
ATOM      3  C   UNL     1      31.673   8.870 106.389  1.00  0.00     0.008 C 
ATOM      4  C   UNL     1      32.622   9.623 105.446  1.00  0.00     0.039 C 
ATOM      5  C   UNL     1      33.909  10.055 106.134  1.00  0.00    -0.006 C 
ATOM      6  C   UNL     1      34.562  11.197 105.768  1.00  0.00    -0.070 C 
ATOM      7  C   UNL     1      35.808  11.666 106.481  1.00  0.00     0.039 C 
ATOM      8  C   UNL     1      34.041  12.072 104.649  1.00  0.00     0.039 C 
ATOM      9  C   UNL     1      34.466   9.101 107.140  1.00  0.00     0.159 C 
ATOM     10  O   UNL     1      35.708   8.998 107.327  1.00  0.00    -0.295 OA
ATOM     11  C   UNL     1      33.543   8.237 107.949  1.00  0.00     0.084 C 
ENDROOT
TORSDOF 0
ENDMDL
MODEL 5
REMARK VINA RESULT:    -3.928      3.547      4.546
REMARK INTER + INTRA:          -3.928
REMARK INTER:                  -3.928
REMARK INTRA:                   0.000
REMARK UNBOUND:                 0.000
REMARK SMILES CC(C)=C1CC[C@H](C)CC1=O
REMARK SMILES IDX 8 1 7 2 6 3 5 4 4 5 2 6 1 7 3 8 10 9 11 10 9 11
REMARK H PARENT
REMARK Flexibility Score: inf
ROOT
ATOM      1  C   UNL     1      37.133  11.515 106.411  1.00  0.00     0.008 C 
ATOM      2  C   UNL     1      35.804  11.585 105.650  1.00  0.00    -0.006 C 
ATOM      3  C   UNL     1      34.848  10.481 106.128  1.00  0.00     0.008 C 
ATOM      4  C   UNL     1      33.551  10.472 105.308  1.00  0.00     0.039 C 
ATOM      5  C   UNL     1      32.884  11.840 105.253  1.00  0.00    -0.006 C 
ATOM      6  C   UNL     1      31.527  11.966 105.174  1.00  0.00    -0.070 C 
ATOM      7  C   UNL     1      30.850  13.317 105.178  1.00  0.00     0.039 C 
ATOM      8  C   UNL     1      30.629  10.750 105.119  1.00  0.00     0.039 C 
ATOM      9  C   UNL     1      33.804  13.014 105.174  1.00  0.00     0.159 C 
ATOM     10  O   UNL     1      33.477  14.061 104.553  1.00  0.00    -0.295 OA
ATOM     11  C   UNL     1      35.149  12.963 105.837  1.00  0.00     0.084 C 
ENDROOT
TORSDOF 0
ENDMDL
MODEL 6
REMARK VINA RESULT:    -3.899      2.874      5.134
REMARK INTER + INTRA:          -3.899
REMARK INTER:                  -3.899
REMARK INTRA:                   0.000
REMARK UNBOUND:                 0.000
REMARK SMILES CC(C)=C1CC[C@H](C)CC1=O
REMARK SMILES IDX 8 1 7 2 6 3 5 4 4 5 2 6 1 7 3 8 10 9 11 10 9 11
REMARK H PARENT
REMARK Flexibility Score: inf
ROOT
ATOM      1  C   UNL     1      33.811   8.125 108.125  1.00  0.00     0.008 C 
ATOM      2  C   UNL     1      34.545   9.152 107.255  1.00  0.00    -0.006 C 
ATOM      3  C   UNL     1      33.597   9.742 106.199  1.00  0.00     0.008 C 
ATOM      4  C   UNL     1      34.340  10.696 105.254  1.00  0.00     0.039 C 
ATOM      5  C   UNL     1      35.122  11.768 106.001  1.00  0.00    -0.006 C 
ATOM      6  C   UNL     1      35.303  13.014 105.472  1.00  0.00    -0.070 C 
ATOM      7  C   UNL     1      36.028  14.103 106.228  1.00  0.00     0.039 C 
ATOM      8  C   UNL     1      34.750  13.375 104.111  1.00  0.00     0.039 C 
ATOM      9  C   UNL     1      35.766  11.338 107.277  1.00  0.00     0.159 C 
ATOM     10  O   UNL     1      36.853  11.845 107.666  1.00  0.00    -0.295 OA
ATOM     11  C   UNL     1      35.125  10.278 108.125  1.00  0.00     0.084 C 
ENDROOT
TORSDOF 0
ENDMDL
MODEL 7
REMARK VINA RESULT:    -3.843      5.315      7.915
REMARK INTER + INTRA:          -3.843
REMARK INTER:                  -3.843
REMARK INTRA:                   0.000
REMARK UNBOUND:                 0.000
REMARK SMILES CC(C)=C1CC[C@H](C)CC1=O
REMARK SMILES IDX 8 1 7 2 6 3 5 4 4 5 2 6 1 7 3 8 10 9 11 10 9 11
REMARK H PARENT
REMARK Flexibility Score: inf
ROOT
ATOM      1  C   UNL     1      34.757  12.192 105.900  1.00  0.00     0.008 C 
ATOM      2  C   UNL     1      36.258  12.467 105.753  1.00  0.00    -0.006 C 
ATOM      3  C   UNL     1      37.039  11.845 106.921  1.00  0.00     0.008 C 
ATOM      4  C   UNL     1      38.531  12.197 106.845  1.00  0.00     0.039 C 
ATOM      5  C   UNL     1      39.142  11.862 105.491  1.00  0.00    -0.006 C 
ATOM      6  C   UNL     1      40.448  11.481 105.375  1.00  0.00    -0.070 C 
ATOM      7  C   UNL     1      41.050  11.092 104.045  1.00  0.00     0.039 C 
ATOM      8  C   UNL     1      41.348  11.393 106.588  1.00  0.00     0.039 C 
ATOM      9  C   UNL     1      38.265  12.089 104.303  1.00  0.00     0.159 C 
ATOM     10  O   UNL     1      38.746  12.436 103.191  1.00  0.00    -0.295 OA
ATOM     11  C   UNL     1      36.779  11.909 104.419  1.00  0.00     0.084 C 
ENDROOT
TORSDOF 0
ENDMDL
MODEL 8
REMARK VINA RESULT:    -3.753      5.182      6.938
REMARK INTER + INTRA:          -3.753
REMARK INTER:                  -3.753
REMARK INTRA:                   0.000
REMARK UNBOUND:                 0.000
REMARK SMILES CC(C)=C1CC[C@H](C)CC1=O
REMARK SMILES IDX 8 1 7 2 6 3 5 4 4 5 2 6 1 7 3 8 10 9 11 10 9 11
REMARK H PARENT
REMARK Flexibility Score: inf
ROOT
ATOM      1  C   UNL     1      33.691  13.167 104.753  1.00  0.00     0.008 C 
ATOM      2  C   UNL     1      34.999  12.379 104.894  1.00  0.00    -0.006 C 
ATOM      3  C   UNL     1      35.946  12.689 103.724  1.00  0.00     0.008 C 
ATOM      4  C   UNL     1      37.218  11.834 103.794  1.00  0.00     0.039 C 
ATOM      5  C   UNL     1      37.911  11.926 105.147  1.00  0.00    -0.006 C 
ATOM      6  C   UNL     1      39.268  11.821 105.259  1.00  0.00    -0.070 C 
ATOM      7  C   UNL     1      39.971  11.969 106.588  1.00  0.00     0.039 C 
ATOM      8  C   UNL     1      40.138  11.590 104.044  1.00  0.00     0.039 C 
ATOM      9  C   UNL     1      37.014  12.020 106.337  1.00  0.00     0.159 C 
ATOM     10  O   UNL     1      37.344  11.521 107.447  1.00  0.00    -0.295 OA
ATOM     11  C   UNL     1      35.687  12.713 106.227  1.00  0.00     0.084 C 
ENDROOT
TORSDOF 0
ENDMDL
MODEL 9
REMARK VINA RESULT:    -3.730      1.699      2.787
REMARK INTER + INTRA:          -3.730
REMARK INTER:                  -3.730
REMARK INTRA:                   0.000
REMARK UNBOUND:                 0.000
REMARK SMILES CC(C)=C1CC[C@H](C)CC1=O
REMARK SMILES IDX 8 1 7 2 6 3 5 4 4 5 2 6 1 7 3 8 10 9 11 10 9 11
REMARK H PARENT
REMARK Flexibility Score: inf
ROOT
ATOM      1  C   UNL     1      35.133  12.192 105.353  1.00  0.00     0.008 C 
ATOM      2  C   UNL     1      34.671  10.761 105.651  1.00  0.00    -0.006 C 
ATOM      3  C   UNL     1      35.092  10.340 107.067  1.00  0.00     0.008 C 
ATOM      4  C   UNL     1      34.727   8.876 107.346  1.00  0.00     0.039 C 
ATOM      5  C   UNL     1      33.263   8.573 107.057  1.00  0.00    -0.006 C 
ATOM      6  C   UNL     1      32.577   7.634 107.774  1.00  0.00    -0.070 C 
ATOM      7  C   UNL     1      31.110   7.365 107.534  1.00  0.00     0.039 C 
ATOM      8  C   UNL     1      33.249   6.843 108.874  1.00  0.00     0.039 C 
ATOM      9  C   UNL     1      32.670   9.273 105.879  1.00  0.00     0.159 C 
ATOM     10  O   UNL     1      31.769   8.734 105.182  1.00  0.00    -0.295 OA
ATOM     11  C   UNL     1      33.146  10.646 105.501  1.00  0.00     0.084 C 
ENDROOT
TORSDOF 0
ENDMDL
