MODEL 1
REMARK VINA RESULT:    -4.156      0.000      0.000
REMARK INTER + INTRA:          -4.523
REMARK INTER:                  -4.399
REMARK INTRA:                  -0.124
REMARK UNBOUND:                -0.124
REMARK SMILES C=C(C)[C@@H]1CC=C(C)CC1
REMARK SMILES IDX 8 1 7 2 6 3 5 4 4 5 10 6 9 7 2 8 1 9 3 10
REMARK H PARENT
REMARK Flexibility Score: inf
ROOT
ATOM      1  C   UNL     1      -0.373  12.220  18.965  1.00  0.00     0.039 C 
ATOM      2  C   UNL     1       0.058  13.514  18.330  1.00  0.00    -0.077 C 
ATOM      3  C   UNL     1       1.353  13.671  17.977  1.00  0.00    -0.027 C 
ATOM      4  C   UNL     1       1.872  14.908  17.286  1.00  0.00     0.035 C 
ATOM      5  C   UNL     1       0.970  16.131  17.529  1.00  0.00     0.018 C 
ATOM      6  C   UNL     1      -0.497  15.757  17.266  1.00  0.00     0.013 C 
ATOM      7  C   UNL     1      -0.943  14.649  18.229  1.00  0.00     0.031 C 
ENDROOT
BRANCH   5   8
ATOM      8  C   UNL     1       1.407  17.324  16.690  1.00  0.00    -0.077 C 
ATOM      9  C   UNL     1       1.086  17.420  15.388  1.00  0.00     0.008 C 
ATOM     10  C   UNL     1       2.212  18.433  17.316  1.00  0.00     0.039 C 
ENDBRANCH   5   8
TORSDOF 1
ENDMDL
MODEL 2
REMARK VINA RESULT:    -4.096      2.599      3.401
REMARK INTER + INTRA:          -4.459
REMARK INTER:                  -4.337
REMARK INTRA:                  -0.122
REMARK UNBOUND:                -0.124
REMARK SMILES C=C(C)[C@@H]1CC=C(C)CC1
REMARK SMILES IDX 8 1 7 2 6 3 5 4 4 5 10 6 9 7 2 8 1 9 3 10
REMARK H PARENT
REMARK Flexibility Score: inf
ROOT
ATOM      1  C   UNL     1       0.027  12.759  18.686  1.00  0.00     0.039 C 
ATOM      2  C   UNL     1       0.771  13.201  17.455  1.00  0.00    -0.077 C 
ATOM      3  C   UNL     1       0.799  12.387  16.378  1.00  0.00    -0.027 C 
ATOM      4  C   UNL     1       1.472  12.762  15.081  1.00  0.00     0.035 C 
ATOM      5  C   UNL     1       2.550  13.843  15.277  1.00  0.00     0.018 C 
ATOM      6  C   UNL     1       1.985  14.996  16.122  1.00  0.00     0.013 C 
ATOM      7  C   UNL     1       1.577  14.485  17.509  1.00  0.00     0.031 C 
ENDROOT
BRANCH   5   8
ATOM      8  C   UNL     1       3.096  14.337  13.944  1.00  0.00    -0.077 C 
ATOM      9  C   UNL     1       4.195  13.792  13.392  1.00  0.00     0.008 C 
ATOM     10  C   UNL     1       2.401  15.456  13.211  1.00  0.00     0.039 C 
ENDBRANCH   5   8
TORSDOF 1
ENDMDL
MODEL 3
REMARK VINA RESULT:    -4.094      1.479      4.408
REMARK INTER + INTRA:          -4.457
REMARK INTER:                  -4.330
REMARK INTRA:                  -0.127
REMARK UNBOUND:                -0.124
REMARK SMILES C=C(C)[C@@H]1CC=C(C)CC1
REMARK SMILES IDX 8 1 7 2 6 3 5 4 4 5 10 6 9 7 2 8 1 9 3 10
REMARK H PARENT
REMARK Flexibility Score: inf
ROOT
ATOM      1  C   UNL     1       2.180  18.949  17.197  1.00  0.00     0.039 C 
ATOM      2  C   UNL     1       1.812  17.506  16.979  1.00  0.00    -0.077 C 
ATOM      3  C   UNL     1       2.161  16.593  17.911  1.00  0.00    -0.027 C 
ATOM      4  C   UNL     1       1.792  15.134  17.810  1.00  0.00     0.035 C 
ATOM      5  C   UNL     1       1.503  14.706  16.361  1.00  0.00     0.018 C 
ATOM      6  C   UNL     1       0.543  15.709  15.703  1.00  0.00     0.013 C 
ATOM      7  C   UNL     1       1.179  17.103  15.661  1.00  0.00     0.031 C 
ENDROOT
BRANCH   5   8
ATOM      8  C   UNL     1       0.965  13.283  16.293  1.00  0.00    -0.077 C 
ATOM      9  C   UNL     1       0.202  12.774  17.277  1.00  0.00     0.008 C 
ATOM     10  C   UNL     1       1.279  12.412  15.104  1.00  0.00     0.039 C 
ENDBRANCH   5   8
TORSDOF 1
ENDMDL
MODEL 4
REMARK VINA RESULT:    -4.069      2.411      4.641
REMARK INTER + INTRA:          -4.431
REMARK INTER:                  -4.307
REMARK INTRA:                  -0.124
REMARK UNBOUND:                -0.124
REMARK SMILES C=C(C)[C@@H]1CC=C(C)CC1
REMARK SMILES IDX 8 1 7 2 6 3 5 4 4 5 10 6 9 7 2 8 1 9 3 10
REMARK H PARENT
REMARK Flexibility Score: inf
ROOT
ATOM      1  C   UNL     1       3.256  13.487  13.309  1.00  0.00     0.039 C 
ATOM      2  C   UNL     1       2.349  13.413  14.507  1.00  0.00    -0.077 C 
ATOM      3  C   UNL     1       2.579  14.234  15.555  1.00  0.00    -0.027 C 
ATOM      4  C   UNL     1       1.696  14.273  16.777  1.00  0.00     0.035 C 
ATOM      5  C   UNL     1       0.899  12.969  16.961  1.00  0.00     0.018 C 
ATOM      6  C   UNL     1       0.227  12.579  15.635  1.00  0.00     0.013 C 
ATOM      7  C   UNL     1       1.288  12.330  14.556  1.00  0.00     0.031 C 
ENDROOT
BRANCH   5   8
ATOM      8  C   UNL     1      -0.114  13.087  18.093  1.00  0.00    -0.077 C 
ATOM      9  C   UNL     1      -0.297  12.090  18.976  1.00  0.00     0.008 C 
ATOM     10  C   UNL     1      -0.933  14.343  18.245  1.00  0.00     0.039 C 
ENDBRANCH   5   8
TORSDOF 1
ENDMDL
MODEL 5
REMARK VINA RESULT:    -4.007      2.625      3.508
REMARK INTER + INTRA:          -4.365
REMARK INTER:                  -4.241
REMARK INTRA:                  -0.125
REMARK UNBOUND:                -0.124
REMARK SMILES C=C(C)[C@@H]1CC=C(C)CC1
REMARK SMILES IDX 8 1 7 2 6 3 5 4 4 5 10 6 9 7 2 8 1 9 3 10
REMARK H PARENT
REMARK Flexibility Score: inf
ROOT
ATOM      1  C   UNL     1      -1.125  12.816  19.990  1.00  0.00     0.039 C 
ATOM      2  C   UNL     1      -0.398  12.941  18.679  1.00  0.00    -0.077 C 
ATOM      3  C   UNL     1      -1.041  12.609  17.539  1.00  0.00    -0.027 C 
ATOM      4  C   UNL     1      -0.417  12.750  16.172  1.00  0.00     0.035 C 
ATOM      5  C   UNL     1       1.120  12.759  16.233  1.00  0.00     0.018 C 
ATOM      6  C   UNL     1       1.594  13.743  17.314  1.00  0.00     0.013 C 
ATOM      7  C   UNL     1       1.074  13.309  18.690  1.00  0.00     0.031 C 
ENDROOT
BRANCH   5   8
ATOM      8  C   UNL     1       1.733  13.076  14.875  1.00  0.00    -0.077 C 
ATOM      9  C   UNL     1       1.573  12.252  13.824  1.00  0.00     0.008 C 
ATOM     10  C   UNL     1       2.534  14.338  14.685  1.00  0.00     0.039 C 
ENDBRANCH   5   8
TORSDOF 1
ENDMDL
MODEL 6
REMARK VINA RESULT:    -3.909      0.753      1.648
REMARK INTER + INTRA:          -4.262
REMARK INTER:                  -4.136
REMARK INTRA:                  -0.126
REMARK UNBOUND:                -0.124
REMARK SMILES C=C(C)[C@@H]1CC=C(C)CC1
REMARK SMILES IDX 8 1 7 2 6 3 5 4 4 5 10 6 9 7 2 8 1 9 3 10
REMARK H PARENT
REMARK Flexibility Score: inf
ROOT
ATOM      1  C   UNL     1       0.122  12.394  18.731  1.00  0.00     0.039 C 
ATOM      2  C   UNL     1       0.384  13.737  18.105  1.00  0.00    -0.077 C 
ATOM      3  C   UNL     1      -0.602  14.337  17.403  1.00  0.00    -0.027 C 
ATOM      4  C   UNL     1      -0.456  15.705  16.784  1.00  0.00     0.035 C 
ATOM      5  C   UNL     1       1.017  16.082  16.548  1.00  0.00     0.018 C 
ATOM      6  C   UNL     1       1.836  15.807  17.819  1.00  0.00     0.013 C 
ATOM      7  C   UNL     1       1.785  14.315  18.170  1.00  0.00     0.031 C 
ENDROOT
BRANCH   5   8
ATOM      8  C   UNL     1       1.159  17.527  16.088  1.00  0.00    -0.077 C 
ATOM      9  C   UNL     1       0.550  17.971  14.975  1.00  0.00     0.008 C 
ATOM     10  C   UNL     1       1.991  18.496  16.889  1.00  0.00     0.039 C 
ENDBRANCH   5   8
TORSDOF 1
ENDMDL
MODEL 7
REMARK VINA RESULT:    -3.859      1.294      4.449
REMARK INTER + INTRA:          -4.209
REMARK INTER:                  -4.081
REMARK INTRA:                  -0.128
REMARK UNBOUND:                -0.124
REMARK SMILES C=C(C)[C@@H]1CC=C(C)CC1
REMARK SMILES IDX 8 1 7 2 6 3 5 4 4 5 10 6 9 7 2 8 1 9 3 10
REMARK H PARENT
REMARK Flexibility Score: inf
ROOT
ATOM      1  C   UNL     1       2.230  18.683  17.160  1.00  0.00     0.039 C 
ATOM      2  C   UNL     1       1.746  17.259  17.102  1.00  0.00    -0.077 C 
ATOM      3  C   UNL     1       0.801  16.925  16.196  1.00  0.00    -0.027 C 
ATOM      4  C   UNL     1       0.291  15.516  16.024  1.00  0.00     0.035 C 
ATOM      5  C   UNL     1       0.510  14.659  17.283  1.00  0.00     0.018 C 
ATOM      6  C   UNL     1       1.958  14.815  17.774  1.00  0.00     0.013 C 
ATOM      7  C   UNL     1       2.237  16.276  18.147  1.00  0.00     0.031 C 
ENDROOT
BRANCH   5   8
ATOM      8  C   UNL     1       0.152  13.200  17.037  1.00  0.00    -0.077 C 
ATOM      9  C   UNL     1       0.315  12.631  15.830  1.00  0.00     0.008 C 
ATOM     10  C   UNL     1      -0.395  12.357  18.161  1.00  0.00     0.039 C 
ENDBRANCH   5   8
TORSDOF 1
ENDMDL
MODEL 8
REMARK VINA RESULT:    -3.848      2.785      3.591
REMARK INTER + INTRA:          -4.197
REMARK INTER:                  -4.071
REMARK INTRA:                  -0.126
REMARK UNBOUND:                -0.124
REMARK SMILES C=C(C)[C@@H]1CC=C(C)CC1
REMARK SMILES IDX 8 1 7 2 6 3 5 4 4 5 10 6 9 7 2 8 1 9 3 10
REMARK H PARENT
REMARK Flexibility Score: inf
ROOT
ATOM      1  C   UNL     1       1.127  10.838  13.753  1.00  0.00     0.039 C 
ATOM      2  C   UNL     1       1.251  12.133  14.509  1.00  0.00    -0.077 C 
ATOM      3  C   UNL     1       0.377  12.398  15.504  1.00  0.00    -0.027 C 
ATOM      4  C   UNL     1       0.451  13.642  16.354  1.00  0.00     0.035 C 
ATOM      5  C   UNL     1       1.211  14.781  15.652  1.00  0.00     0.018 C 
ATOM      6  C   UNL     1       2.537  14.251  15.084  1.00  0.00     0.013 C 
ATOM      7  C   UNL     1       2.269  13.158  14.043  1.00  0.00     0.031 C 
ENDROOT
BRANCH   5   8
ATOM      8  C   UNL     1       1.430  15.966  16.584  1.00  0.00    -0.077 C 
ATOM      9  C   UNL     1       1.859  15.794  17.846  1.00  0.00     0.008 C 
ATOM     10  C   UNL     1       1.170  17.368  16.096  1.00  0.00     0.039 C 
ENDBRANCH   5   8
TORSDOF 1
ENDMDL
MODEL 9
REMARK VINA RESULT:    -3.785      2.740      3.267
REMARK INTER + INTRA:          -4.131
REMARK INTER:                  -4.007
REMARK INTRA:                  -0.123
REMARK UNBOUND:                -0.124
REMARK SMILES C=C(C)[C@@H]1CC=C(C)CC1
REMARK SMILES IDX 8 1 7 2 6 3 5 4 4 5 10 6 9 7 2 8 1 9 3 10
REMARK H PARENT
REMARK Flexibility Score: inf
ROOT
ATOM      1  C   UNL     1       1.190  10.933  13.842  1.00  0.00     0.039 C 
ATOM      2  C   UNL     1       1.226  12.281  14.509  1.00  0.00    -0.077 C 
ATOM      3  C   UNL     1       2.195  13.156  14.166  1.00  0.00    -0.027 C 
ATOM      4  C   UNL     1       2.284  14.550  14.737  1.00  0.00     0.035 C 
ATOM      5  C   UNL     1       1.559  14.671  16.089  1.00  0.00     0.018 C 
ATOM      6  C   UNL     1       0.155  14.056  15.984  1.00  0.00     0.013 C 
ATOM      7  C   UNL     1       0.255  12.565  15.640  1.00  0.00     0.031 C 
ENDROOT
BRANCH   5   8
ATOM      8  C   UNL     1       1.507  16.116  16.568  1.00  0.00    -0.077 C 
ATOM      9  C   UNL     1       1.871  16.454  17.817  1.00  0.00     0.008 C 
ATOM     10  C   UNL     1       1.044  17.205  15.634  1.00  0.00     0.039 C 
ENDBRANCH   5   8
TORSDOF 1
ENDMDL
