MODEL 1
REMARK VINA RESULT:    -3.755      0.000      0.000
REMARK INTER + INTRA:          -8.826
REMARK INTER:                  -7.266
REMARK INTRA:                  -1.560
REMARK UNBOUND:                -1.560
REMARK SMILES CCCCCCCCCCCCCCCCCC(=O)[O-]
REMARK SMILES IDX 10 1 11 2 12 3 13 4 14 5 15 6 16 7 17 8 18 9 19 10 20 11
REMARK SMILES IDX 9 12 8 13 7 14 6 15 5 16 4 17 3 18 2 19 1 20
REMARK H PARENT
REMARK Flexibility Score: inf
ROOT
ATOM      1  C   UNL     1       2.024  14.673  18.000  1.00  0.00     0.000 C 
ENDROOT
BRANCH   1   2
ATOM      2  C   UNL     1       2.749  13.760  19.002  1.00  0.00     0.000 C 
BRANCH   2   3
ATOM      3  C   UNL     1       2.738  12.282  18.576  1.00  0.00     0.000 C 
BRANCH   3   4
ATOM      4  C   UNL     1       4.103  11.603  18.777  1.00  0.00     0.000 C 
BRANCH   4   5
ATOM      5  C   UNL     1       5.277  12.585  18.626  1.00  0.00     0.000 C 
BRANCH   5   6
ATOM      6  C   UNL     1       5.901  12.552  17.222  1.00  0.00     0.000 C 
BRANCH   6   7
ATOM      7  C   UNL     1       4.974  13.140  16.147  1.00  0.00     0.006 C 
BRANCH   7   8
ATOM      8  C   UNL     1       4.631  12.090  15.085  1.00  0.00     0.053 C 
BRANCH   8   9
ATOM      9  C   UNL     1       3.463  12.537  14.263  1.00  0.00     0.041 C 
ATOM     10  O   UNL     1       2.782  13.533  14.621  1.00  0.00    -0.550 OA
ATOM     11  O   UNL     1       3.157  11.884  13.077  1.00  0.00    -0.550 OA
ENDBRANCH   8   9
ENDBRANCH   7   8
ENDBRANCH   6   7
ENDBRANCH   5   6
ENDBRANCH   4   5
ENDBRANCH   3   4
ENDBRANCH   2   3
ENDBRANCH   1   2
BRANCH   1  12
ATOM     12  C   UNL     1       1.339  15.873  18.677  1.00  0.00     0.000 C 
BRANCH  12  13
ATOM     13  C   UNL     1       0.028  16.272  17.978  1.00  0.00    -0.000 C 
BRANCH  13  14
ATOM     14  C   UNL     1      -1.209  16.002  18.852  1.00  0.00    -0.000 C 
BRANCH  14  15
ATOM     15  C   UNL     1      -2.013  17.278  19.151  1.00  0.00    -0.000 C 
BRANCH  15  16
ATOM     16  C   UNL     1      -1.745  17.831  20.559  1.00  0.00    -0.000 C 
BRANCH  16  17
ATOM     17  C   UNL     1      -1.543  19.352  20.520  1.00  0.00    -0.000 C 
BRANCH  17  18
ATOM     18  C   UNL     1      -1.003  19.801  19.157  1.00  0.00    -0.000 C 
BRANCH  18  19
ATOM     19  C   UNL     1       0.520  19.961  19.194  1.00  0.00    -0.003 C 
ATOM     20  C   UNL     1       1.119  19.872  17.794  1.00  0.00     0.004 C 
ENDBRANCH  18  19
ENDBRANCH  17  18
ENDBRANCH  16  17
ENDBRANCH  15  16
ENDBRANCH  14  15
ENDBRANCH  13  14
ENDBRANCH  12  13
ENDBRANCH   1  12
TORSDOF 16
ENDMDL
MODEL 2
REMARK VINA RESULT:    -3.681      2.794      8.061
REMARK INTER + INTRA:          -8.684
REMARK INTER:                  -7.297
REMARK INTRA:                  -1.387
REMARK UNBOUND:                -1.560
REMARK SMILES CCCCCCCCCCCCCCCCCC(=O)[O-]
REMARK SMILES IDX 10 1 11 2 12 3 13 4 14 5 15 6 16 7 17 8 18 9 19 10 20 11
REMARK SMILES IDX 9 12 8 13 7 14 6 15 5 16 4 17 3 18 2 19 1 20
REMARK H PARENT
REMARK Flexibility Score: inf
ROOT
ATOM      1  C   UNL     1       2.390  13.929  19.080  1.00  0.00     0.000 C 
ENDROOT
BRANCH   1   2
ATOM      2  C   UNL     1       2.075  14.780  17.839  1.00  0.00     0.000 C 
BRANCH   2   3
ATOM      3  C   UNL     1       0.886  15.731  18.057  1.00  0.00     0.000 C 
BRANCH   3   4
ATOM      4  C   UNL     1       1.332  17.149  18.455  1.00  0.00     0.000 C 
BRANCH   4   5
ATOM      5  C   UNL     1       0.185  18.171  18.374  1.00  0.00     0.000 C 
BRANCH   5   6
ATOM      6  C   UNL     1      -0.026  18.929  19.693  1.00  0.00     0.000 C 
BRANCH   6   7
ATOM      7  C   UNL     1      -1.416  18.687  20.301  1.00  0.00     0.006 C 
BRANCH   7   8
ATOM      8  C   UNL     1      -2.125  17.522  19.602  1.00  0.00     0.053 C 
BRANCH   8   9
ATOM      9  C   UNL     1      -2.098  16.299  20.462  1.00  0.00     0.041 C 
ATOM     10  O   UNL     1      -2.110  16.407  21.717  1.00  0.00    -0.550 OA
ATOM     11  O   UNL     1      -2.109  15.038  19.880  1.00  0.00    -0.550 OA
ENDBRANCH   8   9
ENDBRANCH   7   8
ENDBRANCH   6   7
ENDBRANCH   5   6
ENDBRANCH   4   5
ENDBRANCH   3   4
ENDBRANCH   2   3
ENDBRANCH   1   2
BRANCH   1  12
ATOM     12  C   UNL     1       2.884  12.516  18.721  1.00  0.00     0.000 C 
BRANCH  12  13
ATOM     13  C   UNL     1       4.209  12.164  19.417  1.00  0.00    -0.000 C 
BRANCH  13  14
ATOM     14  C   UNL     1       5.428  12.386  18.504  1.00  0.00    -0.000 C 
BRANCH  14  15
ATOM     15  C   UNL     1       5.108  12.148  17.020  1.00  0.00    -0.000 C 
BRANCH  15  16
ATOM     16  C   UNL     1       5.961  13.015  16.082  1.00  0.00    -0.000 C 
BRANCH  16  17
ATOM     17  C   UNL     1       5.349  13.064  14.675  1.00  0.00    -0.000 C 
BRANCH  17  18
ATOM     18  C   UNL     1       4.359  11.912  14.465  1.00  0.00    -0.000 C 
BRANCH  18  19
ATOM     19  C   UNL     1       3.029  12.426  13.904  1.00  0.00    -0.003 C 
ATOM     20  C   UNL     1       2.525  13.629  14.694  1.00  0.00     0.004 C 
ENDBRANCH  18  19
ENDBRANCH  17  18
ENDBRANCH  16  17
ENDBRANCH  15  16
ENDBRANCH  14  15
ENDBRANCH  13  14
ENDBRANCH  12  13
ENDBRANCH   1  12
TORSDOF 16
ENDMDL
MODEL 3
REMARK VINA RESULT:    -3.472      0.859      1.352
REMARK INTER + INTRA:          -8.280
REMARK INTER:                  -7.078
REMARK INTRA:                  -1.202
REMARK UNBOUND:                -1.560
REMARK SMILES CCCCCCCCCCCCCCCCCC(=O)[O-]
REMARK SMILES IDX 10 1 11 2 12 3 13 4 14 5 15 6 16 7 17 8 18 9 19 10 20 11
REMARK SMILES IDX 9 12 8 13 7 14 6 15 5 16 4 17 3 18 2 19 1 20
REMARK H PARENT
REMARK Flexibility Score: inf
ROOT
ATOM      1  C   UNL     1       2.460  13.933  18.877  1.00  0.00     0.000 C 
ENDROOT
BRANCH   1   2
ATOM      2  C   UNL     1       2.954  12.690  18.120  1.00  0.00     0.000 C 
BRANCH   2   3
ATOM      3  C   UNL     1       3.834  11.775  18.989  1.00  0.00     0.000 C 
BRANCH   3   4
ATOM      4  C   UNL     1       5.156  12.446  19.398  1.00  0.00     0.000 C 
BRANCH   4   5
ATOM      5  C   UNL     1       6.233  12.341  18.304  1.00  0.00     0.000 C 
BRANCH   5   6
ATOM      6  C   UNL     1       5.916  13.210  17.077  1.00  0.00     0.000 C 
BRANCH   6   7
ATOM      7  C   UNL     1       6.376  12.565  15.759  1.00  0.00     0.006 C 
BRANCH   7   8
ATOM      8  C   UNL     1       5.672  13.208  14.560  1.00  0.00     0.053 C 
BRANCH   8   9
ATOM      9  C   UNL     1       4.311  12.616  14.371  1.00  0.00     0.041 C 
ATOM     10  O   UNL     1       4.187  11.445  13.925  1.00  0.00    -0.550 OA
ATOM     11  O   UNL     1       3.182  13.339  14.732  1.00  0.00    -0.550 OA
ENDBRANCH   8   9
ENDBRANCH   7   8
ENDBRANCH   6   7
ENDBRANCH   5   6
ENDBRANCH   4   5
ENDBRANCH   3   4
ENDBRANCH   2   3
ENDBRANCH   1   2
BRANCH   1  12
ATOM     12  C   UNL     1       1.977  15.049  17.935  1.00  0.00     0.000 C 
BRANCH  12  13
ATOM     13  C   UNL     1       1.103  16.089  18.658  1.00  0.00    -0.000 C 
BRANCH  13  14
ATOM     14  C   UNL     1      -0.303  16.204  18.041  1.00  0.00    -0.000 C 
BRANCH  14  15
ATOM     15  C   UNL     1      -1.396  16.431  19.098  1.00  0.00    -0.000 C 
BRANCH  15  16
ATOM     16  C   UNL     1      -1.109  17.643  19.997  1.00  0.00    -0.000 C 
BRANCH  16  17
ATOM     17  C   UNL     1      -1.349  18.956  19.239  1.00  0.00    -0.000 C 
BRANCH  17  18
ATOM     18  C   UNL     1      -0.284  20.000  19.595  1.00  0.00    -0.000 C 
BRANCH  18  19
ATOM     19  C   UNL     1       0.959  19.841  18.714  1.00  0.00    -0.003 C 
ATOM     20  C   UNL     1       0.606  19.965  17.235  1.00  0.00     0.004 C 
ENDBRANCH  18  19
ENDBRANCH  17  18
ENDBRANCH  16  17
ENDBRANCH  15  16
ENDBRANCH  14  15
ENDBRANCH  13  14
ENDBRANCH  12  13
ENDBRANCH   1  12
TORSDOF 16
ENDMDL
MODEL 4
REMARK VINA RESULT:    -3.452      1.591      2.902
REMARK INTER + INTRA:          -8.240
REMARK INTER:                  -6.982
REMARK INTRA:                  -1.257
REMARK UNBOUND:                -1.560
REMARK SMILES CCCCCCCCCCCCCCCCCC(=O)[O-]
REMARK SMILES IDX 10 1 11 2 12 3 13 4 14 5 15 6 16 7 17 8 18 9 19 10 20 11
REMARK SMILES IDX 9 12 8 13 7 14 6 15 5 16 4 17 3 18 2 19 1 20
REMARK H PARENT
REMARK Flexibility Score: inf
ROOT
ATOM      1  C   UNL     1       2.038  14.849  17.989  1.00  0.00     0.000 C 
ENDROOT
BRANCH   1   2
ATOM      2  C   UNL     1       2.250  14.008  19.257  1.00  0.00     0.000 C 
BRANCH   2   3
ATOM      3  C   UNL     1       3.427  13.027  19.131  1.00  0.00     0.000 C 
BRANCH   3   4
ATOM      4  C   UNL     1       2.999  11.664  18.559  1.00  0.00     0.000 C 
BRANCH   4   5
ATOM      5  C   UNL     1       3.372  11.505  17.076  1.00  0.00     0.000 C 
BRANCH   5   6
ATOM      6  C   UNL     1       4.567  12.380  16.668  1.00  0.00     0.000 C 
BRANCH   6   7
ATOM      7  C   UNL     1       4.236  13.335  15.511  1.00  0.00     0.006 C 
BRANCH   7   8
ATOM      8  C   UNL     1       4.701  12.755  14.171  1.00  0.00     0.053 C 
BRANCH   8   9
ATOM      9  C   UNL     1       3.589  12.003  13.511  1.00  0.00     0.041 C 
ATOM     10  O   UNL     1       2.391  12.264  13.797  1.00  0.00    -0.550 OA
ATOM     11  O   UNL     1       3.873  11.048  12.544  1.00  0.00    -0.550 OA
ENDBRANCH   8   9
ENDBRANCH   7   8
ENDBRANCH   6   7
ENDBRANCH   5   6
ENDBRANCH   4   5
ENDBRANCH   3   4
ENDBRANCH   2   3
ENDBRANCH   1   2
BRANCH   1  12
ATOM     12  C   UNL     1       0.759  15.704  18.049  1.00  0.00     0.000 C 
BRANCH  12  13
ATOM     13  C   UNL     1       1.055  17.181  18.361  1.00  0.00    -0.000 C 
BRANCH  13  14
ATOM     14  C   UNL     1      -0.225  18.030  18.451  1.00  0.00    -0.000 C 
BRANCH  14  15
ATOM     15  C   UNL     1      -0.376  18.731  19.811  1.00  0.00    -0.000 C 
BRANCH  15  16
ATOM     16  C   UNL     1      -1.596  18.236  20.602  1.00  0.00    -0.000 C 
BRANCH  16  17
ATOM     17  C   UNL     1      -1.991  16.818  20.168  1.00  0.00    -0.000 C 
BRANCH  17  18
ATOM     18  C   UNL     1      -2.125  15.888  21.380  1.00  0.00    -0.000 C 
BRANCH  18  19
ATOM     19  C   UNL     1      -2.122  14.418  20.948  1.00  0.00    -0.003 C 
ATOM     20  C   UNL     1      -1.653  13.511  22.081  1.00  0.00     0.004 C 
ENDBRANCH  18  19
ENDBRANCH  17  18
ENDBRANCH  16  17
ENDBRANCH  15  16
ENDBRANCH  14  15
ENDBRANCH  13  14
ENDBRANCH  12  13
ENDBRANCH   1  12
TORSDOF 16
ENDMDL
MODEL 5
REMARK VINA RESULT:    -3.437      2.784      8.014
REMARK INTER + INTRA:          -8.212
REMARK INTER:                  -6.454
REMARK INTRA:                  -1.758
REMARK UNBOUND:                -1.560
REMARK SMILES CCCCCCCCCCCCCCCCCC(=O)[O-]
REMARK SMILES IDX 10 1 11 2 12 3 13 4 14 5 15 6 16 7 17 8 18 9 19 10 20 11
REMARK SMILES IDX 9 12 8 13 7 14 6 15 5 16 4 17 3 18 2 19 1 20
REMARK H PARENT
REMARK Flexibility Score: inf
ROOT
ATOM      1  C   UNL     1       2.757  14.577  16.814  1.00  0.00     0.000 C 
ENDROOT
BRANCH   1   2
ATOM      2  C   UNL     1       1.831  14.803  18.020  1.00  0.00     0.000 C 
BRANCH   2   3
ATOM      3  C   UNL     1       0.806  15.924  17.782  1.00  0.00     0.000 C 
BRANCH   3   4
ATOM      4  C   UNL     1      -0.354  15.885  18.791  1.00  0.00     0.000 C 
BRANCH   4   5
ATOM      5  C   UNL     1      -1.616  16.590  18.265  1.00  0.00     0.000 C 
BRANCH   5   6
ATOM      6  C   UNL     1      -2.072  17.742  19.173  1.00  0.00     0.000 C 
BRANCH   6   7
ATOM      7  C   UNL     1      -0.916  18.356  19.979  1.00  0.00     0.006 C 
BRANCH   7   8
ATOM      8  C   UNL     1      -0.646  19.798  19.538  1.00  0.00     0.053 C 
BRANCH   8   9
ATOM      9  C   UNL     1       0.104  19.820  18.244  1.00  0.00     0.041 C 
ATOM     10  O   UNL     1      -0.487  20.122  17.175  1.00  0.00    -0.550 OA
ATOM     11  O   UNL     1       1.467  19.552  18.226  1.00  0.00    -0.550 OA
ENDBRANCH   8   9
ENDBRANCH   7   8
ENDBRANCH   6   7
ENDBRANCH   5   6
ENDBRANCH   4   5
ENDBRANCH   3   4
ENDBRANCH   2   3
ENDBRANCH   1   2
BRANCH   1  12
ATOM     12  C   UNL     1       2.021  13.978  15.603  1.00  0.00     0.000 C 
BRANCH  12  13
ATOM     13  C   UNL     1       2.962  13.721  14.414  1.00  0.00    -0.000 C 
BRANCH  13  14
ATOM     14  C   UNL     1       3.847  12.480  14.623  1.00  0.00    -0.000 C 
BRANCH  14  15
ATOM     15  C   UNL     1       5.345  12.823  14.668  1.00  0.00    -0.000 C 
BRANCH  15  16
ATOM     16  C   UNL     1       5.880  12.956  16.102  1.00  0.00    -0.000 C 
BRANCH  16  17
ATOM     17  C   UNL     1       5.115  12.032  17.059  1.00  0.00    -0.000 C 
BRANCH  17  18
ATOM     18  C   UNL     1       5.233  12.521  18.508  1.00  0.00    -0.000 C 
BRANCH  18  19
ATOM     19  C   UNL     1       4.234  11.797  19.416  1.00  0.00    -0.003 C 
ATOM     20  C   UNL     1       3.013  11.328  18.630  1.00  0.00     0.004 C 
ENDBRANCH  18  19
ENDBRANCH  17  18
ENDBRANCH  16  17
ENDBRANCH  15  16
ENDBRANCH  14  15
ENDBRANCH  13  14
ENDBRANCH  12  13
ENDBRANCH   1  12
TORSDOF 16
ENDMDL
MODEL 6
REMARK VINA RESULT:    -3.377      2.710      8.065
REMARK INTER + INTRA:          -8.095
REMARK INTER:                  -6.369
REMARK INTRA:                  -1.726
REMARK UNBOUND:                -1.560
REMARK SMILES CCCCCCCCCCCCCCCCCC(=O)[O-]
REMARK SMILES IDX 10 1 11 2 12 3 13 4 14 5 15 6 16 7 17 8 18 9 19 10 20 11
REMARK SMILES IDX 9 12 8 13 7 14 6 15 5 16 4 17 3 18 2 19 1 20
REMARK H PARENT
REMARK Flexibility Score: inf
ROOT
ATOM      1  C   UNL     1       2.199  14.488  17.532  1.00  0.00     0.000 C 
ENDROOT
BRANCH   1   2
ATOM      2  C   UNL     1       1.433  15.789  17.816  1.00  0.00     0.000 C 
BRANCH   2   3
ATOM      3  C   UNL     1       0.252  15.586  18.780  1.00  0.00     0.000 C 
BRANCH   3   4
ATOM      4  C   UNL     1      -1.016  16.326  18.322  1.00  0.00     0.000 C 
BRANCH   4   5
ATOM      5  C   UNL     1      -2.089  16.392  19.421  1.00  0.00     0.000 C 
BRANCH   5   6
ATOM      6  C   UNL     1      -1.772  17.444  20.496  1.00  0.00     0.000 C 
BRANCH   6   7
ATOM      7  C   UNL     1      -1.904  18.884  19.974  1.00  0.00     0.006 C 
BRANCH   7   8
ATOM      8  C   UNL     1      -0.553  19.607  20.014  1.00  0.00     0.053 C 
BRANCH   8   9
ATOM      9  C   UNL     1       0.066  19.639  18.653  1.00  0.00     0.041 C 
ATOM     10  O   UNL     1       1.260  19.277  18.492  1.00  0.00    -0.550 OA
ATOM     11  O   UNL     1      -0.691  20.022  17.553  1.00  0.00    -0.550 OA
ENDBRANCH   8   9
ENDBRANCH   7   8
ENDBRANCH   6   7
ENDBRANCH   5   6
ENDBRANCH   4   5
ENDBRANCH   3   4
ENDBRANCH   2   3
ENDBRANCH   1   2
BRANCH   1  12
ATOM     12  C   UNL     1       2.709  13.806  18.813  1.00  0.00     0.000 C 
BRANCH  12  13
ATOM     13  C   UNL     1       2.782  12.276  18.674  1.00  0.00    -0.000 C 
BRANCH  13  14
ATOM     14  C   UNL     1       4.140  11.709  19.126  1.00  0.00    -0.000 C 
BRANCH  14  15
ATOM     15  C   UNL     1       5.311  12.653  18.805  1.00  0.00    -0.000 C 
BRANCH  15  16
ATOM     16  C   UNL     1       5.969  12.344  17.452  1.00  0.00    -0.000 C 
BRANCH  16  17
ATOM     17  C   UNL     1       5.669  13.450  16.432  1.00  0.00    -0.000 C 
BRANCH  17  18
ATOM     18  C   UNL     1       5.624  12.887  15.006  1.00  0.00    -0.000 C 
BRANCH  18  19
ATOM     19  C   UNL     1       4.420  11.959  14.819  1.00  0.00    -0.003 C 
ATOM     20  C   UNL     1       3.186  12.739  14.375  1.00  0.00     0.004 C 
ENDBRANCH  18  19
ENDBRANCH  17  18
ENDBRANCH  16  17
ENDBRANCH  15  16
ENDBRANCH  14  15
ENDBRANCH  13  14
ENDBRANCH  12  13
ENDBRANCH   1  12
TORSDOF 16
ENDMDL
MODEL 7
REMARK VINA RESULT:    -3.315      2.817      7.956
REMARK INTER + INTRA:          -7.975
REMARK INTER:                  -6.360
REMARK INTRA:                  -1.616
REMARK UNBOUND:                -1.560
REMARK SMILES CCCCCCCCCCCCCCCCCC(=O)[O-]
REMARK SMILES IDX 10 1 11 2 12 3 13 4 14 5 15 6 16 7 17 8 18 9 19 10 20 11
REMARK SMILES IDX 9 12 8 13 7 14 6 15 5 16 4 17 3 18 2 19 1 20
REMARK H PARENT
REMARK Flexibility Score: inf
ROOT
ATOM      1  C   UNL     1       2.736  13.692  16.173  1.00  0.00     0.000 C 
ENDROOT
BRANCH   1   2
ATOM      2  C   UNL     1       1.943  14.932  16.615  1.00  0.00     0.000 C 
BRANCH   2   3
ATOM      3  C   UNL     1       1.781  15.022  18.142  1.00  0.00     0.000 C 
BRANCH   3   4
ATOM      4  C   UNL     1       1.020  16.285  18.580  1.00  0.00     0.000 C 
BRANCH   4   5
ATOM      5  C   UNL     1      -0.489  16.190  18.298  1.00  0.00     0.000 C 
BRANCH   5   6
ATOM      6  C   UNL     1      -1.261  17.425  18.787  1.00  0.00     0.000 C 
BRANCH   6   7
ATOM      7  C   UNL     1      -0.468  18.255  19.808  1.00  0.00     0.006 C 
BRANCH   7   8
ATOM      8  C   UNL     1      -0.432  19.733  19.404  1.00  0.00     0.053 C 
BRANCH   8   9
ATOM      9  C   UNL     1       0.220  19.896  18.067  1.00  0.00     0.041 C 
ATOM     10  O   UNL     1       1.468  19.782  17.953  1.00  0.00    -0.550 OA
ATOM     11  O   UNL     1      -0.557  20.125  16.939  1.00  0.00    -0.550 OA
ENDBRANCH   8   9
ENDBRANCH   7   8
ENDBRANCH   6   7
ENDBRANCH   5   6
ENDBRANCH   4   5
ENDBRANCH   3   4
ENDBRANCH   2   3
ENDBRANCH   1   2
BRANCH   1  12
ATOM     12  C   UNL     1       2.949  13.634  14.650  1.00  0.00     0.000 C 
BRANCH  12  13
ATOM     13  C   UNL     1       3.989  12.577  14.243  1.00  0.00    -0.000 C 
BRANCH  13  14
ATOM     14  C   UNL     1       4.823  12.084  15.439  1.00  0.00    -0.000 C 
BRANCH  14  15
ATOM     15  C   UNL     1       6.140  12.860  15.603  1.00  0.00    -0.000 C 
BRANCH  15  16
ATOM     16  C   UNL     1       6.374  13.335  17.044  1.00  0.00    -0.000 C 
BRANCH  16  17
ATOM     17  C   UNL     1       6.010  12.235  18.049  1.00  0.00    -0.000 C 
BRANCH  17  18
ATOM     18  C   UNL     1       4.861  12.681  18.962  1.00  0.00    -0.000 C 
BRANCH  18  19
ATOM     19  C   UNL     1       4.047  11.478  19.450  1.00  0.00    -0.003 C 
ATOM     20  C   UNL     1       2.870  11.194  18.521  1.00  0.00     0.004 C 
ENDBRANCH  18  19
ENDBRANCH  17  18
ENDBRANCH  16  17
ENDBRANCH  15  16
ENDBRANCH  14  15
ENDBRANCH  13  14
ENDBRANCH  12  13
ENDBRANCH   1  12
TORSDOF 16
ENDMDL
MODEL 8
REMARK VINA RESULT:    -3.270      3.179      7.902
REMARK INTER + INTRA:          -7.888
REMARK INTER:                  -6.520
REMARK INTRA:                  -1.367
REMARK UNBOUND:                -1.560
REMARK SMILES CCCCCCCCCCCCCCCCCC(=O)[O-]
REMARK SMILES IDX 10 1 11 2 12 3 13 4 14 5 15 6 16 7 17 8 18 9 19 10 20 11
REMARK SMILES IDX 9 12 8 13 7 14 6 15 5 16 4 17 3 18 2 19 1 20
REMARK H PARENT
REMARK Flexibility Score: inf
ROOT
ATOM      1  C   UNL     1       2.375  13.543  14.549  1.00  0.00     0.000 C 
ENDROOT
BRANCH   1   2
ATOM      2  C   UNL     1       1.997  14.487  15.701  1.00  0.00     0.000 C 
BRANCH   2   3
ATOM      3  C   UNL     1       2.783  14.196  16.991  1.00  0.00     0.000 C 
BRANCH   3   4
ATOM      4  C   UNL     1       2.076  14.739  18.245  1.00  0.00     0.000 C 
BRANCH   4   5
ATOM      5  C   UNL     1       0.954  15.733  17.903  1.00  0.00     0.000 C 
BRANCH   5   6
ATOM      6  C   UNL     1       1.087  17.061  18.665  1.00  0.00     0.000 C 
BRANCH   6   7
ATOM      7  C   UNL     1       0.048  18.104  18.225  1.00  0.00     0.006 C 
BRANCH   7   8
ATOM      8  C   UNL     1      -1.374  17.632  18.551  1.00  0.00     0.053 C 
BRANCH   8   9
ATOM      9  C   UNL     1      -1.597  17.621  20.030  1.00  0.00     0.041 C 
ATOM     10  O   UNL     1      -1.590  18.699  20.679  1.00  0.00    -0.550 OA
ATOM     11  O   UNL     1      -1.862  16.425  20.684  1.00  0.00    -0.550 OA
ENDBRANCH   8   9
ENDBRANCH   7   8
ENDBRANCH   6   7
ENDBRANCH   5   6
ENDBRANCH   4   5
ENDBRANCH   3   4
ENDBRANCH   2   3
ENDBRANCH   1   2
BRANCH   1  12
ATOM     12  C   UNL     1       3.218  12.343  15.015  1.00  0.00     0.000 C 
BRANCH  12  13
ATOM     13  C   UNL     1       4.586  12.280  14.315  1.00  0.00    -0.000 C 
BRANCH  13  14
ATOM     14  C   UNL     1       5.583  13.308  14.879  1.00  0.00    -0.000 C 
BRANCH  14  15
ATOM     15  C   UNL     1       6.728  12.652  15.667  1.00  0.00    -0.000 C 
BRANCH  15  16
ATOM     16  C   UNL     1       6.595  12.852  17.184  1.00  0.00    -0.000 C 
BRANCH  16  17
ATOM     17  C   UNL     1       5.258  12.296  17.694  1.00  0.00    -0.000 C 
BRANCH  17  18
ATOM     18  C   UNL     1       5.179  12.368  19.223  1.00  0.00    -0.000 C 
BRANCH  18  19
ATOM     19  C   UNL     1       4.017  11.521  19.754  1.00  0.00    -0.003 C 
ATOM     20  C   UNL     1       3.030  11.179  18.642  1.00  0.00     0.004 C 
ENDBRANCH  18  19
ENDBRANCH  17  18
ENDBRANCH  16  17
ENDBRANCH  15  16
ENDBRANCH  14  15
ENDBRANCH  13  14
ENDBRANCH  12  13
ENDBRANCH   1  12
TORSDOF 16
ENDMDL
MODEL 9
REMARK VINA RESULT:    -3.024      2.879      8.061
REMARK INTER + INTRA:          -7.413
REMARK INTER:                  -5.832
REMARK INTRA:                  -1.581
REMARK UNBOUND:                -1.560
REMARK SMILES CCCCCCCCCCCCCCCCCC(=O)[O-]
REMARK SMILES IDX 10 1 11 2 12 3 13 4 14 5 15 6 16 7 17 8 18 9 19 10 20 11
REMARK SMILES IDX 9 12 8 13 7 14 6 15 5 16 4 17 3 18 2 19 1 20
REMARK H PARENT
REMARK Flexibility Score: inf
ROOT
ATOM      1  C   UNL     1       2.808  12.796  18.303  1.00  0.00     0.000 C 
ENDROOT
BRANCH   1   2
ATOM      2  C   UNL     1       2.113  13.933  19.068  1.00  0.00     0.000 C 
BRANCH   2   3
ATOM      3  C   UNL     1       2.070  15.247  18.271  1.00  0.00     0.000 C 
BRANCH   3   4
ATOM      4  C   UNL     1       0.655  15.585  17.771  1.00  0.00     0.000 C 
BRANCH   4   5
ATOM      5  C   UNL     1      -0.297  15.971  18.916  1.00  0.00     0.000 C 
BRANCH   5   6
ATOM      6  C   UNL     1      -1.623  16.560  18.411  1.00  0.00     0.000 C 
BRANCH   6   7
ATOM      7  C   UNL     1      -1.871  17.988  18.922  1.00  0.00     0.006 C 
BRANCH   7   8
ATOM      8  C   UNL     1      -1.024  19.002  18.146  1.00  0.00     0.053 C 
BRANCH   8   9
ATOM      9  C   UNL     1       0.098  19.508  18.997  1.00  0.00     0.041 C 
ATOM     10  O   UNL     1       1.272  19.538  18.543  1.00  0.00    -0.550 OA
ATOM     11  O   UNL     1      -0.159  19.991  20.273  1.00  0.00    -0.550 OA
ENDBRANCH   8   9
ENDBRANCH   7   8
ENDBRANCH   6   7
ENDBRANCH   5   6
ENDBRANCH   4   5
ENDBRANCH   3   4
ENDBRANCH   2   3
ENDBRANCH   1   2
BRANCH   1  12
ATOM     12  C   UNL     1       3.687  11.918  19.211  1.00  0.00     0.000 C 
BRANCH  12  13
ATOM     13  C   UNL     1       5.188  12.196  19.022  1.00  0.00    -0.000 C 
BRANCH  13  14
ATOM     14  C   UNL     1       5.478  13.009  17.748  1.00  0.00    -0.000 C 
BRANCH  14  15
ATOM     15  C   UNL     1       6.781  12.579  17.055  1.00  0.00    -0.000 C 
BRANCH  15  16
ATOM     16  C   UNL     1       6.674  12.605  15.522  1.00  0.00    -0.000 C 
BRANCH  16  17
ATOM     17  C   UNL     1       5.362  13.263  15.076  1.00  0.00    -0.000 C 
BRANCH  17  18
ATOM     18  C   UNL     1       4.553  12.323  14.175  1.00  0.00    -0.000 C 
BRANCH  18  19
ATOM     19  C   UNL     1       3.072  12.325  14.567  1.00  0.00    -0.003 C 
ATOM     20  C   UNL     1       2.604  13.726  14.950  1.00  0.00     0.004 C 
ENDBRANCH  18  19
ENDBRANCH  17  18
ENDBRANCH  16  17
ENDBRANCH  15  16
ENDBRANCH  14  15
ENDBRANCH  13  14
ENDBRANCH  12  13
ENDBRANCH   1  12
TORSDOF 16
ENDMDL
