MODEL 1
REMARK VINA RESULT:    -4.055      0.000      0.000
REMARK INTER + INTRA:          -6.478
REMARK INTER:                  -5.952
REMARK INTRA:                  -0.526
REMARK UNBOUND:                -0.526
REMARK SMILES O=C([O-])CCCCCCCC(=O)[O-]
REMARK SMILES IDX 7 1 6 2 5 3 4 4 2 5 1 6 3 7 8 8 9 9 10 10 11 11 12 12 13 13
REMARK H PARENT
REMARK Flexibility Score: inf
ROOT
ATOM      1  C   UNL     1     -14.873 -11.966  21.763  1.00  0.00     0.000 C 
ENDROOT
BRANCH   1   2
ATOM      2  C   UNL     1     -14.995 -13.306  22.509  1.00  0.00     0.000 C 
BRANCH   2   3
ATOM      3  C   UNL     1     -13.793 -13.581  23.428  1.00  0.00     0.006 C 
BRANCH   3   4
ATOM      4  C   UNL     1     -12.805 -14.589  22.826  1.00  0.00     0.053 C 
BRANCH   4   5
ATOM      5  C   UNL     1     -13.512 -15.853  22.454  1.00  0.00     0.041 C 
ATOM      6  O   UNL     1     -13.953 -16.620  23.350  1.00  0.00    -0.550 OA
ATOM      7  O   UNL     1     -13.643 -16.210  21.117  1.00  0.00    -0.550 OA
ENDBRANCH   4   5
ENDBRANCH   3   4
ENDBRANCH   2   3
ENDBRANCH   1   2
BRANCH   1   8
ATOM      8  C   UNL     1     -14.945 -12.132  20.236  1.00  0.00     0.000 C 
BRANCH   8   9
ATOM      9  C   UNL     1     -13.775 -12.953  19.672  1.00  0.00     0.006 C 
BRANCH   9  10
ATOM     10  C   UNL     1     -13.100 -12.216  18.512  1.00  0.00     0.053 C 
BRANCH  10  11
ATOM     11  C   UNL     1     -11.651 -12.580  18.433  1.00  0.00     0.041 C 
ATOM     12  O   UNL     1     -11.053 -12.561  17.325  1.00  0.00    -0.550 OA
ATOM     13  O   UNL     1     -10.973 -12.988  19.574  1.00  0.00    -0.550 OA
ENDBRANCH  10  11
ENDBRANCH   9  10
ENDBRANCH   8   9
ENDBRANCH   1   8
TORSDOF 8
ENDMDL
MODEL 2
REMARK VINA RESULT:    -3.983      0.506      4.765
REMARK INTER + INTRA:          -6.372
REMARK INTER:                  -5.730
REMARK INTRA:                  -0.642
REMARK UNBOUND:                -0.526
REMARK SMILES O=C([O-])CCCCCCCC(=O)[O-]
REMARK SMILES IDX 7 1 6 2 5 3 4 4 2 5 1 6 3 7 8 8 9 9 10 10 11 11 12 12 13 13
REMARK H PARENT
REMARK Flexibility Score: inf
ROOT
ATOM      1  C   UNL     1     -14.806 -12.174  21.645  1.00  0.00     0.000 C 
ENDROOT
BRANCH   1   2
ATOM      2  C   UNL     1     -14.999 -12.747  20.230  1.00  0.00     0.000 C 
BRANCH   2   3
ATOM      3  C   UNL     1     -13.915 -12.271  19.249  1.00  0.00     0.006 C 
BRANCH   3   4
ATOM      4  C   UNL     1     -13.001 -13.410  18.779  1.00  0.00     0.053 C 
BRANCH   4   5
ATOM      5  C   UNL     1     -11.639 -12.885  18.453  1.00  0.00     0.041 C 
ATOM      6  O   UNL     1     -11.317 -12.656  17.257  1.00  0.00    -0.550 OA
ATOM      7  O   UNL     1     -10.707 -12.693  19.466  1.00  0.00    -0.550 OA
ENDBRANCH   4   5
ENDBRANCH   3   4
ENDBRANCH   2   3
ENDBRANCH   1   2
BRANCH   1   8
ATOM      8  C   UNL     1     -14.964 -13.242  22.740  1.00  0.00     0.000 C 
BRANCH   8   9
ATOM      9  C   UNL     1     -13.628 -13.621  23.397  1.00  0.00     0.006 C 
BRANCH   9  10
ATOM     10  C   UNL     1     -12.811 -14.539  22.483  1.00  0.00     0.053 C 
BRANCH  10  11
ATOM     11  C   UNL     1     -13.570 -15.794  22.188  1.00  0.00     0.041 C 
ATOM     12  O   UNL     1     -13.837 -16.109  20.999  1.00  0.00    -0.550 OA
ATOM     13  O   UNL     1     -14.026 -16.592  23.230  1.00  0.00    -0.550 OA
ENDBRANCH  10  11
ENDBRANCH   9  10
ENDBRANCH   8   9
ENDBRANCH   1   8
TORSDOF 8
ENDMDL
MODEL 3
REMARK VINA RESULT:    -3.862      2.199      2.802
REMARK INTER + INTRA:          -6.194
REMARK INTER:                  -5.753
REMARK INTRA:                  -0.442
REMARK UNBOUND:                -0.526
REMARK SMILES O=C([O-])CCCCCCCC(=O)[O-]
REMARK SMILES IDX 7 1 6 2 5 3 4 4 2 5 1 6 3 7 8 8 9 9 10 10 11 11 12 12 13 13
REMARK H PARENT
REMARK Flexibility Score: inf
ROOT
ATOM      1  C   UNL     1     -12.797 -13.475  21.126  1.00  0.00     0.000 C 
ENDROOT
BRANCH   1   2
ATOM      2  C   UNL     1     -12.984 -14.417  22.329  1.00  0.00     0.000 C 
BRANCH   2   3
ATOM      3  C   UNL     1     -13.588 -15.772  21.928  1.00  0.00     0.006 C 
BRANCH   3   4
ATOM      4  C   UNL     1     -14.907 -15.628  21.157  1.00  0.00     0.053 C 
BRANCH   4   5
ATOM      5  C   UNL     1     -14.765 -16.183  19.775  1.00  0.00     0.041 C 
ATOM      6  O   UNL     1     -14.488 -17.400  19.606  1.00  0.00    -0.550 OA
ATOM      7  O   UNL     1     -14.893 -15.346  18.673  1.00  0.00    -0.550 OA
ENDBRANCH   4   5
ENDBRANCH   3   4
ENDBRANCH   2   3
ENDBRANCH   1   2
BRANCH   1   8
ATOM      8  C   UNL     1     -11.778 -14.015  20.108  1.00  0.00     0.000 C 
BRANCH   8   9
ATOM      9  C   UNL     1     -10.974 -12.898  19.425  1.00  0.00     0.006 C 
BRANCH   9  10
ATOM     10  C   UNL     1     -11.331 -12.798  17.939  1.00  0.00     0.053 C 
BRANCH  10  11
ATOM     11  C   UNL     1     -12.184 -11.595  17.684  1.00  0.00     0.041 C 
ATOM     12  O   UNL     1     -11.681 -10.558  17.178  1.00  0.00    -0.550 OA
ATOM     13  O   UNL     1     -13.523 -11.603  18.052  1.00  0.00    -0.550 OA
ENDBRANCH  10  11
ENDBRANCH   9  10
ENDBRANCH   8   9
ENDBRANCH   1   8
TORSDOF 8
ENDMDL
MODEL 4
REMARK VINA RESULT:    -3.764      1.789      5.339
REMARK INTER + INTRA:          -6.050
REMARK INTER:                  -5.399
REMARK INTRA:                  -0.651
REMARK UNBOUND:                -0.526
REMARK SMILES O=C([O-])CCCCCCCC(=O)[O-]
REMARK SMILES IDX 7 1 6 2 5 3 4 4 2 5 1 6 3 7 8 8 9 9 10 10 11 11 12 12 13 13
REMARK H PARENT
REMARK Flexibility Score: inf
ROOT
ATOM      1  C   UNL     1     -13.217 -15.555  19.219  1.00  0.00     0.000 C 
ENDROOT
BRANCH   1   2
ATOM      2  C   UNL     1     -14.188 -14.362  19.225  1.00  0.00     0.000 C 
BRANCH   2   3
ATOM      3  C   UNL     1     -13.492 -13.038  19.581  1.00  0.00     0.006 C 
BRANCH   3   4
ATOM      4  C   UNL     1     -13.427 -12.065  18.395  1.00  0.00     0.053 C 
BRANCH   4   5
ATOM      5  C   UNL     1     -12.005 -11.802  18.014  1.00  0.00     0.041 C 
ATOM      6  O   UNL     1     -11.091 -12.576  18.403  1.00  0.00    -0.550 OA
ATOM      7  O   UNL     1     -11.682 -10.675  17.269  1.00  0.00    -0.550 OA
ENDBRANCH   4   5
ENDBRANCH   3   4
ENDBRANCH   2   3
ENDBRANCH   1   2
BRANCH   1   8
ATOM      8  C   UNL     1     -13.699 -16.713  20.109  1.00  0.00     0.000 C 
BRANCH   8   9
ATOM      9  C   UNL     1     -14.659 -16.251  21.215  1.00  0.00     0.006 C 
BRANCH   9  10
ATOM     10  C   UNL     1     -13.945 -16.190  22.569  1.00  0.00     0.053 C 
BRANCH  10  11
ATOM     11  C   UNL     1     -13.458 -14.802  22.843  1.00  0.00     0.041 C 
ATOM     12  O   UNL     1     -12.229 -14.539  22.780  1.00  0.00    -0.550 OA
ATOM     13  O   UNL     1     -14.357 -13.811  23.216  1.00  0.00    -0.550 OA
ENDBRANCH  10  11
ENDBRANCH   9  10
ENDBRANCH   8   9
ENDBRANCH   1   8
TORSDOF 8
ENDMDL
MODEL 5
REMARK VINA RESULT:    -3.760      1.360      5.754
REMARK INTER + INTRA:          -6.045
REMARK INTER:                  -5.514
REMARK INTRA:                  -0.530
REMARK UNBOUND:                -0.526
REMARK SMILES O=C([O-])CCCCCCCC(=O)[O-]
REMARK SMILES IDX 7 1 6 2 5 3 4 4 2 5 1 6 3 7 8 8 9 9 10 10 11 11 12 12 13 13
REMARK H PARENT
REMARK Flexibility Score: inf
ROOT
ATOM      1  C   UNL     1     -12.478 -13.964  21.255  1.00  0.00     0.000 C 
ENDROOT
BRANCH   1   2
ATOM      2  C   UNL     1     -13.815 -13.748  20.525  1.00  0.00     0.000 C 
BRANCH   2   3
ATOM      3  C   UNL     1     -13.636 -13.558  19.010  1.00  0.00     0.006 C 
BRANCH   3   4
ATOM      4  C   UNL     1     -13.410 -12.091  18.619  1.00  0.00     0.053 C 
BRANCH   4   5
ATOM      5  C   UNL     1     -12.068 -11.923  17.981  1.00  0.00     0.041 C 
ATOM      6  O   UNL     1     -11.173 -12.794  18.147  1.00  0.00    -0.550 OA
ATOM      7  O   UNL     1     -11.788 -10.781  17.241  1.00  0.00    -0.550 OA
ENDBRANCH   4   5
ENDBRANCH   3   4
ENDBRANCH   2   3
ENDBRANCH   1   2
BRANCH   1   8
ATOM      8  C   UNL     1     -12.644 -14.040  22.782  1.00  0.00     0.000 C 
BRANCH   8   9
ATOM      9  C   UNL     1     -14.115 -13.994  23.221  1.00  0.00     0.006 C 
BRANCH   9  10
ATOM     10  C   UNL     1     -14.420 -15.109  24.226  1.00  0.00     0.053 C 
BRANCH  10  11
ATOM     11  C   UNL     1     -14.519 -16.430  23.531  1.00  0.00     0.041 C 
ATOM     12  O   UNL     1     -14.047 -17.466  24.069  1.00  0.00    -0.550 OA
ATOM     13  O   UNL     1     -15.087 -16.508  22.266  1.00  0.00    -0.550 OA
ENDBRANCH  10  11
ENDBRANCH   9  10
ENDBRANCH   8   9
ENDBRANCH   1   8
TORSDOF 8
ENDMDL
MODEL 6
REMARK VINA RESULT:    -3.745      1.769      2.586
REMARK INTER + INTRA:          -6.023
REMARK INTER:                  -5.351
REMARK INTRA:                  -0.671
REMARK UNBOUND:                -0.526
REMARK SMILES O=C([O-])CCCCCCCC(=O)[O-]
REMARK SMILES IDX 7 1 6 2 5 3 4 4 2 5 1 6 3 7 8 8 9 9 10 10 11 11 12 12 13 13
REMARK H PARENT
REMARK Flexibility Score: inf
ROOT
ATOM      1  C   UNL     1     -13.218 -15.477  19.197  1.00  0.00     0.000 C 
ENDROOT
BRANCH   1   2
ATOM      2  C   UNL     1     -13.639 -16.668  20.077  1.00  0.00     0.000 C 
BRANCH   2   3
ATOM      3  C   UNL     1     -14.669 -16.274  21.148  1.00  0.00     0.006 C 
BRANCH   3   4
ATOM      4  C   UNL     1     -14.067 -16.223  22.559  1.00  0.00     0.053 C 
BRANCH   4   5
ATOM      5  C   UNL     1     -13.609 -14.836  22.880  1.00  0.00     0.041 C 
ATOM      6  O   UNL     1     -14.450 -13.928  23.111  1.00  0.00    -0.550 OA
ATOM      7  O   UNL     1     -12.252 -14.534  22.877  1.00  0.00    -0.550 OA
ENDBRANCH   4   5
ENDBRANCH   3   4
ENDBRANCH   2   3
ENDBRANCH   1   2
BRANCH   1   8
ATOM      8  C   UNL     1     -14.244 -14.332  19.225  1.00  0.00     0.000 C 
BRANCH   8   9
ATOM      9  C   UNL     1     -13.617 -12.982  19.605  1.00  0.00     0.006 C 
BRANCH   9  10
ATOM     10  C   UNL     1     -13.507 -12.067  18.382  1.00  0.00     0.053 C 
BRANCH  10  11
ATOM     11  C   UNL     1     -12.073 -11.756  18.087  1.00  0.00     0.041 C 
ATOM     12  O   UNL     1     -11.777 -10.847  17.269  1.00  0.00    -0.550 OA
ATOM     13  O   UNL     1     -11.064 -12.505  18.679  1.00  0.00    -0.550 OA
ENDBRANCH  10  11
ENDBRANCH   9  10
ENDBRANCH   8   9
ENDBRANCH   1   8
TORSDOF 8
ENDMDL
MODEL 7
REMARK VINA RESULT:    -3.633      1.340      2.107
REMARK INTER + INTRA:          -5.858
REMARK INTER:                  -5.350
REMARK INTRA:                  -0.508
REMARK UNBOUND:                -0.526
REMARK SMILES O=C([O-])CCCCCCCC(=O)[O-]
REMARK SMILES IDX 7 1 6 2 5 3 4 4 2 5 1 6 3 7 8 8 9 9 10 10 11 11 12 12 13 13
REMARK H PARENT
REMARK Flexibility Score: inf
ROOT
ATOM      1  C   UNL     1     -12.632 -13.945  21.878  1.00  0.00     0.000 C 
ENDROOT
BRANCH   1   2
ATOM      2  C   UNL     1     -13.061 -13.963  23.356  1.00  0.00     0.000 C 
BRANCH   2   3
ATOM      3  C   UNL     1     -14.529 -14.380  23.538  1.00  0.00     0.006 C 
BRANCH   3   4
ATOM      4  C   UNL     1     -14.689 -15.604  24.450  1.00  0.00     0.053 C 
BRANCH   4   5
ATOM      5  C   UNL     1     -14.450 -16.863  23.678  1.00  0.00     0.041 C 
ATOM      6  O   UNL     1     -14.702 -16.908  22.445  1.00  0.00    -0.550 OA
ATOM      7  O   UNL     1     -13.994 -18.003  24.330  1.00  0.00    -0.550 OA
ENDBRANCH   4   5
ENDBRANCH   3   4
ENDBRANCH   2   3
ENDBRANCH   1   2
BRANCH   1   8
ATOM      8  C   UNL     1     -13.831 -13.894  20.917  1.00  0.00     0.000 C 
BRANCH   8   9
ATOM      9  C   UNL     1     -13.709 -12.772  19.874  1.00  0.00     0.006 C 
BRANCH   9  10
ATOM     10  C   UNL     1     -12.885 -13.233  18.669  1.00  0.00     0.053 C 
BRANCH  10  11
ATOM     11  C   UNL     1     -11.671 -12.374  18.504  1.00  0.00     0.041 C 
ATOM     12  O   UNL     1     -10.649 -12.579  19.208  1.00  0.00    -0.550 OA
ATOM     13  O   UNL     1     -11.687 -11.314  17.606  1.00  0.00    -0.550 OA
ENDBRANCH  10  11
ENDBRANCH   9  10
ENDBRANCH   8   9
ENDBRANCH   1   8
TORSDOF 8
ENDMDL
MODEL 8
REMARK VINA RESULT:    -3.552     11.531     14.602
REMARK INTER + INTRA:          -5.739
REMARK INTER:                  -5.401
REMARK INTRA:                  -0.338
REMARK UNBOUND:                -0.526
REMARK SMILES O=C([O-])CCCCCCCC(=O)[O-]
REMARK SMILES IDX 7 1 6 2 5 3 4 4 2 5 1 6 3 7 8 8 9 9 10 10 11 11 12 12 13 13
REMARK H PARENT
REMARK Flexibility Score: inf
ROOT
ATOM      1  C   UNL     1     -12.645 -13.670   6.045  1.00  0.00     0.000 C 
ENDROOT
BRANCH   1   2
ATOM      2  C   UNL     1     -12.186 -12.563   5.079  1.00  0.00     0.000 C 
BRANCH   2   3
ATOM      3  C   UNL     1     -10.983 -11.772   5.619  1.00  0.00     0.006 C 
BRANCH   3   4
ATOM      4  C   UNL     1      -9.638 -12.410   5.244  1.00  0.00     0.053 C 
BRANCH   4   5
ATOM      5  C   UNL     1      -9.122 -13.242   6.374  1.00  0.00     0.041 C 
ATOM      6  O   UNL     1      -9.200 -14.498   6.323  1.00  0.00    -0.550 OA
ATOM      7  O   UNL     1      -8.599 -12.630   7.507  1.00  0.00    -0.550 OA
ENDBRANCH   4   5
ENDBRANCH   3   4
ENDBRANCH   2   3
ENDBRANCH   1   2
BRANCH   1   8
ATOM      8  C   UNL     1     -14.175 -13.826   6.080  1.00  0.00     0.000 C 
BRANCH   8   9
ATOM      9  C   UNL     1     -14.649 -14.778   7.188  1.00  0.00     0.006 C 
BRANCH   9  10
ATOM     10  C   UNL     1     -14.660 -14.072   8.547  1.00  0.00     0.053 C 
BRANCH  10  11
ATOM     11  C   UNL     1     -13.741 -14.764   9.504  1.00  0.00     0.041 C 
ATOM     12  O   UNL     1     -12.494 -14.630   9.393  1.00  0.00    -0.550 OA
ATOM     13  O   UNL     1     -14.259 -15.595  10.489  1.00  0.00    -0.550 OA
ENDBRANCH  10  11
ENDBRANCH   9  10
ENDBRANCH   8   9
ENDBRANCH   1   8
TORSDOF 8
ENDMDL
