MODEL 1
REMARK VINA RESULT:     1.147      0.000      0.000
REMARK INTER + INTRA:           1.081
REMARK INTER:                   1.549
REMARK INTRA:                  -0.468
REMARK UNBOUND:                -0.468
REMARK SMILES CC[C@@H](CC[C@H](C)[C@@H]1CC[C@H]2[C@H]3CC(=O)C4=CC(=O)CC[C@@]4(C)[C@@H]3CC[C@@]21C)C(C)C
REMARK SMILES IDX 4 1 3 2 2 3 1 4 29 5 30 6 31 7 5 8 6 9 7 10 8 11 9 12 27 13
REMARK SMILES IDX 10 14 11 15 26 16 28 17 12 18 25 19 24 20 13 21 22 22 14 23
REMARK SMILES IDX 16 24 21 25 23 26 15 27 17 28 20 29 18 30 19 31
REMARK H PARENT
REMARK Flexibility Score: inf
ROOT
ATOM      1  C   UNL     1      -2.155  14.690  45.520  1.00  0.00     0.004 C 
ENDROOT
BRANCH   1   2
ATOM      2  C   UNL     1      -1.457  16.079  45.424  1.00  0.00    -0.009 C 
BRANCH   2   3
ATOM      3  C   UNL     1      -1.057  16.567  46.854  1.00  0.00     0.000 C 
ATOM      4  C   UNL     1      -0.059  15.626  47.533  1.00  0.00     0.004 C 
ENDBRANCH   2   3
BRANCH   2   5
ATOM      5  C   UNL     1      -2.348  17.141  44.687  1.00  0.00    -0.014 C 
ATOM      6  C   UNL     1      -1.518  18.355  44.225  1.00  0.00     0.007 C 
ATOM      7  C   UNL     1      -3.072  16.556  43.456  1.00  0.00     0.007 C 
ENDBRANCH   2   5
ENDBRANCH   1   2
BRANCH   1   8
ATOM      8  C   UNL     1      -1.394  13.548  44.795  1.00  0.00     0.004 C 
BRANCH   8   9
ATOM      9  C   UNL     1      -1.851  12.086  45.104  1.00  0.00    -0.011 C 
ATOM     10  C   UNL     1      -3.108  12.118  46.001  1.00  0.00     0.008 C 
BRANCH   9  11
ATOM     11  C   UNL     1      -0.740  11.161  45.718  1.00  0.00    -0.002 C 
ATOM     12  C   UNL     1      -1.049  10.683  47.166  1.00  0.00     0.005 C 
ATOM     13  C   UNL     1       0.763  11.686  45.755  1.00  0.00    -0.026 C 
ATOM     14  C   UNL     1       0.284  10.626  47.903  1.00  0.00     0.005 C 
ATOM     15  C   UNL     1       1.041  11.768  47.265  1.00  0.00    -0.001 C 
ATOM     16  C   UNL     1       1.110  13.102  45.158  1.00  0.00     0.007 C 
ATOM     17  C   UNL     1       1.618  10.598  45.028  1.00  0.00     0.012 C 
ATOM     18  C   UNL     1       2.506  12.053  47.690  1.00  0.00     0.004 C 
ATOM     19  C   UNL     1       2.230  13.890  45.918  1.00  0.00     0.005 C 
ATOM     20  C   UNL     1       3.236  12.966  46.660  1.00  0.00     0.003 C 
ATOM     21  C   UNL     1       3.377  10.832  47.997  1.00  0.00     0.085 C 
ATOM     22  C   UNL     1       4.503  13.642  47.300  1.00  0.00    -0.000 C 
ATOM     23  C   UNL     1       4.759  11.266  48.421  1.00  0.00     0.159 C 
ATOM     24  C   UNL     1       5.384  12.525  47.896  1.00  0.00     0.005 C 
ATOM     25  C   UNL     1       5.299  14.403  46.193  1.00  0.00     0.020 C 
ATOM     26  C   UNL     1       4.126  14.640  48.427  1.00  0.00     0.017 C 
ATOM     27  O   UNL     1       5.416  10.500  49.175  1.00  0.00    -0.295 OA
ATOM     28  C   UNL     1       6.720  12.670  47.975  1.00  0.00     0.055 C 
ATOM     29  C   UNL     1       6.681  14.888  46.654  1.00  0.00     0.081 C 
ATOM     30  C   UNL     1       7.422  13.825  47.398  1.00  0.00     0.156 C 
ATOM     31  O   UNL     1       8.666  13.934  47.556  1.00  0.00    -0.295 OA
ENDBRANCH   9  11
ENDBRANCH   8   9
ENDBRANCH   1   8
TORSDOF 6
ENDMDL
MODEL 2
REMARK VINA RESULT:     1.708      3.153      7.380
REMARK INTER + INTRA:           1.840
REMARK INTER:                   2.622
REMARK INTRA:                  -0.782
REMARK UNBOUND:                -0.468
REMARK SMILES CC[C@@H](CC[C@H](C)[C@@H]1CC[C@H]2[C@H]3CC(=O)C4=CC(=O)CC[C@@]4(C)[C@@H]3CC[C@@]21C)C(C)C
REMARK SMILES IDX 4 1 3 2 2 3 1 4 29 5 30 6 31 7 5 8 6 9 7 10 8 11 9 12 27 13
REMARK SMILES IDX 10 14 11 15 26 16 28 17 12 18 25 19 24 20 13 21 22 22 14 23
REMARK SMILES IDX 16 24 21 25 23 26 15 27 17 28 20 29 18 30 19 31
REMARK H PARENT
REMARK Flexibility Score: inf
ROOT
ATOM      1  C   UNL     1       6.138  11.981  48.747  1.00  0.00     0.004 C 
ENDROOT
BRANCH   1   2
ATOM      2  C   UNL     1       6.538  13.485  48.692  1.00  0.00    -0.009 C 
BRANCH   2   3
ATOM      3  C   UNL     1       5.255  14.365  48.542  1.00  0.00     0.000 C 
ATOM      4  C   UNL     1       5.074  15.338  49.709  1.00  0.00     0.004 C 
ENDBRANCH   2   3
BRANCH   2   5
ATOM      5  C   UNL     1       7.572  13.784  47.550  1.00  0.00    -0.014 C 
ATOM      6  C   UNL     1       6.889  13.855  46.171  1.00  0.00     0.007 C 
ATOM      7  C   UNL     1       8.341  15.103  47.776  1.00  0.00     0.007 C 
ENDBRANCH   2   5
ENDBRANCH   1   2
BRANCH   1   8
ATOM      8  C   UNL     1       4.622  11.721  48.544  1.00  0.00     0.004 C 
BRANCH   8   9
ATOM      9  C   UNL     1       4.216  10.795  47.352  1.00  0.00    -0.011 C 
ATOM     10  C   UNL     1       5.002  11.208  46.088  1.00  0.00     0.008 C 
BRANCH   9  11
ATOM     11  C   UNL     1       2.674  10.725  47.063  1.00  0.00    -0.002 C 
ATOM     12  C   UNL     1       2.308   9.900  45.797  1.00  0.00     0.005 C 
ATOM     13  C   UNL     1       1.853  12.084  46.937  1.00  0.00    -0.026 C 
ATOM     14  C   UNL     1       1.109  10.588  45.155  1.00  0.00     0.005 C 
ATOM     15  C   UNL     1       1.377  12.040  45.476  1.00  0.00    -0.001 C 
ATOM     16  C   UNL     1       2.592  13.462  47.126  1.00  0.00     0.007 C 
ATOM     17  C   UNL     1       0.686  11.980  47.971  1.00  0.00     0.012 C 
ATOM     18  C   UNL     1       0.355  13.125  45.043  1.00  0.00     0.004 C 
ATOM     19  C   UNL     1       2.072  14.628  46.218  1.00  0.00     0.005 C 
ATOM     20  C   UNL     1       0.582  14.466  45.803  1.00  0.00     0.003 C 
ATOM     21  C   UNL     1      -1.125  12.739  45.123  1.00  0.00     0.085 C 
ATOM     22  C   UNL     1      -0.093  15.668  45.047  1.00  0.00    -0.000 C 
ATOM     23  C   UNL     1      -1.992  13.879  44.647  1.00  0.00     0.159 C 
ATOM     24  C   UNL     1      -1.576  15.309  44.821  1.00  0.00     0.005 C 
ATOM     25  C   UNL     1       0.008  16.954  45.926  1.00  0.00     0.020 C 
ATOM     26  C   UNL     1       0.574  15.942  43.673  1.00  0.00     0.017 C 
ATOM     27  O   UNL     1      -3.122  13.603  44.163  1.00  0.00    -0.295 OA
ATOM     28  C   UNL     1      -2.514  16.273  44.755  1.00  0.00     0.055 C 
ATOM     29  C   UNL     1      -0.834  18.125  45.400  1.00  0.00     0.081 C 
ATOM     30  C   UNL     1      -2.209  17.688  45.012  1.00  0.00     0.156 C 
ATOM     31  O   UNL     1      -3.117  18.550  44.876  1.00  0.00    -0.295 OA
ENDBRANCH   9  11
ENDBRANCH   8   9
ENDBRANCH   1   8
TORSDOF 6
ENDMDL
MODEL 3
REMARK VINA RESULT:     2.482      3.355      7.574
REMARK INTER + INTRA:           2.885
REMARK INTER:                   2.959
REMARK INTRA:                  -0.074
REMARK UNBOUND:                -0.468
REMARK SMILES CC[C@@H](CC[C@H](C)[C@@H]1CC[C@H]2[C@H]3CC(=O)C4=CC(=O)CC[C@@]4(C)[C@@H]3CC[C@@]21C)C(C)C
REMARK SMILES IDX 4 1 3 2 2 3 1 4 29 5 30 6 31 7 5 8 6 9 7 10 8 11 9 12 27 13
REMARK SMILES IDX 10 14 11 15 26 16 28 17 12 18 25 19 24 20 13 21 22 22 14 23
REMARK SMILES IDX 16 24 21 25 23 26 15 27 17 28 20 29 18 30 19 31
REMARK H PARENT
REMARK Flexibility Score: inf
ROOT
ATOM      1  C   UNL     1       4.630  11.594  47.237  1.00  0.00     0.004 C 
ENDROOT
BRANCH   1   2
ATOM      2  C   UNL     1       5.319  12.976  47.032  1.00  0.00    -0.009 C 
BRANCH   2   3
ATOM      3  C   UNL     1       6.374  12.872  45.883  1.00  0.00     0.000 C 
ATOM      4  C   UNL     1       6.754  14.241  45.314  1.00  0.00     0.004 C 
ENDBRANCH   2   3
BRANCH   2   5
ATOM      5  C   UNL     1       5.967  13.519  48.355  1.00  0.00    -0.014 C 
ATOM      6  C   UNL     1       6.005  12.437  49.453  1.00  0.00     0.007 C 
ATOM      7  C   UNL     1       7.404  14.039  48.141  1.00  0.00     0.007 C 
ENDBRANCH   2   5
ENDBRANCH   1   2
BRANCH   1   8
ATOM      8  C   UNL     1       4.073  10.964  45.933  1.00  0.00     0.004 C 
BRANCH   8   9
ATOM      9  C   UNL     1       2.523  10.786  45.840  1.00  0.00    -0.011 C 
ATOM     10  C   UNL     1       2.079  10.900  44.365  1.00  0.00     0.008 C 
BRANCH   9  11
ATOM     11  C   UNL     1       1.690  11.751  46.759  1.00  0.00    -0.002 C 
ATOM     12  C   UNL     1       0.376  11.121  47.303  1.00  0.00     0.005 C 
ATOM     13  C   UNL     1       1.275  13.181  46.196  1.00  0.00    -0.026 C 
ATOM     14  C   UNL     1      -0.658  12.239  47.355  1.00  0.00     0.005 C 
ATOM     15  C   UNL     1      -0.259  13.085  46.168  1.00  0.00    -0.001 C 
ATOM     16  C   UNL     1       1.723  13.610  44.748  1.00  0.00     0.007 C 
ATOM     17  C   UNL     1       1.811  14.223  47.230  1.00  0.00     0.012 C 
ATOM     18  C   UNL     1      -1.034  14.394  45.861  1.00  0.00     0.004 C 
ATOM     19  C   UNL     1       0.690  14.486  43.962  1.00  0.00     0.005 C 
ATOM     20  C   UNL     1      -0.242  15.317  44.888  1.00  0.00     0.003 C 
ATOM     21  C   UNL     1      -1.502  15.209  47.070  1.00  0.00     0.085 C 
ATOM     22  C   UNL     1      -1.190  16.369  44.205  1.00  0.00    -0.000 C 
ATOM     23  C   UNL     1      -2.260  16.433  46.617  1.00  0.00     0.159 C 
ATOM     24  C   UNL     1      -1.943  17.120  45.322  1.00  0.00     0.005 C 
ATOM     25  C   UNL     1      -0.333  17.380  43.379  1.00  0.00     0.020 C 
ATOM     26  C   UNL     1      -2.225  15.697  43.264  1.00  0.00     0.017 C 
ATOM     27  O   UNL     1      -3.124  16.917  47.395  1.00  0.00    -0.295 OA
ATOM     28  C   UNL     1      -2.346  18.393  45.144  1.00  0.00     0.055 C 
ATOM     29  C   UNL     1      -1.129  18.592  42.876  1.00  0.00     0.081 C 
ATOM     30  C   UNL     1      -1.994  19.170  43.948  1.00  0.00     0.156 C 
ATOM     31  O   UNL     1      -2.451  20.336  43.812  1.00  0.00    -0.295 OA
ENDBRANCH   9  11
ENDBRANCH   8   9
ENDBRANCH   1   8
TORSDOF 6
ENDMDL
MODEL 4
REMARK VINA RESULT:     3.867      3.426      7.458
REMARK INTER + INTRA:           4.756
REMARK INTER:                   4.830
REMARK INTRA:                  -0.074
REMARK UNBOUND:                -0.468
REMARK SMILES CC[C@@H](CC[C@H](C)[C@@H]1CC[C@H]2[C@H]3CC(=O)C4=CC(=O)CC[C@@]4(C)[C@@H]3CC[C@@]21C)C(C)C
REMARK SMILES IDX 4 1 3 2 2 3 1 4 29 5 30 6 31 7 5 8 6 9 7 10 8 11 9 12 27 13
REMARK SMILES IDX 10 14 11 15 26 16 28 17 12 18 25 19 24 20 13 21 22 22 14 23
REMARK SMILES IDX 16 24 21 25 23 26 15 27 17 28 20 29 18 30 19 31
REMARK H PARENT
REMARK Flexibility Score: inf
ROOT
ATOM      1  C   UNL     1       5.107  11.332  46.488  1.00  0.00     0.004 C 
ENDROOT
BRANCH   1   2
ATOM      2  C   UNL     1       5.960  12.361  47.289  1.00  0.00    -0.009 C 
BRANCH   2   3
ATOM      3  C   UNL     1       5.089  12.998  48.420  1.00  0.00     0.000 C 
ATOM      4  C   UNL     1       4.807  14.482  48.173  1.00  0.00     0.004 C 
ENDBRANCH   2   3
BRANCH   2   5
ATOM      5  C   UNL     1       6.587  13.461  46.363  1.00  0.00    -0.014 C 
ATOM      6  C   UNL     1       7.793  14.148  47.035  1.00  0.00     0.007 C 
ATOM      7  C   UNL     1       7.050  12.899  45.002  1.00  0.00     0.007 C 
ENDBRANCH   2   5
ENDBRANCH   1   2
BRANCH   1   8
ATOM      8  C   UNL     1       4.097  10.535  47.355  1.00  0.00     0.004 C 
BRANCH   8   9
ATOM      9  C   UNL     1       2.972  11.356  48.065  1.00  0.00    -0.011 C 
ATOM     10  C   UNL     1       2.855  10.904  49.537  1.00  0.00     0.008 C 
BRANCH   9  11
ATOM     11  C   UNL     1       1.575  11.320  47.348  1.00  0.00    -0.002 C 
ATOM     12  C   UNL     1       1.562  10.482  46.037  1.00  0.00     0.005 C 
ATOM     13  C   UNL     1       0.863  12.696  46.980  1.00  0.00    -0.026 C 
ATOM     14  C   UNL     1       0.617  11.189  45.073  1.00  0.00     0.005 C 
ATOM     15  C   UNL     1       0.823  12.639  45.444  1.00  0.00    -0.001 C 
ATOM     16  C   UNL     1       1.556  14.059  47.360  1.00  0.00     0.007 C 
ATOM     17  C   UNL     1      -0.553  12.638  47.639  1.00  0.00     0.012 C 
ATOM     18  C   UNL     1      -0.002  13.742  44.728  1.00  0.00     0.004 C 
ATOM     19  C   UNL     1       1.350  15.221  46.331  1.00  0.00     0.005 C 
ATOM     20  C   UNL     1       0.038  15.089  45.509  1.00  0.00     0.003 C 
ATOM     21  C   UNL     1      -1.453  13.394  44.385  1.00  0.00     0.085 C 
ATOM     22  C   UNL     1      -0.359  16.295  44.581  1.00  0.00    -0.000 C 
ATOM     23  C   UNL     1      -2.114  14.547  43.670  1.00  0.00     0.159 C 
ATOM     24  C   UNL     1      -1.725  15.969  43.944  1.00  0.00     0.005 C 
ATOM     25  C   UNL     1      -0.477  17.593  45.440  1.00  0.00     0.020 C 
ATOM     26  C   UNL     1       0.680  16.529  43.452  1.00  0.00     0.017 C 
ATOM     27  O   UNL     1      -3.067  14.291  42.886  1.00  0.00    -0.295 OA
ATOM     28  C   UNL     1      -2.578  16.955  43.603  1.00  0.00     0.055 C 
ATOM     29  C   UNL     1      -1.100  18.775  44.685  1.00  0.00     0.081 C 
ATOM     30  C   UNL     1      -2.319  18.365  43.923  1.00  0.00     0.156 C 
ATOM     31  O   UNL     1      -3.125  19.247  43.526  1.00  0.00    -0.295 OA
ENDBRANCH   9  11
ENDBRANCH   8   9
ENDBRANCH   1   8
TORSDOF 6
ENDMDL
