MODEL 1
REMARK VINA RESULT:    -7.468      0.000      0.000
REMARK INTER + INTRA:         -11.320
REMARK INTER:                 -10.088
REMARK INTRA:                  -1.232
REMARK UNBOUND:                -1.232
REMARK SMILES O=c1c(-c2ccc(O)cc2)coc2c([C@H]3O[C@H](CO)[C@@H](O)[C@@H](O)[C@@H]3O)c(O)ccc12
REMARK SMILES IDX 3 1 11 2 12 3 13 4 30 5 2 6 1 7 29 8 28 9 26 10 14 11 4 12
REMARK SMILES IDX 5 13 6 14 7 15 10 16 9 17 8 18 15 20 24 21 16 22 22 23 17 24
REMARK SMILES IDX 20 25 25 26 23 28 18 30 19 31 21 33 27 35
REMARK H PARENT 8 19 25 27 23 29 19 32 21 34 27 36
REMARK Flexibility Score: inf
ROOT
ATOM      1  C   UNL     1       6.877 -34.073  44.206  1.00  0.00     0.065 A 
ATOM      2  C   UNL     1       5.610 -34.011  43.609  1.00  0.00     0.208 A 
ATOM      3  O   UNL     1       4.878 -35.108  43.451  1.00  0.00    -0.463 OA
ATOM      4  C   UNL     1       5.282 -36.316  43.837  1.00  0.00     0.147 A 
ATOM      5  C   UNL     1       6.549 -36.469  44.447  1.00  0.00     0.066 A 
ATOM      6  C   UNL     1       7.348 -35.326  44.639  1.00  0.00     0.200 A 
ATOM      7  O   UNL     1       8.469 -35.421  45.210  1.00  0.00    -0.288 OA
ATOM      8  C   UNL     1       6.978 -37.745  44.842  1.00  0.00     0.020 A 
ATOM      9  C   UNL     1       6.167 -38.857  44.622  1.00  0.00     0.047 A 
ATOM     10  C   UNL     1       4.913 -38.718  44.015  1.00  0.00     0.125 A 
ATOM     11  C   UNL     1       4.447 -37.439  43.634  1.00  0.00     0.069 A 
ENDROOT
BRANCH   1  12
ATOM     12  C   UNL     1       7.680 -32.833  44.367  1.00  0.00    -0.011 A 
ATOM     13  C   UNL     1       7.482 -32.002  45.483  1.00  0.00     0.013 A 
ATOM     14  C   UNL     1       8.230 -30.830  45.632  1.00  0.00     0.047 A 
ATOM     15  C   UNL     1       9.178 -30.472  44.669  1.00  0.00     0.115 A 
ATOM     16  C   UNL     1       8.631 -32.464  43.398  1.00  0.00     0.013 A 
ATOM     17  C   UNL     1       9.377 -31.292  43.551  1.00  0.00     0.047 A 
BRANCH  15  18
ATOM     18  O   UNL     1       9.916 -29.301  44.832  1.00  0.00    -0.508 OA
ATOM     19  H   UNL     1       9.979 -28.609  44.095  1.00  0.00     0.293 HD
ENDBRANCH  15  18
ENDBRANCH   1  12
BRANCH  11  20
ATOM     20  C   UNL     1       3.092 -37.284  42.959  1.00  0.00     0.188 C 
ATOM     21  C   UNL     1       1.956 -37.263  44.021  1.00  0.00     0.179 C 
ATOM     22  O   UNL     1       2.896 -38.344  42.037  1.00  0.00    -0.362 OA
ATOM     23  C   UNL     1       0.599 -37.717  43.420  1.00  0.00     0.177 C 
ATOM     24  C   UNL     1       1.765 -38.136  41.193  1.00  0.00     0.176 C 
ATOM     25  C   UNL     1       0.569 -37.428  41.907  1.00  0.00     0.177 C 
BRANCH  21  26
ATOM     26  O   UNL     1       1.849 -35.984  44.597  1.00  0.00    -0.387 OA
ATOM     27  H   UNL     1       0.901 -35.700  44.526  1.00  0.00     0.211 HD
ENDBRANCH  21  26
BRANCH  23  28
ATOM     28  O   UNL     1       0.416 -39.094  43.639  1.00  0.00    -0.387 OA
ATOM     29  H   UNL     1       1.101 -39.564  43.096  1.00  0.00     0.211 HD
ENDBRANCH  23  28
BRANCH  24  30
ATOM     30  C   UNL     1       2.194 -37.410  39.906  1.00  0.00     0.191 C 
BRANCH  30  31
ATOM     31  O   UNL     1       1.321 -36.348  39.622  1.00  0.00    -0.394 OA
ATOM     32  H   UNL     1       0.867 -36.571  38.768  1.00  0.00     0.210 HD
ENDBRANCH  30  31
ENDBRANCH  24  30
BRANCH  25  33
ATOM     33  O   UNL     1      -0.666 -37.793  41.341  1.00  0.00    -0.388 OA
ATOM     34  H   UNL     1      -0.535 -37.907  40.365  1.00  0.00     0.211 HD
ENDBRANCH  25  33
ENDBRANCH  11  20
BRANCH  10  35
ATOM     35  O   UNL     1       4.133 -39.851  43.787  1.00  0.00    -0.507 OA
ATOM     36  H   UNL     1       4.512 -40.679  43.341  1.00  0.00     0.293 HD
ENDBRANCH  10  35
TORSDOF 9
ENDMDL
MODEL 2
REMARK VINA RESULT:    -7.149      1.539      8.243
REMARK INTER + INTRA:         -10.889
REMARK INTER:                  -9.795
REMARK INTRA:                  -1.095
REMARK UNBOUND:                -1.232
REMARK SMILES O=c1c(-c2ccc(O)cc2)coc2c([C@H]3O[C@H](CO)[C@@H](O)[C@@H](O)[C@@H]3O)c(O)ccc12
REMARK SMILES IDX 3 1 11 2 12 3 13 4 30 5 2 6 1 7 29 8 28 9 26 10 14 11 4 12
REMARK SMILES IDX 5 13 6 14 7 15 10 16 9 17 8 18 15 20 24 21 16 22 22 23 17 24
REMARK SMILES IDX 20 25 25 26 23 28 18 30 19 31 21 33 27 35
REMARK H PARENT 8 19 25 27 23 29 19 32 21 34 27 36
REMARK Flexibility Score: inf
ROOT
ATOM      1  C   UNL     1       3.424 -36.789  43.050  1.00  0.00     0.065 A 
ATOM      2  C   UNL     1       3.815 -35.453  42.883  1.00  0.00     0.208 A 
ATOM      3  O   UNL     1       5.012 -35.039  43.280  1.00  0.00    -0.463 OA
ATOM      4  C   UNL     1       5.907 -35.841  43.853  1.00  0.00     0.147 A 
ATOM      5  C   UNL     1       5.595 -37.204  44.061  1.00  0.00     0.066 A 
ATOM      6  C   UNL     1       4.338 -37.679  43.643  1.00  0.00     0.200 A 
ATOM      7  O   UNL     1       4.039 -38.897  43.783  1.00  0.00    -0.288 OA
ATOM      8  C   UNL     1       6.536 -38.044  44.676  1.00  0.00     0.020 A 
ATOM      9  C   UNL     1       7.765 -37.535  45.092  1.00  0.00     0.047 A 
ATOM     10  C   UNL     1       8.083 -36.186  44.895  1.00  0.00     0.125 A 
ATOM     11  C   UNL     1       7.164 -35.327  44.252  1.00  0.00     0.069 A 
ENDROOT
BRANCH   1  12
ATOM     12  C   UNL     1       2.078 -37.227  42.601  1.00  0.00    -0.011 A 
ATOM     13  C   UNL     1       1.072 -37.501  43.545  1.00  0.00     0.013 A 
ATOM     14  C   UNL     1      -0.194 -37.923  43.126  1.00  0.00     0.047 A 
ATOM     15  C   UNL     1      -0.469 -38.080  41.765  1.00  0.00     0.115 A 
ATOM     16  C   UNL     1       1.796 -37.394  41.234  1.00  0.00     0.013 A 
ATOM     17  C   UNL     1       0.530 -37.815  40.819  1.00  0.00     0.047 A 
BRANCH  15  18
ATOM     18  O   UNL     1      -1.735 -38.500  41.363  1.00  0.00    -0.508 OA
ATOM     19  H   UNL     1      -2.151 -39.349  41.726  1.00  0.00     0.293 HD
ENDBRANCH  15  18
ENDBRANCH   1  12
BRANCH  11  20
ATOM     20  C   UNL     1       7.497 -33.856  44.051  1.00  0.00     0.188 C 
ATOM     21  C   UNL     1       8.220 -33.645  42.690  1.00  0.00     0.179 C 
ATOM     22  O   UNL     1       8.307 -33.401  45.123  1.00  0.00    -0.362 OA
ATOM     23  C   UNL     1       9.098 -32.366  42.696  1.00  0.00     0.177 C 
ATOM     24  C   UNL     1       8.457 -31.982  45.133  1.00  0.00     0.176 C 
ATOM     25  C   UNL     1       8.537 -31.348  43.708  1.00  0.00     0.177 C 
BRANCH  21  26
ATOM     26  O   UNL     1       7.284 -33.607  41.640  1.00  0.00    -0.387 OA
ATOM     27  H   UNL     1       6.794 -34.470  41.641  1.00  0.00     0.211 HD
ENDBRANCH  21  26
BRANCH  23  28
ATOM     28  O   UNL     1      10.420 -32.695  43.046  1.00  0.00    -0.387 OA
ATOM     29  H   UNL     1      10.790 -31.915  43.535  1.00  0.00     0.211 HD
ENDBRANCH  23  28
BRANCH  24  30
ATOM     30  C   UNL     1       7.360 -31.341  46.000  1.00  0.00     0.191 C 
BRANCH  30  31
ATOM     31  O   UNL     1       7.683 -30.011  46.307  1.00  0.00    -0.394 OA
ATOM     32  H   UNL     1       6.839 -29.491  46.258  1.00  0.00     0.210 HD
ENDBRANCH  30  31
ENDBRANCH  24  30
BRANCH  25  33
ATOM     33  O   UNL     1       9.291 -30.160  43.708  1.00  0.00    -0.388 OA
ATOM     34  H   UNL     1       9.871 -30.163  42.904  1.00  0.00     0.211 HD
ENDBRANCH  25  33
ENDBRANCH  11  20
BRANCH  10  35
ATOM     35  O   UNL     1       9.312 -35.700  45.342  1.00  0.00    -0.507 OA
ATOM     36  H   UNL     1      10.006 -35.334  44.699  1.00  0.00     0.293 HD
ENDBRANCH  10  35
TORSDOF 9
ENDMDL
MODEL 3
REMARK VINA RESULT:    -6.964      1.600      7.781
REMARK INTER + INTRA:         -10.639
REMARK INTER:                 -10.368
REMARK INTRA:                  -0.271
REMARK UNBOUND:                -1.232
REMARK SMILES O=c1c(-c2ccc(O)cc2)coc2c([C@H]3O[C@H](CO)[C@@H](O)[C@@H](O)[C@@H]3O)c(O)ccc12
REMARK SMILES IDX 3 1 11 2 12 3 13 4 30 5 2 6 1 7 29 8 28 9 26 10 14 11 4 12
REMARK SMILES IDX 5 13 6 14 7 15 10 16 9 17 8 18 15 20 24 21 16 22 22 23 17 24
REMARK SMILES IDX 20 25 25 26 23 28 18 30 19 31 21 33 27 35
REMARK H PARENT 8 19 25 27 23 29 19 32 21 34 27 36
REMARK Flexibility Score: inf
ROOT
ATOM      1  C   UNL     1       3.557 -36.643  43.187  1.00  0.00     0.065 A 
ATOM      2  C   UNL     1       4.014 -35.318  43.193  1.00  0.00     0.208 A 
ATOM      3  O   UNL     1       5.230 -35.018  43.635  1.00  0.00    -0.463 OA
ATOM      4  C   UNL     1       6.083 -35.930  44.094  1.00  0.00     0.147 A 
ATOM      5  C   UNL     1       5.703 -37.292  44.126  1.00  0.00     0.066 A 
ATOM      6  C   UNL     1       4.426 -37.646  43.656  1.00  0.00     0.200 A 
ATOM      7  O   UNL     1       4.066 -38.856  43.639  1.00  0.00    -0.288 OA
ATOM      8  C   UNL     1       6.600 -38.250  44.622  1.00  0.00     0.020 A 
ATOM      9  C   UNL     1       7.853 -37.861  45.095  1.00  0.00     0.047 A 
ATOM     10  C   UNL     1       8.237 -36.515  45.073  1.00  0.00     0.125 A 
ATOM     11  C   UNL     1       7.363 -35.535  44.551  1.00  0.00     0.069 A 
ENDROOT
BRANCH   1  12
ATOM     12  C   UNL     1       2.192 -36.952  42.693  1.00  0.00    -0.011 A 
ATOM     13  C   UNL     1       1.173 -37.300  43.598  1.00  0.00     0.013 A 
ATOM     14  C   UNL     1      -0.112 -37.600  43.134  1.00  0.00     0.047 A 
ATOM     15  C   UNL     1      -0.393 -37.563  41.765  1.00  0.00     0.115 A 
ATOM     16  C   UNL     1       1.904 -36.923  41.317  1.00  0.00     0.013 A 
ATOM     17  C   UNL     1       0.618 -37.224  40.857  1.00  0.00     0.047 A 
BRANCH  15  18
ATOM     18  O   UNL     1      -1.678 -37.864  41.318  1.00  0.00    -0.508 OA
ATOM     19  H   UNL     1      -2.245 -38.568  41.776  1.00  0.00     0.293 HD
ENDBRANCH  15  18
ENDBRANCH   1  12
BRANCH  11  20
ATOM     20  C   UNL     1       7.770 -34.068  44.541  1.00  0.00     0.188 C 
ATOM     21  C   UNL     1       7.609 -33.452  45.959  1.00  0.00     0.179 C 
ATOM     22  O   UNL     1       6.981 -33.363  43.596  1.00  0.00    -0.362 OA
ATOM     23  C   UNL     1       7.409 -31.914  45.898  1.00  0.00     0.177 C 
ATOM     24  C   UNL     1       7.465 -32.043  43.354  1.00  0.00     0.176 C 
ATOM     25  C   UNL     1       8.058 -31.348  44.621  1.00  0.00     0.177 C 
BRANCH  21  26
ATOM     26  O   UNL     1       8.714 -33.783  46.764  1.00  0.00    -0.387 OA
ATOM     27  H   UNL     1       9.414 -34.164  46.174  1.00  0.00     0.211 HD
ENDBRANCH  21  26
BRANCH  23  28
ATOM     28  O   UNL     1       6.035 -31.610  45.900  1.00  0.00    -0.387 OA
ATOM     29  H   UNL     1       5.951 -30.662  46.177  1.00  0.00     0.211 HD
ENDBRANCH  23  28
BRANCH  24  30
ATOM     30  C   UNL     1       8.451 -32.052  42.172  1.00  0.00     0.191 C 
BRANCH  30  31
ATOM     31  O   UNL     1       9.621 -31.348  42.498  1.00  0.00    -0.394 OA
ATOM     32  H   UNL     1       9.870 -30.819  41.696  1.00  0.00     0.210 HD
ENDBRANCH  30  31
ENDBRANCH  24  30
BRANCH  25  33
ATOM     33  O   UNL     1       7.926 -29.949  44.557  1.00  0.00    -0.388 OA
ATOM     34  H   UNL     1       8.319 -29.565  45.382  1.00  0.00     0.211 HD
ENDBRANCH  25  33
ENDBRANCH  11  20
BRANCH  10  35
ATOM     35  O   UNL     1       9.488 -36.152  45.572  1.00  0.00    -0.507 OA
ATOM     36  H   UNL     1      10.347 -36.512  45.172  1.00  0.00     0.293 HD
ENDBRANCH  10  35
TORSDOF 9
ENDMDL
MODEL 4
REMARK VINA RESULT:    -6.957      2.347      4.395
REMARK INTER + INTRA:         -10.629
REMARK INTER:                  -9.962
REMARK INTRA:                  -0.667
REMARK UNBOUND:                -1.232
REMARK SMILES O=c1c(-c2ccc(O)cc2)coc2c([C@H]3O[C@H](CO)[C@@H](O)[C@@H](O)[C@@H]3O)c(O)ccc12
REMARK SMILES IDX 3 1 11 2 12 3 13 4 30 5 2 6 1 7 29 8 28 9 26 10 14 11 4 12
REMARK SMILES IDX 5 13 6 14 7 15 10 16 9 17 8 18 15 20 24 21 16 22 22 23 17 24
REMARK SMILES IDX 20 25 25 26 23 28 18 30 19 31 21 33 27 35
REMARK H PARENT 8 19 25 27 23 29 19 32 21 34 27 36
REMARK Flexibility Score: inf
ROOT
ATOM      1  C   UNL     1       8.104 -31.676  43.952  1.00  0.00     0.065 A 
ATOM      2  C   UNL     1       7.881 -32.783  44.782  1.00  0.00     0.208 A 
ATOM      3  O   UNL     1       7.127 -33.798  44.376  1.00  0.00    -0.463 OA
ATOM      4  C   UNL     1       6.542 -33.839  43.181  1.00  0.00     0.147 A 
ATOM      5  C   UNL     1       6.714 -32.762  42.280  1.00  0.00     0.066 A 
ATOM      6  C   UNL     1       7.515 -31.675  42.674  1.00  0.00     0.200 A 
ATOM      7  O   UNL     1       7.717 -30.713  41.883  1.00  0.00    -0.288 OA
ATOM      8  C   UNL     1       6.087 -32.802  41.025  1.00  0.00     0.020 A 
ATOM      9  C   UNL     1       5.288 -33.889  40.675  1.00  0.00     0.047 A 
ATOM     10  C   UNL     1       5.107 -34.958  41.561  1.00  0.00     0.125 A 
ATOM     11  C   UNL     1       5.751 -34.955  42.818  1.00  0.00     0.069 A 
ENDROOT
BRANCH   1  12
ATOM     12  C   UNL     1       8.947 -30.551  44.431  1.00  0.00    -0.011 A 
ATOM     13  C   UNL     1       8.568 -29.818  45.570  1.00  0.00     0.013 A 
ATOM     14  C   UNL     1       9.356 -28.752  46.017  1.00  0.00     0.047 A 
ATOM     15  C   UNL     1      10.523 -28.403  45.333  1.00  0.00     0.115 A 
ATOM     16  C   UNL     1      10.119 -30.190  43.744  1.00  0.00     0.013 A 
ATOM     17  C   UNL     1      10.903 -29.124  44.194  1.00  0.00     0.047 A 
BRANCH  15  18
ATOM     18  O   UNL     1      11.297 -27.339  45.792  1.00  0.00    -0.508 OA
ATOM     19  H   UNL     1      11.302 -27.071  46.769  1.00  0.00     0.293 HD
ENDBRANCH  15  18
ENDBRANCH   1  12
BRANCH  11  20
ATOM     20  C   UNL     1       5.544 -36.106  43.792  1.00  0.00     0.188 C 
ATOM     21  C   UNL     1       6.697 -37.141  43.659  1.00  0.00     0.179 C 
ATOM     22  O   UNL     1       4.289 -36.718  43.544  1.00  0.00    -0.362 OA
ATOM     23  C   UNL     1       6.257 -38.554  44.128  1.00  0.00     0.177 C 
ATOM     24  C   UNL     1       3.918 -37.642  44.566  1.00  0.00     0.176 C 
ATOM     25  C   UNL     1       5.123 -38.435  45.164  1.00  0.00     0.177 C 
BRANCH  21  26
ATOM     26  O   UNL     1       7.830 -36.706  44.368  1.00  0.00    -0.387 OA
ATOM     27  H   UNL     1       8.382 -37.504  44.576  1.00  0.00     0.211 HD
ENDBRANCH  21  26
BRANCH  23  28
ATOM     28  O   UNL     1       5.810 -39.306  43.027  1.00  0.00    -0.387 OA
ATOM     29  H   UNL     1       4.820 -39.240  43.018  1.00  0.00     0.211 HD
ENDBRANCH  23  28
BRANCH  24  30
ATOM     30  C   UNL     1       3.091 -36.927  45.648  1.00  0.00     0.191 C 
BRANCH  30  31
ATOM     31  O   UNL     1       2.267 -35.946  45.074  1.00  0.00    -0.394 OA
ATOM     32  H   UNL     1       1.343 -36.309  45.078  1.00  0.00     0.210 HD
ENDBRANCH  30  31
ENDBRANCH  24  30
BRANCH  25  33
ATOM     33  O   UNL     1       4.730 -39.700  45.639  1.00  0.00    -0.388 OA
ATOM     34  H   UNL     1       4.252 -39.572  46.498  1.00  0.00     0.211 HD
ENDBRANCH  25  33
ENDBRANCH  11  20
BRANCH  10  35
ATOM     35  O   UNL     1       4.284 -36.022  41.191  1.00  0.00    -0.507 OA
ATOM     36  H   UNL     1       3.986 -36.157  40.231  1.00  0.00     0.293 HD
ENDBRANCH  10  35
TORSDOF 9
ENDMDL
MODEL 5
REMARK VINA RESULT:    -6.870      6.971      9.313
REMARK INTER + INTRA:         -10.512
REMARK INTER:                  -9.325
REMARK INTRA:                  -1.187
REMARK UNBOUND:                -1.232
REMARK SMILES O=c1c(-c2ccc(O)cc2)coc2c([C@H]3O[C@H](CO)[C@@H](O)[C@@H](O)[C@@H]3O)c(O)ccc12
REMARK SMILES IDX 3 1 11 2 12 3 13 4 30 5 2 6 1 7 29 8 28 9 26 10 14 11 4 12
REMARK SMILES IDX 5 13 6 14 7 15 10 16 9 17 8 18 15 20 24 21 16 22 22 23 17 24
REMARK SMILES IDX 20 25 25 26 23 28 18 30 19 31 21 33 27 35
REMARK H PARENT 8 19 25 27 23 29 19 32 21 34 27 36
REMARK Flexibility Score: inf
ROOT
ATOM      1  C   UNL     1       5.800 -32.678  39.994  1.00  0.00     0.065 A 
ATOM      2  C   UNL     1       4.469 -32.302  39.768  1.00  0.00     0.208 A 
ATOM      3  O   UNL     1       4.176 -31.279  38.973  1.00  0.00    -0.463 OA
ATOM      4  C   UNL     1       5.100 -30.553  38.349  1.00  0.00     0.147 A 
ATOM      5  C   UNL     1       6.469 -30.863  38.523  1.00  0.00     0.066 A 
ATOM      6  C   UNL     1       6.816 -31.946  39.351  1.00  0.00     0.200 A 
ATOM      7  O   UNL     1       8.026 -32.271  39.502  1.00  0.00    -0.288 OA
ATOM      8  C   UNL     1       7.442 -30.088  37.874  1.00  0.00     0.020 A 
ATOM      9  C   UNL     1       7.063 -29.011  37.074  1.00  0.00     0.047 A 
ATOM     10  C   UNL     1       5.711 -28.693  36.898  1.00  0.00     0.125 A 
ATOM     11  C   UNL     1       4.711 -29.476  37.519  1.00  0.00     0.069 A 
ENDROOT
BRANCH   1  12
ATOM     12  C   UNL     1       6.104 -33.822  40.891  1.00  0.00    -0.011 A 
ATOM     13  C   UNL     1       6.436 -33.597  42.239  1.00  0.00     0.013 A 
ATOM     14  C   UNL     1       6.730 -34.672  43.083  1.00  0.00     0.047 A 
ATOM     15  C   UNL     1       6.702 -35.981  42.593  1.00  0.00     0.115 A 
ATOM     16  C   UNL     1       6.083 -35.141  40.403  1.00  0.00     0.013 A 
ATOM     17  C   UNL     1       6.378 -36.213  41.251  1.00  0.00     0.047 A 
BRANCH  15  18
ATOM     18  O   UNL     1       6.997 -37.041  43.447  1.00  0.00    -0.508 OA
ATOM     19  H   UNL     1       7.849 -37.580  43.346  1.00  0.00     0.293 HD
ENDBRANCH  15  18
ENDBRANCH   1  12
BRANCH  11  20
ATOM     20  C   UNL     1       3.241 -29.124  37.345  1.00  0.00     0.188 C 
ATOM     21  C   UNL     1       2.780 -29.425  35.891  1.00  0.00     0.179 C 
ATOM     22  O   UNL     1       3.038 -27.757  37.662  1.00  0.00    -0.362 OA
ATOM     23  C   UNL     1       1.555 -28.562  35.486  1.00  0.00     0.177 C 
ATOM     24  C   UNL     1       1.656 -27.415  37.759  1.00  0.00     0.176 C 
ATOM     25  C   UNL     1       0.748 -28.172  36.738  1.00  0.00     0.177 C 
BRANCH  21  26
ATOM     26  O   UNL     1       2.501 -30.795  35.740  1.00  0.00    -0.387 OA
ATOM     27  H   UNL     1       1.893 -31.063  36.477  1.00  0.00     0.211 HD
ENDBRANCH  21  26
BRANCH  23  28
ATOM     28  O   UNL     1       1.989 -27.398  34.825  1.00  0.00    -0.387 OA
ATOM     29  H   UNL     1       1.458 -26.645  35.193  1.00  0.00     0.211 HD
ENDBRANCH  23  28
BRANCH  24  30
ATOM     30  C   UNL     1       1.173 -27.580  39.210  1.00  0.00     0.191 C 
BRANCH  30  31
ATOM     31  O   UNL     1      -0.019 -28.318  39.255  1.00  0.00    -0.394 OA
ATOM     32  H   UNL     1      -0.442 -28.128  40.133  1.00  0.00     0.210 HD
ENDBRANCH  30  31
ENDBRANCH  24  30
BRANCH  25  33
ATOM     33  O   UNL     1      -0.392 -27.420  36.398  1.00  0.00    -0.388 OA
ATOM     34  H   UNL     1      -1.189 -27.895  36.748  1.00  0.00     0.211 HD
ENDBRANCH  25  33
ENDBRANCH  11  20
BRANCH  10  35
ATOM     35  O   UNL     1       5.362 -27.597  36.110  1.00  0.00    -0.507 OA
ATOM     36  H   UNL     1       5.535 -27.582  35.111  1.00  0.00     0.293 HD
ENDBRANCH  10  35
TORSDOF 9
ENDMDL
MODEL 6
REMARK VINA RESULT:    -6.778      1.950      8.332
REMARK INTER + INTRA:         -10.388
REMARK INTER:                  -9.425
REMARK INTRA:                  -0.963
REMARK UNBOUND:                -1.232
REMARK SMILES O=c1c(-c2ccc(O)cc2)coc2c([C@H]3O[C@H](CO)[C@@H](O)[C@@H](O)[C@@H]3O)c(O)ccc12
REMARK SMILES IDX 3 1 11 2 12 3 13 4 30 5 2 6 1 7 29 8 28 9 26 10 14 11 4 12
REMARK SMILES IDX 5 13 6 14 7 15 10 16 9 17 8 18 15 20 24 21 16 22 22 23 17 24
REMARK SMILES IDX 20 25 25 26 23 28 18 30 19 31 21 33 27 35
REMARK H PARENT 8 19 25 27 23 29 19 32 21 34 27 36
REMARK Flexibility Score: inf
ROOT
ATOM      1  C   UNL     1       3.793 -36.800  41.148  1.00  0.00     0.065 A 
ATOM      2  C   UNL     1       4.333 -35.506  41.132  1.00  0.00     0.208 A 
ATOM      3  O   UNL     1       5.333 -35.175  41.940  1.00  0.00    -0.463 OA
ATOM      4  C   UNL     1       5.883 -36.025  42.804  1.00  0.00     0.147 A 
ATOM      5  C   UNL     1       5.398 -37.350  42.888  1.00  0.00     0.066 A 
ATOM      6  C   UNL     1       4.346 -37.738  42.039  1.00  0.00     0.200 A 
ATOM      7  O   UNL     1       3.911 -38.923  42.064  1.00  0.00    -0.288 OA
ATOM      8  C   UNL     1       5.972 -38.241  43.808  1.00  0.00     0.020 A 
ATOM      9  C   UNL     1       7.003 -37.818  44.646  1.00  0.00     0.047 A 
ATOM     10  C   UNL     1       7.488 -36.506  44.574  1.00  0.00     0.125 A 
ATOM     11  C   UNL     1       6.946 -35.599  43.636  1.00  0.00     0.069 A 
ENDROOT
BRANCH   1  12
ATOM     12  C   UNL     1       2.671 -37.145  40.238  1.00  0.00    -0.011 A 
ATOM     13  C   UNL     1       2.931 -37.569  38.923  1.00  0.00     0.013 A 
ATOM     14  C   UNL     1       1.876 -37.886  38.062  1.00  0.00     0.047 A 
ATOM     15  C   UNL     1       0.553 -37.778  38.499  1.00  0.00     0.115 A 
ATOM     16  C   UNL     1       1.338 -37.032  40.669  1.00  0.00     0.013 A 
ATOM     17  C   UNL     1       0.286 -37.350  39.805  1.00  0.00     0.047 A 
BRANCH  15  18
ATOM     18  O   UNL     1      -0.487 -38.098  37.629  1.00  0.00    -0.508 OA
ATOM     19  H   UNL     1      -1.219 -38.745  37.895  1.00  0.00     0.293 HD
ENDBRANCH  15  18
ENDBRANCH   1  12
BRANCH  11  20
ATOM     20  C   UNL     1       7.457 -34.167  43.566  1.00  0.00     0.188 C 
ATOM     21  C   UNL     1       8.481 -34.013  42.406  1.00  0.00     0.179 C 
ATOM     22  O   UNL     1       8.048 -33.812  44.806  1.00  0.00    -0.362 OA
ATOM     23  C   UNL     1       9.455 -32.830  42.651  1.00  0.00     0.177 C 
ATOM     24  C   UNL     1       8.329 -32.417  44.900  1.00  0.00     0.176 C 
ATOM     25  C   UNL     1       8.785 -31.774  43.551  1.00  0.00     0.177 C 
BRANCH  21  26
ATOM     26  O   UNL     1       7.810 -33.865  41.178  1.00  0.00    -0.387 OA
ATOM     27  H   UNL     1       7.011 -33.299  41.337  1.00  0.00     0.211 HD
ENDBRANCH  21  26
BRANCH  23  28
ATOM     28  O   UNL     1      10.628 -33.298  43.271  1.00  0.00    -0.387 OA
ATOM     29  H   UNL     1      10.581 -33.019  44.222  1.00  0.00     0.211 HD
ENDBRANCH  23  28
BRANCH  24  30
ATOM     30  C   UNL     1       7.133 -31.679  45.527  1.00  0.00     0.191 C 
BRANCH  30  31
ATOM     31  O   UNL     1       7.542 -30.460  46.089  1.00  0.00    -0.394 OA
ATOM     32  H   UNL     1       6.728 -30.025  46.454  1.00  0.00     0.210 HD
ENDBRANCH  30  31
ENDBRANCH  24  30
BRANCH  25  33
ATOM     33  O   UNL     1       9.631 -30.670  43.760  1.00  0.00    -0.388 OA
ATOM     34  H   UNL     1       9.803 -30.594  44.734  1.00  0.00     0.211 HD
ENDBRANCH  25  33
ENDBRANCH  11  20
BRANCH  10  35
ATOM     35  O   UNL     1       8.505 -36.104  45.440  1.00  0.00    -0.507 OA
ATOM     36  H   UNL     1       9.236 -36.741  45.736  1.00  0.00     0.293 HD
ENDBRANCH  10  35
TORSDOF 9
ENDMDL
MODEL 7
REMARK VINA RESULT:    -6.657      6.929      9.952
REMARK INTER + INTRA:         -10.224
REMARK INTER:                  -9.003
REMARK INTRA:                  -1.222
REMARK UNBOUND:                -1.232
REMARK SMILES O=c1c(-c2ccc(O)cc2)coc2c([C@H]3O[C@H](CO)[C@@H](O)[C@@H](O)[C@@H]3O)c(O)ccc12
REMARK SMILES IDX 3 1 11 2 12 3 13 4 30 5 2 6 1 7 29 8 28 9 26 10 14 11 4 12
REMARK SMILES IDX 5 13 6 14 7 15 10 16 9 17 8 18 15 20 24 21 16 22 22 23 17 24
REMARK SMILES IDX 20 25 25 26 23 28 18 30 19 31 21 33 27 35
REMARK H PARENT 8 19 25 27 23 29 19 32 21 34 27 36
REMARK Flexibility Score: inf
ROOT
ATOM      1  C   UNL     1       4.479 -34.223  38.486  1.00  0.00     0.065 A 
ATOM      2  C   UNL     1       3.269 -33.548  38.272  1.00  0.00     0.208 A 
ATOM      3  O   UNL     1       3.257 -32.268  37.919  1.00  0.00    -0.463 OA
ATOM      4  C   UNL     1       4.363 -31.548  37.747  1.00  0.00     0.147 A 
ATOM      5  C   UNL     1       5.627 -32.150  37.944  1.00  0.00     0.066 A 
ATOM      6  C   UNL     1       5.679 -33.508  38.310  1.00  0.00     0.200 A 
ATOM      7  O   UNL     1       6.790 -34.085  38.461  1.00  0.00    -0.288 OA
ATOM      8  C   UNL     1       6.792 -31.386  37.774  1.00  0.00     0.020 A 
ATOM      9  C   UNL     1       6.704 -30.039  37.428  1.00  0.00     0.047 A 
ATOM     10  C   UNL     1       5.457 -29.432  37.234  1.00  0.00     0.125 A 
ATOM     11  C   UNL     1       4.271 -30.187  37.371  1.00  0.00     0.069 A 
ENDROOT
BRANCH   1  12
ATOM     12  C   UNL     1       4.468 -35.653  38.886  1.00  0.00    -0.011 A 
ATOM     13  C   UNL     1       4.459 -36.661  37.906  1.00  0.00     0.013 A 
ATOM     14  C   UNL     1       4.440 -38.009  38.280  1.00  0.00     0.047 A 
ATOM     15  C   UNL     1       4.423 -38.365  39.631  1.00  0.00     0.115 A 
ATOM     16  C   UNL     1       4.444 -36.018  40.243  1.00  0.00     0.013 A 
ATOM     17  C   UNL     1       4.424 -37.366  40.613  1.00  0.00     0.047 A 
BRANCH  15  18
ATOM     18  O   UNL     1       4.403 -39.712  39.987  1.00  0.00    -0.508 OA
ATOM     19  H   UNL     1       5.221 -40.300  39.878  1.00  0.00     0.293 HD
ENDBRANCH  15  18
ENDBRANCH   1  12
BRANCH  11  20
ATOM     20  C   UNL     1       2.912 -29.528  37.179  1.00  0.00     0.188 C 
ATOM     21  C   UNL     1       2.515 -29.535  35.676  1.00  0.00     0.179 C 
ATOM     22  O   UNL     1       2.952 -28.202  37.681  1.00  0.00    -0.362 OA
ATOM     23  C   UNL     1       1.513 -28.398  35.341  1.00  0.00     0.177 C 
ATOM     24  C   UNL     1       1.658 -27.606  37.759  1.00  0.00     0.176 C 
ATOM     25  C   UNL     1       0.702 -28.023  36.596  1.00  0.00     0.177 C 
BRANCH  21  26
ATOM     26  O   UNL     1       1.991 -30.789  35.314  1.00  0.00    -0.387 OA
ATOM     27  H   UNL     1       2.633 -31.483  35.613  1.00  0.00     0.211 HD
ENDBRANCH  21  26
BRANCH  23  28
ATOM     28  O   UNL     1       2.211 -27.267  34.879  1.00  0.00    -0.387 OA
ATOM     29  H   UNL     1       2.965 -27.601  34.327  1.00  0.00     0.211 HD
ENDBRANCH  23  28
BRANCH  24  30
ATOM     30  C   UNL     1       1.043 -27.862  39.146  1.00  0.00     0.191 C 
BRANCH  30  31
ATOM     31  O   UNL     1      -0.122 -28.636  39.036  1.00  0.00    -0.394 OA
ATOM     32  H   UNL     1      -0.150 -29.228  39.833  1.00  0.00     0.210 HD
ENDBRANCH  30  31
ENDBRANCH  24  30
BRANCH  25  33
ATOM     33  O   UNL     1      -0.243 -27.020  36.314  1.00  0.00    -0.388 OA
ATOM     34  H   UNL     1      -1.144 -27.435  36.323  1.00  0.00     0.211 HD
ENDBRANCH  25  33
ENDBRANCH  11  20
BRANCH  10  35
ATOM     35  O   UNL     1       5.398 -28.076  36.910  1.00  0.00    -0.507 OA
ATOM     36  H   UNL     1       6.020 -27.399  37.336  1.00  0.00     0.293 HD
ENDBRANCH  10  35
TORSDOF 9
ENDMDL
MODEL 8
REMARK VINA RESULT:    -6.638      2.220      8.122
REMARK INTER + INTRA:         -10.198
REMARK INTER:                  -9.905
REMARK INTRA:                  -0.293
REMARK UNBOUND:                -1.232
REMARK SMILES O=c1c(-c2ccc(O)cc2)coc2c([C@H]3O[C@H](CO)[C@@H](O)[C@@H](O)[C@@H]3O)c(O)ccc12
REMARK SMILES IDX 3 1 11 2 12 3 13 4 30 5 2 6 1 7 29 8 28 9 26 10 14 11 4 12
REMARK SMILES IDX 5 13 6 14 7 15 10 16 9 17 8 18 15 20 24 21 16 22 22 23 17 24
REMARK SMILES IDX 20 25 25 26 23 28 18 30 19 31 21 33 27 35
REMARK H PARENT 8 19 25 27 23 29 19 32 21 34 27 36
REMARK Flexibility Score: inf
ROOT
ATOM      1  C   UNL     1       3.126 -36.696  41.944  1.00  0.00     0.065 A 
ATOM      2  C   UNL     1       3.568 -35.778  42.907  1.00  0.00     0.208 A 
ATOM      3  O   UNL     1       4.818 -35.330  42.898  1.00  0.00    -0.463 OA
ATOM      4  C   UNL     1       5.721 -35.709  41.996  1.00  0.00     0.147 A 
ATOM      5  C   UNL     1       5.360 -36.634  40.989  1.00  0.00     0.066 A 
ATOM      6  C   UNL     1       4.041 -37.122  40.963  1.00  0.00     0.200 A 
ATOM      7  O   UNL     1       3.675 -37.922  40.058  1.00  0.00    -0.288 OA
ATOM      8  C   UNL     1       6.317 -37.041  40.046  1.00  0.00     0.020 A 
ATOM      9  C   UNL     1       7.620 -36.549  40.112  1.00  0.00     0.047 A 
ATOM     10  C   UNL     1       7.989 -35.637  41.108  1.00  0.00     0.125 A 
ATOM     11  C   UNL     1       7.036 -35.190  42.050  1.00  0.00     0.069 A 
ENDROOT
BRANCH   1  12
ATOM     12  C   UNL     1       1.725 -37.186  41.978  1.00  0.00    -0.011 A 
ATOM     13  C   UNL     1       0.865 -36.951  40.890  1.00  0.00     0.013 A 
ATOM     14  C   UNL     1      -0.457 -37.405  40.924  1.00  0.00     0.047 A 
ATOM     15  C   UNL     1      -0.938 -38.091  42.043  1.00  0.00     0.115 A 
ATOM     16  C   UNL     1       1.232 -37.871  43.103  1.00  0.00     0.013 A 
ATOM     17  C   UNL     1      -0.090 -38.323  43.133  1.00  0.00     0.047 A 
BRANCH  15  18
ATOM     18  O   UNL     1      -2.258 -38.537  42.061  1.00  0.00    -0.508 OA
ATOM     19  H   UNL     1      -2.933 -38.218  41.377  1.00  0.00     0.293 HD
ENDBRANCH  15  18
ENDBRANCH   1  12
BRANCH  11  20
ATOM     20  C   UNL     1       7.437 -34.212  43.145  1.00  0.00     0.188 C 
ATOM     21  C   UNL     1       6.863 -34.669  44.517  1.00  0.00     0.179 C 
ATOM     22  O   UNL     1       6.974 -32.913  42.816  1.00  0.00    -0.362 OA
ATOM     23  C   UNL     1       6.700 -33.477  45.498  1.00  0.00     0.177 C 
ATOM     24  C   UNL     1       7.517 -31.904  43.666  1.00  0.00     0.176 C 
ATOM     25  C   UNL     1       7.707 -32.365  45.147  1.00  0.00     0.177 C 
BRANCH  21  26
ATOM     26  O   UNL     1       7.673 -35.673  45.076  1.00  0.00    -0.387 OA
ATOM     27  H   UNL     1       8.541 -35.260  45.319  1.00  0.00     0.211 HD
ENDBRANCH  21  26
BRANCH  23  28
ATOM     28  O   UNL     1       5.391 -32.968  45.418  1.00  0.00    -0.387 OA
ATOM     29  H   UNL     1       5.077 -33.128  44.491  1.00  0.00     0.211 HD
ENDBRANCH  23  28
BRANCH  24  30
ATOM     30  C   UNL     1       8.812 -31.341  43.056  1.00  0.00     0.191 C 
BRANCH  30  31
ATOM     31  O   UNL     1       9.366 -30.357  43.889  1.00  0.00    -0.394 OA
ATOM     32  H   UNL     1       8.943 -30.465  44.781  1.00  0.00     0.210 HD
ENDBRANCH  30  31
ENDBRANCH  24  30
BRANCH  25  33
ATOM     33  O   UNL     1       7.610 -31.286  46.044  1.00  0.00    -0.388 OA
ATOM     34  H   UNL     1       6.771 -31.392  46.564  1.00  0.00     0.211 HD
ENDBRANCH  25  33
ENDBRANCH  11  20
BRANCH  10  35
ATOM     35  O   UNL     1       9.306 -35.178  41.162  1.00  0.00    -0.507 OA
ATOM     36  H   UNL     1       9.603 -34.350  40.659  1.00  0.00     0.293 HD
ENDBRANCH  10  35
TORSDOF 9
ENDMDL
MODEL 9
REMARK VINA RESULT:    -6.586      1.107      2.429
REMARK INTER + INTRA:         -10.129
REMARK INTER:                  -9.590
REMARK INTRA:                  -0.539
REMARK UNBOUND:                -1.232
REMARK SMILES O=c1c(-c2ccc(O)cc2)coc2c([C@H]3O[C@H](CO)[C@@H](O)[C@@H](O)[C@@H]3O)c(O)ccc12
REMARK SMILES IDX 3 1 11 2 12 3 13 4 30 5 2 6 1 7 29 8 28 9 26 10 14 11 4 12
REMARK SMILES IDX 5 13 6 14 7 15 10 16 9 17 8 18 15 20 24 21 16 22 22 23 17 24
REMARK SMILES IDX 20 25 25 26 23 28 18 30 19 31 21 33 27 35
REMARK H PARENT 8 19 25 27 23 29 19 32 21 34 27 36
REMARK Flexibility Score: inf
ROOT
ATOM      1  C   UNL     1       6.378 -34.738  43.980  1.00  0.00     0.065 A 
ATOM      2  C   UNL     1       5.215 -34.770  43.197  1.00  0.00     0.208 A 
ATOM      3  O   UNL     1       4.561 -35.908  42.996  1.00  0.00    -0.463 OA
ATOM      4  C   UNL     1       4.951 -37.073  43.509  1.00  0.00     0.147 A 
ATOM      5  C   UNL     1       6.115 -37.131  44.310  1.00  0.00     0.066 A 
ATOM      6  C   UNL     1       6.827 -35.943  44.551  1.00  0.00     0.200 A 
ATOM      7  O   UNL     1       7.851 -35.952  45.289  1.00  0.00    -0.288 OA
ATOM      8  C   UNL     1       6.530 -38.362  44.840  1.00  0.00     0.020 A 
ATOM      9  C   UNL     1       5.809 -39.523  44.566  1.00  0.00     0.047 A 
ATOM     10  C   UNL     1       4.657 -39.478  43.771  1.00  0.00     0.125 A 
ATOM     11  C   UNL     1       4.203 -38.246  43.250  1.00  0.00     0.069 A 
ENDROOT
BRANCH   1  12
ATOM     12  C   UNL     1       7.095 -33.454  44.185  1.00  0.00    -0.011 A 
ATOM     13  C   UNL     1       8.106 -33.056  43.292  1.00  0.00     0.013 A 
ATOM     14  C   UNL     1       8.788 -31.851  43.489  1.00  0.00     0.047 A 
ATOM     15  C   UNL     1       8.475 -31.034  44.579  1.00  0.00     0.115 A 
ATOM     16  C   UNL     1       6.790 -32.630  45.284  1.00  0.00     0.013 A 
ATOM     17  C   UNL     1       7.475 -31.427  45.477  1.00  0.00     0.047 A 
BRANCH  15  18
ATOM     18  O   UNL     1       9.164 -29.837  44.761  1.00  0.00    -0.508 OA
ATOM     19  H   UNL     1      10.014 -29.632  44.249  1.00  0.00     0.293 HD
ENDBRANCH  15  18
ENDBRANCH   1  12
BRANCH  11  20
ATOM     20  C   UNL     1       2.962 -38.193  42.371  1.00  0.00     0.188 C 
ATOM     21  C   UNL     1       3.359 -38.265  40.868  1.00  0.00     0.179 C 
ATOM     22  O   UNL     1       2.237 -37.005  42.641  1.00  0.00    -0.362 OA
ATOM     23  C   UNL     1       2.279 -37.622  39.957  1.00  0.00     0.177 C 
ATOM     24  C   UNL     1       0.944 -37.001  42.038  1.00  0.00     0.176 C 
ATOM     25  C   UNL     1       0.900 -37.697  40.640  1.00  0.00     0.177 C 
BRANCH  21  26
ATOM     26  O   UNL     1       3.606 -39.597  40.491  1.00  0.00    -0.387 OA
ATOM     27  H   UNL     1       3.878 -40.096  41.304  1.00  0.00     0.211 HD
ENDBRANCH  21  26
BRANCH  23  28
ATOM     28  O   UNL     1       2.605 -36.276  39.707  1.00  0.00    -0.387 OA
ATOM     29  H   UNL     1       3.199 -35.983  40.445  1.00  0.00     0.211 HD
ENDBRANCH  23  28
BRANCH  24  30
ATOM     30  C   UNL     1      -0.095 -37.577  43.014  1.00  0.00     0.191 C 
BRANCH  30  31
ATOM     31  O   UNL     1       0.108 -37.074  44.309  1.00  0.00    -0.394 OA
ATOM     32  H   UNL     1       1.080 -37.151  44.496  1.00  0.00     0.210 HD
ENDBRANCH  30  31
ENDBRANCH  24  30
BRANCH  25  33
ATOM     33  O   UNL     1      -0.106 -37.156  39.820  1.00  0.00    -0.388 OA
ATOM     34  H   UNL     1      -0.727 -37.889  39.569  1.00  0.00     0.211 HD
ENDBRANCH  25  33
ENDBRANCH  11  20
BRANCH  10  35
ATOM     35  O   UNL     1       3.968 -40.659  43.496  1.00  0.00    -0.507 OA
ATOM     36  H   UNL     1       2.955 -40.687  43.452  1.00  0.00     0.293 HD
ENDBRANCH  10  35
TORSDOF 9
ENDMDL
