MODEL 1
REMARK VINA RESULT:    -3.994      0.000      0.000
REMARK INTER + INTRA:          -6.370
REMARK INTER:                  -5.628
REMARK INTRA:                  -0.742
REMARK UNBOUND:                -0.742
REMARK SMILES CCCCCCCCC(=O)[O-]
REMARK SMILES IDX 6 1 7 2 8 3 9 4 10 5 11 6 5 7 4 8 3 9 2 10 1 11
REMARK H PARENT
REMARK Flexibility Score: inf
ROOT
ATOM      1  C   UNL     1     -37.737  18.363 -28.182  1.00  0.00     0.000 C 
ENDROOT
BRANCH   1   2
ATOM      2  C   UNL     1     -36.284  18.495 -28.680  1.00  0.00     0.006 C 
BRANCH   2   3
ATOM      3  C   UNL     1     -36.124  18.390 -30.205  1.00  0.00     0.053 C 
BRANCH   3   4
ATOM      4  C   UNL     1     -35.635  17.037 -30.624  1.00  0.00     0.041 C 
ATOM      5  O   UNL     1     -34.500  16.909 -31.154  1.00  0.00    -0.550 OA
ATOM      6  O   UNL     1     -36.421  15.914 -30.398  1.00  0.00    -0.550 OA
ENDBRANCH   3   4
ENDBRANCH   2   3
ENDBRANCH   1   2
BRANCH   1   7
ATOM      7  C   UNL     1     -38.819  18.643 -29.245  1.00  0.00     0.000 C 
BRANCH   7   8
ATOM      8  C   UNL     1     -39.689  19.887 -28.977  1.00  0.00    -0.000 C 
BRANCH   8   9
ATOM      9  C   UNL     1     -39.299  21.142 -29.784  1.00  0.00    -0.000 C 
BRANCH   9  10
ATOM     10  C   UNL     1     -38.522  22.206 -28.989  1.00  0.00    -0.003 C 
ATOM     11  C   UNL     1     -37.011  22.129 -29.209  1.00  0.00     0.004 C 
ENDBRANCH   9  10
ENDBRANCH   8   9
ENDBRANCH   7   8
ENDBRANCH   1   7
TORSDOF 7
ENDMDL
MODEL 2
REMARK VINA RESULT:    -3.992      1.569      2.564
REMARK INTER + INTRA:          -6.367
REMARK INTER:                  -5.624
REMARK INTRA:                  -0.743
REMARK UNBOUND:                -0.742
REMARK SMILES CCCCCCCCC(=O)[O-]
REMARK SMILES IDX 6 1 7 2 8 3 9 4 10 5 11 6 5 7 4 8 3 9 2 10 1 11
REMARK H PARENT
REMARK Flexibility Score: inf
ROOT
ATOM      1  C   UNL     1     -38.012  19.086 -31.861  1.00  0.00     0.000 C 
ENDROOT
BRANCH   1   2
ATOM      2  C   UNL     1     -38.190  17.645 -31.344  1.00  0.00     0.006 C 
BRANCH   2   3
ATOM      3  C   UNL     1     -37.295  17.284 -30.148  1.00  0.00     0.053 C 
BRANCH   3   4
ATOM      4  C   UNL     1     -36.345  16.173 -30.476  1.00  0.00     0.041 C 
ATOM      5  O   UNL     1     -35.243  16.424 -31.032  1.00  0.00    -0.550 OA
ATOM      6  O   UNL     1     -36.662  14.864 -30.136  1.00  0.00    -0.550 OA
ENDBRANCH   3   4
ENDBRANCH   2   3
ENDBRANCH   1   2
BRANCH   1   7
ATOM      7  C   UNL     1     -37.049  19.961 -31.033  1.00  0.00     0.000 C 
BRANCH   7   8
ATOM      8  C   UNL     1     -37.674  21.243 -30.448  1.00  0.00    -0.000 C 
BRANCH   8   9
ATOM      9  C   UNL     1     -39.031  21.045 -29.743  1.00  0.00    -0.000 C 
BRANCH   9  10
ATOM     10  C   UNL     1     -39.003  20.077 -28.547  1.00  0.00    -0.003 C 
ATOM     11  C   UNL     1     -40.172  19.092 -28.549  1.00  0.00     0.004 C 
ENDBRANCH   9  10
ENDBRANCH   8   9
ENDBRANCH   7   8
ENDBRANCH   1   7
TORSDOF 7
ENDMDL
MODEL 3
REMARK VINA RESULT:    -3.899      2.459      3.462
REMARK INTER + INTRA:          -6.236
REMARK INTER:                  -5.748
REMARK INTRA:                  -0.488
REMARK UNBOUND:                -0.742
REMARK SMILES CCCCCCCCC(=O)[O-]
REMARK SMILES IDX 6 1 7 2 8 3 9 4 10 5 11 6 5 7 4 8 3 9 2 10 1 11
REMARK H PARENT
REMARK Flexibility Score: inf
ROOT
ATOM      1  C   UNL     1     -37.421  19.611 -31.509  1.00  0.00     0.000 C 
ENDROOT
BRANCH   1   2
ATOM      2  C   UNL     1     -38.087  18.286 -31.089  1.00  0.00     0.006 C 
BRANCH   2   3
ATOM      3  C   UNL     1     -37.422  17.592 -29.890  1.00  0.00     0.053 C 
BRANCH   3   4
ATOM      4  C   UNL     1     -37.621  18.358 -28.619  1.00  0.00     0.041 C 
ATOM      5  O   UNL     1     -38.783  18.626 -28.215  1.00  0.00    -0.550 OA
ATOM      6  O   UNL     1     -36.522  18.747 -27.863  1.00  0.00    -0.550 OA
ENDBRANCH   3   4
ENDBRANCH   2   3
ENDBRANCH   1   2
BRANCH   1   7
ATOM      7  C   UNL     1     -38.366  20.829 -31.558  1.00  0.00     0.000 C 
BRANCH   7   8
ATOM      8  C   UNL     1     -38.597  21.530 -30.206  1.00  0.00    -0.000 C 
BRANCH   8   9
ATOM      9  C   UNL     1     -40.067  21.589 -29.743  1.00  0.00    -0.000 C 
BRANCH   9  10
ATOM     10  C   UNL     1     -41.001  22.396 -30.661  1.00  0.00    -0.003 C 
ATOM     11  C   UNL     1     -42.181  23.017 -29.913  1.00  0.00     0.004 C 
ENDBRANCH   9  10
ENDBRANCH   8   9
ENDBRANCH   7   8
ENDBRANCH   1   7
TORSDOF 7
ENDMDL
MODEL 4
REMARK VINA RESULT:    -3.884      1.659      2.213
REMARK INTER + INTRA:          -6.215
REMARK INTER:                  -5.425
REMARK INTRA:                  -0.789
REMARK UNBOUND:                -0.742
REMARK SMILES CCCCCCCCC(=O)[O-]
REMARK SMILES IDX 6 1 7 2 8 3 9 4 10 5 11 6 5 7 4 8 3 9 2 10 1 11
REMARK H PARENT
REMARK Flexibility Score: inf
ROOT
ATOM      1  C   UNL     1     -39.006  18.949 -28.543  1.00  0.00     0.000 C 
ENDROOT
BRANCH   1   2
ATOM      2  C   UNL     1     -37.477  18.836 -28.386  1.00  0.00     0.006 C 
BRANCH   2   3
ATOM      3  C   UNL     1     -36.893  17.482 -28.818  1.00  0.00     0.053 C 
BRANCH   3   4
ATOM      4  C   UNL     1     -36.611  17.437 -30.289  1.00  0.00     0.041 C 
ATOM      5  O   UNL     1     -37.531  17.158 -31.102  1.00  0.00    -0.550 OA
ATOM      6  O   UNL     1     -35.340  17.737 -30.762  1.00  0.00    -0.550 OA
ENDBRANCH   3   4
ENDBRANCH   2   3
ENDBRANCH   1   2
BRANCH   1   7
ATOM      7  C   UNL     1     -39.496  20.235 -29.240  1.00  0.00     0.000 C 
BRANCH   7   8
ATOM      8  C   UNL     1     -38.419  20.994 -30.039  1.00  0.00    -0.000 C 
BRANCH   8   9
ATOM      9  C   UNL     1     -38.365  20.660 -31.544  1.00  0.00    -0.000 C 
BRANCH   9  10
ATOM     10  C   UNL     1     -36.991  20.871 -32.204  1.00  0.00    -0.003 C 
ATOM     11  C   UNL     1     -35.886  21.182 -31.194  1.00  0.00     0.004 C 
ENDBRANCH   9  10
ENDBRANCH   8   9
ENDBRANCH   7   8
ENDBRANCH   1   7
TORSDOF 7
ENDMDL
MODEL 5
REMARK VINA RESULT:    -3.840      2.932      5.616
REMARK INTER + INTRA:          -6.152
REMARK INTER:                  -5.772
REMARK INTRA:                  -0.380
REMARK UNBOUND:                -0.742
REMARK SMILES CCCCCCCCC(=O)[O-]
REMARK SMILES IDX 6 1 7 2 8 3 9 4 10 5 11 6 5 7 4 8 3 9 2 10 1 11
REMARK H PARENT
REMARK Flexibility Score: inf
ROOT
ATOM      1  C   UNL     1     -35.673  18.660 -29.340  1.00  0.00     0.000 C 
ENDROOT
BRANCH   1   2
ATOM      2  C   UNL     1     -36.692  18.897 -28.208  1.00  0.00     0.006 C 
BRANCH   2   3
ATOM      3  C   UNL     1     -38.071  18.264 -28.452  1.00  0.00     0.053 C 
BRANCH   3   4
ATOM      4  C   UNL     1     -39.130  19.300 -28.680  1.00  0.00     0.041 C 
ATOM      5  O   UNL     1     -40.323  19.069 -28.352  1.00  0.00    -0.550 OA
ATOM      6  O   UNL     1     -38.790  20.533 -29.222  1.00  0.00    -0.550 OA
ENDBRANCH   3   4
ENDBRANCH   2   3
ENDBRANCH   1   2
BRANCH   1   7
ATOM      7  C   UNL     1     -36.233  17.932 -30.579  1.00  0.00     0.000 C 
BRANCH   7   8
ATOM      8  C   UNL     1     -35.778  16.468 -30.736  1.00  0.00    -0.000 C 
BRANCH   8   9
ATOM      9  C   UNL     1     -36.819  15.412 -30.308  1.00  0.00    -0.000 C 
BRANCH   9  10
ATOM     10  C   UNL     1     -36.233  14.032 -29.961  1.00  0.00    -0.003 C 
ATOM     11  C   UNL     1     -37.196  12.883 -30.261  1.00  0.00     0.004 C 
ENDBRANCH   9  10
ENDBRANCH   8   9
ENDBRANCH   7   8
ENDBRANCH   1   7
TORSDOF 7
ENDMDL
MODEL 6
REMARK VINA RESULT:    -3.827      1.744      2.660
REMARK INTER + INTRA:          -6.135
REMARK INTER:                  -5.743
REMARK INTRA:                  -0.392
REMARK UNBOUND:                -0.742
REMARK SMILES CCCCCCCCC(=O)[O-]
REMARK SMILES IDX 6 1 7 2 8 3 9 4 10 5 11 6 5 7 4 8 3 9 2 10 1 11
REMARK H PARENT
REMARK Flexibility Score: inf
ROOT
ATOM      1  C   UNL     1     -39.225  19.416 -28.845  1.00  0.00     0.000 C 
ENDROOT
BRANCH   1   2
ATOM      2  C   UNL     1     -38.042  18.475 -28.546  1.00  0.00     0.006 C 
BRANCH   2   3
ATOM      3  C   UNL     1     -37.027  18.345 -29.692  1.00  0.00     0.053 C 
BRANCH   3   4
ATOM      4  C   UNL     1     -37.359  17.207 -30.608  1.00  0.00     0.041 C 
ATOM      5  O   UNL     1     -38.229  17.349 -31.506  1.00  0.00    -0.550 OA
ATOM      6  O   UNL     1     -36.682  16.000 -30.489  1.00  0.00    -0.550 OA
ENDBRANCH   3   4
ENDBRANCH   2   3
ENDBRANCH   1   2
BRANCH   1   7
ATOM      7  C   UNL     1     -38.918  20.552 -29.843  1.00  0.00     0.000 C 
BRANCH   7   8
ATOM      8  C   UNL     1     -38.777  21.952 -29.214  1.00  0.00    -0.000 C 
BRANCH   8   9
ATOM      9  C   UNL     1     -40.067  22.797 -29.206  1.00  0.00    -0.000 C 
BRANCH   9  10
ATOM     10  C   UNL     1     -41.092  22.422 -30.291  1.00  0.00    -0.003 C 
ATOM     11  C   UNL     1     -42.501  22.926 -29.979  1.00  0.00     0.004 C 
ENDBRANCH   9  10
ENDBRANCH   8   9
ENDBRANCH   7   8
ENDBRANCH   1   7
TORSDOF 7
ENDMDL
MODEL 7
REMARK VINA RESULT:    -3.760      3.009      4.536
REMARK INTER + INTRA:          -6.040
REMARK INTER:                  -5.389
REMARK INTRA:                  -0.651
REMARK UNBOUND:                -0.742
REMARK SMILES CCCCCCCCC(=O)[O-]
REMARK SMILES IDX 6 1 7 2 8 3 9 4 10 5 11 6 5 7 4 8 3 9 2 10 1 11
REMARK H PARENT
REMARK Flexibility Score: inf
ROOT
ATOM      1  C   UNL     1     -35.241  19.753 -30.779  1.00  0.00     0.000 C 
ENDROOT
BRANCH   1   2
ATOM      2  C   UNL     1     -36.324  20.701 -31.333  1.00  0.00     0.006 C 
BRANCH   2   3
ATOM      3  C   UNL     1     -36.218  22.149 -30.829  1.00  0.00     0.053 C 
BRANCH   3   4
ATOM      4  C   UNL     1     -36.815  22.313 -29.466  1.00  0.00     0.041 C 
ATOM      5  O   UNL     1     -36.102  22.699 -28.503  1.00  0.00    -0.550 OA
ATOM      6  O   UNL     1     -38.169  22.071 -29.266  1.00  0.00    -0.550 OA
ENDBRANCH   3   4
ENDBRANCH   2   3
ENDBRANCH   1   2
BRANCH   1   7
ATOM      7  C   UNL     1     -35.779  18.507 -30.046  1.00  0.00     0.000 C 
BRANCH   7   8
ATOM      8  C   UNL     1     -36.207  18.744 -28.585  1.00  0.00    -0.000 C 
BRANCH   8   9
ATOM      9  C   UNL     1     -37.618  18.235 -28.227  1.00  0.00    -0.000 C 
BRANCH   9  10
ATOM     10  C   UNL     1     -38.715  18.609 -29.238  1.00  0.00    -0.003 C 
ATOM     11  C   UNL     1     -40.012  19.066 -28.570  1.00  0.00     0.004 C 
ENDBRANCH   9  10
ENDBRANCH   8   9
ENDBRANCH   7   8
ENDBRANCH   1   7
TORSDOF 7
ENDMDL
MODEL 8
REMARK VINA RESULT:    -3.757      2.401      4.353
REMARK INTER + INTRA:          -6.037
REMARK INTER:                  -5.489
REMARK INTRA:                  -0.548
REMARK UNBOUND:                -0.742
REMARK SMILES CCCCCCCCC(=O)[O-]
REMARK SMILES IDX 6 1 7 2 8 3 9 4 10 5 11 6 5 7 4 8 3 9 2 10 1 11
REMARK H PARENT
REMARK Flexibility Score: inf
ROOT
ATOM      1  C   UNL     1     -39.542  19.938 -28.885  1.00  0.00     0.000 C 
ENDROOT
BRANCH   1   2
ATOM      2  C   UNL     1     -39.216  21.135 -29.801  1.00  0.00     0.006 C 
BRANCH   2   3
ATOM      3  C   UNL     1     -37.733  21.253 -30.186  1.00  0.00     0.053 C 
BRANCH   3   4
ATOM      4  C   UNL     1     -37.508  20.970 -31.640  1.00  0.00     0.041 C 
ATOM      5  O   UNL     1     -38.394  20.384 -32.316  1.00  0.00    -0.550 OA
ATOM      6  O   UNL     1     -36.333  21.384 -32.255  1.00  0.00    -0.550 OA
ENDBRANCH   3   4
ENDBRANCH   2   3
ENDBRANCH   1   2
BRANCH   1   7
ATOM      7  C   UNL     1     -38.781  18.638 -29.214  1.00  0.00     0.000 C 
BRANCH   7   8
ATOM      8  C   UNL     1     -37.658  18.272 -28.225  1.00  0.00    -0.000 C 
BRANCH   8   9
ATOM      9  C   UNL     1     -36.272  18.046 -28.863  1.00  0.00    -0.000 C 
BRANCH   9  10
ATOM     10  C   UNL     1     -36.304  17.642 -30.348  1.00  0.00    -0.003 C 
ATOM     11  C   UNL     1     -36.429  16.132 -30.552  1.00  0.00     0.004 C 
ENDBRANCH   9  10
ENDBRANCH   8   9
ENDBRANCH   7   8
ENDBRANCH   1   7
TORSDOF 7
ENDMDL
MODEL 9
REMARK VINA RESULT:    -3.754      2.345      4.714
REMARK INTER + INTRA:          -6.032
REMARK INTER:                  -5.362
REMARK INTRA:                  -0.670
REMARK UNBOUND:                -0.742
REMARK SMILES CCCCCCCCC(=O)[O-]
REMARK SMILES IDX 6 1 7 2 8 3 9 4 10 5 11 6 5 7 4 8 3 9 2 10 1 11
REMARK H PARENT
REMARK Flexibility Score: inf
ROOT
ATOM      1  C   UNL     1     -37.093  21.871 -29.752  1.00  0.00     0.000 C 
ENDROOT
BRANCH   1   2
ATOM      2  C   UNL     1     -38.485  21.672 -29.120  1.00  0.00     0.006 C 
BRANCH   2   3
ATOM      3  C   UNL     1     -39.287  20.499 -29.707  1.00  0.00     0.053 C 
BRANCH   3   4
ATOM      4  C   UNL     1     -39.485  19.401 -28.707  1.00  0.00     0.041 C 
ATOM      5  O   UNL     1     -40.648  19.036 -28.389  1.00  0.00    -0.550 OA
ATOM      6  O   UNL     1     -38.386  18.759 -28.152  1.00  0.00    -0.550 OA
ENDBRANCH   3   4
ENDBRANCH   2   3
ENDBRANCH   1   2
BRANCH   1   7
ATOM      7  C   UNL     1     -35.916  21.312 -28.928  1.00  0.00     0.000 C 
BRANCH   7   8
ATOM      8  C   UNL     1     -35.138  20.163 -29.599  1.00  0.00    -0.000 C 
BRANCH   8   9
ATOM      9  C   UNL     1     -35.937  19.356 -30.642  1.00  0.00    -0.000 C 
BRANCH   9  10
ATOM     10  C   UNL     1     -35.844  17.828 -30.486  1.00  0.00    -0.003 C 
ATOM     11  C   UNL     1     -37.157  17.114 -30.806  1.00  0.00     0.004 C 
ENDBRANCH   9  10
ENDBRANCH   8   9
ENDBRANCH   7   8
ENDBRANCH   1   7
TORSDOF 7
ENDMDL
