MODEL 1
REMARK VINA RESULT:    -3.229      0.000      0.000
REMARK INTER + INTRA:          -3.139
REMARK INTER:                  -3.984
REMARK INTRA:                   0.845
REMARK UNBOUND:                 0.845
REMARK SMILES CC1=CC=CC(C)(C)CC1=O
REMARK SMILES IDX 1 1 2 2 3 3 10 4 11 5 9 6 4 8 5 9 6 10 7 11 8 12
REMARK H PARENT
REMARK Flexibility Score: 80.00
ROOT
ATOM      1  C   UNL     1      30.084   7.547 104.434  1.00  0.00     0.048 C 
ATOM      2  C   UNL     1      31.016   7.081 105.529  1.00  0.00    -0.008 C 
ATOM      3  C   UNL     1      31.031   5.764 105.827  1.00  0.00     0.007 C 
ENDROOT
BRANCH   2   4
ATOM      4  C   UNL     1      31.884   8.116 106.152  1.00  0.00     0.159 C 
ATOM      5  O   UNL     1      31.742   9.318 105.797  1.00  0.00    -0.295 OA
BRANCH   4   6
ATOM      6  C   UNL     1      32.958   7.818 107.157  1.00  0.00     0.091 CG0
ATOM      7  G   UNL     1      32.475   6.972 108.357  1.00  0.00     0.000 G0
ENDBRANCH   4   6
ENDBRANCH   2   4
BRANCH   3   8
ATOM      8  C   UNL     1      31.819   5.032 106.843  1.00  0.00    -0.003 C 
ATOM      9  C   UNL     1      32.421   5.512 107.937  1.00  0.00    -0.020 C 
BRANCH   9  10
ATOM     10  C   UNL     1      32.488   6.963 108.353  1.00  0.00    -0.010 CG0
ATOM     11  C   UNL     1      33.546   7.096 109.473  1.00  0.00     0.016 C 
ATOM     12  C   UNL     1      31.127   7.419 108.927  1.00  0.00     0.016 C 
ATOM     13  G   UNL     1      32.948   7.821 107.153  1.00  0.00     0.000 G0
ENDBRANCH   9  10
ENDBRANCH   3   8
TORSDOF 0
ENDMDL
MODEL 2
REMARK VINA RESULT:    -3.134      5.517      6.883
REMARK INTER + INTRA:          -3.022
REMARK INTER:                  -3.877
REMARK INTRA:                   0.855
REMARK UNBOUND:                 0.845
REMARK SMILES CC1=CC=CC(C)(C)CC1=O
REMARK SMILES IDX 1 1 2 2 3 3 10 4 11 5 9 6 4 8 5 9 6 10 7 11 8 12
REMARK H PARENT
REMARK Flexibility Score: 80.00
ROOT
ATOM      1  C   UNL     1      33.337   9.997 105.501  1.00  0.00     0.048 C 
ATOM      2  C   UNL     1      34.420  11.017 105.765  1.00  0.00    -0.008 C 
ATOM      3  C   UNL     1      34.257  12.257 105.256  1.00  0.00     0.007 C 
ENDROOT
BRANCH   2   4
ATOM      4  C   UNL     1      35.558  10.578 106.618  1.00  0.00     0.159 C 
ATOM      5  O   UNL     1      35.615   9.369 106.973  1.00  0.00    -0.295 OA
BRANCH   4   6
ATOM      6  C   UNL     1      36.632  11.495 107.123  1.00  0.00     0.091 CG0
ATOM      7  G   UNL     1      37.321  12.323 106.015  1.00  0.00     0.000 G0
ENDBRANCH   4   6
ENDBRANCH   2   4
BRANCH   3   8
ATOM      8  C   UNL     1      35.142  13.440 105.340  1.00  0.00    -0.003 C 
ATOM      9  C   UNL     1      36.448  13.486 105.628  1.00  0.00    -0.020 C 
BRANCH   9  10
ATOM     10  C   UNL     1      37.319  12.311 106.007  1.00  0.00    -0.010 CG0
ATOM     11  C   UNL     1      38.650  12.858 106.573  1.00  0.00     0.016 C 
ATOM     12  C   UNL     1      37.647  11.461 104.757  1.00  0.00     0.016 C 
ATOM     13  G   UNL     1      36.624  11.494 107.120  1.00  0.00     0.000 G0
ENDBRANCH   9  10
ENDBRANCH   3   8
TORSDOF 0
ENDMDL
MODEL 3
REMARK VINA RESULT:    -2.847      1.497      2.460
REMARK INTER + INTRA:          -2.667
REMARK INTER:                  -3.510
REMARK INTRA:                   0.843
REMARK UNBOUND:                 0.845
REMARK SMILES CC1=CC=CC(C)(C)CC1=O
REMARK SMILES IDX 1 1 2 2 3 3 10 4 11 5 9 6 4 8 5 9 6 10 7 11 8 12
REMARK H PARENT
REMARK Flexibility Score: 80.00
ROOT
ATOM      1  C   UNL     1      33.192  10.703 105.828  1.00  0.00     0.048 C 
ATOM      2  C   UNL     1      32.698   9.311 106.151  1.00  0.00    -0.008 C 
ATOM      3  C   UNL     1      31.599   8.866 105.504  1.00  0.00     0.007 C 
ENDROOT
BRANCH   2   4
ATOM      4  C   UNL     1      33.505   8.525 107.122  1.00  0.00     0.159 C 
ATOM      5  O   UNL     1      34.487   9.084 107.683  1.00  0.00    -0.295 OA
BRANCH   4   6
ATOM      6  C   UNL     1      33.251   7.084 107.454  1.00  0.00     0.091 CG0
ATOM      7  G   UNL     1      31.791   6.782 107.860  1.00  0.00     0.000 G0
ENDBRANCH   4   6
ENDBRANCH   2   4
BRANCH   3   8
ATOM      8  C   UNL     1      30.891   7.572 105.623  1.00  0.00    -0.003 C 
ATOM      9  C   UNL     1      30.936   6.683 106.622  1.00  0.00    -0.020 C 
BRANCH   9  10
ATOM     10  C   UNL     1      31.799   6.777 107.858  1.00  0.00    -0.010 CG0
ATOM     11  C   UNL     1      31.793   5.398 108.558  1.00  0.00     0.016 C 
ATOM     12  C   UNL     1      31.214   7.814 108.844  1.00  0.00     0.016 C 
ATOM     13  G   UNL     1      33.254   7.099 107.446  1.00  0.00     0.000 G0
ENDBRANCH   9  10
ENDBRANCH   3   8
TORSDOF 0
ENDMDL
MODEL 4
REMARK VINA RESULT:    -2.844      6.787      8.322
REMARK INTER + INTRA:          -2.665
REMARK INTER:                  -3.505
REMARK INTRA:                   0.840
REMARK UNBOUND:                 0.845
REMARK SMILES CC1=CC=CC(C)(C)CC1=O
REMARK SMILES IDX 1 1 2 2 3 3 10 4 11 5 9 6 4 8 5 9 6 10 7 11 8 12
REMARK H PARENT
REMARK Flexibility Score: 80.00
ROOT
ATOM      1  C   UNL     1      40.657  11.256 105.046  1.00  0.00     0.048 C 
ATOM      2  C   UNL     1      39.305  11.875 105.321  1.00  0.00    -0.008 C 
ATOM      3  C   UNL     1      39.146  12.554 106.478  1.00  0.00     0.007 C 
ENDROOT
BRANCH   2   4
ATOM      4  C   UNL     1      38.275  11.728 104.259  1.00  0.00     0.159 C 
ATOM      5  O   UNL     1      38.556  11.047 103.234  1.00  0.00    -0.295 OA
BRANCH   4   6
ATOM      6  C   UNL     1      36.922  12.374 104.304  1.00  0.00     0.091 CG0
ATOM      7  G   UNL     1      36.149  12.118 105.618  1.00  0.00     0.000 G0
ENDBRANCH   4   6
ENDBRANCH   2   4
BRANCH   3   8
ATOM      8  C   UNL     1      37.952  13.245 107.012  1.00  0.00    -0.003 C 
ATOM      9  C   UNL     1      36.666  13.061 106.690  1.00  0.00    -0.020 C 
BRANCH   9  10
ATOM     10  C   UNL     1      36.140  12.126 105.626  1.00  0.00    -0.010 CG0
ATOM     11  C   UNL     1      34.658  12.480 105.362  1.00  0.00     0.016 C 
ATOM     12  C   UNL     1      36.199  10.663 106.121  1.00  0.00     0.016 C 
ATOM     13  G   UNL     1      36.927  12.345 104.314  1.00  0.00     0.000 G0
ENDBRANCH   9  10
ENDBRANCH   3   8
TORSDOF 0
ENDMDL
MODEL 5
REMARK VINA RESULT:    -2.796      6.073      7.184
REMARK INTER + INTRA:          -2.605
REMARK INTER:                  -3.437
REMARK INTRA:                   0.832
REMARK UNBOUND:                 0.845
REMARK SMILES CC1=CC=CC(C)(C)CC1=O
REMARK SMILES IDX 1 1 2 2 3 3 10 4 11 5 9 6 4 8 5 9 6 10 7 11 8 12
REMARK H PARENT
REMARK Flexibility Score: 80.00
ROOT
ATOM      1  C   UNL     1      33.043  12.248 105.056  1.00  0.00     0.048 C 
ATOM      2  C   UNL     1      34.485  12.069 105.471  1.00  0.00    -0.008 C 
ATOM      3  C   UNL     1      34.737  11.334 106.577  1.00  0.00     0.007 C 
ENDROOT
BRANCH   2   4
ATOM      4  C   UNL     1      35.515  12.676 104.587  1.00  0.00     0.159 C 
ATOM      5  O   UNL     1      35.134  13.377 103.609  1.00  0.00    -0.295 OA
BRANCH   4   6
ATOM      6  C   UNL     1      36.992  12.478 104.756  1.00  0.00     0.091 CG0
ATOM      7  G   UNL     1      37.505  12.782 106.182  1.00  0.00     0.000 G0
ENDBRANCH   4   6
ENDBRANCH   2   4
BRANCH   3   8
ATOM      8  C   UNL     1      36.029  11.004 107.219  1.00  0.00    -0.003 C 
ATOM      9  C   UNL     1      37.208  11.622 107.089  1.00  0.00    -0.020 C 
BRANCH   9  10
ATOM     10  C   UNL     1      37.507  12.789 106.177  1.00  0.00    -0.010 CG0
ATOM     11  C   UNL     1      39.042  12.946 106.080  1.00  0.00     0.016 C 
ATOM     12  C   UNL     1      36.931  14.095 106.771  1.00  0.00     0.016 C 
ATOM     13  G   UNL     1      36.965  12.487 104.761  1.00  0.00     0.000 G0
ENDBRANCH   9  10
ENDBRANCH   3   8
TORSDOF 0
ENDMDL
MODEL 6
REMARK VINA RESULT:    -2.721      6.078      7.824
REMARK INTER + INTRA:          -2.513
REMARK INTER:                  -3.370
REMARK INTRA:                   0.857
REMARK UNBOUND:                 0.845
REMARK SMILES CC1=CC=CC(C)(C)CC1=O
REMARK SMILES IDX 1 1 2 2 3 3 10 4 11 5 9 6 4 8 5 9 6 10 7 11 8 12
REMARK H PARENT
REMARK Flexibility Score: 80.00
ROOT
ATOM      1  C   UNL     1      35.788  11.289 108.682  1.00  0.00     0.048 C 
ATOM      2  C   UNL     1      36.193  11.886 107.354  1.00  0.00    -0.008 C 
ATOM      3  C   UNL     1      37.046  12.933 107.367  1.00  0.00     0.007 C 
ENDROOT
BRANCH   2   4
ATOM      4  C   UNL     1      35.655  11.228 106.134  1.00  0.00     0.159 C 
ATOM      5  O   UNL     1      34.819  10.292 106.272  1.00  0.00    -0.295 OA
BRANCH   4   6
ATOM      6  C   UNL     1      36.073  11.576 104.736  1.00  0.00     0.091 CG0
ATOM      7  G   UNL     1      35.946  13.080 104.401  1.00  0.00     0.000 G0
ENDBRANCH   4   6
ENDBRANCH   2   4
BRANCH   3   8
ATOM      8  C   UNL     1      37.600  13.717 106.240  1.00  0.00    -0.003 C 
ATOM      9  C   UNL     1      37.138  13.820 104.989  1.00  0.00    -0.020 C 
BRANCH   9  10
ATOM     10  C   UNL     1      35.951  13.084 104.414  1.00  0.00    -0.010 CG0
ATOM     11  C   UNL     1      35.981  13.244 102.876  1.00  0.00     0.016 C 
ATOM     12  C   UNL     1      34.633  13.704 104.931  1.00  0.00     0.016 C 
ATOM     13  G   UNL     1      36.072  11.578 104.742  1.00  0.00     0.000 G0
ENDBRANCH   9  10
ENDBRANCH   3   8
TORSDOF 0
ENDMDL
MODEL 7
REMARK VINA RESULT:    -2.583      5.073      6.291
REMARK INTER + INTRA:          -2.342
REMARK INTER:                  -3.181
REMARK INTRA:                   0.839
REMARK UNBOUND:                 0.845
REMARK SMILES CC1=CC=CC(C)(C)CC1=O
REMARK SMILES IDX 1 1 2 2 3 3 10 4 11 5 9 6 4 8 5 9 6 10 7 11 8 12
REMARK H PARENT
REMARK Flexibility Score: 80.00
ROOT
ATOM      1  C   UNL     1      37.215  13.408 103.641  1.00  0.00     0.048 C 
ATOM      2  C   UNL     1      36.322  12.397 104.322  1.00  0.00    -0.008 C 
ATOM      3  C   UNL     1      34.989  12.615 104.298  1.00  0.00     0.007 C 
ENDROOT
BRANCH   2   4
ATOM      4  C   UNL     1      36.991  11.209 104.918  1.00  0.00     0.159 C 
ATOM      5  O   UNL     1      38.251  11.152 104.896  1.00  0.00    -0.295 OA
BRANCH   4   6
ATOM      6  C   UNL     1      36.260  10.043 105.513  1.00  0.00     0.091 CG0
ATOM      7  G   UNL     1      35.200  10.440 106.566  1.00  0.00     0.000 G0
ENDBRANCH   4   6
ENDBRANCH   2   4
BRANCH   3   8
ATOM      8  C   UNL     1      33.889  11.815 104.882  1.00  0.00    -0.003 C 
ATOM      9  C   UNL     1      33.946  10.907 105.863  1.00  0.00    -0.020 C 
BRANCH   9  10
ATOM     10  C   UNL     1      35.196  10.434 106.567  1.00  0.00    -0.010 CG0
ATOM     11  C   UNL     1      34.845   9.162 107.373  1.00  0.00     0.016 C 
ATOM     12  C   UNL     1      35.689  11.509 107.564  1.00  0.00     0.016 C 
ATOM     13  G   UNL     1      36.266  10.057 105.517  1.00  0.00     0.000 G0
ENDBRANCH   9  10
ENDBRANCH   3   8
TORSDOF 0
ENDMDL
MODEL 8
REMARK VINA RESULT:    -2.524      6.387      7.973
REMARK INTER + INTRA:          -2.270
REMARK INTER:                  -3.109
REMARK INTRA:                   0.839
REMARK UNBOUND:                 0.845
REMARK SMILES CC1=CC=CC(C)(C)CC1=O
REMARK SMILES IDX 1 1 2 2 3 3 10 4 11 5 9 6 4 8 5 9 6 10 7 11 8 12
REMARK H PARENT
REMARK Flexibility Score: 80.00
ROOT
ATOM      1  C   UNL     1      39.686  11.613 105.907  1.00  0.00     0.048 C 
ATOM      2  C   UNL     1      38.316  11.808 105.300  1.00  0.00    -0.008 C 
ATOM      3  C   UNL     1      38.247  12.157 103.997  1.00  0.00     0.007 C 
ENDROOT
BRANCH   2   4
ATOM      4  C   UNL     1      37.149  11.541 106.184  1.00  0.00     0.159 C 
ATOM      5  O   UNL     1      37.362  11.264 107.396  1.00  0.00    -0.295 OA
BRANCH   4   6
ATOM      6  C   UNL     1      35.724  11.541 105.717  1.00  0.00     0.091 CG0
ATOM      7  G   UNL     1      35.312  12.823 104.958  1.00  0.00     0.000 G0
ENDBRANCH   4   6
ENDBRANCH   2   4
BRANCH   3   8
ATOM      8  C   UNL     1      37.063  12.424 103.150  1.00  0.00    -0.003 C 
ATOM      9  C   UNL     1      35.819  12.737 103.529  1.00  0.00    -0.020 C 
BRANCH   9  10
ATOM     10  C   UNL     1      35.316  12.822 104.951  1.00  0.00    -0.010 CG0
ATOM     11  C   UNL     1      33.770  12.868 104.916  1.00  0.00     0.016 C 
ATOM     12  C   UNL     1      35.815  14.125 105.619  1.00  0.00     0.016 C 
ATOM     13  G   UNL     1      35.741  11.554 105.724  1.00  0.00     0.000 G0
ENDBRANCH   9  10
ENDBRANCH   3   8
TORSDOF 0
ENDMDL
MODEL 9
REMARK VINA RESULT:    -2.524      8.227      9.802
REMARK INTER + INTRA:          -2.269
REMARK INTER:                  -3.117
REMARK INTRA:                   0.848
REMARK UNBOUND:                 0.845
REMARK SMILES CC1=CC=CC(C)(C)CC1=O
REMARK SMILES IDX 1 1 2 2 3 3 10 4 11 5 9 6 4 8 5 9 6 10 7 11 8 12
REMARK H PARENT
REMARK Flexibility Score: 80.00
ROOT
ATOM      1  C   UNL     1      41.530  10.797 106.885  1.00  0.00     0.048 C 
ATOM      2  C   UNL     1      40.495  11.674 106.220  1.00  0.00    -0.008 C 
ATOM      3  C   UNL     1      39.768  12.499 107.005  1.00  0.00     0.007 C 
ENDROOT
BRANCH   2   4
ATOM      4  C   UNL     1      40.403  11.593 104.737  1.00  0.00     0.159 C 
ATOM      5  O   UNL     1      41.117  10.745 104.134  1.00  0.00    -0.295 OA
BRANCH   4   6
ATOM      6  C   UNL     1      39.540  12.487 103.898  1.00  0.00     0.091 CG0
ATOM      7  G   UNL     1      38.064  12.541 104.353  1.00  0.00     0.000 G0
ENDBRANCH   4   6
ENDBRANCH   2   4
BRANCH   3   8
ATOM      8  C   UNL     1      38.693  13.448 106.641  1.00  0.00    -0.003 C 
ATOM      9  C   UNL     1      37.937  13.471 105.537  1.00  0.00    -0.020 C 
BRANCH   9  10
ATOM     10  C   UNL     1      38.065  12.543 104.351  1.00  0.00    -0.010 CG0
ATOM     11  C   UNL     1      37.238  13.132 103.185  1.00  0.00     0.016 C 
ATOM     12  C   UNL     1      37.483  11.152 104.693  1.00  0.00     0.016 C 
ATOM     13  G   UNL     1      39.544  12.479 103.906  1.00  0.00     0.000 G0
ENDBRANCH   9  10
ENDBRANCH   3   8
TORSDOF 0
ENDMDL
