MODEL 1
REMARK VINA RESULT:    -2.347      0.000      0.000
REMARK INTER + INTRA:          -3.558
REMARK INTER:                  -3.170
REMARK INTRA:                  -0.388
REMARK UNBOUND:                -0.388
REMARK SMILES COc1ccc(-c2cc(=O)c3c(OC)c(OC)c(OC)c(OC)c3o2)cc1
REMARK SMILES IDX 7 1 8 2 9 3 10 4 11 5 24 6 25 7 21 8 18 9 15 10 12 11 6 12
REMARK SMILES IDX 3 13 4 14 27 15 5 16 26 17 2 18 1 19 22 20 23 21 13 22 14 23
REMARK SMILES IDX 19 24 20 25 16 26 17 27
REMARK H PARENT
REMARK Flexibility Score: inf
ROOT
ATOM      1  C   UNL     1      13.762  18.884  18.675  1.00  0.00     0.138 A 
ATOM      2  C   UNL     1      14.530  19.713  19.496  1.00  0.00     0.100 A 
ATOM      3  C   UNL     1      15.845  19.359  19.781  1.00  0.00     0.197 A 
ATOM      4  O   UNL     1      16.520  20.121  20.526  1.00  0.00    -0.289 OA
ATOM      5  C   UNL     1      16.391  18.170  19.237  1.00  0.00     0.115 A 
ATOM      6  C   UNL     1      15.547  17.373  18.430  1.00  0.00     0.188 A 
ATOM      7  O   UNL     1      14.295  17.765  18.195  1.00  0.00    -0.452 OA
ATOM      8  C   UNL     1      16.024  16.170  17.862  1.00  0.00     0.209 A 
ATOM      9  C   UNL     1      17.372  15.783  18.070  1.00  0.00     0.211 A 
ATOM     10  C   UNL     1      18.227  16.590  18.868  1.00  0.00     0.208 A 
ATOM     11  C   UNL     1      17.729  17.773  19.472  1.00  0.00     0.179 A 
ENDROOT
BRANCH   1  12
ATOM     12  C   UNL     1      12.359  19.221  18.329  1.00  0.00     0.018 A 
ATOM     13  C   UNL     1       9.672  19.832  17.711  1.00  0.00     0.118 A 
ATOM     14  C   UNL     1      10.136  19.921  19.035  1.00  0.00     0.047 A 
ATOM     15  C   UNL     1      10.557  19.435  16.704  1.00  0.00     0.047 A 
ATOM     16  C   UNL     1      11.466  19.614  19.340  1.00  0.00     0.016 A 
ATOM     17  C   UNL     1      11.889  19.130  17.006  1.00  0.00     0.016 A 
BRANCH  13  18
ATOM     18  O   UNL     1       8.347  20.125  17.357  1.00  0.00    -0.497 OA
ATOM     19  C   UNL     1       7.852  20.125  16.022  1.00  0.00     0.278 C 
ENDBRANCH  13  18
ENDBRANCH   1  12
BRANCH   8  20
ATOM     20  O   UNL     1      15.200  15.333  17.085  1.00  0.00    -0.490 OA
ATOM     21  C   UNL     1      14.469  14.194  17.527  1.00  0.00     0.278 C 
ENDBRANCH   8  20
BRANCH  11  22
ATOM     22  O   UNL     1      18.520  18.597  20.303  1.00  0.00    -0.492 OA
ATOM     23  C   UNL     1      19.654  19.376  19.939  1.00  0.00     0.278 C 
ENDBRANCH  11  22
BRANCH   9  24
ATOM     24  O   UNL     1      17.906  14.597  17.527  1.00  0.00    -0.490 OA
ATOM     25  C   UNL     1      17.917  14.185  16.164  1.00  0.00     0.279 C 
ENDBRANCH   9  24
BRANCH  10  26
ATOM     26  O   UNL     1      19.580  16.262  19.089  1.00  0.00    -0.490 OA
ATOM     27  C   UNL     1      20.123  15.398  20.083  1.00  0.00     0.278 C 
ENDBRANCH  10  26
TORSDOF 6
ENDMDL
MODEL 2
REMARK VINA RESULT:    -2.127      1.347      1.474
REMARK INTER + INTRA:          -3.260
REMARK INTER:                  -4.370
REMARK INTRA:                   1.109
REMARK UNBOUND:                -0.388
REMARK SMILES COc1ccc(-c2cc(=O)c3c(OC)c(OC)c(OC)c(OC)c3o2)cc1
REMARK SMILES IDX 7 1 8 2 9 3 10 4 11 5 24 6 25 7 21 8 18 9 15 10 12 11 6 12
REMARK SMILES IDX 3 13 4 14 27 15 5 16 26 17 2 18 1 19 22 20 23 21 13 22 14 23
REMARK SMILES IDX 19 24 20 25 16 26 17 27
REMARK H PARENT
REMARK Flexibility Score: inf
ROOT
ATOM      1  C   UNL     1      13.781  19.203  17.932  1.00  0.00     0.138 A 
ATOM      2  C   UNL     1      14.110  19.815  19.145  1.00  0.00     0.100 A 
ATOM      3  C   UNL     1      15.347  19.553  19.725  1.00  0.00     0.197 A 
ATOM      4  O   UNL     1      15.622  20.115  20.820  1.00  0.00    -0.289 OA
ATOM      5  C   UNL     1      16.257  18.676  19.085  1.00  0.00     0.115 A 
ATOM      6  C   UNL     1      15.847  18.081  17.870  1.00  0.00     0.188 A 
ATOM      7  O   UNL     1      14.648  18.369  17.366  1.00  0.00    -0.452 OA
ATOM      8  C   UNL     1      16.702  17.189  17.184  1.00  0.00     0.209 A 
ATOM      9  C   UNL     1      17.997  16.925  17.696  1.00  0.00     0.211 A 
ATOM     10  C   UNL     1      18.418  17.534  18.909  1.00  0.00     0.208 A 
ATOM     11  C   UNL     1      17.538  18.393  19.616  1.00  0.00     0.179 A 
ENDROOT
BRANCH   1  12
ATOM     12  C   UNL     1      12.482  19.458  17.264  1.00  0.00     0.018 A 
ATOM     13  C   UNL     1       9.989  19.897  16.011  1.00  0.00     0.118 A 
ATOM     14  C   UNL     1      10.052  19.559  17.374  1.00  0.00     0.047 A 
ATOM     15  C   UNL     1      11.177  20.011  15.283  1.00  0.00     0.047 A 
ATOM     16  C   UNL     1      11.287  19.338  17.992  1.00  0.00     0.016 A 
ATOM     17  C   UNL     1      12.414  19.793  15.898  1.00  0.00     0.016 A 
BRANCH  13  18
ATOM     18  O   UNL     1       8.775  20.124  15.347  1.00  0.00    -0.497 OA
ATOM     19  C   UNL     1       7.500  20.124  15.980  1.00  0.00     0.278 C 
ENDBRANCH  13  18
ENDBRANCH   1  12
BRANCH   8  20
ATOM     20  O   UNL     1      16.310  16.548  15.992  1.00  0.00    -0.490 OA
ATOM     21  C   UNL     1      16.857  15.359  15.434  1.00  0.00     0.278 C 
ENDBRANCH   8  20
BRANCH  11  22
ATOM     22  O   UNL     1      17.887  19.000  20.843  1.00  0.00    -0.492 OA
ATOM     23  C   UNL     1      18.733  20.124  21.055  1.00  0.00     0.278 C 
ENDBRANCH  11  22
BRANCH   9  24
ATOM     24  O   UNL     1      18.895  16.049  17.054  1.00  0.00    -0.490 OA
ATOM     25  C   UNL     1      19.761  15.090  17.652  1.00  0.00     0.279 C 
ENDBRANCH   9  24
BRANCH  10  26
ATOM     26  O   UNL     1      19.702  17.322  19.451  1.00  0.00    -0.490 OA
ATOM     27  C   UNL     1      20.095  16.360  20.425  1.00  0.00     0.278 C 
ENDBRANCH  10  26
TORSDOF 6
ENDMDL
MODEL 3
REMARK VINA RESULT:    -0.675      1.195      3.551
REMARK INTER + INTRA:          -1.299
REMARK INTER:                  -1.793
REMARK INTRA:                   0.494
REMARK UNBOUND:                -0.388
REMARK SMILES COc1ccc(-c2cc(=O)c3c(OC)c(OC)c(OC)c(OC)c3o2)cc1
REMARK SMILES IDX 7 1 8 2 9 3 10 4 11 5 24 6 25 7 21 8 18 9 15 10 12 11 6 12
REMARK SMILES IDX 3 13 4 14 27 15 5 16 26 17 2 18 1 19 22 20 23 21 13 22 14 23
REMARK SMILES IDX 19 24 20 25 16 26 17 27
REMARK H PARENT
REMARK Flexibility Score: inf
ROOT
ATOM      1  C   UNL     1      13.680  17.396  18.702  1.00  0.00     0.138 A 
ATOM      2  C   UNL     1      13.776  16.070  18.272  1.00  0.00     0.100 A 
ATOM      3  C   UNL     1      15.015  15.437  18.291  1.00  0.00     0.197 A 
ATOM      4  O   UNL     1      15.078  14.240  17.898  1.00  0.00    -0.289 OA
ATOM      5  C   UNL     1      16.160  16.136  18.747  1.00  0.00     0.115 A 
ATOM      6  C   UNL     1      15.987  17.481  19.148  1.00  0.00     0.188 A 
ATOM      7  O   UNL     1      14.775  18.033  19.105  1.00  0.00    -0.452 OA
ATOM      8  C   UNL     1      17.089  18.240  19.605  1.00  0.00     0.209 A 
ATOM      9  C   UNL     1      18.367  17.633  19.700  1.00  0.00     0.211 A 
ATOM     10  C   UNL     1      18.540  16.277  19.312  1.00  0.00     0.208 A 
ATOM     11  C   UNL     1      17.439  15.535  18.812  1.00  0.00     0.179 A 
ENDROOT
BRANCH   1  12
ATOM     12  C   UNL     1      12.382  18.114  18.714  1.00  0.00     0.018 A 
ATOM     13  C   UNL     1       9.910  19.477  18.790  1.00  0.00     0.118 A 
ATOM     14  C   UNL     1      10.960  19.858  19.645  1.00  0.00     0.047 A 
ATOM     15  C   UNL     1      10.105  18.414  17.904  1.00  0.00     0.047 A 
ATOM     16  C   UNL     1      12.182  19.179  19.608  1.00  0.00     0.016 A 
ATOM     17  C   UNL     1      11.327  17.735  17.864  1.00  0.00     0.016 A 
BRANCH  13  18
ATOM     18  O   UNL     1       8.666  20.125  18.793  1.00  0.00    -0.497 OA
ATOM     19  C   UNL     1       7.752  20.116  17.702  1.00  0.00     0.278 C 
ENDBRANCH  13  18
ENDBRANCH   1  12
BRANCH   8  20
ATOM     20  O   UNL     1      16.961  19.592  19.976  1.00  0.00    -0.490 OA
ATOM     21  C   UNL     1      16.166  20.125  21.030  1.00  0.00     0.278 C 
ENDBRANCH   8  20
BRANCH  11  22
ATOM     22  O   UNL     1      17.557  14.196  18.378  1.00  0.00    -0.492 OA
ATOM     23  C   UNL     1      17.662  13.714  17.043  1.00  0.00     0.278 C 
ENDBRANCH  11  22
BRANCH   9  24
ATOM     24  O   UNL     1      19.501  18.338  20.151  1.00  0.00    -0.490 OA
ATOM     25  C   UNL     1      20.080  19.514  19.596  1.00  0.00     0.279 C 
ENDBRANCH   9  24
BRANCH  10  26
ATOM     26  O   UNL     1      19.784  15.621  19.406  1.00  0.00    -0.490 OA
ATOM     27  C   UNL     1      20.090  14.417  20.101  1.00  0.00     0.278 C 
ENDBRANCH  10  26
TORSDOF 6
ENDMDL
MODEL 4
REMARK VINA RESULT:     0.157      1.908      2.973
REMARK INTER + INTRA:          -0.175
REMARK INTER:                  -0.401
REMARK INTRA:                   0.226
REMARK UNBOUND:                -0.388
REMARK SMILES COc1ccc(-c2cc(=O)c3c(OC)c(OC)c(OC)c(OC)c3o2)cc1
REMARK SMILES IDX 7 1 8 2 9 3 10 4 11 5 24 6 25 7 21 8 18 9 15 10 12 11 6 12
REMARK SMILES IDX 3 13 4 14 27 15 5 16 26 17 2 18 1 19 22 20 23 21 13 22 14 23
REMARK SMILES IDX 19 24 20 25 16 26 17 27
REMARK H PARENT
REMARK Flexibility Score: inf
ROOT
ATOM      1  C   UNL     1      13.060  17.813  18.593  1.00  0.00     0.138 A 
ATOM      2  C   UNL     1      13.209  16.717  19.447  1.00  0.00     0.100 A 
ATOM      3  C   UNL     1      14.478  16.189  19.662  1.00  0.00     0.197 A 
ATOM      4  O   UNL     1      14.588  15.199  20.436  1.00  0.00    -0.289 OA
ATOM      5  C   UNL     1      15.602  16.765  19.020  1.00  0.00     0.115 A 
ATOM      6  C   UNL     1      15.371  17.860  18.156  1.00  0.00     0.188 A 
ATOM      7  O   UNL     1      14.131  18.319  17.989  1.00  0.00    -0.452 OA
ATOM      8  C   UNL     1      16.446  18.477  17.476  1.00  0.00     0.209 A 
ATOM      9  C   UNL     1      17.769  18.019  17.697  1.00  0.00     0.211 A 
ATOM     10  C   UNL     1      18.006  16.929  18.577  1.00  0.00     0.208 A 
ATOM     11  C   UNL     1      16.918  16.286  19.221  1.00  0.00     0.179 A 
ENDROOT
BRANCH   1  12
ATOM     12  C   UNL     1      11.732  18.423  18.339  1.00  0.00     0.018 A 
ATOM     13  C   UNL     1       9.193  19.581  17.907  1.00  0.00     0.118 A 
ATOM     14  C   UNL     1      10.034  20.065  18.925  1.00  0.00     0.047 A 
ATOM     15  C   UNL     1       9.630  18.517  17.112  1.00  0.00     0.047 A 
ATOM     16  C   UNL     1      11.289  19.488  19.140  1.00  0.00     0.016 A 
ATOM     17  C   UNL     1      10.886  17.939  17.324  1.00  0.00     0.016 A 
BRANCH  13  18
ATOM     18  O   UNL     1       7.925  20.124  17.656  1.00  0.00    -0.497 OA
ATOM     19  C   UNL     1       7.287  20.124  16.383  1.00  0.00     0.278 C 
ENDBRANCH  13  18
ENDBRANCH   1  12
BRANCH   8  20
ATOM     20  O   UNL     1      16.247  19.544  16.579  1.00  0.00    -0.490 OA
ATOM     21  C   UNL     1      15.007  20.022  16.070  1.00  0.00     0.278 C 
ENDBRANCH   8  20
BRANCH  11  22
ATOM     22  O   UNL     1      17.087  15.176  20.078  1.00  0.00    -0.492 OA
ATOM     23  C   UNL     1      17.408  13.836  19.723  1.00  0.00     0.278 C 
ENDBRANCH  11  22
BRANCH   9  24
ATOM     24  O   UNL     1      18.881  18.597  17.052  1.00  0.00    -0.490 OA
ATOM     25  C   UNL     1      19.449  19.884  17.268  1.00  0.00     0.279 C 
ENDBRANCH   9  24
BRANCH  10  26
ATOM     26  O   UNL     1      19.304  16.449  18.847  1.00  0.00    -0.490 OA
ATOM     27  C   UNL     1      20.033  15.448  18.144  1.00  0.00     0.278 C 
ENDBRANCH  10  26
TORSDOF 6
ENDMDL
