MODEL 1
REMARK VINA RESULT:    -2.486      0.000      0.000
REMARK INTER + INTRA:          -2.784
REMARK INTER:                  -2.776
REMARK INTRA:                  -0.008
REMARK UNBOUND:                -0.008
REMARK SMILES CCCC(=O)[O-]
REMARK SMILES IDX 3 1 4 2 5 3 6 4 2 5 1 6
REMARK H PARENT
REMARK Flexibility Score: inf
ROOT
ATOM      1  C   UNL     1      -1.995  -4.956  31.376  1.00  0.00     0.052 C 
ENDROOT
BRANCH   1   2
ATOM      2  C   UNL     1      -2.269  -4.634  32.813  1.00  0.00     0.041 C 
ATOM      3  O   UNL     1      -1.850  -5.395  33.724  1.00  0.00    -0.550 OA
ATOM      4  O   UNL     1      -3.017  -3.512  33.145  1.00  0.00    -0.550 OA
ENDBRANCH   1   2
BRANCH   1   5
ATOM      5  C   UNL     1      -1.391  -6.356  31.212  1.00  0.00     0.003 C 
ATOM      6  C   UNL     1      -2.462  -7.435  31.049  1.00  0.00     0.004 C 
ENDBRANCH   1   5
TORSDOF 2
ENDMDL
MODEL 2
REMARK VINA RESULT:    -2.436      2.402      3.143
REMARK INTER + INTRA:          -2.729
REMARK INTER:                  -2.679
REMARK INTRA:                  -0.050
REMARK UNBOUND:                -0.008
REMARK SMILES CCCC(=O)[O-]
REMARK SMILES IDX 3 1 4 2 5 3 6 4 2 5 1 6
REMARK H PARENT
REMARK Flexibility Score: inf
ROOT
ATOM      1  C   UNL     1      -1.254  -5.758  31.583  1.00  0.00     0.052 C 
ENDROOT
BRANCH   1   2
ATOM      2  C   UNL     1      -2.210  -6.668  30.875  1.00  0.00     0.041 C 
ATOM      3  O   UNL     1      -2.508  -7.785  31.375  1.00  0.00    -0.550 OA
ATOM      4  O   UNL     1      -2.745  -6.299  29.648  1.00  0.00    -0.550 OA
ENDBRANCH   1   2
BRANCH   1   5
ATOM      5  C   UNL     1      -1.772  -5.355  32.969  1.00  0.00     0.003 C 
ATOM      6  C   UNL     1      -2.743  -4.176  32.906  1.00  0.00     0.004 C 
ENDBRANCH   1   5
TORSDOF 2
ENDMDL
MODEL 3
REMARK VINA RESULT:    -2.415      2.065      3.103
REMARK INTER + INTRA:          -2.706
REMARK INTER:                  -2.633
REMARK INTRA:                  -0.072
REMARK UNBOUND:                -0.008
REMARK SMILES CCCC(=O)[O-]
REMARK SMILES IDX 3 1 4 2 5 3 6 4 2 5 1 6
REMARK H PARENT
REMARK Flexibility Score: inf
ROOT
ATOM      1  C   UNL     1      -1.866  -5.260  33.024  1.00  0.00     0.052 C 
ENDROOT
BRANCH   1   2
ATOM      2  C   UNL     1      -1.813  -5.926  31.684  1.00  0.00     0.041 C 
ATOM      3  O   UNL     1      -1.393  -5.294  30.679  1.00  0.00    -0.550 OA
ATOM      4  O   UNL     1      -2.259  -7.233  31.537  1.00  0.00    -0.550 OA
ENDBRANCH   1   2
BRANCH   1   5
ATOM      5  C   UNL     1      -2.836  -4.071  33.032  1.00  0.00     0.003 C 
ATOM      6  C   UNL     1      -4.269  -4.489  32.705  1.00  0.00     0.004 C 
ENDBRANCH   1   5
TORSDOF 2
ENDMDL
MODEL 4
REMARK VINA RESULT:    -2.316      1.780      3.325
REMARK INTER + INTRA:          -2.594
REMARK INTER:                  -2.565
REMARK INTRA:                  -0.029
REMARK UNBOUND:                -0.008
REMARK SMILES CCCC(=O)[O-]
REMARK SMILES IDX 3 1 4 2 5 3 6 4 2 5 1 6
REMARK H PARENT
REMARK Flexibility Score: inf
ROOT
ATOM      1  C   UNL     1      -2.697  -3.983  31.944  1.00  0.00     0.052 C 
ENDROOT
BRANCH   1   2
ATOM      2  C   UNL     1      -1.880  -5.142  32.424  1.00  0.00     0.041 C 
ATOM      3  O   UNL     1      -1.218  -5.833  31.606  1.00  0.00    -0.550 OA
ATOM      4  O   UNL     1      -1.875  -5.481  33.771  1.00  0.00    -0.550 OA
ENDBRANCH   1   2
BRANCH   1   5
ATOM      5  C   UNL     1      -3.534  -3.368  33.074  1.00  0.00     0.003 C 
ATOM      6  C   UNL     1      -3.242  -1.881  33.268  1.00  0.00     0.004 C 
ENDBRANCH   1   5
TORSDOF 2
ENDMDL
MODEL 5
REMARK VINA RESULT:    -2.288      3.762      4.515
REMARK INTER + INTRA:          -2.563
REMARK INTER:                  -2.554
REMARK INTRA:                  -0.009
REMARK UNBOUND:                -0.008
REMARK SMILES CCCC(=O)[O-]
REMARK SMILES IDX 3 1 4 2 5 3 6 4 2 5 1 6
REMARK H PARENT
REMARK Flexibility Score: inf
ROOT
ATOM      1  C   UNL     1      -3.539  -7.538  30.641  1.00  0.00     0.052 C 
ENDROOT
BRANCH   1   2
ATOM      2  C   UNL     1      -3.809  -8.987  30.375  1.00  0.00     0.041 C 
ATOM      3  O   UNL     1      -3.532  -9.853  31.247  1.00  0.00    -0.550 OA
ATOM      4  O   UNL     1      -4.335  -9.385  29.154  1.00  0.00    -0.550 OA
ENDBRANCH   1   2
BRANCH   1   5
ATOM      5  C   UNL     1      -2.146  -7.319  31.244  1.00  0.00     0.003 C 
ATOM      6  C   UNL     1      -1.365  -6.224  30.519  1.00  0.00     0.004 C 
ENDBRANCH   1   5
TORSDOF 2
ENDMDL
MODEL 6
REMARK VINA RESULT:    -2.239     13.352     13.933
REMARK INTER + INTRA:          -2.509
REMARK INTER:                  -2.487
REMARK INTRA:                  -0.022
REMARK UNBOUND:                -0.008
REMARK SMILES CCCC(=O)[O-]
REMARK SMILES IDX 3 1 4 2 5 3 6 4 2 5 1 6
REMARK H PARENT
REMARK Flexibility Score: inf
ROOT
ATOM      1  C   UNL     1     -10.266   3.678  37.211  1.00  0.00     0.052 C 
ENDROOT
BRANCH   1   2
ATOM      2  C   UNL     1      -9.605   4.979  36.873  1.00  0.00     0.041 C 
ATOM      3  O   UNL     1      -8.567   5.341  37.486  1.00  0.00    -0.550 OA
ATOM      4  O   UNL     1     -10.154   5.808  35.903  1.00  0.00    -0.550 OA
ENDBRANCH   1   2
BRANCH   1   5
ATOM      5  C   UNL     1     -11.713   3.626  36.705  1.00  0.00     0.003 C 
ATOM      6  C   UNL     1     -12.716   3.405  37.837  1.00  0.00     0.004 C 
ENDBRANCH   1   5
TORSDOF 2
ENDMDL
MODEL 7
REMARK VINA RESULT:    -2.227     15.538     15.778
REMARK INTER + INTRA:          -2.496
REMARK INTER:                  -2.487
REMARK INTRA:                  -0.008
REMARK UNBOUND:                -0.008
REMARK SMILES CCCC(=O)[O-]
REMARK SMILES IDX 3 1 4 2 5 3 6 4 2 5 1 6
REMARK H PARENT
REMARK Flexibility Score: inf
ROOT
ATOM      1  C   UNL     1     -17.001  -1.579  32.942  1.00  0.00     0.052 C 
ENDROOT
BRANCH   1   2
ATOM      2  C   UNL     1     -17.001  -0.597  31.812  1.00  0.00     0.041 C 
ATOM      3  O   UNL     1     -16.961  -1.001  30.621  1.00  0.00    -0.550 OA
ATOM      4  O   UNL     1     -17.011   0.767  32.075  1.00  0.00    -0.550 OA
ENDBRANCH   1   2
BRANCH   1   5
ATOM      5  C   UNL     1     -17.705  -2.888  32.559  1.00  0.00     0.003 C 
ATOM      6  C   UNL     1     -18.156  -3.685  33.783  1.00  0.00     0.004 C 
ENDBRANCH   1   5
TORSDOF 2
ENDMDL
MODEL 8
REMARK VINA RESULT:    -2.224      1.619      2.265
REMARK INTER + INTRA:          -2.492
REMARK INTER:                  -2.486
REMARK INTRA:                  -0.007
REMARK UNBOUND:                -0.008
REMARK SMILES CCCC(=O)[O-]
REMARK SMILES IDX 3 1 4 2 5 3 6 4 2 5 1 6
REMARK H PARENT
REMARK Flexibility Score: inf
ROOT
ATOM      1  C   UNL     1      -1.960  -7.106  31.259  1.00  0.00     0.052 C 
ENDROOT
BRANCH   1   2
ATOM      2  C   UNL     1      -1.689  -5.686  31.646  1.00  0.00     0.041 C 
ATOM      3  O   UNL     1      -1.635  -4.788  30.765  1.00  0.00    -0.550 OA
ATOM      4  O   UNL     1      -1.462  -5.357  32.976  1.00  0.00    -0.550 OA
ENDBRANCH   1   2
BRANCH   1   5
ATOM      5  C   UNL     1      -3.151  -7.217  30.298  1.00  0.00     0.003 C 
ATOM      6  C   UNL     1      -3.875  -8.558  30.423  1.00  0.00     0.004 C 
ENDBRANCH   1   5
TORSDOF 2
ENDMDL
MODEL 9
REMARK VINA RESULT:    -1.398     15.799     16.491
REMARK INTER + INTRA:          -1.569
REMARK INTER:                  -1.536
REMARK INTRA:                  -0.033
REMARK UNBOUND:                -0.008
REMARK SMILES CCCC(=O)[O-]
REMARK SMILES IDX 3 1 4 2 5 3 6 4 2 5 1 6
REMARK H PARENT
REMARK Flexibility Score: inf
ROOT
ATOM      1  C   UNL     1     -11.701   7.555  28.875  1.00  0.00     0.052 C 
ENDROOT
BRANCH   1   2
ATOM      2  C   UNL     1     -12.370   6.354  29.468  1.00  0.00     0.041 C 
ATOM      3  O   UNL     1     -12.487   6.247  30.717  1.00  0.00    -0.550 OA
ATOM      4  O   UNL     1     -12.835   5.337  28.645  1.00  0.00    -0.550 OA
ENDBRANCH   1   2
BRANCH   1   5
ATOM      5  C   UNL     1     -12.432   8.054  27.621  1.00  0.00     0.003 C 
ATOM      6  C   UNL     1     -11.512   8.125  26.403  1.00  0.00     0.004 C 
ENDBRANCH   1   5
TORSDOF 2
ENDMDL
