MODEL 1
REMARK VINA RESULT:    -5.574      0.000      0.000
REMARK INTER + INTRA:          -9.193
REMARK INTER:                  -7.856
REMARK INTRA:                  -1.338
REMARK UNBOUND:                -1.338
REMARK SMILES COc1c(O[C@@H]2O[C@@H](C(=O)[O-])[C@@H](O)[C@@H](O)[C@H]2O)cc(O)c2c(=O)cc(-c3ccccc3)oc12
REMARK SMILES IDX 5 1 6 2 8 3 12 4 7 5 14 6 16 7 9 8 10 9 11 10 13 11 15 13
REMARK SMILES IDX 17 15 4 17 3 18 18 19 33 20 19 21 21 22 32 23 22 24 25 25
REMARK SMILES IDX 24 26 23 27 2 28 1 29 20 30 26 32 27 33 31 34 28 35 30 36
REMARK SMILES IDX 29 37
REMARK H PARENT 13 12 15 14 17 16 20 31
REMARK Flexibility Score: inf
ROOT
ATOM      1  O   UNL     1      55.184   6.125   4.750  1.00  0.00    -0.458 OA
ENDROOT
BRANCH   1   2
ATOM      2  C   UNL     1      53.790   5.805   4.655  1.00  0.00     0.339 C 
ATOM      3  C   UNL     1      54.253   3.670   3.784  1.00  0.00     0.199 C 
ATOM      4  C   UNL     1      53.648   3.985   2.399  1.00  0.00     0.180 C 
ATOM      5  O   UNL     1      53.594   4.405   4.807  1.00  0.00    -0.328 OA
ATOM      6  C   UNL     1      53.761   5.501   2.145  1.00  0.00     0.181 C 
ATOM      7  C   UNL     1      53.182   6.310   3.326  1.00  0.00     0.214 C 
BRANCH   3   8
ATOM      8  C   UNL     1      54.150   2.203   4.085  1.00  0.00     0.073 C 
ATOM      9  O   UNL     1      55.169   1.550   4.434  1.00  0.00    -0.547 OA
ATOM     10  O   UNL     1      52.916   1.568   4.024  1.00  0.00    -0.547 OA
ENDBRANCH   3   8
BRANCH   4  11
ATOM     11  O   UNL     1      52.299   3.586   2.355  1.00  0.00    -0.387 OA
ATOM     12  H   UNL     1      52.265   2.632   2.625  1.00  0.00     0.211 HD
ENDBRANCH   4  11
BRANCH   6  13
ATOM     13  O   UNL     1      53.180   5.875   0.919  1.00  0.00    -0.387 OA
ATOM     14  H   UNL     1      53.514   6.776   0.676  1.00  0.00     0.211 HD
ENDBRANCH   6  13
BRANCH   7  15
ATOM     15  O   UNL     1      51.784   6.177   3.388  1.00  0.00    -0.384 OA
ATOM     16  H   UNL     1      51.403   6.731   2.658  1.00  0.00     0.211 HD
ENDBRANCH   7  15
ENDBRANCH   1   2
BRANCH   1  17
ATOM     17  C   UNL     1      55.842   6.637   5.880  1.00  0.00     0.172 A 
ATOM     18  C   UNL     1      56.574   5.748   6.669  1.00  0.00     0.205 A 
ATOM     19  C   UNL     1      55.797   7.995   6.233  1.00  0.00     0.097 A 
ATOM     20  C   UNL     1      57.235   6.198   7.822  1.00  0.00     0.188 A 
ATOM     21  C   UNL     1      56.489   8.478   7.349  1.00  0.00     0.134 A 
ATOM     22  C   UNL     1      57.192   7.568   8.191  1.00  0.00     0.111 A 
ATOM     23  O   UNL     1      57.890   5.315   8.571  1.00  0.00    -0.452 OA
ATOM     24  C   UNL     1      57.830   7.926   9.402  1.00  0.00     0.197 A 
ATOM     25  C   UNL     1      58.523   5.629   9.696  1.00  0.00     0.138 A 
ATOM     26  C   UNL     1      58.512   6.958  10.140  1.00  0.00     0.100 A 
ATOM     27  O   UNL     1      57.781   9.096   9.863  1.00  0.00    -0.289 OA
BRANCH  18  28
ATOM     28  O   UNL     1      56.626   4.401   6.306  1.00  0.00    -0.490 OA
ATOM     29  C   UNL     1      57.662   3.892   5.474  1.00  0.00     0.278 C 
ENDBRANCH  18  28
BRANCH  21  30
ATOM     30  O   UNL     1      56.456   9.862   7.551  1.00  0.00    -0.507 OA
ATOM     31  H   UNL     1      57.034  10.529   7.065  1.00  0.00     0.293 HD
ENDBRANCH  21  30
BRANCH  25  32
ATOM     32  C   UNL     1      59.225   4.555  10.444  1.00  0.00     0.017 A 
ATOM     33  C   UNL     1      60.414   3.967   9.963  1.00  0.00     0.012 A 
ATOM     34  C   UNL     1      58.716   4.129  11.686  1.00  0.00     0.012 A 
ATOM     35  C   UNL     1      61.057   2.967  10.698  1.00  0.00     0.001 A 
ATOM     36  C   UNL     1      59.366   3.131  12.417  1.00  0.00     0.001 A 
ATOM     37  C   UNL     1      60.534   2.548  11.922  1.00  0.00     0.000 A 
ENDBRANCH  25  32
ENDBRANCH   1  17
TORSDOF 9
ENDMDL
MODEL 2
REMARK VINA RESULT:    -4.951      2.121      9.142
REMARK INTER + INTRA:          -8.315
REMARK INTER:                  -7.257
REMARK INTRA:                  -1.058
REMARK UNBOUND:                -1.338
REMARK SMILES COc1c(O[C@@H]2O[C@@H](C(=O)[O-])[C@@H](O)[C@@H](O)[C@H]2O)cc(O)c2c(=O)cc(-c3ccccc3)oc12
REMARK SMILES IDX 5 1 6 2 8 3 12 4 7 5 14 6 16 7 9 8 10 9 11 10 13 11 15 13
REMARK SMILES IDX 17 15 4 17 3 18 18 19 33 20 19 21 21 22 32 23 22 24 25 25
REMARK SMILES IDX 24 26 23 27 2 28 1 29 20 30 26 32 27 33 31 34 28 35 30 36
REMARK SMILES IDX 29 37
REMARK H PARENT 13 12 15 14 17 16 20 31
REMARK Flexibility Score: inf
ROOT
ATOM      1  O   UNL     1      57.611   6.545   7.910  1.00  0.00    -0.458 OA
ENDROOT
BRANCH   1   2
ATOM      2  C   UNL     1      57.472   6.283   9.313  1.00  0.00     0.339 C 
ATOM      3  C   UNL     1      59.503   7.365   9.800  1.00  0.00     0.199 C 
ATOM      4  C   UNL     1      60.209   6.069  10.253  1.00  0.00     0.180 C 
ATOM      5  O   UNL     1      58.108   7.306  10.069  1.00  0.00    -0.328 OA
ATOM      6  C   UNL     1      59.561   4.875   9.527  1.00  0.00     0.181 C 
ATOM      7  C   UNL     1      58.025   4.889   9.687  1.00  0.00     0.214 C 
BRANCH   3   8
ATOM      8  C   UNL     1      60.089   8.559  10.496  1.00  0.00     0.073 C 
ATOM      9  O   UNL     1      61.267   8.525  10.940  1.00  0.00    -0.547 OA
ATOM     10  O   UNL     1      59.345   9.727  10.614  1.00  0.00    -0.547 OA
ENDBRANCH   3   8
BRANCH   4  11
ATOM     11  O   UNL     1      60.089   5.912  11.647  1.00  0.00    -0.387 OA
ATOM     12  H   UNL     1      59.636   6.721  11.998  1.00  0.00     0.211 HD
ENDBRANCH   4  11
BRANCH   6  13
ATOM     13  O   UNL     1      60.119   3.647   9.929  1.00  0.00    -0.387 OA
ATOM     14  H   UNL     1      61.093   3.774  10.060  1.00  0.00     0.211 HD
ENDBRANCH   6  13
BRANCH   7  15
ATOM     15  O   UNL     1      57.657   4.597  11.012  1.00  0.00    -0.384 OA
ATOM     16  H   UNL     1      58.036   5.313  11.587  1.00  0.00     0.211 HD
ENDBRANCH   7  15
ENDBRANCH   1   2
BRANCH   1  17
ATOM     17  C   UNL     1      56.891   5.925   6.876  1.00  0.00     0.172 A 
ATOM     18  C   UNL     1      55.876   6.655   6.257  1.00  0.00     0.205 A 
ATOM     19  C   UNL     1      57.161   4.617   6.443  1.00  0.00     0.097 A 
ATOM     20  C   UNL     1      55.109   6.081   5.232  1.00  0.00     0.188 A 
ATOM     21  C   UNL     1      56.444   4.039   5.389  1.00  0.00     0.134 A 
ATOM     22  C   UNL     1      55.370   4.757   4.790  1.00  0.00     0.111 A 
ATOM     23  O   UNL     1      54.124   6.794   4.693  1.00  0.00    -0.452 OA
ATOM     24  C   UNL     1      54.508   4.232   3.798  1.00  0.00     0.197 A 
ATOM     25  C   UNL     1      53.320   6.336   3.739  1.00  0.00     0.138 A 
ATOM     26  C   UNL     1      53.499   5.031   3.261  1.00  0.00     0.100 A 
ATOM     27  O   UNL     1      54.598   3.042   3.396  1.00  0.00    -0.289 OA
BRANCH  18  28
ATOM     28  O   UNL     1      55.621   7.961   6.683  1.00  0.00    -0.490 OA
ATOM     29  C   UNL     1      56.213   9.084   6.041  1.00  0.00     0.278 C 
ENDBRANCH  18  28
BRANCH  21  30
ATOM     30  O   UNL     1      56.861   2.770   4.975  1.00  0.00    -0.507 OA
ATOM     31  H   UNL     1      57.800   2.413   5.065  1.00  0.00     0.293 HD
ENDBRANCH  21  30
BRANCH  25  32
ATOM     32  C   UNL     1      52.257   7.229   3.211  1.00  0.00     0.017 A 
ATOM     33  C   UNL     1      50.942   6.769   2.987  1.00  0.00     0.012 A 
ATOM     34  C   UNL     1      52.551   8.582   2.957  1.00  0.00     0.012 A 
ATOM     35  C   UNL     1      49.961   7.639   2.501  1.00  0.00     0.001 A 
ATOM     36  C   UNL     1      51.565   9.447   2.474  1.00  0.00     0.001 A 
ATOM     37  C   UNL     1      50.272   8.974   2.243  1.00  0.00     0.000 A 
ENDBRANCH  25  32
ENDBRANCH   1  17
TORSDOF 9
ENDMDL
MODEL 3
REMARK VINA RESULT:    -4.893     10.858     15.021
REMARK INTER + INTRA:          -8.234
REMARK INTER:                  -6.925
REMARK INTRA:                  -1.309
REMARK UNBOUND:                -1.338
REMARK SMILES COc1c(O[C@@H]2O[C@@H](C(=O)[O-])[C@@H](O)[C@@H](O)[C@H]2O)cc(O)c2c(=O)cc(-c3ccccc3)oc12
REMARK SMILES IDX 5 1 6 2 8 3 12 4 7 5 14 6 16 7 9 8 10 9 11 10 13 11 15 13
REMARK SMILES IDX 17 15 4 17 3 18 18 19 33 20 19 21 21 22 32 23 22 24 25 25
REMARK SMILES IDX 24 26 23 27 2 28 1 29 20 30 26 32 27 33 31 34 28 35 30 36
REMARK SMILES IDX 29 37
REMARK H PARENT 13 12 15 14 17 16 20 31
REMARK Flexibility Score: inf
ROOT
ATOM      1  O   UNL     1      61.462  13.642   0.483  1.00  0.00    -0.458 OA
ENDROOT
BRANCH   1   2
ATOM      2  C   UNL     1      62.814  13.440   0.048  1.00  0.00     0.339 C 
ATOM      3  C   UNL     1      63.468  15.563   0.823  1.00  0.00     0.199 C 
ATOM      4  C   UNL     1      63.743  16.114  -0.593  1.00  0.00     0.180 C 
ATOM      5  O   UNL     1      63.712  14.163   0.881  1.00  0.00    -0.328 OA
ATOM      6  C   UNL     1      62.850  15.361  -1.597  1.00  0.00     0.181 C 
ATOM      7  C   UNL     1      62.996  13.832  -1.437  1.00  0.00     0.214 C 
BRANCH   3   8
ATOM      8  C   UNL     1      64.330  16.256   1.838  1.00  0.00     0.073 C 
ATOM      9  O   UNL     1      63.834  17.107   2.622  1.00  0.00    -0.547 OA
ATOM     10  O   UNL     1      65.676  15.925   1.945  1.00  0.00    -0.547 OA
ENDBRANCH   3   8
BRANCH   4  11
ATOM     11  O   UNL     1      65.100  15.943  -0.927  1.00  0.00    -0.387 OA
ATOM     12  H   UNL     1      65.213  16.243  -1.865  1.00  0.00     0.211 HD
ENDBRANCH   4  11
BRANCH   6  13
ATOM     13  O   UNL     1      63.083  15.773  -2.923  1.00  0.00    -0.387 OA
ATOM     14  H   UNL     1      63.938  15.375  -3.228  1.00  0.00     0.211 HD
ENDBRANCH   6  13
BRANCH   7  15
ATOM     15  O   UNL     1      64.263  13.400  -1.866  1.00  0.00    -0.384 OA
ATOM     16  H   UNL     1      64.236  13.348  -2.857  1.00  0.00     0.211 HD
ENDBRANCH   7  15
ENDBRANCH   1   2
BRANCH   1  17
ATOM     17  C   UNL     1      60.310  13.121  -0.126  1.00  0.00     0.172 A 
ATOM     18  C   UNL     1      59.351  14.023  -0.591  1.00  0.00     0.205 A 
ATOM     19  C   UNL     1      60.097  11.744  -0.291  1.00  0.00     0.097 A 
ATOM     20  C   UNL     1      58.169  13.561  -1.189  1.00  0.00     0.188 A 
ATOM     21  C   UNL     1      58.950  11.258  -0.930  1.00  0.00     0.134 A 
ATOM     22  C   UNL     1      57.941  12.169  -1.356  1.00  0.00     0.111 A 
ATOM     23  O   UNL     1      57.261  14.448  -1.583  1.00  0.00    -0.452 OA
ATOM     24  C   UNL     1      56.696  11.786  -1.908  1.00  0.00     0.197 A 
ATOM     25  C   UNL     1      56.097  14.117  -2.133  1.00  0.00     0.138 A 
ATOM     26  C   UNL     1      55.787  12.763  -2.315  1.00  0.00     0.100 A 
ATOM     27  O   UNL     1      56.358  10.579  -2.022  1.00  0.00    -0.289 OA
BRANCH  18  28
ATOM     28  O   UNL     1      59.575  15.393  -0.436  1.00  0.00    -0.490 OA
ATOM     29  C   UNL     1      59.208  16.078   0.756  1.00  0.00     0.278 C 
ENDBRANCH  18  28
BRANCH  21  30
ATOM     30  O   UNL     1      58.887   9.875  -1.127  1.00  0.00    -0.507 OA
ATOM     31  H   UNL     1      59.324   9.380  -1.889  1.00  0.00     0.293 HD
ENDBRANCH  21  30
BRANCH  25  32
ATOM     32  C   UNL     1      55.165  15.200  -2.538  1.00  0.00     0.017 A 
ATOM     33  C   UNL     1      55.183  15.750  -3.837  1.00  0.00     0.012 A 
ATOM     34  C   UNL     1      54.209  15.672  -1.618  1.00  0.00     0.012 A 
ATOM     35  C   UNL     1      54.284  16.760  -4.191  1.00  0.00     0.001 A 
ATOM     36  C   UNL     1      53.310  16.680  -1.980  1.00  0.00     0.001 A 
ATOM     37  C   UNL     1      53.350  17.226  -3.264  1.00  0.00     0.000 A 
ENDBRANCH  25  32
ENDBRANCH   1  17
TORSDOF 9
ENDMDL
MODEL 4
REMARK VINA RESULT:    -4.887      1.650      2.894
REMARK INTER + INTRA:          -8.225
REMARK INTER:                  -7.322
REMARK INTRA:                  -0.903
REMARK UNBOUND:                -1.338
REMARK SMILES COc1c(O[C@@H]2O[C@@H](C(=O)[O-])[C@@H](O)[C@@H](O)[C@H]2O)cc(O)c2c(=O)cc(-c3ccccc3)oc12
REMARK SMILES IDX 5 1 6 2 8 3 12 4 7 5 14 6 16 7 9 8 10 9 11 10 13 11 15 13
REMARK SMILES IDX 17 15 4 17 3 18 18 19 33 20 19 21 21 22 32 23 22 24 25 25
REMARK SMILES IDX 24 26 23 27 2 28 1 29 20 30 26 32 27 33 31 34 28 35 30 36
REMARK SMILES IDX 29 37
REMARK H PARENT 13 12 15 14 17 16 20 31
REMARK Flexibility Score: inf
ROOT
ATOM      1  O   UNL     1      57.088   4.314   4.190  1.00  0.00    -0.458 OA
ENDROOT
BRANCH   1   2
ATOM      2  C   UNL     1      56.572   3.015   3.872  1.00  0.00     0.339 C 
ATOM      3  C   UNL     1      55.158   3.892   2.210  1.00  0.00     0.199 C 
ATOM      4  C   UNL     1      53.864   3.545   2.975  1.00  0.00     0.180 C 
ATOM      5  O   UNL     1      56.190   2.959   2.503  1.00  0.00    -0.328 OA
ATOM      6  C   UNL     1      54.173   3.527   4.485  1.00  0.00     0.181 C 
ATOM      7  C   UNL     1      55.392   2.632   4.795  1.00  0.00     0.214 C 
BRANCH   3   8
ATOM      8  C   UNL     1      54.911   3.904   0.729  1.00  0.00     0.073 C 
ATOM      9  O   UNL     1      55.830   3.595  -0.075  1.00  0.00    -0.547 OA
ATOM     10  O   UNL     1      53.647   4.213   0.240  1.00  0.00    -0.547 OA
ENDBRANCH   3   8
BRANCH   4  11
ATOM     11  O   UNL     1      53.378   2.288   2.566  1.00  0.00    -0.387 OA
ATOM     12  H   UNL     1      52.390   2.314   2.643  1.00  0.00     0.211 HD
ENDBRANCH   4  11
BRANCH   6  13
ATOM     13  O   UNL     1      53.049   3.165   5.250  1.00  0.00    -0.387 OA
ATOM     14  H   UNL     1      52.930   2.182   5.185  1.00  0.00     0.211 HD
ENDBRANCH   6  13
BRANCH   7  15
ATOM     15  O   UNL     1      55.083   1.276   4.594  1.00  0.00    -0.384 OA
ATOM     16  H   UNL     1      54.953   1.145   3.618  1.00  0.00     0.211 HD
ENDBRANCH   7  15
ENDBRANCH   1   2
BRANCH   1  17
ATOM     17  C   UNL     1      57.111   4.908   5.462  1.00  0.00     0.172 A 
ATOM     18  C   UNL     1      57.938   4.343   6.434  1.00  0.00     0.205 A 
ATOM     19  C   UNL     1      56.348   6.042   5.782  1.00  0.00     0.097 A 
ATOM     20  C   UNL     1      57.987   4.881   7.728  1.00  0.00     0.188 A 
ATOM     21  C   UNL     1      56.416   6.628   7.051  1.00  0.00     0.134 A 
ATOM     22  C   UNL     1      57.215   6.024   8.064  1.00  0.00     0.111 A 
ATOM     23  O   UNL     1      58.756   4.292   8.639  1.00  0.00    -0.452 OA
ATOM     24  C   UNL     1      57.271   6.463   9.409  1.00  0.00     0.197 A 
ATOM     25  C   UNL     1      58.852   4.701   9.899  1.00  0.00     0.138 A 
ATOM     26  C   UNL     1      58.107   5.812  10.317  1.00  0.00     0.100 A 
ATOM     27  O   UNL     1      56.564   7.414   9.832  1.00  0.00    -0.289 OA
BRANCH  18  28
ATOM     28  O   UNL     1      58.705   3.223   6.105  1.00  0.00    -0.490 OA
ATOM     29  C   UNL     1      60.036   3.347   5.617  1.00  0.00     0.278 C 
ENDBRANCH  18  28
BRANCH  21  30
ATOM     30  O   UNL     1      55.690   7.811   7.230  1.00  0.00    -0.507 OA
ATOM     31  H   UNL     1      54.707   7.920   7.035  1.00  0.00     0.293 HD
ENDBRANCH  21  30
BRANCH  25  32
ATOM     32  C   UNL     1      59.750   3.963  10.824  1.00  0.00     0.017 A 
ATOM     33  C   UNL     1      59.354   3.624  12.134  1.00  0.00     0.012 A 
ATOM     34  C   UNL     1      61.022   3.557  10.377  1.00  0.00     0.012 A 
ATOM     35  C   UNL     1      60.219   2.918  12.976  1.00  0.00     0.001 A 
ATOM     36  C   UNL     1      61.881   2.848  11.222  1.00  0.00     0.001 A 
ATOM     37  C   UNL     1      61.480   2.532  12.522  1.00  0.00     0.000 A 
ENDBRANCH  25  32
ENDBRANCH   1  17
TORSDOF 9
ENDMDL
MODEL 5
REMARK VINA RESULT:    -4.887      2.133      8.772
REMARK INTER + INTRA:          -8.224
REMARK INTER:                  -7.153
REMARK INTRA:                  -1.071
REMARK UNBOUND:                -1.338
REMARK SMILES COc1c(O[C@@H]2O[C@@H](C(=O)[O-])[C@@H](O)[C@@H](O)[C@H]2O)cc(O)c2c(=O)cc(-c3ccccc3)oc12
REMARK SMILES IDX 5 1 6 2 8 3 12 4 7 5 14 6 16 7 9 8 10 9 11 10 13 11 15 13
REMARK SMILES IDX 17 15 4 17 3 18 18 19 33 20 19 21 21 22 32 23 22 24 25 25
REMARK SMILES IDX 24 26 23 27 2 28 1 29 20 30 26 32 27 33 31 34 28 35 30 36
REMARK SMILES IDX 29 37
REMARK H PARENT 13 12 15 14 17 16 20 31
REMARK Flexibility Score: inf
ROOT
ATOM      1  O   UNL     1      56.562   5.804   6.853  1.00  0.00    -0.458 OA
ENDROOT
BRANCH   1   2
ATOM      2  C   UNL     1      57.712   6.584   7.207  1.00  0.00     0.339 C 
ATOM      3  C   UNL     1      57.916   5.494   9.282  1.00  0.00     0.199 C 
ATOM      4  C   UNL     1      57.569   6.756  10.101  1.00  0.00     0.180 C 
ATOM      5  O   UNL     1      58.567   5.839   8.066  1.00  0.00    -0.328 OA
ATOM      6  C   UNL     1      56.676   7.672   9.242  1.00  0.00     0.181 C 
ATOM      7  C   UNL     1      57.307   7.928   7.856  1.00  0.00     0.214 C 
BRANCH   3   8
ATOM      8  C   UNL     1      58.802   4.577  10.073  1.00  0.00     0.073 C 
ATOM      9  O   UNL     1      59.629   3.827   9.489  1.00  0.00    -0.547 OA
ATOM     10  O   UNL     1      58.745   4.584  11.462  1.00  0.00    -0.547 OA
ENDBRANCH   3   8
BRANCH   4  11
ATOM     11  O   UNL     1      58.746   7.435  10.470  1.00  0.00    -0.387 OA
ATOM     12  H   UNL     1      58.670   8.364  10.129  1.00  0.00     0.211 HD
ENDBRANCH   4  11
BRANCH   6  13
ATOM     13  O   UNL     1      56.360   8.873   9.903  1.00  0.00    -0.387 OA
ATOM     14  H   UNL     1      57.133   9.132  10.468  1.00  0.00     0.211 HD
ENDBRANCH   6  13
BRANCH   7  15
ATOM     15  O   UNL     1      58.450   8.738   7.967  1.00  0.00    -0.384 OA
ATOM     16  H   UNL     1      58.220   9.626   7.587  1.00  0.00     0.211 HD
ENDBRANCH   7  15
ENDBRANCH   1   2
BRANCH   1  17
ATOM     17  C   UNL     1      56.514   4.792   5.881  1.00  0.00     0.172 A 
ATOM     18  C   UNL     1      55.326   4.627   5.167  1.00  0.00     0.205 A 
ATOM     19  C   UNL     1      57.609   3.961   5.598  1.00  0.00     0.097 A 
ATOM     20  C   UNL     1      55.212   3.620   4.197  1.00  0.00     0.188 A 
ATOM     21  C   UNL     1      57.538   2.981   4.601  1.00  0.00     0.134 A 
ATOM     22  C   UNL     1      56.312   2.769   3.908  1.00  0.00     0.111 A 
ATOM     23  O   UNL     1      54.052   3.466   3.566  1.00  0.00    -0.452 OA
ATOM     24  C   UNL     1      56.092   1.737   2.964  1.00  0.00     0.197 A 
ATOM     25  C   UNL     1      53.828   2.526   2.654  1.00  0.00     0.138 A 
ATOM     26  C   UNL     1      54.857   1.633   2.324  1.00  0.00     0.100 A 
ATOM     27  O   UNL     1      56.972   0.878   2.696  1.00  0.00    -0.289 OA
BRANCH  18  28
ATOM     28  O   UNL     1      54.245   5.466   5.443  1.00  0.00    -0.490 OA
ATOM     29  C   UNL     1      54.010   6.652   4.692  1.00  0.00     0.278 C 
ENDBRANCH  18  28
BRANCH  21  30
ATOM     30  O   UNL     1      58.717   2.276   4.336  1.00  0.00    -0.507 OA
ATOM     31  H   UNL     1      59.647   2.657   4.415  1.00  0.00     0.293 HD
ENDBRANCH  21  30
BRANCH  25  32
ATOM     32  C   UNL     1      52.491   2.457   2.012  1.00  0.00     0.017 A 
ATOM     33  C   UNL     1      51.620   1.367   2.222  1.00  0.00     0.012 A 
ATOM     34  C   UNL     1      52.057   3.521   1.198  1.00  0.00     0.012 A 
ATOM     35  C   UNL     1      50.361   1.338   1.613  1.00  0.00     0.001 A 
ATOM     36  C   UNL     1      50.796   3.488   0.595  1.00  0.00     0.001 A 
ATOM     37  C   UNL     1      49.951   2.395   0.800  1.00  0.00     0.000 A 
ENDBRANCH  25  32
ENDBRANCH   1  17
TORSDOF 9
ENDMDL
MODEL 6
REMARK VINA RESULT:    -4.851      2.626      8.602
REMARK INTER + INTRA:          -8.174
REMARK INTER:                  -7.116
REMARK INTRA:                  -1.059
REMARK UNBOUND:                -1.338
REMARK SMILES COc1c(O[C@@H]2O[C@@H](C(=O)[O-])[C@@H](O)[C@@H](O)[C@H]2O)cc(O)c2c(=O)cc(-c3ccccc3)oc12
REMARK SMILES IDX 5 1 6 2 8 3 12 4 7 5 14 6 16 7 9 8 10 9 11 10 13 11 15 13
REMARK SMILES IDX 17 15 4 17 3 18 18 19 33 20 19 21 21 22 32 23 22 24 25 25
REMARK SMILES IDX 24 26 23 27 2 28 1 29 20 30 26 32 27 33 31 34 28 35 30 36
REMARK SMILES IDX 29 37
REMARK H PARENT 13 12 15 14 17 16 20 31
REMARK Flexibility Score: inf
ROOT
ATOM      1  O   UNL     1      57.767   7.215   6.772  1.00  0.00    -0.458 OA
ENDROOT
BRANCH   1   2
ATOM      2  C   UNL     1      57.130   7.877   7.873  1.00  0.00     0.339 C 
ATOM      3  C   UNL     1      59.101   9.037   8.423  1.00  0.00     0.199 C 
ATOM      4  C   UNL     1      59.287   8.302   9.768  1.00  0.00     0.180 C 
ATOM      5  O   UNL     1      57.724   9.151   8.091  1.00  0.00    -0.328 OA
ATOM      6  C   UNL     1      58.632   6.912   9.664  1.00  0.00     0.181 C 
ATOM      7  C   UNL     1      57.177   7.016   9.156  1.00  0.00     0.214 C 
BRANCH   3   8
ATOM      8  C   UNL     1      59.709  10.409   8.481  1.00  0.00     0.073 C 
ATOM      9  O   UNL     1      59.280  11.329   7.736  1.00  0.00    -0.547 OA
ATOM     10  O   UNL     1      60.723  10.679   9.392  1.00  0.00    -0.547 OA
ENDBRANCH   3   8
BRANCH   4  11
ATOM     11  O   UNL     1      58.696   9.040  10.811  1.00  0.00    -0.387 OA
ATOM     12  H   UNL     1      58.038   9.658  10.400  1.00  0.00     0.211 HD
ENDBRANCH   4  11
BRANCH   6  13
ATOM     13  O   UNL     1      58.714   6.198  10.874  1.00  0.00    -0.387 OA
ATOM     14  H   UNL     1      58.475   6.811  11.616  1.00  0.00     0.211 HD
ENDBRANCH   6  13
BRANCH   7  15
ATOM     15  O   UNL     1      56.347   7.604  10.126  1.00  0.00    -0.384 OA
ATOM     16  H   UNL     1      56.315   8.578   9.934  1.00  0.00     0.211 HD
ENDBRANCH   7  15
ENDBRANCH   1   2
BRANCH   1  17
ATOM     17  C   UNL     1      57.589   5.874   6.395  1.00  0.00     0.172 A 
ATOM     18  C   UNL     1      56.499   5.563   5.581  1.00  0.00     0.205 A 
ATOM     19  C   UNL     1      58.464   4.852   6.796  1.00  0.00     0.097 A 
ATOM     20  C   UNL     1      56.258   4.238   5.190  1.00  0.00     0.188 A 
ATOM     21  C   UNL     1      58.275   3.530   6.378  1.00  0.00     0.134 A 
ATOM     22  C   UNL     1      57.133   3.196   5.594  1.00  0.00     0.111 A 
ATOM     23  O   UNL     1      55.187   3.973   4.447  1.00  0.00    -0.452 OA
ATOM     24  C   UNL     1      56.781   1.879   5.211  1.00  0.00     0.197 A 
ATOM     25  C   UNL     1      54.850   2.752   4.048  1.00  0.00     0.138 A 
ATOM     26  C   UNL     1      55.652   1.665   4.420  1.00  0.00     0.100 A 
ATOM     27  O   UNL     1      57.441   0.875   5.585  1.00  0.00    -0.289 OA
BRANCH  18  28
ATOM     28  O   UNL     1      55.640   6.587   5.175  1.00  0.00    -0.490 OA
ATOM     29  C   UNL     1      55.860   7.311   3.971  1.00  0.00     0.278 C 
ENDBRANCH  18  28
BRANCH  21  30
ATOM     30  O   UNL     1      59.260   2.612   6.754  1.00  0.00    -0.507 OA
ATOM     31  H   UNL     1      59.486   2.364   7.705  1.00  0.00     0.293 HD
ENDBRANCH  21  30
BRANCH  25  32
ATOM     32  C   UNL     1      53.632   2.582   3.215  1.00  0.00     0.017 A 
ATOM     33  C   UNL     1      53.262   3.529   2.237  1.00  0.00     0.012 A 
ATOM     34  C   UNL     1      52.838   1.431   3.375  1.00  0.00     0.012 A 
ATOM     35  C   UNL     1      52.115   3.335   1.461  1.00  0.00     0.001 A 
ATOM     36  C   UNL     1      51.694   1.241   2.593  1.00  0.00     0.001 A 
ATOM     37  C   UNL     1      51.332   2.194   1.639  1.00  0.00     0.000 A 
ENDBRANCH  25  32
ENDBRANCH   1  17
TORSDOF 9
ENDMDL
MODEL 7
REMARK VINA RESULT:    -4.739      2.155      8.947
REMARK INTER + INTRA:          -8.016
REMARK INTER:                  -6.775
REMARK INTRA:                  -1.241
REMARK UNBOUND:                -1.338
REMARK SMILES COc1c(O[C@@H]2O[C@@H](C(=O)[O-])[C@@H](O)[C@@H](O)[C@H]2O)cc(O)c2c(=O)cc(-c3ccccc3)oc12
REMARK SMILES IDX 5 1 6 2 8 3 12 4 7 5 14 6 16 7 9 8 10 9 11 10 13 11 15 13
REMARK SMILES IDX 17 15 4 17 3 18 18 19 33 20 19 21 21 22 32 23 22 24 25 25
REMARK SMILES IDX 24 26 23 27 2 28 1 29 20 30 26 32 27 33 31 34 28 35 30 36
REMARK SMILES IDX 29 37
REMARK H PARENT 13 12 15 14 17 16 20 31
REMARK Flexibility Score: inf
ROOT
ATOM      1  O   UNL     1      57.136   5.778   7.430  1.00  0.00    -0.458 OA
ENDROOT
BRANCH   1   2
ATOM      2  C   UNL     1      58.473   6.295   7.432  1.00  0.00     0.339 C 
ATOM      3  C   UNL     1      59.050   5.029   9.329  1.00  0.00     0.199 C 
ATOM      4  C   UNL     1      59.225   6.267  10.234  1.00  0.00     0.180 C 
ATOM      5  O   UNL     1      59.371   5.336   7.978  1.00  0.00    -0.328 OA
ATOM      6  C   UNL     1      58.327   7.399   9.702  1.00  0.00     0.181 C 
ATOM      7  C   UNL     1      58.562   7.637   8.194  1.00  0.00     0.214 C 
BRANCH   3   8
ATOM      8  C   UNL     1      59.922   3.901   9.798  1.00  0.00     0.073 C 
ATOM      9  O   UNL     1      60.455   3.118   8.968  1.00  0.00    -0.547 OA
ATOM     10  O   UNL     1      60.180   3.743  11.155  1.00  0.00    -0.547 OA
ENDBRANCH   3   8
BRANCH   4  11
ATOM     11  O   UNL     1      60.572   6.678  10.240  1.00  0.00    -0.387 OA
ATOM     12  H   UNL     1      60.590   7.633   9.972  1.00  0.00     0.211 HD
ENDBRANCH   4  11
BRANCH   6  13
ATOM     13  O   UNL     1      58.472   8.584  10.448  1.00  0.00    -0.387 OA
ATOM     14  H   UNL     1      57.727   8.637  11.099  1.00  0.00     0.211 HD
ENDBRANCH   6  13
BRANCH   7  15
ATOM     15  O   UNL     1      59.828   8.203   7.967  1.00  0.00    -0.384 OA
ATOM     16  H   UNL     1      60.260   7.677   7.244  1.00  0.00     0.211 HD
ENDBRANCH   7  15
ENDBRANCH   1   2
BRANCH   1  17
ATOM     17  C   UNL     1      56.412   5.353   6.305  1.00  0.00     0.172 A 
ATOM     18  C   UNL     1      55.395   6.182   5.830  1.00  0.00     0.205 A 
ATOM     19  C   UNL     1      56.682   4.145   5.642  1.00  0.00     0.097 A 
ATOM     20  C   UNL     1      54.625   5.801   4.721  1.00  0.00     0.188 A 
ATOM     21  C   UNL     1      55.962   3.765   4.504  1.00  0.00     0.134 A 
ATOM     22  C   UNL     1      54.885   4.579   4.048  1.00  0.00     0.111 A 
ATOM     23  O   UNL     1      53.637   6.597   4.322  1.00  0.00    -0.452 OA
ATOM     24  C   UNL     1      54.020   4.239   2.980  1.00  0.00     0.197 A 
ATOM     25  C   UNL     1      52.830   6.317   3.305  1.00  0.00     0.138 A 
ATOM     26  C   UNL     1      53.008   5.121   2.599  1.00  0.00     0.100 A 
ATOM     27  O   UNL     1      54.110   3.141   2.370  1.00  0.00    -0.289 OA
BRANCH  18  28
ATOM     28  O   UNL     1      55.140   7.389   6.485  1.00  0.00    -0.490 OA
ATOM     29  C   UNL     1      55.703   8.615   6.034  1.00  0.00     0.278 C 
ENDBRANCH  18  28
BRANCH  21  30
ATOM     30  O   UNL     1      56.379   2.592   3.867  1.00  0.00    -0.507 OA
ATOM     31  H   UNL     1      56.542   2.500   2.876  1.00  0.00     0.293 HD
ENDBRANCH  21  30
BRANCH  25  32
ATOM     32  C   UNL     1      51.764   7.289   2.950  1.00  0.00     0.017 A 
ATOM     33  C   UNL     1      52.062   8.619   2.584  1.00  0.00     0.012 A 
ATOM     34  C   UNL     1      50.420   6.872   2.941  1.00  0.00     0.012 A 
ATOM     35  C   UNL     1      51.037   9.507   2.243  1.00  0.00     0.001 A 
ATOM     36  C   UNL     1      49.400   7.763   2.596  1.00  0.00     0.001 A 
ATOM     37  C   UNL     1      49.708   9.080   2.250  1.00  0.00     0.000 A 
ENDBRANCH  25  32
ENDBRANCH   1  17
TORSDOF 9
ENDMDL
MODEL 8
REMARK VINA RESULT:    -4.687      2.172      9.172
REMARK INTER + INTRA:          -7.942
REMARK INTER:                  -6.624
REMARK INTRA:                  -1.318
REMARK UNBOUND:                -1.338
REMARK SMILES COc1c(O[C@@H]2O[C@@H](C(=O)[O-])[C@@H](O)[C@@H](O)[C@H]2O)cc(O)c2c(=O)cc(-c3ccccc3)oc12
REMARK SMILES IDX 5 1 6 2 8 3 12 4 7 5 14 6 16 7 9 8 10 9 11 10 13 11 15 13
REMARK SMILES IDX 17 15 4 17 3 18 18 19 33 20 19 21 21 22 32 23 22 24 25 25
REMARK SMILES IDX 24 26 23 27 2 28 1 29 20 30 26 32 27 33 31 34 28 35 30 36
REMARK SMILES IDX 29 37
REMARK H PARENT 13 12 15 14 17 16 20 31
REMARK Flexibility Score: inf
ROOT
ATOM      1  O   UNL     1      57.446   6.541   7.281  1.00  0.00    -0.458 OA
ENDROOT
BRANCH   1   2
ATOM      2  C   UNL     1      57.183   6.706   8.681  1.00  0.00     0.339 C 
ATOM      3  C   UNL     1      57.892   8.948   8.635  1.00  0.00     0.199 C 
ATOM      4  C   UNL     1      59.128   8.689   9.522  1.00  0.00     0.180 C 
ATOM      5  O   UNL     1      56.834   8.056   8.961  1.00  0.00    -0.328 OA
ATOM      6  C   UNL     1      59.570   7.225   9.337  1.00  0.00     0.181 C 
ATOM      7  C   UNL     1      58.386   6.253   9.540  1.00  0.00     0.214 C 
BRANCH   3   8
ATOM      8  C   UNL     1      57.412  10.361   8.795  1.00  0.00     0.073 C 
ATOM      9  O   UNL     1      58.218  11.278   9.105  1.00  0.00    -0.547 OA
ATOM     10  O   UNL     1      56.078  10.671   8.557  1.00  0.00    -0.547 OA
ENDBRANCH   3   8
BRANCH   4  11
ATOM     11  O   UNL     1      58.816   8.934  10.873  1.00  0.00    -0.387 OA
ATOM     12  H   UNL     1      59.087   9.866  11.075  1.00  0.00     0.211 HD
ENDBRANCH   4  11
BRANCH   6  13
ATOM     13  O   UNL     1      60.664   6.896  10.158  1.00  0.00    -0.387 OA
ATOM     14  H   UNL     1      61.381   7.564  10.007  1.00  0.00     0.211 HD
ENDBRANCH   6  13
BRANCH   7  15
ATOM     15  O   UNL     1      57.991   6.219  10.889  1.00  0.00    -0.384 OA
ATOM     16  H   UNL     1      58.545   5.529  11.340  1.00  0.00     0.211 HD
ENDBRANCH   7  15
ENDBRANCH   1   2
BRANCH   1  17
ATOM     17  C   UNL     1      56.600   5.924   6.346  1.00  0.00     0.172 A 
ATOM     18  C   UNL     1      55.584   6.692   5.775  1.00  0.00     0.205 A 
ATOM     19  C   UNL     1      56.746   4.581   5.962  1.00  0.00     0.097 A 
ATOM     20  C   UNL     1      54.695   6.124   4.851  1.00  0.00     0.188 A 
ATOM     21  C   UNL     1      55.904   4.004   5.005  1.00  0.00     0.134 A 
ATOM     22  C   UNL     1      54.830   4.766   4.461  1.00  0.00     0.111 A 
ATOM     23  O   UNL     1      53.715   6.876   4.359  1.00  0.00    -0.452 OA
ATOM     24  C   UNL     1      53.853   4.254   3.574  1.00  0.00     0.197 A 
ATOM     25  C   UNL     1      52.802   6.429   3.502  1.00  0.00     0.138 A 
ATOM     26  C   UNL     1      52.854   5.094   3.081  1.00  0.00     0.100 A 
ATOM     27  O   UNL     1      53.831   3.043   3.230  1.00  0.00    -0.289 OA
BRANCH  18  28
ATOM     28  O   UNL     1      55.452   8.031   6.151  1.00  0.00    -0.490 OA
ATOM     29  C   UNL     1      56.042   9.079   5.392  1.00  0.00     0.278 C 
ENDBRANCH  18  28
BRANCH  21  30
ATOM     30  O   UNL     1      56.201   2.691   4.626  1.00  0.00    -0.507 OA
ATOM     31  H   UNL     1      56.939   2.426   3.993  1.00  0.00     0.293 HD
ENDBRANCH  21  30
BRANCH  25  32
ATOM     32  C   UNL     1      51.757   7.367   3.018  1.00  0.00     0.017 A 
ATOM     33  C   UNL     1      52.070   8.677   2.596  1.00  0.00     0.012 A 
ATOM     34  C   UNL     1      50.420   6.935   2.941  1.00  0.00     0.012 A 
ATOM     35  C   UNL     1      51.065   9.532   2.134  1.00  0.00     0.001 A 
ATOM     36  C   UNL     1      49.420   7.793   2.475  1.00  0.00     0.001 A 
ATOM     37  C   UNL     1      49.742   9.092   2.074  1.00  0.00     0.000 A 
ENDBRANCH  25  32
ENDBRANCH   1  17
TORSDOF 9
ENDMDL
