MODEL 1
REMARK VINA RESULT:    -2.977      0.000      0.000
REMARK INTER + INTRA:          -2.977
REMARK INTER:                  -2.977
REMARK INTRA:                   0.000
REMARK UNBOUND:                 0.000
REMARK SMILES O=C1CCCCC1
REMARK SMILES IDX 5 1 4 2 3 3 2 4 1 5 7 6 6 7
REMARK H PARENT
REMARK Flexibility Score: inf
ROOT
ATOM      1  C   UNL     1     113.537 114.449 113.080  1.00  0.00     0.001 C 
ATOM      2  C   UNL     1     113.626 115.164 114.437  1.00  0.00     0.008 C 
ATOM      3  C   UNL     1     114.689 116.269 114.420  1.00  0.00     0.075 C 
ATOM      4  C   UNL     1     114.490 117.169 113.231  1.00  0.00     0.132 C 
ATOM      5  O   UNL     1     114.584 118.381 113.353  1.00  0.00    -0.300 OA
ATOM      6  C   UNL     1     114.270 116.557 111.876  1.00  0.00     0.075 C 
ATOM      7  C   UNL     1     113.217 115.445 111.956  1.00  0.00     0.008 C 
ENDROOT
TORSDOF 0
ENDMDL
MODEL 2
REMARK VINA RESULT:    -2.959      3.828      4.108
REMARK INTER + INTRA:          -2.959
REMARK INTER:                  -2.959
REMARK INTRA:                   0.000
REMARK UNBOUND:                 0.000
REMARK SMILES O=C1CCCCC1
REMARK SMILES IDX 5 1 4 2 3 3 2 4 1 5 7 6 6 7
REMARK H PARENT
REMARK Flexibility Score: inf
ROOT
ATOM      1  C   UNL     1     114.455 119.680 113.026  1.00  0.00     0.001 C 
ATOM      2  C   UNL     1     115.125 119.560 114.403  1.00  0.00     0.008 C 
ATOM      3  C   UNL     1     116.222 118.489 114.400  1.00  0.00     0.075 C 
ATOM      4  C   UNL     1     117.162 118.705 113.246  1.00  0.00     0.132 C 
ATOM      5  O   UNL     1     118.368 118.600 113.405  1.00  0.00    -0.300 OA
ATOM      6  C   UNL     1     116.596 118.956 111.876  1.00  0.00     0.075 C 
ATOM      7  C   UNL     1     115.489 120.016 111.941  1.00  0.00     0.008 C 
ENDROOT
TORSDOF 0
ENDMDL
MODEL 3
REMARK VINA RESULT:    -2.945      2.244      3.640
REMARK INTER + INTRA:          -2.945
REMARK INTER:                  -2.945
REMARK INTRA:                   0.000
REMARK UNBOUND:                 0.000
REMARK SMILES O=C1CCCCC1
REMARK SMILES IDX 5 1 4 2 3 3 2 4 1 5 7 6 6 7
REMARK H PARENT
REMARK Flexibility Score: inf
ROOT
ATOM      1  C   UNL     1     115.192 119.364 112.057  1.00  0.00     0.001 C 
ATOM      2  C   UNL     1     114.722 117.907 111.933  1.00  0.00     0.008 C 
ATOM      3  C   UNL     1     115.144 117.076 113.150  1.00  0.00     0.075 C 
ATOM      4  C   UNL     1     114.748 117.772 114.422  1.00  0.00     0.132 C 
ATOM      5  O   UNL     1     114.252 117.140 115.343  1.00  0.00    -0.300 OA
ATOM      6  C   UNL     1     115.056 119.235 114.586  1.00  0.00     0.075 C 
ATOM      7  C   UNL     1     114.635 120.013 113.333  1.00  0.00     0.008 C 
ENDROOT
TORSDOF 0
ENDMDL
MODEL 4
REMARK VINA RESULT:    -2.944      4.698      5.871
REMARK INTER + INTRA:          -2.944
REMARK INTER:                  -2.944
REMARK INTRA:                   0.000
REMARK UNBOUND:                 0.000
REMARK SMILES O=C1CCCCC1
REMARK SMILES IDX 5 1 4 2 3 3 2 4 1 5 7 6 6 7
REMARK H PARENT
REMARK Flexibility Score: inf
ROOT
ATOM      1  C   UNL     1     120.002 118.506 113.290  1.00  0.00     0.001 C 
ATOM      2  C   UNL     1     119.332 118.124 111.961  1.00  0.00     0.008 C 
ATOM      3  C   UNL     1     119.073 116.615 111.877  1.00  0.00     0.075 C 
ATOM      4  C   UNL     1     118.364 116.136 113.114  1.00  0.00     0.132 C 
ATOM      5  O   UNL     1     117.434 115.349 113.026  1.00  0.00    -0.300 OA
ATOM      6  C   UNL     1     118.873 116.561 114.463  1.00  0.00     0.075 C 
ATOM      7  C   UNL     1     119.137 118.072 114.483  1.00  0.00     0.008 C 
ENDROOT
TORSDOF 0
ENDMDL
MODEL 5
REMARK VINA RESULT:    -2.939      2.299      3.420
REMARK INTER + INTRA:          -2.939
REMARK INTER:                  -2.939
REMARK INTRA:                   0.000
REMARK UNBOUND:                 0.000
REMARK SMILES O=C1CCCCC1
REMARK SMILES IDX 5 1 4 2 3 3 2 4 1 5 7 6 6 7
REMARK H PARENT
REMARK Flexibility Score: inf
ROOT
ATOM      1  C   UNL     1     114.629 120.020 113.348  1.00  0.00     0.001 C 
ATOM      2  C   UNL     1     115.176 119.252 114.561  1.00  0.00     0.008 C 
ATOM      3  C   UNL     1     114.771 117.774 114.517  1.00  0.00     0.075 C 
ATOM      4  C   UNL     1     115.104 117.179 113.177  1.00  0.00     0.132 C 
ATOM      5  O   UNL     1     115.612 116.071 113.103  1.00  0.00    -0.300 OA
ATOM      6  C   UNL     1     114.718 117.921 111.928  1.00  0.00     0.075 C 
ATOM      7  C   UNL     1     115.125 119.396 112.035  1.00  0.00     0.008 C 
ENDROOT
TORSDOF 0
ENDMDL
MODEL 6
REMARK VINA RESULT:    -2.928      3.775      4.452
REMARK INTER + INTRA:          -2.928
REMARK INTER:                  -2.928
REMARK INTRA:                   0.000
REMARK UNBOUND:                 0.000
REMARK SMILES O=C1CCCCC1
REMARK SMILES IDX 5 1 4 2 3 3 2 4 1 5 7 6 6 7
REMARK H PARENT
REMARK Flexibility Score: inf
ROOT
ATOM      1  C   UNL     1     118.584 113.118 113.336  1.00  0.00     0.001 C 
ATOM      2  C   UNL     1     118.174 113.751 111.998  1.00  0.00     0.008 C 
ATOM      3  C   UNL     1     116.670 114.045 111.954  1.00  0.00     0.075 C 
ATOM      4  C   UNL     1     116.249 114.807 113.180  1.00  0.00     0.132 C 
ATOM      5  O   UNL     1     115.482 115.753 113.085  1.00  0.00    -0.300 OA
ATOM      6  C   UNL     1     116.706 114.333 114.532  1.00  0.00     0.075 C 
ATOM      7  C   UNL     1     118.210 114.033 114.512  1.00  0.00     0.008 C 
ENDROOT
TORSDOF 0
ENDMDL
MODEL 7
REMARK VINA RESULT:    -2.928      3.726      4.413
REMARK INTER + INTRA:          -2.928
REMARK INTER:                  -2.928
REMARK INTRA:                   0.000
REMARK UNBOUND:                 0.000
REMARK SMILES O=C1CCCCC1
REMARK SMILES IDX 5 1 4 2 3 3 2 4 1 5 7 6 6 7
REMARK H PARENT
REMARK Flexibility Score: inf
ROOT
ATOM      1  C   UNL     1     114.635 120.017 113.397  1.00  0.00     0.001 C 
ATOM      2  C   UNL     1     115.108 119.389 112.077  1.00  0.00     0.008 C 
ATOM      3  C   UNL     1     116.621 119.141 112.084  1.00  0.00     0.075 C 
ATOM      4  C   UNL     1     117.024 118.400 113.328  1.00  0.00     0.132 C 
ATOM      5  O   UNL     1     117.823 117.477 113.265  1.00  0.00    -0.300 OA
ATOM      6  C   UNL     1     116.509 118.867 114.661  1.00  0.00     0.075 C 
ATOM      7  C   UNL     1     114.998 119.121 114.591  1.00  0.00     0.008 C 
ENDROOT
TORSDOF 0
ENDMDL
MODEL 8
REMARK VINA RESULT:    -2.928      4.239      5.205
REMARK INTER + INTRA:          -2.928
REMARK INTER:                  -2.928
REMARK INTRA:                   0.000
REMARK UNBOUND:                 0.000
REMARK SMILES O=C1CCCCC1
REMARK SMILES IDX 5 1 4 2 3 3 2 4 1 5 7 6 6 7
REMARK H PARENT
REMARK Flexibility Score: inf
ROOT
ATOM      1  C   UNL     1     120.062 118.595 113.380  1.00  0.00     0.001 C 
ATOM      2  C   UNL     1     119.262 118.074 114.584  1.00  0.00     0.008 C 
ATOM      3  C   UNL     1     117.782 118.463 114.483  1.00  0.00     0.075 C 
ATOM      4  C   UNL     1     117.232 118.087 113.135  1.00  0.00     0.132 C 
ATOM      5  O   UNL     1     116.131 117.566 113.041  1.00  0.00    -0.300 OA
ATOM      6  C   UNL     1     118.009 118.446 111.899  1.00  0.00     0.075 C 
ATOM      7  C   UNL     1     119.484 118.057 112.063  1.00  0.00     0.008 C 
ENDROOT
TORSDOF 0
ENDMDL
MODEL 9
REMARK VINA RESULT:    -2.921      4.355      5.550
REMARK INTER + INTRA:          -2.921
REMARK INTER:                  -2.921
REMARK INTRA:                   0.000
REMARK UNBOUND:                 0.000
REMARK SMILES O=C1CCCCC1
REMARK SMILES IDX 5 1 4 2 3 3 2 4 1 5 7 6 6 7
REMARK H PARENT
REMARK Flexibility Score: inf
ROOT
ATOM      1  C   UNL     1     119.530 118.001 112.202  1.00  0.00     0.001 C 
ATOM      2  C   UNL     1     118.085 118.462 111.960  1.00  0.00     0.008 C 
ATOM      3  C   UNL     1     117.165 118.052 113.116  1.00  0.00     0.075 C 
ATOM      4  C   UNL     1     117.761 118.468 114.432  1.00  0.00     0.132 C 
ATOM      5  O   UNL     1     117.058 118.973 115.295  1.00  0.00    -0.300 OA
ATOM      6  C   UNL     1     119.207 118.170 114.711  1.00  0.00     0.075 C 
ATOM      7  C   UNL     1     120.077 118.578 113.516  1.00  0.00     0.008 C 
ENDROOT
TORSDOF 0
ENDMDL
