MODEL 1
REMARK VINA RESULT:    -3.704      0.000      0.000
REMARK INTER + INTRA:          -4.326
REMARK INTER:                  -4.137
REMARK INTRA:                  -0.189
REMARK UNBOUND:                -0.189
REMARK SMILES O=C([O-])c1ccccc1C(=O)[O-]
REMARK SMILES IDX 4 1 9 2 5 3 8 4 6 5 7 6 2 7 1 8 3 9 10 10 11 11 12 12
REMARK H PARENT
REMARK Flexibility Score: inf
ROOT
ATOM      1  C   UNL     1      64.526  33.796  60.372  1.00  0.00     0.006 A 
ATOM      2  C   UNL     1      63.334  34.296  59.775  1.00  0.00     0.006 A 
ATOM      3  C   UNL     1      65.102  34.501  61.444  1.00  0.00     0.010 A 
ATOM      4  C   UNL     1      62.729  35.446  60.316  1.00  0.00     0.010 A 
ATOM      5  C   UNL     1      64.497  35.653  61.950  1.00  0.00     0.001 A 
ATOM      6  C   UNL     1      63.306  36.116  61.395  1.00  0.00     0.001 A 
ENDROOT
BRANCH   1   7
ATOM      7  C   UNL     1      65.159  32.522  59.962  1.00  0.00     0.072 C 
ATOM      8  O   UNL     1      65.078  31.497  60.691  1.00  0.00    -0.545 OA
ATOM      9  O   UNL     1      65.911  32.461  58.793  1.00  0.00    -0.545 OA
ENDBRANCH   1   7
BRANCH   2  10
ATOM     10  C   UNL     1      62.737  33.698  58.559  1.00  0.00     0.072 C 
ATOM     11  O   UNL     1      63.068  34.119  57.419  1.00  0.00    -0.545 OA
ATOM     12  O   UNL     1      61.859  32.626  58.654  1.00  0.00    -0.545 OA
ENDBRANCH   2  10
TORSDOF 2
ENDMDL
MODEL 2
REMARK VINA RESULT:    -3.667      0.076      3.138
REMARK INTER + INTRA:          -4.285
REMARK INTER:                  -4.110
REMARK INTRA:                  -0.175
REMARK UNBOUND:                -0.189
REMARK SMILES O=C([O-])c1ccccc1C(=O)[O-]
REMARK SMILES IDX 4 1 9 2 5 3 8 4 6 5 7 6 2 7 1 8 3 9 10 10 11 11 12 12
REMARK H PARENT
REMARK Flexibility Score: inf
ROOT
ATOM      1  C   UNL     1      63.295  34.274  59.749  1.00  0.00     0.006 A 
ATOM      2  C   UNL     1      64.492  33.806  60.362  1.00  0.00     0.006 A 
ATOM      3  C   UNL     1      62.667  35.422  60.263  1.00  0.00     0.010 A 
ATOM      4  C   UNL     1      65.049  34.543  61.424  1.00  0.00     0.010 A 
ATOM      5  C   UNL     1      63.226  36.125  61.332  1.00  0.00     0.001 A 
ATOM      6  C   UNL     1      64.421  35.693  61.903  1.00  0.00     0.001 A 
ENDROOT
BRANCH   1   7
ATOM      7  C   UNL     1      62.709  33.645  58.543  1.00  0.00     0.072 C 
ATOM      8  O   UNL     1      62.951  34.103  57.395  1.00  0.00    -0.545 OA
ATOM      9  O   UNL     1      61.828  32.576  58.672  1.00  0.00    -0.545 OA
ENDBRANCH   1   7
BRANCH   2  10
ATOM     10  C   UNL     1      65.143  32.532  59.978  1.00  0.00     0.072 C 
ATOM     11  O   UNL     1      65.013  31.511  60.703  1.00  0.00    -0.545 OA
ATOM     12  O   UNL     1      65.846  32.428  58.784  1.00  0.00    -0.545 OA
ENDBRANCH   2  10
TORSDOF 2
ENDMDL
MODEL 3
REMARK VINA RESULT:    -3.661     12.262     14.397
REMARK INTER + INTRA:          -4.278
REMARK INTER:                  -4.122
REMARK INTRA:                  -0.156
REMARK UNBOUND:                -0.189
REMARK SMILES O=C([O-])c1ccccc1C(=O)[O-]
REMARK SMILES IDX 4 1 9 2 5 3 8 4 6 5 7 6 2 7 1 8 3 9 10 10 11 11 12 12
REMARK H PARENT
REMARK Flexibility Score: inf
ROOT
ATOM      1  C   UNL     1      56.099  26.042  50.500  1.00  0.00     0.006 A 
ATOM      2  C   UNL     1      55.718  27.261  51.128  1.00  0.00     0.006 A 
ATOM      3  C   UNL     1      55.324  25.551  49.434  1.00  0.00     0.010 A 
ATOM      4  C   UNL     1      54.616  27.976  50.623  1.00  0.00     0.010 A 
ATOM      5  C   UNL     1      54.221  26.265  48.963  1.00  0.00     0.001 A 
ATOM      6  C   UNL     1      53.876  27.481  49.549  1.00  0.00     0.001 A 
ENDROOT
BRANCH   1   7
ATOM      7  C   UNL     1      57.320  25.292  50.872  1.00  0.00     0.072 C 
ATOM      8  O   UNL     1      58.297  25.216  50.080  1.00  0.00    -0.545 OA
ATOM      9  O   UNL     1      57.375  24.602  52.079  1.00  0.00    -0.545 OA
ENDBRANCH   1   7
BRANCH   2  10
ATOM     10  C   UNL     1      56.391  27.780  52.342  1.00  0.00     0.072 C 
ATOM     11  O   UNL     1      55.978  27.448  53.485  1.00  0.00    -0.545 OA
ATOM     12  O   UNL     1      57.521  28.582  52.239  1.00  0.00    -0.545 OA
ENDBRANCH   2  10
TORSDOF 2
ENDMDL
MODEL 4
REMARK VINA RESULT:    -3.597     12.849     14.411
REMARK INTER + INTRA:          -4.207
REMARK INTER:                  -3.984
REMARK INTRA:                  -0.223
REMARK UNBOUND:                -0.189
REMARK SMILES O=C([O-])c1ccccc1C(=O)[O-]
REMARK SMILES IDX 4 1 9 2 5 3 8 4 6 5 7 6 2 7 1 8 3 9 10 10 11 11 12 12
REMARK H PARENT
REMARK Flexibility Score: inf
ROOT
ATOM      1  C   UNL     1      55.800  26.659  50.883  1.00  0.00     0.006 A 
ATOM      2  C   UNL     1      54.828  27.696  50.807  1.00  0.00     0.006 A 
ATOM      3  C   UNL     1      55.759  25.613  49.944  1.00  0.00     0.010 A 
ATOM      4  C   UNL     1      53.894  27.682  49.755  1.00  0.00     0.010 A 
ATOM      5  C   UNL     1      54.808  25.607  48.922  1.00  0.00     0.001 A 
ATOM      6  C   UNL     1      53.886  26.646  48.820  1.00  0.00     0.001 A 
ENDROOT
BRANCH   1   7
ATOM      7  C   UNL     1      56.904  26.661  51.870  1.00  0.00     0.072 C 
ATOM      8  O   UNL     1      56.803  26.024  52.953  1.00  0.00    -0.545 OA
ATOM      9  O   UNL     1      58.043  27.425  51.640  1.00  0.00    -0.545 OA
ENDBRANCH   1   7
BRANCH   2  10
ATOM     10  C   UNL     1      54.711  28.759  51.832  1.00  0.00     0.072 C 
ATOM     11  O   UNL     1      53.911  28.624  52.796  1.00  0.00    -0.545 OA
ATOM     12  O   UNL     1      55.523  29.885  51.783  1.00  0.00    -0.545 OA
ENDBRANCH   2  10
TORSDOF 2
ENDMDL
MODEL 5
REMARK VINA RESULT:    -3.590     12.222     14.433
REMARK INTER + INTRA:          -4.199
REMARK INTER:                  -4.075
REMARK INTRA:                  -0.124
REMARK UNBOUND:                -0.189
REMARK SMILES O=C([O-])c1ccccc1C(=O)[O-]
REMARK SMILES IDX 4 1 9 2 5 3 8 4 6 5 7 6 2 7 1 8 3 9 10 10 11 11 12 12
REMARK H PARENT
REMARK Flexibility Score: inf
ROOT
ATOM      1  C   UNL     1      55.810  27.243  51.176  1.00  0.00     0.006 A 
ATOM      2  C   UNL     1      56.157  26.034  50.510  1.00  0.00     0.006 A 
ATOM      3  C   UNL     1      54.683  27.964  50.741  1.00  0.00     0.010 A 
ATOM      4  C   UNL     1      55.327  25.559  49.478  1.00  0.00     0.010 A 
ATOM      5  C   UNL     1      53.886  27.485  49.699  1.00  0.00     0.001 A 
ATOM      6  C   UNL     1      54.201  26.278  49.078  1.00  0.00     0.001 A 
ENDROOT
BRANCH   1   7
ATOM      7  C   UNL     1      56.542  27.750  52.359  1.00  0.00     0.072 C 
ATOM      8  O   UNL     1      57.539  28.509  52.224  1.00  0.00    -0.545 OA
ATOM      9  O   UNL     1      56.176  27.338  53.635  1.00  0.00    -0.545 OA
ENDBRANCH   1   7
BRANCH   2  10
ATOM     10  C   UNL     1      57.400  25.285  50.809  1.00  0.00     0.072 C 
ATOM     11  O   UNL     1      57.505  24.634  51.882  1.00  0.00    -0.545 OA
ATOM     12  O   UNL     1      58.437  25.235  49.886  1.00  0.00    -0.545 OA
ENDBRANCH   2  10
TORSDOF 2
ENDMDL
MODEL 6
REMARK VINA RESULT:    -3.584     12.230     14.398
REMARK INTER + INTRA:          -4.192
REMARK INTER:                  -4.059
REMARK INTRA:                  -0.134
REMARK UNBOUND:                -0.189
REMARK SMILES O=C([O-])c1ccccc1C(=O)[O-]
REMARK SMILES IDX 4 1 9 2 5 3 8 4 6 5 7 6 2 7 1 8 3 9 10 10 11 11 12 12
REMARK H PARENT
REMARK Flexibility Score: inf
ROOT
ATOM      1  C   UNL     1      55.747  27.197  51.203  1.00  0.00     0.006 A 
ATOM      2  C   UNL     1      56.130  25.998  50.538  1.00  0.00     0.006 A 
ATOM      3  C   UNL     1      54.645  27.925  50.720  1.00  0.00     0.010 A 
ATOM      4  C   UNL     1      55.357  25.540  49.455  1.00  0.00     0.010 A 
ATOM      5  C   UNL     1      53.906  27.463  49.629  1.00  0.00     0.001 A 
ATOM      6  C   UNL     1      54.254  26.266  49.007  1.00  0.00     0.001 A 
ENDROOT
BRANCH   1   7
ATOM      7  C   UNL     1      56.414  27.684  52.432  1.00  0.00     0.072 C 
ATOM      8  O   UNL     1      55.921  27.454  53.569  1.00  0.00    -0.545 OA
ATOM      9  O   UNL     1      57.562  28.463  52.340  1.00  0.00    -0.545 OA
ENDBRANCH   1   7
BRANCH   2  10
ATOM     10  C   UNL     1      57.355  25.243  50.892  1.00  0.00     0.072 C 
ATOM     11  O   UNL     1      58.350  25.254  50.120  1.00  0.00    -0.545 OA
ATOM     12  O   UNL     1      57.449  24.571  52.104  1.00  0.00    -0.545 OA
ENDBRANCH   2  10
TORSDOF 2
ENDMDL
MODEL 7
REMARK VINA RESULT:    -3.414      1.931      3.081
REMARK INTER + INTRA:          -4.002
REMARK INTER:                  -3.788
REMARK INTRA:                  -0.215
REMARK UNBOUND:                -0.189
REMARK SMILES O=C([O-])c1ccccc1C(=O)[O-]
REMARK SMILES IDX 4 1 9 2 5 3 8 4 6 5 7 6 2 7 1 8 3 9 10 10 11 11 12 12
REMARK H PARENT
REMARK Flexibility Score: inf
ROOT
ATOM      1  C   UNL     1      64.069  35.189  60.638  1.00  0.00     0.006 A 
ATOM      2  C   UNL     1      63.934  34.015  59.845  1.00  0.00     0.006 A 
ATOM      3  C   UNL     1      63.019  36.124  60.661  1.00  0.00     0.010 A 
ATOM      4  C   UNL     1      62.727  33.790  59.157  1.00  0.00     0.010 A 
ATOM      5  C   UNL     1      61.840  35.891  59.952  1.00  0.00     0.001 A 
ATOM      6  C   UNL     1      61.689  34.721  59.212  1.00  0.00     0.001 A 
ENDROOT
BRANCH   1   7
ATOM      7  C   UNL     1      65.244  35.445  61.503  1.00  0.00     0.072 C 
ATOM      8  O   UNL     1      65.200  35.202  62.739  1.00  0.00    -0.545 OA
ATOM      9  O   UNL     1      66.391  36.023  60.969  1.00  0.00    -0.545 OA
ENDBRANCH   1   7
BRANCH   2  10
ATOM     10  C   UNL     1      65.039  33.047  59.653  1.00  0.00     0.072 C 
ATOM     11  O   UNL     1      65.827  33.171  58.678  1.00  0.00    -0.545 OA
ATOM     12  O   UNL     1      65.263  32.033  60.576  1.00  0.00    -0.545 OA
ENDBRANCH   2  10
TORSDOF 2
ENDMDL
MODEL 8
REMARK VINA RESULT:    -3.157     18.288     19.346
REMARK INTER + INTRA:          -3.715
REMARK INTER:                  -3.497
REMARK INTRA:                  -0.217
REMARK UNBOUND:                -0.189
REMARK SMILES O=C([O-])c1ccccc1C(=O)[O-]
REMARK SMILES IDX 4 1 9 2 5 3 8 4 6 5 7 6 2 7 1 8 3 9 10 10 11 11 12 12
REMARK H PARENT
REMARK Flexibility Score: inf
ROOT
ATOM      1  C   UNL     1      57.558  18.056  50.974  1.00  0.00     0.006 A 
ATOM      2  C   UNL     1      58.062  17.806  52.281  1.00  0.00     0.006 A 
ATOM      3  C   UNL     1      56.260  18.578  50.830  1.00  0.00     0.010 A 
ATOM      4  C   UNL     1      57.273  18.149  53.395  1.00  0.00     0.010 A 
ATOM      5  C   UNL     1      55.486  18.890  51.949  1.00  0.00     0.001 A 
ATOM      6  C   UNL     1      55.997  18.687  53.229  1.00  0.00     0.001 A 
ENDROOT
BRANCH   1   7
ATOM      7  C   UNL     1      58.364  17.857  49.748  1.00  0.00     0.072 C 
ATOM      8  O   UNL     1      59.078  18.787  49.286  1.00  0.00    -0.545 OA
ATOM      9  O   UNL     1      58.289  16.655  49.052  1.00  0.00    -0.545 OA
ENDBRANCH   1   7
BRANCH   2  10
ATOM     10  C   UNL     1      59.359  17.131  52.523  1.00  0.00     0.072 C 
ATOM     11  O   UNL     1      59.444  15.877  52.445  1.00  0.00    -0.545 OA
ATOM     12  O   UNL     1      60.507  17.871  52.772  1.00  0.00    -0.545 OA
ENDBRANCH   2  10
TORSDOF 2
ENDMDL
MODEL 9
REMARK VINA RESULT:    -3.152     18.311     19.167
REMARK INTER + INTRA:          -3.709
REMARK INTER:                  -3.495
REMARK INTRA:                  -0.215
REMARK UNBOUND:                -0.189
REMARK SMILES O=C([O-])c1ccccc1C(=O)[O-]
REMARK SMILES IDX 4 1 9 2 5 3 8 4 6 5 7 6 2 7 1 8 3 9 10 10 11 11 12 12
REMARK H PARENT
REMARK Flexibility Score: inf
ROOT
ATOM      1  C   UNL     1      58.001  17.793  52.287  1.00  0.00     0.006 A 
ATOM      2  C   UNL     1      57.499  18.058  50.982  1.00  0.00     0.006 A 
ATOM      3  C   UNL     1      57.208  18.114  53.404  1.00  0.00     0.010 A 
ATOM      4  C   UNL     1      56.196  18.572  50.843  1.00  0.00     0.010 A 
ATOM      5  C   UNL     1      55.928  18.645  53.242  1.00  0.00     0.001 A 
ATOM      6  C   UNL     1      55.418  18.861  51.964  1.00  0.00     0.001 A 
ENDROOT
BRANCH   1   7
ATOM      7  C   UNL     1      59.302  17.127  52.530  1.00  0.00     0.072 C 
ATOM      8  O   UNL     1      59.414  15.876  52.431  1.00  0.00    -0.545 OA
ATOM      9  O   UNL     1      60.402  17.875  52.936  1.00  0.00    -0.545 OA
ENDBRANCH   1   7
BRANCH   2  10
ATOM     10  C   UNL     1      58.316  17.882  49.759  1.00  0.00     0.072 C 
ATOM     11  O   UNL     1      59.066  18.811  49.360  1.00  0.00    -0.545 OA
ATOM     12  O   UNL     1      58.318  16.672  49.076  1.00  0.00    -0.545 OA
ENDBRANCH   2  10
TORSDOF 2
ENDMDL
