MODEL 1
REMARK VINA RESULT:    15.922      0.000      0.000
REMARK INTER + INTRA:          17.572
REMARK INTER:                  17.783
REMARK INTRA:                  -0.211
REMARK UNBOUND:                -0.211
REMARK SMILES CC(C)c1ccc(C(=O)[O-])cc1
REMARK SMILES IDX 7 1 6 2 11 3 5 4 12 5 4 6 8 7 9 8 10 9 2 10 1 11 3 12
REMARK H PARENT
REMARK Flexibility Score: inf
ROOT
ATOM      1  C   UNL     1      17.229  17.499  18.771  1.00  0.00    -0.003 A 
ATOM      2  C   UNL     1      18.434  17.486  18.048  1.00  0.00     0.010 A 
ATOM      3  C   UNL     1      16.014  17.510  18.067  1.00  0.00     0.010 A 
ATOM      4  C   UNL     1      18.423  17.483  16.651  1.00  0.00     0.004 A 
ATOM      5  C   UNL     1      16.003  17.507  16.669  1.00  0.00     0.004 A 
ATOM      6  C   UNL     1      17.209  17.494  15.945  1.00  0.00    -0.045 A 
ENDROOT
BRANCH   1   7
ATOM      7  C   UNL     1      17.245  17.501  20.251  1.00  0.00     0.071 C 
ATOM      8  O   UNL     1      16.168  17.476  20.903  1.00  0.00    -0.545 OA
ATOM      9  O   UNL     1      18.451  17.531  20.943  1.00  0.00    -0.545 OA
ENDBRANCH   1   7
BRANCH   6  10
ATOM     10  C   UNL     1      17.212  17.491  14.428  1.00  0.00     0.013 C 
ATOM     11  C   UNL     1      18.007  18.679  13.875  1.00  0.00     0.012 C 
ATOM     12  C   UNL     1      17.749  16.165  13.878  1.00  0.00     0.012 C 
ENDBRANCH   6  10
TORSDOF 2
ENDMDL
MODEL 2
REMARK VINA RESULT:    15.940      0.092      1.400
REMARK INTER + INTRA:          17.593
REMARK INTER:                  17.801
REMARK INTRA:                  -0.208
REMARK UNBOUND:                -0.211
REMARK SMILES CC(C)c1ccc(C(=O)[O-])cc1
REMARK SMILES IDX 7 1 6 2 11 3 5 4 12 5 4 6 8 7 9 8 10 9 2 10 1 11 3 12
REMARK H PARENT
REMARK Flexibility Score: inf
ROOT
ATOM      1  C   UNL     1      17.311  17.495  18.800  1.00  0.00    -0.003 A 
ATOM      2  C   UNL     1      16.080  17.532  18.125  1.00  0.00     0.010 A 
ATOM      3  C   UNL     1      18.498  17.460  18.049  1.00  0.00     0.010 A 
ATOM      4  C   UNL     1      16.035  17.535  16.729  1.00  0.00     0.004 A 
ATOM      5  C   UNL     1      18.454  17.464  16.652  1.00  0.00     0.004 A 
ATOM      6  C   UNL     1      17.221  17.501  15.976  1.00  0.00    -0.045 A 
ENDROOT
BRANCH   1   7
ATOM      7  C   UNL     1      17.353  17.492  20.280  1.00  0.00     0.071 C 
ATOM      8  O   UNL     1      16.289  17.415  20.950  1.00  0.00    -0.545 OA
ATOM      9  O   UNL     1      18.567  17.574  20.951  1.00  0.00    -0.545 OA
ENDBRANCH   1   7
BRANCH   6  10
ATOM     10  C   UNL     1      17.159  17.504  14.460  1.00  0.00     0.013 C 
ATOM     11  C   UNL     1      17.982  18.658  13.875  1.00  0.00     0.012 C 
ATOM     12  C   UNL     1      17.611  16.157  13.884  1.00  0.00     0.012 C 
ENDBRANCH   6  10
TORSDOF 2
ENDMDL
MODEL 3
REMARK VINA RESULT:    17.007      3.017      5.237
REMARK INTER + INTRA:          18.784
REMARK INTER:                  18.991
REMARK INTRA:                  -0.207
REMARK UNBOUND:                -0.211
REMARK SMILES CC(C)c1ccc(C(=O)[O-])cc1
REMARK SMILES IDX 7 1 6 2 11 3 5 4 12 5 4 6 8 7 9 8 10 9 2 10 1 11 3 12
REMARK H PARENT
REMARK Flexibility Score: inf
ROOT
ATOM      1  C   UNL     1      17.407  17.487  15.998  1.00  0.00    -0.003 A 
ATOM      2  C   UNL     1      16.095  17.512  16.501  1.00  0.00     0.010 A 
ATOM      3  C   UNL     1      18.481  17.461  16.902  1.00  0.00     0.010 A 
ATOM      4  C   UNL     1      15.863  17.510  17.879  1.00  0.00     0.004 A 
ATOM      5  C   UNL     1      18.249  17.459  18.281  1.00  0.00     0.004 A 
ATOM      6  C   UNL     1      16.937  17.484  18.785  1.00  0.00    -0.045 A 
ENDROOT
BRANCH   1   7
ATOM      7  C   UNL     1      17.647  17.489  14.538  1.00  0.00     0.071 C 
ATOM      8  O   UNL     1      17.573  16.420  13.875  1.00  0.00    -0.545 OA
ATOM      9  O   UNL     1      17.958  18.672  13.876  1.00  0.00    -0.545 OA
ENDBRANCH   1   7
BRANCH   6  10
ATOM     10  C   UNL     1      16.670  17.482  20.278  1.00  0.00     0.013 C 
ATOM     11  C   UNL     1      15.880  16.238  20.698  1.00  0.00     0.012 C 
ATOM     12  C   UNL     1      17.976  17.600  21.074  1.00  0.00     0.012 C 
ENDBRANCH   6  10
TORSDOF 2
ENDMDL
MODEL 4
REMARK VINA RESULT:    17.050      3.017      5.046
REMARK INTER + INTRA:          18.832
REMARK INTER:                  19.041
REMARK INTRA:                  -0.209
REMARK UNBOUND:                -0.211
REMARK SMILES CC(C)c1ccc(C(=O)[O-])cc1
REMARK SMILES IDX 7 1 6 2 11 3 5 4 12 5 4 6 8 7 9 8 10 9 2 10 1 11 3 12
REMARK H PARENT
REMARK Flexibility Score: inf
ROOT
ATOM      1  C   UNL     1      17.407  17.490  15.995  1.00  0.00    -0.003 A 
ATOM      2  C   UNL     1      18.478  17.483  16.905  1.00  0.00     0.010 A 
ATOM      3  C   UNL     1      16.093  17.494  16.490  1.00  0.00     0.010 A 
ATOM      4  C   UNL     1      18.238  17.480  18.282  1.00  0.00     0.004 A 
ATOM      5  C   UNL     1      15.853  17.491  17.867  1.00  0.00     0.004 A 
ATOM      6  C   UNL     1      16.924  17.484  18.779  1.00  0.00    -0.045 A 
ENDROOT
BRANCH   1   7
ATOM      7  C   UNL     1      17.667  17.493  14.537  1.00  0.00     0.071 C 
ATOM      8  O   UNL     1      17.611  16.423  13.875  1.00  0.00    -0.545 OA
ATOM      9  O   UNL     1      17.974  18.678  13.878  1.00  0.00    -0.545 OA
ENDBRANCH   1   7
BRANCH   6  10
ATOM     10  C   UNL     1      16.678  17.481  20.276  1.00  0.00     0.013 C 
ATOM     11  C   UNL     1      15.810  16.287  20.691  1.00  0.00     0.012 C 
ATOM     12  C   UNL     1      17.999  17.499  21.054  1.00  0.00     0.012 C 
ENDBRANCH   6  10
TORSDOF 2
ENDMDL
