MODEL 1
REMARK VINA RESULT:    -3.709      0.000      0.000
REMARK INTER + INTRA:          -4.962
REMARK INTER:                  -4.793
REMARK INTRA:                  -0.169
REMARK UNBOUND:                -0.169
REMARK SMILES CCCCCCC(=O)[O-]
REMARK SMILES IDX 5 1 6 2 7 3 8 4 9 5 4 6 3 7 2 8 1 9
REMARK H PARENT
REMARK Flexibility Score: inf
ROOT
ATOM      1  C   UNL     1       7.294 125.722 111.323  1.00  0.00     0.006 C 
ENDROOT
BRANCH   1   2
ATOM      2  C   UNL     1       6.511 125.002 112.428  1.00  0.00     0.053 C 
BRANCH   2   3
ATOM      3  C   UNL     1       7.384 124.075 113.217  1.00  0.00     0.041 C 
ATOM      4  O   UNL     1       7.505 124.225 114.462  1.00  0.00    -0.550 OA
ATOM      5  O   UNL     1       8.087 123.064 112.575  1.00  0.00    -0.550 OA
ENDBRANCH   2   3
ENDBRANCH   1   2
BRANCH   1   6
ATOM      6  C   UNL     1       7.013 125.130 109.931  1.00  0.00     0.000 C 
BRANCH   6   7
ATOM      7  C   UNL     1       8.297 124.833 109.135  1.00  0.00    -0.000 C 
BRANCH   7   8
ATOM      8  C   UNL     1       8.087 124.610 107.627  1.00  0.00    -0.003 C 
ATOM      9  C   UNL     1       6.982 125.488 107.041  1.00  0.00     0.004 C 
ENDBRANCH   7   8
ENDBRANCH   6   7
ENDBRANCH   1   6
TORSDOF 5
ENDMDL
MODEL 2
REMARK VINA RESULT:    -3.504      2.088      2.186
REMARK INTER + INTRA:          -4.698
REMARK INTER:                  -4.505
REMARK INTRA:                  -0.193
REMARK UNBOUND:                -0.169
REMARK SMILES CCCCCCC(=O)[O-]
REMARK SMILES IDX 5 1 6 2 7 3 8 4 9 5 4 6 3 7 2 8 1 9
REMARK H PARENT
REMARK Flexibility Score: inf
ROOT
ATOM      1  C   UNL     1       7.699 123.982 111.738  1.00  0.00     0.006 C 
ENDROOT
BRANCH   1   2
ATOM      2  C   UNL     1       6.515 123.142 111.242  1.00  0.00     0.053 C 
BRANCH   2   3
ATOM      3  C   UNL     1       5.310 123.304 112.117  1.00  0.00     0.041 C 
ATOM      4  O   UNL     1       5.307 122.834 113.286  1.00  0.00    -0.550 OA
ATOM      5  O   UNL     1       4.179 123.948 111.632  1.00  0.00    -0.550 OA
ENDBRANCH   2   3
ENDBRANCH   1   2
BRANCH   1   6
ATOM      6  C   UNL     1       8.187 124.982 110.676  1.00  0.00     0.000 C 
BRANCH   6   7
ATOM      7  C   UNL     1       7.280 125.025 109.432  1.00  0.00    -0.000 C 
BRANCH   7   8
ATOM      8  C   UNL     1       7.964 124.612 108.116  1.00  0.00    -0.003 C 
ATOM      9  C   UNL     1       7.222 125.108 106.876  1.00  0.00     0.004 C 
ENDBRANCH   7   8
ENDBRANCH   6   7
ENDBRANCH   1   6
TORSDOF 5
ENDMDL
MODEL 3
REMARK VINA RESULT:    -3.395      2.823      4.167
REMARK INTER + INTRA:          -4.557
REMARK INTER:                  -4.378
REMARK INTRA:                  -0.179
REMARK UNBOUND:                -0.169
REMARK SMILES CCCCCCC(=O)[O-]
REMARK SMILES IDX 5 1 6 2 7 3 8 4 9 5 4 6 3 7 2 8 1 9
REMARK H PARENT
REMARK Flexibility Score: inf
ROOT
ATOM      1  C   UNL     1       5.452 123.095 111.843  1.00  0.00     0.006 C 
ENDROOT
BRANCH   1   2
ATOM      2  C   UNL     1       6.520 123.786 110.985  1.00  0.00     0.053 C 
BRANCH   2   3
ATOM      3  C   UNL     1       7.812 123.948 111.725  1.00  0.00     0.041 C 
ATOM      4  O   UNL     1       8.629 124.845 111.386  1.00  0.00    -0.550 OA
ATOM      5  O   UNL     1       8.129 123.089 112.769  1.00  0.00    -0.550 OA
ENDBRANCH   2   3
ENDBRANCH   1   2
BRANCH   1   6
ATOM      6  C   UNL     1       4.179 123.947 111.983  1.00  0.00     0.000 C 
BRANCH   6   7
ATOM      7  C   UNL     1       3.937 124.866 110.771  1.00  0.00    -0.000 C 
BRANCH   7   8
ATOM      8  C   UNL     1       2.634 125.684 110.827  1.00  0.00    -0.003 C 
ATOM      9  C   UNL     1       1.866 125.495 112.135  1.00  0.00     0.004 C 
ENDBRANCH   7   8
ENDBRANCH   6   7
ENDBRANCH   1   6
TORSDOF 5
ENDMDL
MODEL 4
REMARK VINA RESULT:    -3.293      2.414      3.983
REMARK INTER + INTRA:          -4.425
REMARK INTER:                  -4.009
REMARK INTRA:                  -0.416
REMARK UNBOUND:                -0.169
REMARK SMILES CCCCCCC(=O)[O-]
REMARK SMILES IDX 5 1 6 2 7 3 8 4 9 5 4 6 3 7 2 8 1 9
REMARK H PARENT
REMARK Flexibility Score: inf
ROOT
ATOM      1  C   UNL     1       6.112 125.715 111.992  1.00  0.00     0.006 C 
ENDROOT
BRANCH   1   2
ATOM      2  C   UNL     1       7.458 125.195 111.470  1.00  0.00     0.053 C 
BRANCH   2   3
ATOM      3  C   UNL     1       7.587 123.712 111.637  1.00  0.00     0.041 C 
ATOM      4  O   UNL     1       8.081 123.233 112.692  1.00  0.00    -0.550 OA
ATOM      5  O   UNL     1       7.190 122.860 110.616  1.00  0.00    -0.550 OA
ENDBRANCH   2   3
ENDBRANCH   1   2
BRANCH   1   6
ATOM      6  C   UNL     1       4.966 125.457 110.999  1.00  0.00     0.000 C 
BRANCH   6   7
ATOM      7  C   UNL     1       3.990 124.367 111.478  1.00  0.00    -0.000 C 
BRANCH   7   8
ATOM      8  C   UNL     1       4.148 123.960 112.955  1.00  0.00    -0.003 C 
ATOM      9  C   UNL     1       4.361 122.459 113.141  1.00  0.00     0.004 C 
ENDBRANCH   7   8
ENDBRANCH   6   7
ENDBRANCH   1   6
TORSDOF 5
ENDMDL
MODEL 5
REMARK VINA RESULT:    -3.263      2.887      4.986
REMARK INTER + INTRA:          -4.386
REMARK INTER:                  -4.209
REMARK INTRA:                  -0.177
REMARK UNBOUND:                -0.169
REMARK SMILES CCCCCCC(=O)[O-]
REMARK SMILES IDX 5 1 6 2 7 3 8 4 9 5 4 6 3 7 2 8 1 9
REMARK H PARENT
REMARK Flexibility Score: inf
ROOT
ATOM      1  C   UNL     1       5.633 123.225 111.805  1.00  0.00     0.006 C 
ENDROOT
BRANCH   1   2
ATOM      2  C   UNL     1       6.627 124.331 111.428  1.00  0.00     0.053 C 
BRANCH   2   3
ATOM      3  C   UNL     1       8.018 124.012 111.887  1.00  0.00     0.041 C 
ATOM      4  O   UNL     1       9.008 124.571 111.344  1.00  0.00    -0.550 OA
ATOM      5  O   UNL     1       8.222 123.077 112.892  1.00  0.00    -0.550 OA
ENDBRANCH   2   3
ENDBRANCH   1   2
BRANCH   1   6
ATOM      6  C   UNL     1       4.195 123.756 111.929  1.00  0.00     0.000 C 
BRANCH   6   7
ATOM      7  C   UNL     1       3.506 123.320 113.235  1.00  0.00    -0.000 C 
BRANCH   7   8
ATOM      8  C   UNL     1       4.138 122.097 113.924  1.00  0.00    -0.003 C 
ATOM      9  C   UNL     1       3.278 120.838 113.816  1.00  0.00     0.004 C 
ENDBRANCH   7   8
ENDBRANCH   6   7
ENDBRANCH   1   6
TORSDOF 5
ENDMDL
MODEL 6
REMARK VINA RESULT:    -3.255      2.727      3.041
REMARK INTER + INTRA:          -4.376
REMARK INTER:                  -4.216
REMARK INTRA:                  -0.159
REMARK UNBOUND:                -0.169
REMARK SMILES CCCCCCC(=O)[O-]
REMARK SMILES IDX 5 1 6 2 7 3 8 4 9 5 4 6 3 7 2 8 1 9
REMARK H PARENT
REMARK Flexibility Score: inf
ROOT
ATOM      1  C   UNL     1       6.579 124.279 111.645  1.00  0.00     0.006 C 
ENDROOT
BRANCH   1   2
ATOM      2  C   UNL     1       5.107 123.850 111.693  1.00  0.00     0.053 C 
BRANCH   2   3
ATOM      3  C   UNL     1       4.192 124.944 111.236  1.00  0.00     0.041 C 
ATOM      4  O   UNL     1       3.228 124.685 110.467  1.00  0.00    -0.550 OA
ATOM      5  O   UNL     1       4.419 126.254 111.636  1.00  0.00    -0.550 OA
ENDBRANCH   2   3
ENDBRANCH   1   2
BRANCH   1   6
ATOM      6  C   UNL     1       7.290 123.776 110.377  1.00  0.00     0.000 C 
BRANCH   6   7
ATOM      7  C   UNL     1       7.806 124.921 109.486  1.00  0.00    -0.000 C 
BRANCH   7   8
ATOM      8  C   UNL     1       7.762 124.635 107.974  1.00  0.00    -0.003 C 
ATOM      9  C   UNL     1       6.711 125.467 107.239  1.00  0.00     0.004 C 
ENDBRANCH   7   8
ENDBRANCH   6   7
ENDBRANCH   1   6
TORSDOF 5
ENDMDL
MODEL 7
REMARK VINA RESULT:    -3.220      3.235      4.266
REMARK INTER + INTRA:          -4.331
REMARK INTER:                  -4.229
REMARK INTRA:                  -0.102
REMARK UNBOUND:                -0.169
REMARK SMILES CCCCCCC(=O)[O-]
REMARK SMILES IDX 5 1 6 2 7 3 8 4 9 5 4 6 3 7 2 8 1 9
REMARK H PARENT
REMARK Flexibility Score: inf
ROOT
ATOM      1  C   UNL     1       5.134 124.633 111.194  1.00  0.00     0.006 C 
ENDROOT
BRANCH   1   2
ATOM      2  C   UNL     1       6.540 124.838 110.614  1.00  0.00     0.053 C 
BRANCH   2   3
ATOM      3  C   UNL     1       7.588 124.149 111.433  1.00  0.00     0.041 C 
ATOM      4  O   UNL     1       8.777 124.565 111.421  1.00  0.00    -0.550 OA
ATOM      5  O   UNL     1       7.259 123.029 112.185  1.00  0.00    -0.550 OA
ENDBRANCH   2   3
ENDBRANCH   1   2
BRANCH   1   6
ATOM      6  C   UNL     1       4.058 125.373 110.382  1.00  0.00     0.000 C 
BRANCH   6   7
ATOM      7  C   UNL     1       2.643 125.202 110.966  1.00  0.00    -0.000 C 
BRANCH   7   8
ATOM      8  C   UNL     1       1.934 126.516 111.341  1.00  0.00    -0.003 C 
ATOM      9  C   UNL     1       1.911 127.530 110.198  1.00  0.00     0.004 C 
ENDBRANCH   7   8
ENDBRANCH   6   7
ENDBRANCH   1   6
TORSDOF 5
ENDMDL
MODEL 8
REMARK VINA RESULT:    -3.205      7.801      9.311
REMARK INTER + INTRA:          -4.312
REMARK INTER:                  -4.055
REMARK INTRA:                  -0.257
REMARK UNBOUND:                -0.169
REMARK SMILES CCCCCCC(=O)[O-]
REMARK SMILES IDX 5 1 6 2 7 3 8 4 9 5 4 6 3 7 2 8 1 9
REMARK H PARENT
REMARK Flexibility Score: inf
ROOT
ATOM      1  C   UNL     1       4.835 130.949 115.103  1.00  0.00     0.006 C 
ENDROOT
BRANCH   1   2
ATOM      2  C   UNL     1       5.844 130.497 114.039  1.00  0.00     0.053 C 
BRANCH   2   3
ATOM      3  C   UNL     1       7.255 130.791 114.447  1.00  0.00     0.041 C 
ATOM      4  O   UNL     1       8.196 130.651 113.621  1.00  0.00    -0.550 OA
ATOM      5  O   UNL     1       7.536 131.192 115.746  1.00  0.00    -0.550 OA
ENDBRANCH   2   3
ENDBRANCH   1   2
BRANCH   1   6
ATOM      6  C   UNL     1       3.709 131.811 114.505  1.00  0.00     0.000 C 
BRANCH   6   7
ATOM      7  C   UNL     1       3.846 133.303 114.858  1.00  0.00    -0.000 C 
BRANCH   7   8
ATOM      8  C   UNL     1       4.942 133.629 115.888  1.00  0.00    -0.003 C 
ATOM      9  C   UNL     1       5.339 135.105 115.893  1.00  0.00     0.004 C 
ENDBRANCH   7   8
ENDBRANCH   6   7
ENDBRANCH   1   6
TORSDOF 5
ENDMDL
MODEL 9
REMARK VINA RESULT:    -3.155      2.743      4.233
REMARK INTER + INTRA:          -4.246
REMARK INTER:                  -3.856
REMARK INTRA:                  -0.391
REMARK UNBOUND:                -0.169
REMARK SMILES CCCCCCC(=O)[O-]
REMARK SMILES IDX 5 1 6 2 7 3 8 4 9 5 4 6 3 7 2 8 1 9
REMARK H PARENT
REMARK Flexibility Score: inf
ROOT
ATOM      1  C   UNL     1       6.412 123.742 112.471  1.00  0.00     0.006 C 
ENDROOT
BRANCH   1   2
ATOM      2  C   UNL     1       7.354 123.799 111.261  1.00  0.00     0.053 C 
BRANCH   2   3
ATOM      3  C   UNL     1       7.362 125.154 110.623  1.00  0.00     0.041 C 
ATOM      4  O   UNL     1       7.226 125.268 109.376  1.00  0.00    -0.550 OA
ATOM      5  O   UNL     1       7.548 126.289 111.401  1.00  0.00    -0.550 OA
ENDBRANCH   2   3
ENDBRANCH   1   2
BRANCH   1   6
ATOM      6  C   UNL     1       5.126 122.954 112.169  1.00  0.00     0.000 C 
BRANCH   6   7
ATOM      7  C   UNL     1       3.847 123.762 112.456  1.00  0.00    -0.000 C 
BRANCH   7   8
ATOM      8  C   UNL     1       3.853 125.201 111.908  1.00  0.00    -0.003 C 
ATOM      9  C   UNL     1       3.595 125.268 110.403  1.00  0.00     0.004 C 
ENDBRANCH   7   8
ENDBRANCH   6   7
ENDBRANCH   1   6
TORSDOF 5
ENDMDL
