MODEL 1
REMARK VINA RESULT:    -3.523      0.000      0.000
REMARK INTER + INTRA:          -4.241
REMARK INTER:                  -4.141
REMARK INTRA:                  -0.100
REMARK UNBOUND:                -0.100
REMARK SMILES O=C([O-])CCC(=O)[O-]
REMARK SMILES IDX 4 1 2 2 1 3 3 4 5 5 6 6 7 7 8 8
REMARK H PARENT
REMARK Flexibility Score: inf
ROOT
ATOM      1  C   UNL     1      -5.106 -19.707 -12.948  1.00  0.00     0.059 C 
ENDROOT
BRANCH   1   2
ATOM      2  C   UNL     1      -5.523 -20.700 -11.906  1.00  0.00     0.042 C 
ATOM      3  O   UNL     1      -6.072 -21.781 -12.245  1.00  0.00    -0.550 OA
ATOM      4  O   UNL     1      -5.269 -20.446 -10.564  1.00  0.00    -0.550 OA
ENDBRANCH   1   2
BRANCH   1   5
ATOM      5  C   UNL     1      -6.263 -18.782 -13.341  1.00  0.00     0.059 C 
BRANCH   5   6
ATOM      6  C   UNL     1      -6.730 -19.047 -14.740  1.00  0.00     0.042 C 
ATOM      7  O   UNL     1      -7.755 -18.470 -15.187  1.00  0.00    -0.550 OA
ATOM      8  O   UNL     1      -6.008 -19.903 -15.563  1.00  0.00    -0.550 OA
ENDBRANCH   5   6
ENDBRANCH   1   5
TORSDOF 3
ENDMDL
MODEL 2
REMARK VINA RESULT:    -3.513      0.794      1.295
REMARK INTER + INTRA:          -4.229
REMARK INTER:                  -4.106
REMARK INTRA:                  -0.123
REMARK UNBOUND:                -0.100
REMARK SMILES O=C([O-])CCC(=O)[O-]
REMARK SMILES IDX 4 1 2 2 1 3 3 4 5 5 6 6 7 7 8 8
REMARK H PARENT
REMARK Flexibility Score: inf
ROOT
ATOM      1  C   UNL     1      -4.867 -19.954 -12.565  1.00  0.00     0.059 C 
ENDROOT
BRANCH   1   2
ATOM      2  C   UNL     1      -5.234 -21.207 -11.831  1.00  0.00     0.042 C 
ATOM      3  O   UNL     1      -6.145 -21.956 -12.272  1.00  0.00    -0.550 OA
ATOM      4  O   UNL     1      -4.542 -21.567 -10.682  1.00  0.00    -0.550 OA
ENDBRANCH   1   2
BRANCH   1   5
ATOM      5  C   UNL     1      -6.104 -19.117 -12.906  1.00  0.00     0.059 C 
BRANCH   5   6
ATOM      6  C   UNL     1      -6.289 -18.986 -14.387  1.00  0.00     0.042 C 
ATOM      7  O   UNL     1      -6.139 -19.986 -15.137  1.00  0.00    -0.550 OA
ATOM      8  O   UNL     1      -6.668 -17.766 -14.936  1.00  0.00    -0.550 OA
ENDBRANCH   5   6
ENDBRANCH   1   5
TORSDOF 3
ENDMDL
MODEL 3
REMARK VINA RESULT:    -3.512      0.111      3.973
REMARK INTER + INTRA:          -4.227
REMARK INTER:                  -4.124
REMARK INTRA:                  -0.103
REMARK UNBOUND:                -0.100
REMARK SMILES O=C([O-])CCC(=O)[O-]
REMARK SMILES IDX 4 1 2 2 1 3 3 4 5 5 6 6 7 7 8 8
REMARK H PARENT
REMARK Flexibility Score: inf
ROOT
ATOM      1  C   UNL     1      -6.375 -18.751 -13.402  1.00  0.00     0.059 C 
ENDROOT
BRANCH   1   2
ATOM      2  C   UNL     1      -6.759 -19.020 -14.825  1.00  0.00     0.042 C 
ATOM      3  O   UNL     1      -7.738 -18.420 -15.341  1.00  0.00    -0.550 OA
ATOM      4  O   UNL     1      -6.010 -19.903 -15.592  1.00  0.00    -0.550 OA
ENDBRANCH   1   2
BRANCH   1   5
ATOM      5  C   UNL     1      -5.164 -19.589 -12.977  1.00  0.00     0.059 C 
BRANCH   5   6
ATOM      6  C   UNL     1      -5.536 -20.610 -11.945  1.00  0.00     0.042 C 
ATOM      7  O   UNL     1      -6.036 -21.711 -12.292  1.00  0.00    -0.550 OA
ATOM      8  O   UNL     1      -5.292 -20.359 -10.600  1.00  0.00    -0.550 OA
ENDBRANCH   5   6
ENDBRANCH   1   5
TORSDOF 3
ENDMDL
MODEL 4
REMARK VINA RESULT:    -3.503      0.151      3.965
REMARK INTER + INTRA:          -4.217
REMARK INTER:                  -4.111
REMARK INTRA:                  -0.106
REMARK UNBOUND:                -0.100
REMARK SMILES O=C([O-])CCC(=O)[O-]
REMARK SMILES IDX 4 1 2 2 1 3 3 4 5 5 6 6 7 7 8 8
REMARK H PARENT
REMARK Flexibility Score: inf
ROOT
ATOM      1  C   UNL     1      -6.380 -18.799 -13.439  1.00  0.00     0.059 C 
ENDROOT
BRANCH   1   2
ATOM      2  C   UNL     1      -6.692 -19.050 -14.883  1.00  0.00     0.042 C 
ATOM      3  O   UNL     1      -6.027 -19.897 -15.536  1.00  0.00    -0.550 OA
ATOM      4  O   UNL     1      -7.742 -18.378 -15.494  1.00  0.00    -0.550 OA
ENDBRANCH   1   2
BRANCH   1   5
ATOM      5  C   UNL     1      -5.167 -19.612 -12.974  1.00  0.00     0.059 C 
BRANCH   5   6
ATOM      6  C   UNL     1      -5.547 -20.625 -11.937  1.00  0.00     0.042 C 
ATOM      7  O   UNL     1      -6.059 -21.723 -12.280  1.00  0.00    -0.550 OA
ATOM      8  O   UNL     1      -5.300 -20.371 -10.593  1.00  0.00    -0.550 OA
ENDBRANCH   5   6
ENDBRANCH   1   5
TORSDOF 3
ENDMDL
MODEL 5
REMARK VINA RESULT:    -3.481      0.282      3.913
REMARK INTER + INTRA:          -4.191
REMARK INTER:                  -4.085
REMARK INTRA:                  -0.106
REMARK UNBOUND:                -0.100
REMARK SMILES O=C([O-])CCC(=O)[O-]
REMARK SMILES IDX 4 1 2 2 1 3 3 4 5 5 6 6 7 7 8 8
REMARK H PARENT
REMARK Flexibility Score: inf
ROOT
ATOM      1  C   UNL     1      -6.362 -18.789 -13.500  1.00  0.00     0.059 C 
ENDROOT
BRANCH   1   2
ATOM      2  C   UNL     1      -6.584 -18.994 -14.968  1.00  0.00     0.042 C 
ATOM      3  O   UNL     1      -6.005 -19.936 -15.570  1.00  0.00    -0.550 OA
ATOM      4  O   UNL     1      -7.460 -18.169 -15.661  1.00  0.00    -0.550 OA
ENDBRANCH   1   2
BRANCH   1   5
ATOM      5  C   UNL     1      -5.159 -19.591 -12.994  1.00  0.00     0.059 C 
BRANCH   5   6
ATOM      6  C   UNL     1      -5.568 -20.614 -11.977  1.00  0.00     0.042 C 
ATOM      7  O   UNL     1      -5.427 -20.379 -10.749  1.00  0.00    -0.550 OA
ATOM      8  O   UNL     1      -6.142 -21.811 -12.387  1.00  0.00    -0.550 OA
ENDBRANCH   5   6
ENDBRANCH   1   5
TORSDOF 3
ENDMDL
MODEL 6
REMARK VINA RESULT:    -3.377      1.971      4.631
REMARK INTER + INTRA:          -4.069
REMARK INTER:                  -3.947
REMARK INTRA:                  -0.122
REMARK UNBOUND:                -0.100
REMARK SMILES O=C([O-])CCC(=O)[O-]
REMARK SMILES IDX 4 1 2 2 1 3 3 4 5 5 6 6 7 7 8 8
REMARK H PARENT
REMARK Flexibility Score: inf
ROOT
ATOM      1  C   UNL     1      -6.994 -17.810 -15.821  1.00  0.00     0.059 C 
ENDROOT
BRANCH   1   2
ATOM      2  C   UNL     1      -8.422 -17.880 -16.269  1.00  0.00     0.042 C 
ATOM      3  O   UNL     1      -9.351 -17.926 -15.421  1.00  0.00    -0.550 OA
ATOM      4  O   UNL     1      -8.727 -17.855 -17.624  1.00  0.00    -0.550 OA
ENDBRANCH   1   2
BRANCH   1   5
ATOM      5  C   UNL     1      -6.518 -19.147 -15.244  1.00  0.00     0.059 C 
BRANCH   5   6
ATOM      6  C   UNL     1      -6.222 -19.041 -13.779  1.00  0.00     0.042 C 
ATOM      7  O   UNL     1      -6.845 -18.213 -13.064  1.00  0.00    -0.550 OA
ATOM      8  O   UNL     1      -5.285 -19.885 -13.196  1.00  0.00    -0.550 OA
ENDBRANCH   5   6
ENDBRANCH   1   5
TORSDOF 3
ENDMDL
MODEL 7
REMARK VINA RESULT:    -3.344      1.366      1.587
REMARK INTER + INTRA:          -4.030
REMARK INTER:                  -3.972
REMARK INTRA:                  -0.058
REMARK UNBOUND:                -0.100
REMARK SMILES O=C([O-])CCC(=O)[O-]
REMARK SMILES IDX 4 1 2 2 1 3 3 4 5 5 6 6 7 7 8 8
REMARK H PARENT
REMARK Flexibility Score: inf
ROOT
ATOM      1  C   UNL     1      -5.505 -19.172 -13.772  1.00  0.00     0.059 C 
ENDROOT
BRANCH   1   2
ATOM      2  C   UNL     1      -5.690 -20.085 -12.598  1.00  0.00     0.042 C 
ATOM      3  O   UNL     1      -6.083 -21.268 -12.772  1.00  0.00    -0.550 OA
ATOM      4  O   UNL     1      -5.391 -19.638 -11.318  1.00  0.00    -0.550 OA
ENDBRANCH   1   2
BRANCH   1   5
ATOM      5  C   UNL     1      -6.685 -19.259 -14.746  1.00  0.00     0.059 C 
BRANCH   5   6
ATOM      6  C   UNL     1      -7.219 -17.901 -15.087  1.00  0.00     0.042 C 
ATOM      7  O   UNL     1      -7.118 -16.955 -14.263  1.00  0.00    -0.550 OA
ATOM      8  O   UNL     1      -7.793 -17.672 -16.332  1.00  0.00    -0.550 OA
ENDBRANCH   5   6
ENDBRANCH   1   5
TORSDOF 3
ENDMDL
MODEL 8
REMARK VINA RESULT:    -3.050      3.332      4.558
REMARK INTER + INTRA:          -3.685
REMARK INTER:                  -3.599
REMARK INTRA:                  -0.086
REMARK UNBOUND:                -0.100
REMARK SMILES O=C([O-])CCC(=O)[O-]
REMARK SMILES IDX 4 1 2 2 1 3 3 4 5 5 6 6 7 7 8 8
REMARK H PARENT
REMARK Flexibility Score: inf
ROOT
ATOM      1  C   UNL     1      -2.496 -22.265 -11.618  1.00  0.00     0.059 C 
ENDROOT
BRANCH   1   2
ATOM      2  C   UNL     1      -2.260 -23.741 -11.718  1.00  0.00     0.042 C 
ATOM      3  O   UNL     1      -1.247 -24.258 -11.178  1.00  0.00    -0.550 OA
ATOM      4  O   UNL     1      -3.180 -24.549 -12.373  1.00  0.00    -0.550 OA
ENDBRANCH   1   2
BRANCH   1   5
ATOM      5  C   UNL     1      -3.817 -21.952 -10.908  1.00  0.00     0.059 C 
BRANCH   5   6
ATOM      6  C   UNL     1      -4.810 -21.327 -11.841  1.00  0.00     0.042 C 
ATOM      7  O   UNL     1      -5.913 -21.891 -12.063  1.00  0.00    -0.550 OA
ATOM      8  O   UNL     1      -4.531 -20.101 -12.433  1.00  0.00    -0.550 OA
ENDBRANCH   5   6
ENDBRANCH   1   5
TORSDOF 3
ENDMDL
MODEL 9
REMARK VINA RESULT:    -3.047      3.205      5.227
REMARK INTER + INTRA:          -3.681
REMARK INTER:                  -3.586
REMARK INTRA:                  -0.095
REMARK UNBOUND:                -0.100
REMARK SMILES O=C([O-])CCC(=O)[O-]
REMARK SMILES IDX 4 1 2 2 1 3 3 4 5 5 6 6 7 7 8 8
REMARK H PARENT
REMARK Flexibility Score: inf
ROOT
ATOM      1  C   UNL     1      -3.952 -21.797 -10.918  1.00  0.00     0.059 C 
ENDROOT
BRANCH   1   2
ATOM      2  C   UNL     1      -4.949 -21.230 -11.883  1.00  0.00     0.042 C 
ATOM      3  O   UNL     1      -5.940 -21.916 -12.246  1.00  0.00    -0.550 OA
ATOM      4  O   UNL     1      -4.802 -19.930 -12.349  1.00  0.00    -0.550 OA
ENDBRANCH   1   2
BRANCH   1   5
ATOM      5  C   UNL     1      -2.595 -22.038 -11.587  1.00  0.00     0.059 C 
BRANCH   5   6
ATOM      6  C   UNL     1      -2.270 -23.499 -11.663  1.00  0.00     0.042 C 
ATOM      7  O   UNL     1      -1.210 -23.941 -11.147  1.00  0.00    -0.550 OA
ATOM      8  O   UNL     1      -3.158 -24.379 -12.270  1.00  0.00    -0.550 OA
ENDBRANCH   5   6
ENDBRANCH   1   5
TORSDOF 3
ENDMDL
