MODEL 1
REMARK VINA RESULT:    -4.168      0.000      0.000
REMARK INTER + INTRA:          -5.801
REMARK INTER:                  -5.630
REMARK INTRA:                  -0.171
REMARK UNBOUND:                -0.171
REMARK SMILES [NH3+]CCCC[C@@H]([NH3+])C(=O)[O-]
REMARK SMILES IDX 4 1 3 2 2 3 1 4 5 8 6 9 7 10 8 14 9 15 10 16
REMARK H PARENT 1 5 1 6 1 7 7 11 7 12 7 13
REMARK Flexibility Score: inf
ROOT
ATOM      1  C   UNL     1     -41.774  21.435 -28.369  1.00  0.00     0.012 C 
ENDROOT
BRANCH   1   2
ATOM      2  C   UNL     1     -41.892  22.751 -29.153  1.00  0.00     0.061 C 
BRANCH   2   3
ATOM      3  C   UNL     1     -41.001  23.865 -28.574  1.00  0.00     0.258 C 
BRANCH   3   4
ATOM      4  N   UNL     1     -41.787  24.968 -28.020  1.00  0.00    -0.358 N 
ATOM      5  H   UNL     1     -41.299  25.339 -27.171  1.00  0.00     0.344 HD
ATOM      6  H   UNL     1     -41.876  25.741 -28.719  1.00  0.00     0.344 HD
ATOM      7  H   UNL     1     -42.734  24.633 -27.733  1.00  0.00     0.344 HD
ENDBRANCH   3   4
ENDBRANCH   2   3
ENDBRANCH   1   2
BRANCH   1   8
ATOM      8  C   UNL     1     -40.411  20.770 -28.613  1.00  0.00     0.072 C 
BRANCH   8   9
ATOM      9  C   UNL     1     -40.149  20.477 -30.106  1.00  0.00     0.227 C 
BRANCH   9  10
ATOM     10  N   UNL     1     -38.855  21.015 -30.550  1.00  0.00    -0.350 N 
ATOM     11  H   UNL     1     -38.081  20.607 -29.980  1.00  0.00     0.345 HD
ATOM     12  H   UNL     1     -38.692  20.803 -31.561  1.00  0.00     0.345 HD
ATOM     13  H   UNL     1     -38.834  22.052 -30.411  1.00  0.00     0.345 HD
ENDBRANCH   9  10
BRANCH   9  14
ATOM     14  C   UNL     1     -40.195  18.991 -30.341  1.00  0.00     0.099 C 
ATOM     15  O   UNL     1     -39.326  18.240 -29.823  1.00  0.00    -0.544 OA
ATOM     16  O   UNL     1     -41.183  18.439 -31.150  1.00  0.00    -0.544 OA
ENDBRANCH   9  14
ENDBRANCH   8   9
ENDBRANCH   1   8
TORSDOF 7
ENDMDL
MODEL 2
REMARK VINA RESULT:    -4.147      2.754      4.894
REMARK INTER + INTRA:          -5.773
REMARK INTER:                  -5.613
REMARK INTRA:                  -0.159
REMARK UNBOUND:                -0.171
REMARK SMILES [NH3+]CCCC[C@@H]([NH3+])C(=O)[O-]
REMARK SMILES IDX 4 1 3 2 2 3 1 4 5 8 6 9 7 10 8 14 9 15 10 16
REMARK H PARENT 1 5 1 6 1 7 7 11 7 12 7 13
REMARK Flexibility Score: inf
ROOT
ATOM      1  C   UNL     1     -40.229  19.131 -30.562  1.00  0.00     0.012 C 
ENDROOT
BRANCH   1   2
ATOM      2  C   UNL     1     -39.270  18.390 -29.618  1.00  0.00     0.061 C 
BRANCH   2   3
ATOM      3  C   UNL     1     -37.803  18.487 -30.070  1.00  0.00     0.258 C 
BRANCH   3   4
ATOM      4  N   UNL     1     -37.352  17.270 -30.748  1.00  0.00    -0.358 N 
ATOM      5  H   UNL     1     -36.404  17.013 -30.388  1.00  0.00     0.344 HD
ATOM      6  H   UNL     1     -38.009  16.479 -30.556  1.00  0.00     0.344 HD
ATOM      7  H   UNL     1     -37.278  17.433 -31.778  1.00  0.00     0.344 HD
ENDBRANCH   3   4
ENDBRANCH   2   3
ENDBRANCH   1   2
BRANCH   1   8
ATOM      8  C   UNL     1     -40.268  20.632 -30.237  1.00  0.00     0.072 C 
BRANCH   8   9
ATOM      9  C   UNL     1     -40.456  20.911 -28.730  1.00  0.00     0.227 C 
BRANCH   9  10
ATOM     10  N   UNL     1     -39.336  21.683 -28.174  1.00  0.00    -0.350 N 
ATOM     11  H   UNL     1     -39.557  21.988 -27.199  1.00  0.00     0.345 HD
ATOM     12  H   UNL     1     -38.458  21.113 -28.168  1.00  0.00     0.345 HD
ATOM     13  H   UNL     1     -39.179  22.546 -28.744  1.00  0.00     0.345 HD
ENDBRANCH   9  10
BRANCH   9  14
ATOM     14  C   UNL     1     -41.748  21.653 -28.514  1.00  0.00     0.099 C 
ATOM     15  O   UNL     1     -41.903  22.809 -28.990  1.00  0.00    -0.544 OA
ATOM     16  O   UNL     1     -42.772  21.076 -27.770  1.00  0.00    -0.544 OA
ENDBRANCH   9  14
ENDBRANCH   8   9
ENDBRANCH   1   8
TORSDOF 7
ENDMDL
MODEL 3
REMARK VINA RESULT:    -4.038      3.040      4.874
REMARK INTER + INTRA:          -5.625
REMARK INTER:                  -5.465
REMARK INTRA:                  -0.159
REMARK UNBOUND:                -0.171
REMARK SMILES [NH3+]CCCC[C@@H]([NH3+])C(=O)[O-]
REMARK SMILES IDX 4 1 3 2 2 3 1 4 5 8 6 9 7 10 8 14 9 15 10 16
REMARK H PARENT 1 5 1 6 1 7 7 11 7 12 7 13
REMARK Flexibility Score: inf
ROOT
ATOM      1  C   UNL     1     -38.962  20.608 -28.559  1.00  0.00     0.012 C 
ENDROOT
BRANCH   1   2
ATOM      2  C   UNL     1     -39.001  19.409 -29.518  1.00  0.00     0.061 C 
BRANCH   2   3
ATOM      3  C   UNL     1     -37.602  19.000 -30.011  1.00  0.00     0.258 C 
BRANCH   3   4
ATOM      4  N   UNL     1     -37.549  17.595 -30.420  1.00  0.00    -0.358 N 
ATOM      5  H   UNL     1     -38.472  17.148 -30.216  1.00  0.00     0.344 HD
ATOM      6  H   UNL     1     -37.359  17.520 -31.446  1.00  0.00     0.344 HD
ATOM      7  H   UNL     1     -36.812  17.087 -29.881  1.00  0.00     0.344 HD
ENDBRANCH   3   4
ENDBRANCH   2   3
ENDBRANCH   1   2
BRANCH   1   8
ATOM      8  C   UNL     1     -40.273  20.720 -27.766  1.00  0.00     0.072 C 
BRANCH   8   9
ATOM      9  C   UNL     1     -41.453  21.213 -28.631  1.00  0.00     0.227 C 
BRANCH   9  10
ATOM     10  N   UNL     1     -42.698  21.306 -27.855  1.00  0.00    -0.350 N 
ATOM     11  H   UNL     1     -43.345  20.529 -28.117  1.00  0.00     0.345 HD
ATOM     12  H   UNL     1     -42.500  21.262 -26.828  1.00  0.00     0.345 HD
ATOM     13  H   UNL     1     -43.185  22.207 -28.070  1.00  0.00     0.345 HD
ENDBRANCH   9  10
BRANCH   9  14
ATOM     14  C   UNL     1     -41.115  22.555 -29.223  1.00  0.00     0.099 C 
ATOM     15  O   UNL     1     -41.109  23.585 -28.498  1.00  0.00    -0.544 OA
ATOM     16  O   UNL     1     -40.829  22.671 -30.579  1.00  0.00    -0.544 OA
ENDBRANCH   9  14
ENDBRANCH   8   9
ENDBRANCH   1   8
TORSDOF 7
ENDMDL
MODEL 4
REMARK VINA RESULT:    -3.989      1.550      1.798
REMARK INTER + INTRA:          -5.559
REMARK INTER:                  -5.468
REMARK INTRA:                  -0.091
REMARK UNBOUND:                -0.171
REMARK SMILES [NH3+]CCCC[C@@H]([NH3+])C(=O)[O-]
REMARK SMILES IDX 4 1 3 2 2 3 1 4 5 8 6 9 7 10 8 14 9 15 10 16
REMARK H PARENT 1 5 1 6 1 7 7 11 7 12 7 13
REMARK Flexibility Score: inf
ROOT
ATOM      1  C   UNL     1     -41.089  21.399 -28.711  1.00  0.00     0.012 C 
ENDROOT
BRANCH   1   2
ATOM      2  C   UNL     1     -41.865  22.712 -28.899  1.00  0.00     0.061 C 
BRANCH   2   3
ATOM      3  C   UNL     1     -41.018  23.952 -28.568  1.00  0.00     0.258 C 
BRANCH   3   4
ATOM      4  N   UNL     1     -41.838  25.079 -28.119  1.00  0.00    -0.358 N 
ATOM      5  H   UNL     1     -42.419  24.771 -27.305  1.00  0.00     0.344 HD
ATOM      6  H   UNL     1     -41.232  25.875 -27.816  1.00  0.00     0.344 HD
ATOM      7  H   UNL     1     -42.481  25.388 -28.883  1.00  0.00     0.344 HD
ENDBRANCH   3   4
ENDBRANCH   2   3
ENDBRANCH   1   2
BRANCH   1   8
ATOM      8  C   UNL     1     -40.582  20.863 -30.058  1.00  0.00     0.072 C 
BRANCH   8   9
ATOM      9  C   UNL     1     -40.250  19.355 -30.012  1.00  0.00     0.227 C 
BRANCH   9  10
ATOM     10  N   UNL     1     -40.872  18.625 -31.126  1.00  0.00    -0.350 N 
ATOM     11  H   UNL     1     -41.912  18.711 -31.077  1.00  0.00     0.345 HD
ATOM     12  H   UNL     1     -40.536  18.995 -32.046  1.00  0.00     0.345 HD
ATOM     13  H   UNL     1     -40.638  17.608 -31.061  1.00  0.00     0.345 HD
ENDBRANCH   9  10
BRANCH   9  14
ATOM     14  C   UNL     1     -38.757  19.169 -30.046  1.00  0.00     0.099 C 
ATOM     15  O   UNL     1     -37.994  20.170 -30.096  1.00  0.00    -0.544 OA
ATOM     16  O   UNL     1     -38.210  17.891 -30.045  1.00  0.00    -0.544 OA
ENDBRANCH   9  14
ENDBRANCH   8   9
ENDBRANCH   1   8
TORSDOF 7
ENDMDL
MODEL 5
REMARK VINA RESULT:    -3.953      3.119      4.797
REMARK INTER + INTRA:          -5.510
REMARK INTER:                  -5.353
REMARK INTRA:                  -0.157
REMARK UNBOUND:                -0.171
REMARK SMILES [NH3+]CCCC[C@@H]([NH3+])C(=O)[O-]
REMARK SMILES IDX 4 1 3 2 2 3 1 4 5 8 6 9 7 10 8 14 9 15 10 16
REMARK H PARENT 1 5 1 6 1 7 7 11 7 12 7 13
REMARK Flexibility Score: inf
ROOT
ATOM      1  C   UNL     1     -40.291  19.784 -29.787  1.00  0.00     0.012 C 
ENDROOT
BRANCH   1   2
ATOM      2  C   UNL     1     -39.551  18.455 -30.001  1.00  0.00     0.061 C 
BRANCH   2   3
ATOM      3  C   UNL     1     -38.022  18.618 -29.968  1.00  0.00     0.258 C 
BRANCH   3   4
ATOM      4  N   UNL     1     -37.333  17.508 -30.629  1.00  0.00    -0.358 N 
ATOM      5  H   UNL     1     -37.774  16.608 -30.327  1.00  0.00     0.344 HD
ATOM      6  H   UNL     1     -37.418  17.591 -31.668  1.00  0.00     0.344 HD
ATOM      7  H   UNL     1     -36.325  17.488 -30.352  1.00  0.00     0.344 HD
ENDBRANCH   3   4
ENDBRANCH   2   3
ENDBRANCH   1   2
BRANCH   1   8
ATOM      8  C   UNL     1     -40.331  20.605 -31.085  1.00  0.00     0.072 C 
BRANCH   8   9
ATOM      9  C   UNL     1     -39.618  21.968 -30.950  1.00  0.00     0.227 C 
BRANCH   9  10
ATOM     10  N   UNL     1     -39.711  22.758 -32.186  1.00  0.00    -0.350 N 
ATOM     11  H   UNL     1     -39.925  23.755 -31.960  1.00  0.00     0.345 HD
ATOM     12  H   UNL     1     -38.817  22.708 -32.726  1.00  0.00     0.345 HD
ATOM     13  H   UNL     1     -40.491  22.397 -32.782  1.00  0.00     0.345 HD
ENDBRANCH   9  10
BRANCH   9  14
ATOM     14  C   UNL     1     -40.219  22.736 -29.803  1.00  0.00     0.099 C 
ATOM     15  O   UNL     1     -39.504  23.076 -28.823  1.00  0.00    -0.544 OA
ATOM     16  O   UNL     1     -41.572  23.057 -29.806  1.00  0.00    -0.544 OA
ENDBRANCH   9  14
ENDBRANCH   8   9
ENDBRANCH   1   8
TORSDOF 7
ENDMDL
MODEL 6
REMARK VINA RESULT:    -3.946      1.577      1.793
REMARK INTER + INTRA:          -5.501
REMARK INTER:                  -5.392
REMARK INTRA:                  -0.109
REMARK UNBOUND:                -0.171
REMARK SMILES [NH3+]CCCC[C@@H]([NH3+])C(=O)[O-]
REMARK SMILES IDX 4 1 3 2 2 3 1 4 5 8 6 9 7 10 8 14 9 15 10 16
REMARK H PARENT 1 5 1 6 1 7 7 11 7 12 7 13
REMARK Flexibility Score: inf
ROOT
ATOM      1  C   UNL     1     -41.678  21.622 -28.470  1.00  0.00     0.012 C 
ENDROOT
BRANCH   1   2
ATOM      2  C   UNL     1     -41.661  22.935 -29.267  1.00  0.00     0.061 C 
BRANCH   2   3
ATOM      3  C   UNL     1     -40.948  24.073 -28.516  1.00  0.00     0.258 C 
BRANCH   3   4
ATOM      4  N   UNL     1     -41.885  25.082 -28.021  1.00  0.00    -0.358 N 
ATOM      5  H   UNL     1     -42.846  24.850 -28.365  1.00  0.00     0.344 HD
ATOM      6  H   UNL     1     -41.898  25.088 -26.975  1.00  0.00     0.344 HD
ATOM      7  H   UNL     1     -41.627  26.028 -28.382  1.00  0.00     0.344 HD
ENDBRANCH   3   4
ENDBRANCH   2   3
ENDBRANCH   1   2
BRANCH   1   8
ATOM      8  C   UNL     1     -40.798  20.559 -29.145  1.00  0.00     0.072 C 
BRANCH   8   9
ATOM      9  C   UNL     1     -39.393  20.458 -28.512  1.00  0.00     0.227 C 
BRANCH   9  10
ATOM     10  N   UNL     1     -39.461  20.137 -27.079  1.00  0.00    -0.350 N 
ATOM     11  H   UNL     1     -39.503  21.015 -26.515  1.00  0.00     0.345 HD
ATOM     12  H   UNL     1     -40.301  19.550 -26.870  1.00  0.00     0.345 HD
ATOM     13  H   UNL     1     -38.601  19.618 -26.789  1.00  0.00     0.345 HD
ENDBRANCH   9  10
BRANCH   9  14
ATOM     14  C   UNL     1     -38.591  19.410 -29.236  1.00  0.00     0.099 C 
ATOM     15  O   UNL     1     -37.333  19.477 -29.258  1.00  0.00    -0.544 OA
ATOM     16  O   UNL     1     -39.233  18.373 -29.904  1.00  0.00    -0.544 OA
ENDBRANCH   9  14
ENDBRANCH   8   9
ENDBRANCH   1   8
TORSDOF 7
ENDMDL
MODEL 7
REMARK VINA RESULT:    -3.944      3.230      4.254
REMARK INTER + INTRA:          -5.498
REMARK INTER:                  -5.142
REMARK INTRA:                  -0.356
REMARK UNBOUND:                -0.171
REMARK SMILES [NH3+]CCCC[C@@H]([NH3+])C(=O)[O-]
REMARK SMILES IDX 4 1 3 2 2 3 1 4 5 8 6 9 7 10 8 14 9 15 10 16
REMARK H PARENT 1 5 1 6 1 7 7 11 7 12 7 13
REMARK Flexibility Score: inf
ROOT
ATOM      1  C   UNL     1     -39.586  20.888 -29.791  1.00  0.00     0.012 C 
ENDROOT
BRANCH   1   2
ATOM      2  C   UNL     1     -38.516  21.925 -30.163  1.00  0.00     0.061 C 
BRANCH   2   3
ATOM      3  C   UNL     1     -38.938  22.810 -31.349  1.00  0.00     0.258 C 
BRANCH   3   4
ATOM      4  N   UNL     1     -40.157  22.324 -31.996  1.00  0.00    -0.358 N 
ATOM      5  H   UNL     1     -40.884  23.076 -31.960  1.00  0.00     0.344 HD
ATOM      6  H   UNL     1     -39.971  22.086 -32.997  1.00  0.00     0.344 HD
ATOM      7  H   UNL     1     -40.528  21.487 -31.492  1.00  0.00     0.344 HD
ENDBRANCH   3   4
ENDBRANCH   2   3
ENDBRANCH   1   2
BRANCH   1   8
ATOM      8  C   UNL     1     -40.265  21.253 -28.462  1.00  0.00     0.072 C 
BRANCH   8   9
ATOM      9  C   UNL     1     -41.732  21.700 -28.645  1.00  0.00     0.227 C 
BRANCH   9  10
ATOM     10  N   UNL     1     -42.561  21.341 -27.486  1.00  0.00    -0.350 N 
ATOM     11  H   UNL     1     -42.462  22.061 -26.735  1.00  0.00     0.345 HD
ATOM     12  H   UNL     1     -43.568  21.261 -27.759  1.00  0.00     0.345 HD
ATOM     13  H   UNL     1     -42.242  20.428 -27.088  1.00  0.00     0.345 HD
ENDBRANCH   9  10
BRANCH   9  14
ATOM     14  C   UNL     1     -41.779  23.188 -28.870  1.00  0.00     0.099 C 
ATOM     15  O   UNL     1     -40.858  23.925 -28.429  1.00  0.00    -0.544 OA
ATOM     16  O   UNL     1     -42.851  23.761 -29.546  1.00  0.00    -0.544 OA
ENDBRANCH   9  14
ENDBRANCH   8   9
ENDBRANCH   1   8
TORSDOF 7
ENDMDL
MODEL 8
REMARK VINA RESULT:    -3.936     15.490     16.692
REMARK INTER + INTRA:          -5.488
REMARK INTER:                  -5.406
REMARK INTRA:                  -0.081
REMARK UNBOUND:                -0.171
REMARK SMILES [NH3+]CCCC[C@@H]([NH3+])C(=O)[O-]
REMARK SMILES IDX 4 1 3 2 2 3 1 4 5 8 6 9 7 10 8 14 9 15 10 16
REMARK H PARENT 1 5 1 6 1 7 7 11 7 12 7 13
REMARK Flexibility Score: inf
ROOT
ATOM      1  C   UNL     1     -52.029   9.007 -33.027  1.00  0.00     0.012 C 
ENDROOT
BRANCH   1   2
ATOM      2  C   UNL     1     -52.754   7.876 -33.771  1.00  0.00     0.061 C 
BRANCH   2   3
ATOM      3  C   UNL     1     -54.283   7.954 -33.619  1.00  0.00     0.258 C 
BRANCH   3   4
ATOM      4  N   UNL     1     -54.903   8.756 -34.675  1.00  0.00    -0.358 N 
ATOM      5  H   UNL     1     -54.352   9.637 -34.800  1.00  0.00     0.344 HD
ATOM      6  H   UNL     1     -54.904   8.231 -35.580  1.00  0.00     0.344 HD
ATOM      7  H   UNL     1     -55.880   9.015 -34.410  1.00  0.00     0.344 HD
ENDBRANCH   3   4
ENDBRANCH   2   3
ENDBRANCH   1   2
BRANCH   1   8
ATOM      8  C   UNL     1     -50.597   8.592 -32.657  1.00  0.00     0.072 C 
BRANCH   8   9
ATOM      9  C   UNL     1     -49.762   9.765 -32.097  1.00  0.00     0.227 C 
BRANCH   9  10
ATOM     10  N   UNL     1     -50.599  10.933 -31.789  1.00  0.00    -0.350 N 
ATOM     11  H   UNL     1     -51.287  10.695 -31.040  1.00  0.00     0.345 HD
ATOM     12  H   UNL     1     -50.010  11.740 -31.477  1.00  0.00     0.345 HD
ATOM     13  H   UNL     1     -51.143  11.216 -32.637  1.00  0.00     0.345 HD
ENDBRANCH   9  10
BRANCH   9  14
ATOM     14  C   UNL     1     -49.032   9.315 -30.860  1.00  0.00     0.099 C 
ATOM     15  O   UNL     1     -48.924   8.087 -30.598  1.00  0.00    -0.544 OA
ATOM     16  O   UNL     1     -48.491  10.251 -29.985  1.00  0.00    -0.544 OA
ENDBRANCH   9  14
ENDBRANCH   8   9
ENDBRANCH   1   8
TORSDOF 7
ENDMDL
MODEL 9
REMARK VINA RESULT:    -3.906      2.978      4.302
REMARK INTER + INTRA:          -5.447
REMARK INTER:                  -4.909
REMARK INTRA:                  -0.538
REMARK UNBOUND:                -0.171
REMARK SMILES [NH3+]CCCC[C@@H]([NH3+])C(=O)[O-]
REMARK SMILES IDX 4 1 3 2 2 3 1 4 5 8 6 9 7 10 8 14 9 15 10 16
REMARK H PARENT 1 5 1 6 1 7 7 11 7 12 7 13
REMARK Flexibility Score: inf
ROOT
ATOM      1  C   UNL     1     -40.560  20.801 -29.095  1.00  0.00     0.012 C 
ENDROOT
BRANCH   1   2
ATOM      2  C   UNL     1     -40.371  20.360 -30.554  1.00  0.00     0.061 C 
BRANCH   2   3
ATOM      3  C   UNL     1     -40.665  18.864 -30.762  1.00  0.00     0.258 C 
BRANCH   3   4
ATOM      4  N   UNL     1     -39.602  18.012 -30.228  1.00  0.00    -0.358 N 
ATOM      5  H   UNL     1     -39.994  17.423 -29.458  1.00  0.00     0.344 HD
ATOM      6  H   UNL     1     -39.228  17.381 -30.975  1.00  0.00     0.344 HD
ATOM      7  H   UNL     1     -38.830  18.596 -29.834  1.00  0.00     0.344 HD
ENDBRANCH   3   4
ENDBRANCH   2   3
ENDBRANCH   1   2
BRANCH   1   8
ATOM      8  C   UNL     1     -39.340  21.591 -28.598  1.00  0.00     0.072 C 
BRANCH   8   9
ATOM      9  C   UNL     1     -38.569  20.856 -27.479  1.00  0.00     0.227 C 
BRANCH   9  10
ATOM     10  N   UNL     1     -39.343  19.733 -26.931  1.00  0.00    -0.350 N 
ATOM     11  H   UNL     1     -39.515  19.878 -25.911  1.00  0.00     0.345 HD
ATOM     12  H   UNL     1     -40.258  19.634 -27.427  1.00  0.00     0.345 HD
ATOM     13  H   UNL     1     -38.801  18.844 -27.034  1.00  0.00     0.345 HD
ENDBRANCH   9  10
BRANCH   9  14
ATOM     14  C   UNL     1     -37.254  20.360 -28.018  1.00  0.00     0.099 C 
ATOM     15  O   UNL     1     -36.175  20.685 -27.454  1.00  0.00    -0.544 OA
ATOM     16  O   UNL     1     -37.219  19.559 -29.154  1.00  0.00    -0.544 OA
ENDBRANCH   9  14
ENDBRANCH   8   9
ENDBRANCH   1   8
TORSDOF 7
ENDMDL
