MODEL 1
REMARK VINA RESULT:    -2.305      0.000      0.000
REMARK INTER + INTRA:          -6.059
REMARK INTER:                  -4.191
REMARK INTRA:                  -1.868
REMARK UNBOUND:                -1.868
REMARK SMILES CCCCCCCCCCCCCCCC(=O)[O-]
REMARK SMILES IDX 9 1 10 2 11 3 12 4 13 5 14 6 15 7 16 8 17 9 18 10 8 11 7 12
REMARK SMILES IDX 6 13 5 14 4 15 3 16 2 17 1 18
REMARK H PARENT
REMARK Flexibility Score: inf
ROOT
ATOM      1  C   UNL     1       2.683   8.474   4.568  1.00  0.00     0.000 C 
ENDROOT
BRANCH   1   2
ATOM      2  C   UNL     1       1.834   9.095   5.695  1.00  0.00     0.000 C 
BRANCH   2   3
ATOM      3  C   UNL     1       0.731  10.059   5.223  1.00  0.00     0.000 C 
BRANCH   3   4
ATOM      4  C   UNL     1       0.246   9.757   3.797  1.00  0.00     0.000 C 
BRANCH   4   5
ATOM      5  C   UNL     1      -1.036   8.914   3.822  1.00  0.00     0.000 C 
BRANCH   5   6
ATOM      6  C   UNL     1      -1.125   8.013   2.580  1.00  0.00     0.006 C 
BRANCH   6   7
ATOM      7  C   UNL     1       0.116   7.125   2.417  1.00  0.00     0.053 C 
BRANCH   7   8
ATOM      8  C   UNL     1      -0.024   5.834   3.164  1.00  0.00     0.041 C 
ATOM      9  O   UNL     1      -0.690   4.885   2.672  1.00  0.00    -0.550 OA
ATOM     10  O   UNL     1       0.608   5.669   4.390  1.00  0.00    -0.550 OA
ENDBRANCH   7   8
ENDBRANCH   6   7
ENDBRANCH   5   6
ENDBRANCH   4   5
ENDBRANCH   3   4
ENDBRANCH   2   3
ENDBRANCH   1   2
BRANCH   1  11
ATOM     11  C   UNL     1       4.047   9.150   4.327  1.00  0.00     0.000 C 
BRANCH  11  12
ATOM     12  C   UNL     1       4.175   9.894   2.986  1.00  0.00    -0.000 C 
BRANCH  12  13
ATOM     13  C   UNL     1       4.969   9.101   1.937  1.00  0.00    -0.000 C 
BRANCH  13  14
ATOM     14  C   UNL     1       6.348   8.697   2.481  1.00  0.00    -0.000 C 
BRANCH  14  15
ATOM     15  C   UNL     1       6.606   7.181   2.350  1.00  0.00    -0.000 C 
BRANCH  15  16
ATOM     16  C   UNL     1       6.193   6.377   3.595  1.00  0.00    -0.000 C 
BRANCH  16  17
ATOM     17  C   UNL     1       5.280   5.189   3.263  1.00  0.00    -0.003 C 
ATOM     18  C   UNL     1       3.891   5.664   2.846  1.00  0.00     0.004 C 
ENDBRANCH  16  17
ENDBRANCH  15  16
ENDBRANCH  14  15
ENDBRANCH  13  14
ENDBRANCH  12  13
ENDBRANCH  11  12
ENDBRANCH   1  11
TORSDOF 14
ENDMDL
MODEL 2
REMARK VINA RESULT:    -2.266      1.409      3.732
REMARK INTER + INTRA:          -5.989
REMARK INTER:                  -4.242
REMARK INTRA:                  -1.747
REMARK UNBOUND:                -1.868
REMARK SMILES CCCCCCCCCCCCCCCC(=O)[O-]
REMARK SMILES IDX 9 1 10 2 11 3 12 4 13 5 14 6 15 7 16 8 17 9 18 10 8 11 7 12
REMARK SMILES IDX 6 13 5 14 4 15 3 16 2 17 1 18
REMARK H PARENT
REMARK Flexibility Score: inf
ROOT
ATOM      1  C   UNL     1       5.867   6.309   3.447  1.00  0.00     0.000 C 
ENDROOT
BRANCH   1   2
ATOM      2  C   UNL     1       4.673   5.338   3.363  1.00  0.00     0.000 C 
BRANCH   2   3
ATOM      3  C   UNL     1       3.287   6.007   3.393  1.00  0.00     0.000 C 
BRANCH   3   4
ATOM      4  C   UNL     1       2.687   6.197   1.992  1.00  0.00     0.000 C 
BRANCH   4   5
ATOM      5  C   UNL     1       1.331   6.911   2.068  1.00  0.00     0.000 C 
BRANCH   5   6
ATOM      6  C   UNL     1       0.752   6.842   3.490  1.00  0.00     0.006 C 
BRANCH   6   7
ATOM      7  C   UNL     1      -0.512   5.976   3.560  1.00  0.00     0.053 C 
BRANCH   7   8
ATOM      8  C   UNL     1      -0.308   4.765   4.418  1.00  0.00     0.041 C 
ATOM      9  O   UNL     1      -1.125   3.808   4.371  1.00  0.00    -0.550 OA
ATOM     10  O   UNL     1       0.804   4.681   5.246  1.00  0.00    -0.550 OA
ENDBRANCH   7   8
ENDBRANCH   6   7
ENDBRANCH   5   6
ENDBRANCH   4   5
ENDBRANCH   3   4
ENDBRANCH   2   3
ENDBRANCH   1   2
BRANCH   1  11
ATOM     11  C   UNL     1       6.232   7.014   2.126  1.00  0.00     0.000 C 
BRANCH  11  12
ATOM     12  C   UNL     1       7.215   8.190   2.268  1.00  0.00    -0.000 C 
BRANCH  12  13
ATOM     13  C   UNL     1       6.528   9.558   2.153  1.00  0.00    -0.000 C 
BRANCH  13  14
ATOM     14  C   UNL     1       5.001   9.419   2.266  1.00  0.00    -0.000 C 
BRANCH  14  15
ATOM     15  C   UNL     1       4.446  10.094   3.538  1.00  0.00    -0.000 C 
BRANCH  15  16
ATOM     16  C   UNL     1       2.958   9.799   3.792  1.00  0.00    -0.000 C 
BRANCH  16  17
ATOM     17  C   UNL     1       2.697   9.197   5.180  1.00  0.00    -0.003 C 
ATOM     18  C   UNL     1       1.659  10.012   5.946  1.00  0.00     0.004 C 
ENDBRANCH  16  17
ENDBRANCH  15  16
ENDBRANCH  14  15
ENDBRANCH  13  14
ENDBRANCH  12  13
ENDBRANCH  11  12
ENDBRANCH   1  11
TORSDOF 14
ENDMDL
MODEL 3
REMARK VINA RESULT:    -2.084      3.369      6.885
REMARK INTER + INTRA:          -5.658
REMARK INTER:                  -4.031
REMARK INTRA:                  -1.627
REMARK UNBOUND:                -1.868
REMARK SMILES CCCCCCCCCCCCCCCC(=O)[O-]
REMARK SMILES IDX 9 1 10 2 11 3 12 4 13 5 14 6 15 7 16 8 17 9 18 10 8 11 7 12
REMARK SMILES IDX 6 13 5 14 4 15 3 16 2 17 1 18
REMARK H PARENT
REMARK Flexibility Score: inf
ROOT
ATOM      1  C   UNL     1       1.792   6.781   3.095  1.00  0.00     0.000 C 
ENDROOT
BRANCH   1   2
ATOM      2  C   UNL     1       2.643   6.374   1.876  1.00  0.00     0.000 C 
BRANCH   2   3
ATOM      3  C   UNL     1       4.109   6.026   2.194  1.00  0.00     0.000 C 
BRANCH   3   4
ATOM      4  C   UNL     1       4.531   6.458   3.606  1.00  0.00     0.000 C 
BRANCH   4   5
ATOM      5  C   UNL     1       6.035   6.754   3.663  1.00  0.00     0.000 C 
BRANCH   5   6
ATOM      6  C   UNL     1       6.477   7.589   2.450  1.00  0.00     0.006 C 
BRANCH   6   7
ATOM      7  C   UNL     1       7.959   7.381   2.112  1.00  0.00     0.053 C 
BRANCH   7   8
ATOM      8  C   UNL     1       8.720   8.670   2.142  1.00  0.00     0.041 C 
ATOM      9  O   UNL     1       9.980   8.663   2.149  1.00  0.00    -0.550 OA
ATOM     10  O   UNL     1       8.039   9.880   2.132  1.00  0.00    -0.550 OA
ENDBRANCH   7   8
ENDBRANCH   6   7
ENDBRANCH   5   6
ENDBRANCH   4   5
ENDBRANCH   3   4
ENDBRANCH   2   3
ENDBRANCH   1   2
BRANCH   1  11
ATOM     11  C   UNL     1       0.473   6.000   3.265  1.00  0.00     0.000 C 
BRANCH  11  12
ATOM     12  C   UNL     1      -0.727   6.845   3.728  1.00  0.00    -0.000 C 
BRANCH  12  13
ATOM     13  C   UNL     1      -0.685   8.284   3.194  1.00  0.00    -0.000 C 
BRANCH  13  14
ATOM     14  C   UNL     1      -0.969   9.296   4.315  1.00  0.00    -0.000 C 
BRANCH  14  15
ATOM     15  C   UNL     1       0.280  10.124   4.683  1.00  0.00    -0.000 C 
BRANCH  15  16
ATOM     16  C   UNL     1       1.274   9.372   5.585  1.00  0.00    -0.000 C 
BRANCH  16  17
ATOM     17  C   UNL     1       2.739   9.644   5.216  1.00  0.00    -0.003 C 
ATOM     18  C   UNL     1       2.862  10.122   3.772  1.00  0.00     0.004 C 
ENDBRANCH  16  17
ENDBRANCH  15  16
ENDBRANCH  14  15
ENDBRANCH  13  14
ENDBRANCH  12  13
ENDBRANCH  11  12
ENDBRANCH   1  11
TORSDOF 14
ENDMDL
MODEL 4
REMARK VINA RESULT:    -2.041      1.903      5.663
REMARK INTER + INTRA:          -5.580
REMARK INTER:                  -4.511
REMARK INTRA:                  -1.069
REMARK UNBOUND:                -1.868
REMARK SMILES CCCCCCCCCCCCCCCC(=O)[O-]
REMARK SMILES IDX 9 1 10 2 11 3 12 4 13 5 14 6 15 7 16 8 17 9 18 10 8 11 7 12
REMARK SMILES IDX 6 13 5 14 4 15 3 16 2 17 1 18
REMARK H PARENT
REMARK Flexibility Score: inf
ROOT
ATOM      1  C   UNL     1       2.807   8.256   4.122  1.00  0.00     0.000 C 
ENDROOT
BRANCH   1   2
ATOM      2  C   UNL     1       3.832   9.362   4.441  1.00  0.00     0.000 C 
BRANCH   2   3
ATOM      3  C   UNL     1       5.219   9.166   3.805  1.00  0.00     0.000 C 
BRANCH   3   4
ATOM      4  C   UNL     1       5.148   8.556   2.397  1.00  0.00     0.000 C 
BRANCH   4   5
ATOM      5  C   UNL     1       6.537   8.110   1.921  1.00  0.00     0.000 C 
BRANCH   5   6
ATOM      6  C   UNL     1       6.748   6.609   2.172  1.00  0.00     0.006 C 
BRANCH   6   7
ATOM      7  C   UNL     1       6.107   6.144   3.486  1.00  0.00     0.053 C 
BRANCH   7   8
ATOM      8  C   UNL     1       5.284   4.907   3.295  1.00  0.00     0.041 C 
ATOM      9  O   UNL     1       5.774   3.901   2.717  1.00  0.00    -0.550 OA
ATOM     10  O   UNL     1       3.985   4.855   3.783  1.00  0.00    -0.550 OA
ENDBRANCH   7   8
ENDBRANCH   6   7
ENDBRANCH   5   6
ENDBRANCH   4   5
ENDBRANCH   3   4
ENDBRANCH   2   3
ENDBRANCH   1   2
BRANCH   1  11
ATOM     11  C   UNL     1       1.522   8.736   3.419  1.00  0.00     0.000 C 
BRANCH  11  12
ATOM     12  C   UNL     1       0.377   9.141   4.364  1.00  0.00    -0.000 C 
BRANCH  12  13
ATOM     13  C   UNL     1      -1.000   8.679   3.865  1.00  0.00    -0.000 C 
BRANCH  13  14
ATOM     14  C   UNL     1      -0.860   7.729   2.665  1.00  0.00    -0.000 C 
BRANCH  14  15
ATOM     15  C   UNL     1      -1.115   6.257   3.054  1.00  0.00    -0.000 C 
BRANCH  15  16
ATOM     16  C   UNL     1       0.174   5.449   3.285  1.00  0.00    -0.000 C 
BRANCH  16  17
ATOM     17  C   UNL     1       0.261   4.854   4.697  1.00  0.00    -0.003 C 
ATOM     18  C   UNL     1      -0.920   3.928   4.976  1.00  0.00     0.004 C 
ENDBRANCH  16  17
ENDBRANCH  15  16
ENDBRANCH  14  15
ENDBRANCH  13  14
ENDBRANCH  12  13
ENDBRANCH  11  12
ENDBRANCH   1  11
TORSDOF 14
ENDMDL
MODEL 5
REMARK VINA RESULT:    -1.616      1.248      2.262
REMARK INTER + INTRA:          -4.806
REMARK INTER:                  -3.508
REMARK INTRA:                  -1.297
REMARK UNBOUND:                -1.868
REMARK SMILES CCCCCCCCCCCCCCCC(=O)[O-]
REMARK SMILES IDX 9 1 10 2 11 3 12 4 13 5 14 6 15 7 16 8 17 9 18 10 8 11 7 12
REMARK SMILES IDX 6 13 5 14 4 15 3 16 2 17 1 18
REMARK H PARENT
REMARK Flexibility Score: inf
ROOT
ATOM      1  C   UNL     1       1.502   9.484   5.933  1.00  0.00     0.000 C 
ENDROOT
BRANCH   1   2
ATOM      2  C   UNL     1       0.524  10.111   4.919  1.00  0.00     0.000 C 
BRANCH   2   3
ATOM      3  C   UNL     1      -0.529   9.143   4.349  1.00  0.00     0.000 C 
BRANCH   3   4
ATOM      4  C   UNL     1      -0.292   8.810   2.868  1.00  0.00     0.000 C 
BRANCH   4   5
ATOM      5  C   UNL     1      -1.117   7.590   2.442  1.00  0.00     0.000 C 
BRANCH   5   6
ATOM      6  C   UNL     1      -0.207   6.459   1.938  1.00  0.00     0.006 C 
BRANCH   6   7
ATOM      7  C   UNL     1       0.794   6.001   3.006  1.00  0.00     0.053 C 
BRANCH   7   8
ATOM      8  C   UNL     1       0.148   5.115   4.027  1.00  0.00     0.041 C 
ATOM      9  O   UNL     1       0.660   4.987   5.171  1.00  0.00    -0.550 OA
ATOM     10  O   UNL     1      -1.036   4.456   3.725  1.00  0.00    -0.550 OA
ENDBRANCH   7   8
ENDBRANCH   6   7
ENDBRANCH   5   6
ENDBRANCH   4   5
ENDBRANCH   3   4
ENDBRANCH   2   3
ENDBRANCH   1   2
BRANCH   1  11
ATOM     11  C   UNL     1       2.976   9.446   5.483  1.00  0.00     0.000 C 
BRANCH  11  12
ATOM     12  C   UNL     1       3.316   8.342   4.466  1.00  0.00    -0.000 C 
BRANCH  12  13
ATOM     13  C   UNL     1       3.573   8.891   3.055  1.00  0.00    -0.000 C 
BRANCH  13  14
ATOM     14  C   UNL     1       4.989   9.478   2.943  1.00  0.00    -0.000 C 
BRANCH  14  15
ATOM     15  C   UNL     1       5.906   8.621   2.045  1.00  0.00    -0.000 C 
BRANCH  15  16
ATOM     16  C   UNL     1       6.431   7.350   2.736  1.00  0.00    -0.000 C 
BRANCH  16  17
ATOM     17  C   UNL     1       7.557   6.665   1.950  1.00  0.00    -0.003 C 
ATOM     18  C   UNL     1       8.795   7.553   1.875  1.00  0.00     0.004 C 
ENDBRANCH  16  17
ENDBRANCH  15  16
ENDBRANCH  14  15
ENDBRANCH  13  14
ENDBRANCH  12  13
ENDBRANCH  11  12
ENDBRANCH   1  11
TORSDOF 14
ENDMDL
MODEL 6
REMARK VINA RESULT:    -1.318      4.633      7.836
REMARK INTER + INTRA:          -4.265
REMARK INTER:                  -3.537
REMARK INTRA:                  -0.728
REMARK UNBOUND:                -1.868
REMARK SMILES CCCCCCCCCCCCCCCC(=O)[O-]
REMARK SMILES IDX 9 1 10 2 11 3 12 4 13 5 14 6 15 7 16 8 17 9 18 10 8 11 7 12
REMARK SMILES IDX 6 13 5 14 4 15 3 16 2 17 1 18
REMARK H PARENT
REMARK Flexibility Score: inf
ROOT
ATOM      1  C   UNL     1       3.886   8.571   3.622  1.00  0.00     0.000 C 
ENDROOT
BRANCH   1   2
ATOM      2  C   UNL     1       4.473   9.758   2.833  1.00  0.00     0.000 C 
BRANCH   2   3
ATOM      3  C   UNL     1       5.953  10.063   3.123  1.00  0.00     0.000 C 
BRANCH   3   4
ATOM      4  C   UNL     1       6.841   9.948   1.876  1.00  0.00     0.000 C 
BRANCH   4   5
ATOM      5  C   UNL     1       7.754   8.718   1.963  1.00  0.00     0.000 C 
BRANCH   5   6
ATOM      6  C   UNL     1       9.217   9.134   2.177  1.00  0.00     0.006 C 
BRANCH   6   7
ATOM      7  C   UNL     1      10.131   7.928   2.431  1.00  0.00     0.053 C 
BRANCH   7   8
ATOM      8  C   UNL     1      11.566   8.249   2.144  1.00  0.00     0.041 C 
ATOM      9  O   UNL     1      12.396   7.324   1.941  1.00  0.00    -0.550 OA
ATOM     10  O   UNL     1      11.980   9.573   2.071  1.00  0.00    -0.550 OA
ENDBRANCH   7   8
ENDBRANCH   6   7
ENDBRANCH   5   6
ENDBRANCH   4   5
ENDBRANCH   3   4
ENDBRANCH   2   3
ENDBRANCH   1   2
BRANCH   1  11
ATOM     11  C   UNL     1       2.481   8.118   3.177  1.00  0.00     0.000 C 
BRANCH  11  12
ATOM     12  C   UNL     1       1.652   9.192   2.451  1.00  0.00    -0.000 C 
BRANCH  12  13
ATOM     13  C   UNL     1       0.264   9.396   3.074  1.00  0.00    -0.000 C 
BRANCH  13  14
ATOM     14  C   UNL     1      -0.841   8.878   2.139  1.00  0.00    -0.000 C 
BRANCH  14  15
ATOM     15  C   UNL     1      -1.087   7.364   2.309  1.00  0.00    -0.000 C 
BRANCH  15  16
ATOM     16  C   UNL     1      -0.859   6.861   3.745  1.00  0.00    -0.000 C 
BRANCH  16  17
ATOM     17  C   UNL     1       0.039   5.617   3.806  1.00  0.00    -0.003 C 
ATOM     18  C   UNL     1      -0.719   4.420   4.372  1.00  0.00     0.004 C 
ENDBRANCH  16  17
ENDBRANCH  15  16
ENDBRANCH  14  15
ENDBRANCH  13  14
ENDBRANCH  12  13
ENDBRANCH  11  12
ENDBRANCH   1  11
TORSDOF 14
ENDMDL
MODEL 7
REMARK VINA RESULT:    -1.148      3.841      6.917
REMARK INTER + INTRA:          -3.955
REMARK INTER:                  -3.325
REMARK INTRA:                  -0.630
REMARK UNBOUND:                -1.868
REMARK SMILES CCCCCCCCCCCCCCCC(=O)[O-]
REMARK SMILES IDX 9 1 10 2 11 3 12 4 13 5 14 6 15 7 16 8 17 9 18 10 8 11 7 12
REMARK SMILES IDX 6 13 5 14 4 15 3 16 2 17 1 18
REMARK H PARENT
REMARK Flexibility Score: inf
ROOT
ATOM      1  C   UNL     1       4.624   5.574   3.743  1.00  0.00     0.000 C 
ENDROOT
BRANCH   1   2
ATOM      2  C   UNL     1       5.425   6.891   3.782  1.00  0.00     0.000 C 
BRANCH   2   3
ATOM      3  C   UNL     1       5.032   7.922   2.708  1.00  0.00     0.000 C 
BRANCH   3   4
ATOM      4  C   UNL     1       5.462   9.352   3.070  1.00  0.00     0.000 C 
BRANCH   4   5
ATOM      5  C   UNL     1       6.133  10.041   1.875  1.00  0.00     0.000 C 
BRANCH   5   6
ATOM      6  C   UNL     1       7.658  10.085   2.051  1.00  0.00     0.006 C 
BRANCH   6   7
ATOM      7  C   UNL     1       8.264   8.685   2.213  1.00  0.00     0.053 C 
BRANCH   7   8
ATOM      8  C   UNL     1       9.752   8.740   2.378  1.00  0.00     0.041 C 
ATOM      9  O   UNL     1      10.437   7.685   2.321  1.00  0.00    -0.550 OA
ATOM     10  O   UNL     1      10.385   9.962   2.563  1.00  0.00    -0.550 OA
ENDBRANCH   7   8
ENDBRANCH   6   7
ENDBRANCH   5   6
ENDBRANCH   4   5
ENDBRANCH   3   4
ENDBRANCH   2   3
ENDBRANCH   1   2
BRANCH   1  11
ATOM     11  C   UNL     1       3.100   5.738   3.581  1.00  0.00     0.000 C 
BRANCH  11  12
ATOM     12  C   UNL     1       2.665   6.643   2.415  1.00  0.00    -0.000 C 
BRANCH  12  13
ATOM     13  C   UNL     1       1.145   6.644   2.197  1.00  0.00    -0.000 C 
BRANCH  13  14
ATOM     14  C   UNL     1       0.630   8.065   1.917  1.00  0.00    -0.000 C 
BRANCH  14  15
ATOM     15  C   UNL     1       1.292   9.116   2.833  1.00  0.00    -0.000 C 
BRANCH  15  16
ATOM     16  C   UNL     1       0.531   9.352   4.150  1.00  0.00    -0.000 C 
BRANCH  16  17
ATOM     17  C   UNL     1       1.268   8.791   5.373  1.00  0.00    -0.003 C 
ATOM     18  C   UNL     1       2.701   9.311   5.439  1.00  0.00     0.004 C 
ENDBRANCH  16  17
ENDBRANCH  15  16
ENDBRANCH  14  15
ENDBRANCH  13  14
ENDBRANCH  12  13
ENDBRANCH  11  12
ENDBRANCH   1  11
TORSDOF 14
ENDMDL
MODEL 8
REMARK VINA RESULT:    -0.346      2.238      6.042
REMARK INTER + INTRA:          -2.498
REMARK INTER:                  -2.184
REMARK INTRA:                  -0.314
REMARK UNBOUND:                -1.868
REMARK SMILES CCCCCCCCCCCCCCCC(=O)[O-]
REMARK SMILES IDX 9 1 10 2 11 3 12 4 13 5 14 6 15 7 16 8 17 9 18 10 8 11 7 12
REMARK SMILES IDX 6 13 5 14 4 15 3 16 2 17 1 18
REMARK H PARENT
REMARK Flexibility Score: inf
ROOT
ATOM      1  C   UNL     1       4.616   8.211   3.203  1.00  0.00     0.000 C 
ENDROOT
BRANCH   1   2
ATOM      2  C   UNL     1       5.306   9.448   2.596  1.00  0.00     0.000 C 
BRANCH   2   3
ATOM      3  C   UNL     1       6.804   9.585   2.925  1.00  0.00     0.000 C 
BRANCH   3   4
ATOM      4  C   UNL     1       7.708   8.921   1.876  1.00  0.00     0.000 C 
BRANCH   4   5
ATOM      5  C   UNL     1       8.145   7.523   2.334  1.00  0.00     0.000 C 
BRANCH   5   6
ATOM      6  C   UNL     1       6.926   6.639   2.642  1.00  0.00     0.006 C 
BRANCH   6   7
ATOM      7  C   UNL     1       6.966   5.310   1.876  1.00  0.00     0.053 C 
BRANCH   7   8
ATOM      8  C   UNL     1       5.803   4.434   2.226  1.00  0.00     0.041 C 
ATOM      9  O   UNL     1       4.781   4.924   2.775  1.00  0.00    -0.550 OA
ATOM     10  O   UNL     1       5.835   3.080   1.917  1.00  0.00    -0.550 OA
ENDBRANCH   7   8
ENDBRANCH   6   7
ENDBRANCH   5   6
ENDBRANCH   4   5
ENDBRANCH   3   4
ENDBRANCH   2   3
ENDBRANCH   1   2
BRANCH   1  11
ATOM     11  C   UNL     1       3.075   8.224   3.141  1.00  0.00     0.000 C 
BRANCH  11  12
ATOM     12  C   UNL     1       2.463   9.460   2.459  1.00  0.00    -0.000 C 
BRANCH  12  13
ATOM     13  C   UNL     1       1.153   9.916   3.116  1.00  0.00    -0.000 C 
BRANCH  13  14
ATOM     14  C   UNL     1      -0.065   9.368   2.355  1.00  0.00    -0.000 C 
BRANCH  14  15
ATOM     15  C   UNL     1      -1.068   8.660   3.290  1.00  0.00    -0.000 C 
BRANCH  15  16
ATOM     16  C   UNL     1      -0.430   7.560   4.157  1.00  0.00    -0.000 C 
BRANCH  16  17
ATOM     17  C   UNL     1      -0.136   6.275   3.370  1.00  0.00    -0.003 C 
ATOM     18  C   UNL     1       0.752   5.330   4.173  1.00  0.00     0.004 C 
ENDBRANCH  16  17
ENDBRANCH  15  16
ENDBRANCH  14  15
ENDBRANCH  13  14
ENDBRANCH  12  13
ENDBRANCH  11  12
ENDBRANCH   1  11
TORSDOF 14
ENDMDL
MODEL 9
REMARK VINA RESULT:    -0.008     19.493     23.015
REMARK INTER + INTRA:          -1.882
REMARK INTER:                  -1.154
REMARK INTRA:                  -0.728
REMARK UNBOUND:                -1.868
REMARK SMILES CCCCCCCCCCCCCCCC(=O)[O-]
REMARK SMILES IDX 9 1 10 2 11 3 12 4 13 5 14 6 15 7 16 8 17 9 18 10 8 11 7 12
REMARK SMILES IDX 6 13 5 14 4 15 3 16 2 17 1 18
REMARK H PARENT
REMARK Flexibility Score: inf
ROOT
ATOM      1  C   UNL     1      15.309 -10.118  10.377  1.00  0.00     0.000 C 
ENDROOT
BRANCH   1   2
ATOM      2  C   UNL     1      16.661  -9.410  10.156  1.00  0.00     0.000 C 
BRANCH   2   3
ATOM      3  C   UNL     1      17.736  -9.717  11.214  1.00  0.00     0.000 C 
BRANCH   3   4
ATOM      4  C   UNL     1      18.308  -8.450  11.868  1.00  0.00     0.000 C 
BRANCH   4   5
ATOM      5  C   UNL     1      18.912  -8.767  13.242  1.00  0.00     0.000 C 
BRANCH   5   6
ATOM      6  C   UNL     1      18.098  -9.852  13.964  1.00  0.00     0.006 C 
BRANCH   6   7
ATOM      7  C   UNL     1      17.341  -9.297  15.178  1.00  0.00     0.053 C 
BRANCH   7   8
ATOM      8  C   UNL     1      15.885  -9.643  15.129  1.00  0.00     0.041 C 
ATOM      9  O   UNL     1      15.273  -9.967  16.181  1.00  0.00    -0.550 OA
ATOM     10  O   UNL     1      15.196  -9.577  13.925  1.00  0.00    -0.550 OA
ENDBRANCH   7   8
ENDBRANCH   6   7
ENDBRANCH   5   6
ENDBRANCH   4   5
ENDBRANCH   3   4
ENDBRANCH   2   3
ENDBRANCH   1   2
BRANCH   1  11
ATOM     11  C   UNL     1      14.267  -9.901   9.262  1.00  0.00     0.000 C 
BRANCH  11  12
ATOM     12  C   UNL     1      12.805 -10.122   9.688  1.00  0.00    -0.000 C 
BRANCH  12  13
ATOM     13  C   UNL     1      11.797  -9.543   8.686  1.00  0.00    -0.000 C 
BRANCH  13  14
ATOM     14  C   UNL     1      11.492  -8.070   9.000  1.00  0.00    -0.000 C 
BRANCH  14  15
ATOM     15  C   UNL     1      10.475  -7.917  10.151  1.00  0.00    -0.000 C 
BRANCH  15  16
ATOM     16  C   UNL     1      10.157  -6.453  10.501  1.00  0.00    -0.000 C 
BRANCH  16  17
ATOM     17  C   UNL     1       8.983  -6.315  11.480  1.00  0.00    -0.003 C 
ATOM     18  C   UNL     1       9.368  -5.457  12.682  1.00  0.00     0.004 C 
ENDBRANCH  16  17
ENDBRANCH  15  16
ENDBRANCH  14  15
ENDBRANCH  13  14
ENDBRANCH  12  13
ENDBRANCH  11  12
ENDBRANCH   1  11
TORSDOF 14
ENDMDL
