MODEL 1
REMARK VINA RESULT:    15.342      0.000      0.000
REMARK INTER + INTRA:          34.628
REMARK INTER:                  35.074
REMARK INTRA:                  -0.447
REMARK UNBOUND:                -0.447
REMARK SMILES CCCCCCCCCCCCCCCCCCCCCCCC(=O)[O-]
REMARK SMILES IDX 13 1 14 2 15 3 16 4 17 5 18 6 19 7 20 8 21 9 22 10 23 11
REMARK SMILES IDX 24 12 25 13 26 14 12 15 11 16 10 17 9 18 8 19 7 20 6 21 5 22
REMARK SMILES IDX 4 23 3 24 2 25 1 26
REMARK H PARENT
REMARK Flexibility Score: inf
ROOT
ATOM      1  C   UNL     1      12.651 -57.783  -3.130  1.00  0.00     0.000 C 
ENDROOT
BRANCH   1   2
ATOM      2  C   UNL     1      13.896 -57.327  -3.909  1.00  0.00     0.000 C 
BRANCH   2   3
ATOM      3  C   UNL     1      14.807 -58.505  -4.314  1.00  0.00     0.000 C 
BRANCH   3   4
ATOM      4  C   UNL     1      15.154 -59.456  -3.153  1.00  0.00     0.000 C 
BRANCH   4   5
ATOM      5  C   UNL     1      16.600 -59.355  -2.640  1.00  0.00     0.000 C 
BRANCH   5   6
ATOM      6  C   UNL     1      17.541 -60.373  -3.305  1.00  0.00     0.000 C 
BRANCH   6   7
ATOM      7  C   UNL     1      19.005 -59.938  -3.175  1.00  0.00     0.000 C 
BRANCH   7   8
ATOM      8  C   UNL     1      19.125 -58.407  -3.182  1.00  0.00     0.000 C 
BRANCH   8   9
ATOM      9  C   UNL     1      19.109 -57.799  -1.771  1.00  0.00     0.000 C 
BRANCH   9  10
ATOM     10  C   UNL     1      17.831 -56.997  -1.483  1.00  0.00     0.006 C 
BRANCH  10  11
ATOM     11  C   UNL     1      18.048 -55.504  -1.750  1.00  0.00     0.053 C 
BRANCH  11  12
ATOM     12  C   UNL     1      17.145 -55.019  -2.842  1.00  0.00     0.041 C 
ATOM     13  O   UNL     1      17.501 -55.116  -4.046  1.00  0.00    -0.550 OA
ATOM     14  O   UNL     1      15.918 -54.442  -2.532  1.00  0.00    -0.550 OA
ENDBRANCH  11  12
ENDBRANCH  10  11
ENDBRANCH   9  10
ENDBRANCH   8   9
ENDBRANCH   7   8
ENDBRANCH   6   7
ENDBRANCH   5   6
ENDBRANCH   4   5
ENDBRANCH   3   4
ENDBRANCH   2   3
ENDBRANCH   1   2
BRANCH   1  15
ATOM     15  C   UNL     1      11.545 -56.714  -3.096  1.00  0.00     0.000 C 
BRANCH  15  16
ATOM     16  C   UNL     1      12.025 -55.314  -3.535  1.00  0.00     0.000 C 
BRANCH  16  17
ATOM     17  C   UNL     1      10.984 -54.593  -4.411  1.00  0.00     0.000 C 
BRANCH  17  18
ATOM     18  C   UNL     1      10.508 -53.266  -3.798  1.00  0.00    -0.000 C 
BRANCH  18  19
ATOM     19  C   UNL     1       9.028 -53.248  -3.364  1.00  0.00    -0.000 C 
BRANCH  19  20
ATOM     20  C   UNL     1       8.332 -51.875  -3.461  1.00  0.00    -0.000 C 
BRANCH  20  21
ATOM     21  C   UNL     1       9.222 -50.663  -3.126  1.00  0.00    -0.000 C 
BRANCH  21  22
ATOM     22  C   UNL     1       8.690 -49.845  -1.937  1.00  0.00    -0.000 C 
BRANCH  22  23
ATOM     23  C   UNL     1       9.654 -48.727  -1.499  1.00  0.00    -0.000 C 
BRANCH  23  24
ATOM     24  C   UNL     1      11.127 -48.923  -1.916  1.00  0.00    -0.000 C 
BRANCH  24  25
ATOM     25  C   UNL     1      11.626 -47.977  -3.022  1.00  0.00    -0.003 C 
ATOM     26  C   UNL     1      10.625 -47.817  -4.167  1.00  0.00     0.004 C 
ENDBRANCH  24  25
ENDBRANCH  23  24
ENDBRANCH  22  23
ENDBRANCH  21  22
ENDBRANCH  20  21
ENDBRANCH  19  20
ENDBRANCH  18  19
ENDBRANCH  17  18
ENDBRANCH  16  17
ENDBRANCH  15  16
ENDBRANCH   1  15
TORSDOF 22
ENDMDL
MODEL 2
REMARK VINA RESULT:    15.369      1.020      1.807
REMARK INTER + INTRA:          34.689
REMARK INTER:                  36.343
REMARK INTRA:                  -1.654
REMARK UNBOUND:                -0.447
REMARK SMILES CCCCCCCCCCCCCCCCCCCCCCCC(=O)[O-]
REMARK SMILES IDX 13 1 14 2 15 3 16 4 17 5 18 6 19 7 20 8 21 9 22 10 23 11
REMARK SMILES IDX 24 12 25 13 26 14 12 15 11 16 10 17 9 18 8 19 7 20 6 21 5 22
REMARK SMILES IDX 4 23 3 24 2 25 1 26
REMARK H PARENT
REMARK Flexibility Score: inf
ROOT
ATOM      1  C   UNL     1      11.630 -57.007  -2.873  1.00  0.00     0.000 C 
ENDROOT
BRANCH   1   2
ATOM      2  C   UNL     1      12.733 -58.023  -3.218  1.00  0.00     0.000 C 
BRANCH   2   3
ATOM      3  C   UNL     1      13.964 -57.362  -3.874  1.00  0.00     0.000 C 
BRANCH   3   4
ATOM      4  C   UNL     1      15.005 -58.366  -4.404  1.00  0.00     0.000 C 
BRANCH   4   5
ATOM      5  C   UNL     1      15.254 -59.583  -3.497  1.00  0.00     0.000 C 
BRANCH   5   6
ATOM      6  C   UNL     1      16.393 -59.354  -2.491  1.00  0.00     0.000 C 
BRANCH   6   7
ATOM      7  C   UNL     1      17.756 -59.676  -3.116  1.00  0.00     0.000 C 
BRANCH   7   8
ATOM      8  C   UNL     1      18.804 -58.626  -2.719  1.00  0.00     0.000 C 
BRANCH   8   9
ATOM      9  C   UNL     1      18.335 -57.718  -1.570  1.00  0.00     0.000 C 
BRANCH   9  10
ATOM     10  C   UNL     1      18.369 -56.228  -1.939  1.00  0.00     0.006 C 
BRANCH  10  11
ATOM     11  C   UNL     1      17.168 -55.850  -2.812  1.00  0.00     0.053 C 
BRANCH  11  12
ATOM     12  C   UNL     1      17.528 -54.759  -3.772  1.00  0.00     0.041 C 
ATOM     13  O   UNL     1      17.800 -53.605  -3.346  1.00  0.00    -0.550 OA
ATOM     14  O   UNL     1      17.546 -55.008  -5.141  1.00  0.00    -0.550 OA
ENDBRANCH  11  12
ENDBRANCH  10  11
ENDBRANCH   9  10
ENDBRANCH   8   9
ENDBRANCH   7   8
ENDBRANCH   6   7
ENDBRANCH   5   6
ENDBRANCH   4   5
ENDBRANCH   3   4
ENDBRANCH   2   3
ENDBRANCH   1   2
BRANCH   1  15
ATOM     15  C   UNL     1      12.008 -55.565  -3.251  1.00  0.00     0.000 C 
BRANCH  15  16
ATOM     16  C   UNL     1      11.059 -54.929  -4.289  1.00  0.00     0.000 C 
BRANCH  16  17
ATOM     17  C   UNL     1      10.486 -53.585  -3.805  1.00  0.00     0.000 C 
BRANCH  17  18
ATOM     18  C   UNL     1       8.951 -53.534  -3.868  1.00  0.00    -0.000 C 
BRANCH  18  19
ATOM     19  C   UNL     1       8.326 -52.222  -3.353  1.00  0.00    -0.000 C 
BRANCH  19  20
ATOM     20  C   UNL     1       9.332 -51.099  -3.030  1.00  0.00    -0.000 C 
BRANCH  20  21
ATOM     21  C   UNL     1       8.706 -49.723  -2.731  1.00  0.00    -0.000 C 
BRANCH  21  22
ATOM     22  C   UNL     1       9.605 -48.839  -1.850  1.00  0.00    -0.000 C 
BRANCH  22  23
ATOM     23  C   UNL     1      10.782 -48.219  -2.626  1.00  0.00    -0.000 C 
BRANCH  23  24
ATOM     24  C   UNL     1      12.185 -48.673  -2.171  1.00  0.00    -0.000 C 
BRANCH  24  25
ATOM     25  C   UNL     1      12.608 -48.189  -0.772  1.00  0.00    -0.003 C 
ATOM     26  C   UNL     1      13.910 -48.827  -0.288  1.00  0.00     0.004 C 
ENDBRANCH  24  25
ENDBRANCH  23  24
ENDBRANCH  22  23
ENDBRANCH  21  22
ENDBRANCH  20  21
ENDBRANCH  19  20
ENDBRANCH  18  19
ENDBRANCH  17  18
ENDBRANCH  16  17
ENDBRANCH  15  16
ENDBRANCH   1  15
TORSDOF 22
ENDMDL
MODEL 3
REMARK VINA RESULT:    15.631      2.286      9.604
REMARK INTER + INTRA:          35.287
REMARK INTER:                  36.406
REMARK INTRA:                  -1.119
REMARK UNBOUND:                -0.447
REMARK SMILES CCCCCCCCCCCCCCCCCCCCCCCC(=O)[O-]
REMARK SMILES IDX 13 1 14 2 15 3 16 4 17 5 18 6 19 7 20 8 21 9 22 10 23 11
REMARK SMILES IDX 24 12 25 13 26 14 12 15 11 16 10 17 9 18 8 19 7 20 6 21 5 22
REMARK SMILES IDX 4 23 3 24 2 25 1 26
REMARK H PARENT
REMARK Flexibility Score: inf
ROOT
ATOM      1  C   UNL     1      12.559 -57.741  -3.128  1.00  0.00     0.000 C 
ENDROOT
BRANCH   1   2
ATOM      2  C   UNL     1      11.545 -56.604  -2.915  1.00  0.00     0.000 C 
BRANCH   2   3
ATOM      3  C   UNL     1      11.367 -55.724  -4.171  1.00  0.00     0.000 C 
BRANCH   3   4
ATOM      4  C   UNL     1      11.287 -54.216  -3.871  1.00  0.00     0.000 C 
BRANCH   4   5
ATOM      5  C   UNL     1      10.030 -53.512  -4.410  1.00  0.00     0.000 C 
BRANCH   5   6
ATOM      6  C   UNL     1       9.053 -53.100  -3.297  1.00  0.00     0.000 C 
BRANCH   6   7
ATOM      7  C   UNL     1       7.941 -52.197  -3.844  1.00  0.00     0.000 C 
BRANCH   7   8
ATOM      8  C   UNL     1       8.301 -50.715  -3.665  1.00  0.00     0.000 C 
BRANCH   8   9
ATOM      9  C   UNL     1       9.522 -50.502  -2.755  1.00  0.00     0.000 C 
BRANCH   9  10
ATOM     10  C   UNL     1       9.255 -49.491  -1.630  1.00  0.00     0.006 C 
BRANCH  10  11
ATOM     11  C   UNL     1       9.827 -48.114  -1.983  1.00  0.00     0.053 C 
BRANCH  11  12
ATOM     12  C   UNL     1      11.038 -48.246  -2.854  1.00  0.00     0.041 C 
ATOM     13  O   UNL     1      12.136 -48.614  -2.359  1.00  0.00    -0.550 OA
ATOM     14  O   UNL     1      10.961 -47.944  -4.210  1.00  0.00    -0.550 OA
ENDBRANCH  11  12
ENDBRANCH  10  11
ENDBRANCH   9  10
ENDBRANCH   8   9
ENDBRANCH   7   8
ENDBRANCH   6   7
ENDBRANCH   5   6
ENDBRANCH   4   5
ENDBRANCH   3   4
ENDBRANCH   2   3
ENDBRANCH   1   2
BRANCH   1  15
ATOM     15  C   UNL     1      13.597 -57.419  -4.216  1.00  0.00     0.000 C 
BRANCH  15  16
ATOM     16  C   UNL     1      15.043 -57.784  -3.819  1.00  0.00     0.000 C 
BRANCH  16  17
ATOM     17  C   UNL     1      15.360 -59.267  -4.084  1.00  0.00     0.000 C 
BRANCH  17  18
ATOM     18  C   UNL     1      15.635 -60.057  -2.794  1.00  0.00    -0.000 C 
BRANCH  18  19
ATOM     19  C   UNL     1      17.007 -59.781  -2.147  1.00  0.00    -0.000 C 
BRANCH  19  20
ATOM     20  C   UNL     1      18.207 -59.820  -3.114  1.00  0.00    -0.000 C 
BRANCH  20  21
ATOM     21  C   UNL     1      19.125 -58.583  -3.071  1.00  0.00    -0.000 C 
BRANCH  21  22
ATOM     22  C   UNL     1      19.114 -57.881  -1.702  1.00  0.00    -0.000 C 
BRANCH  22  23
ATOM     23  C   UNL     1      18.147 -56.684  -1.649  1.00  0.00    -0.000 C 
BRANCH  23  24
ATOM     24  C   UNL     1      17.538 -56.266  -3.005  1.00  0.00    -0.000 C 
BRANCH  24  25
ATOM     25  C   UNL     1      17.366 -54.750  -3.206  1.00  0.00    -0.003 C 
ATOM     26  C   UNL     1      17.490 -54.324  -4.669  1.00  0.00     0.004 C 
ENDBRANCH  24  25
ENDBRANCH  23  24
ENDBRANCH  22  23
ENDBRANCH  21  22
ENDBRANCH  20  21
ENDBRANCH  19  20
ENDBRANCH  18  19
ENDBRANCH  17  18
ENDBRANCH  16  17
ENDBRANCH  15  16
ENDBRANCH   1  15
TORSDOF 22
ENDMDL
MODEL 4
REMARK VINA RESULT:    16.785      4.032     10.748
REMARK INTER + INTRA:          37.927
REMARK INTER:                  39.018
REMARK INTRA:                  -1.091
REMARK UNBOUND:                -0.447
REMARK SMILES CCCCCCCCCCCCCCCCCCCCCCCC(=O)[O-]
REMARK SMILES IDX 13 1 14 2 15 3 16 4 17 5 18 6 19 7 20 8 21 9 22 10 23 11
REMARK SMILES IDX 24 12 25 13 26 14 12 15 11 16 10 17 9 18 8 19 7 20 6 21 5 22
REMARK SMILES IDX 4 23 3 24 2 25 1 26
REMARK H PARENT
REMARK Flexibility Score: inf
ROOT
ATOM      1  C   UNL     1      10.992 -56.023  -2.853  1.00  0.00     0.000 C 
ENDROOT
BRANCH   1   2
ATOM      2  C   UNL     1      11.258 -54.760  -3.690  1.00  0.00     0.000 C 
BRANCH   2   3
ATOM      3  C   UNL     1       9.979 -53.931  -3.937  1.00  0.00     0.000 C 
BRANCH   3   4
ATOM      4  C   UNL     1      10.116 -52.444  -3.562  1.00  0.00     0.000 C 
BRANCH   4   5
ATOM      5  C   UNL     1       8.806 -51.756  -3.144  1.00  0.00     0.000 C 
BRANCH   5   6
ATOM      6  C   UNL     1       9.033 -50.371  -2.516  1.00  0.00     0.000 C 
BRANCH   6   7
ATOM      7  C   UNL     1      10.053 -49.559  -3.324  1.00  0.00     0.000 C 
BRANCH   7   8
ATOM      8  C   UNL     1      10.709 -48.480  -2.450  1.00  0.00     0.000 C 
BRANCH   8   9
ATOM      9  C   UNL     1       9.716 -47.799  -1.495  1.00  0.00     0.000 C 
BRANCH   9  10
ATOM     10  C   UNL     1       8.902 -46.689  -2.176  1.00  0.00     0.006 C 
BRANCH  10  11
ATOM     11  C   UNL     1       7.857 -46.108  -1.217  1.00  0.00     0.053 C 
BRANCH  11  12
ATOM     12  C   UNL     1       7.208 -44.894  -1.808  1.00  0.00     0.041 C 
ATOM     13  O   UNL     1       6.311 -44.282  -1.169  1.00  0.00    -0.550 OA
ATOM     14  O   UNL     1       7.579 -44.447  -3.072  1.00  0.00    -0.550 OA
ENDBRANCH  11  12
ENDBRANCH  10  11
ENDBRANCH   9  10
ENDBRANCH   8   9
ENDBRANCH   7   8
ENDBRANCH   6   7
ENDBRANCH   5   6
ENDBRANCH   4   5
ENDBRANCH   3   4
ENDBRANCH   2   3
ENDBRANCH   1   2
BRANCH   1  15
ATOM     15  C   UNL     1      11.731 -57.261  -3.390  1.00  0.00     0.000 C 
BRANCH  15  16
ATOM     16  C   UNL     1      13.251 -57.049  -3.557  1.00  0.00     0.000 C 
BRANCH  16  17
ATOM     17  C   UNL     1      13.996 -58.371  -3.812  1.00  0.00     0.000 C 
BRANCH  17  18
ATOM     18  C   UNL     1      15.525 -58.209  -3.779  1.00  0.00    -0.000 C 
BRANCH  18  19
ATOM     19  C   UNL     1      16.257 -59.180  -2.832  1.00  0.00    -0.000 C 
BRANCH  19  20
ATOM     20  C   UNL     1      17.715 -59.501  -3.220  1.00  0.00    -0.000 C 
BRANCH  20  21
ATOM     21  C   UNL     1      18.790 -58.868  -2.315  1.00  0.00    -0.000 C 
BRANCH  21  22
ATOM     22  C   UNL     1      18.997 -57.370  -2.595  1.00  0.00    -0.000 C 
BRANCH  22  23
ATOM     23  C   UNL     1      18.088 -56.468  -1.739  1.00  0.00    -0.000 C 
BRANCH  23  24
ATOM     24  C   UNL     1      17.032 -55.661  -2.523  1.00  0.00    -0.000 C 
BRANCH  24  25
ATOM     25  C   UNL     1      17.596 -54.538  -3.413  1.00  0.00    -0.003 C 
ATOM     26  C   UNL     1      17.610 -54.903  -4.897  1.00  0.00     0.004 C 
ENDBRANCH  24  25
ENDBRANCH  23  24
ENDBRANCH  22  23
ENDBRANCH  21  22
ENDBRANCH  20  21
ENDBRANCH  19  20
ENDBRANCH  18  19
ENDBRANCH  17  18
ENDBRANCH  16  17
ENDBRANCH  15  16
ENDBRANCH   1  15
TORSDOF 22
ENDMDL
MODEL 5
REMARK VINA RESULT:    17.276     15.161     19.605
REMARK INTER + INTRA:          39.049
REMARK INTER:                  32.754
REMARK INTRA:                   6.295
REMARK UNBOUND:                -0.447
REMARK SMILES CCCCCCCCCCCCCCCCCCCCCCCC(=O)[O-]
REMARK SMILES IDX 13 1 14 2 15 3 16 4 17 5 18 6 19 7 20 8 21 9 22 10 23 11
REMARK SMILES IDX 24 12 25 13 26 14 12 15 11 16 10 17 9 18 8 19 7 20 6 21 5 22
REMARK SMILES IDX 4 23 3 24 2 25 1 26
REMARK H PARENT
REMARK Flexibility Score: inf
ROOT
ATOM      1  C   UNL     1       5.048 -52.063   7.451  1.00  0.00     0.000 C 
ENDROOT
BRANCH   1   2
ATOM      2  C   UNL     1       4.443 -50.786   8.060  1.00  0.00     0.000 C 
BRANCH   2   3
ATOM      3  C   UNL     1       4.166 -50.923   9.572  1.00  0.00     0.000 C 
BRANCH   3   4
ATOM      4  C   UNL     1       2.896 -50.189  10.044  1.00  0.00     0.000 C 
BRANCH   4   5
ATOM      5  C   UNL     1       2.876 -48.678   9.762  1.00  0.00     0.000 C 
BRANCH   5   6
ATOM      6  C   UNL     1       1.708 -48.254   8.857  1.00  0.00     0.000 C 
BRANCH   6   7
ATOM      7  C   UNL     1       0.366 -48.723   9.432  1.00  0.00     0.000 C 
BRANCH   7   8
ATOM      8  C   UNL     1       0.580 -49.642  10.644  1.00  0.00     0.000 C 
BRANCH   8   9
ATOM      9  C   UNL     1      -0.718 -50.310  11.125  1.00  0.00     0.000 C 
BRANCH   9  10
ATOM     10  C   UNL     1      -0.857 -51.760  10.638  1.00  0.00     0.006 C 
BRANCH  10  11
ATOM     11  C   UNL     1       0.313 -52.147   9.727  1.00  0.00     0.053 C 
BRANCH  11  12
ATOM     12  C   UNL     1       0.141 -51.560   8.360  1.00  0.00     0.041 C 
ATOM     13  O   UNL     1      -0.987 -51.140   7.989  1.00  0.00    -0.550 OA
ATOM     14  O   UNL     1       1.221 -51.493   7.485  1.00  0.00    -0.550 OA
ENDBRANCH  11  12
ENDBRANCH  10  11
ENDBRANCH   9  10
ENDBRANCH   8   9
ENDBRANCH   7   8
ENDBRANCH   6   7
ENDBRANCH   5   6
ENDBRANCH   4   5
ENDBRANCH   3   4
ENDBRANCH   2   3
ENDBRANCH   1   2
BRANCH   1  15
ATOM     15  C   UNL     1       5.064 -53.244   8.438  1.00  0.00     0.000 C 
BRANCH  15  16
ATOM     16  C   UNL     1       4.916 -52.818   9.914  1.00  0.00     0.000 C 
BRANCH  16  17
ATOM     17  C   UNL     1       3.479 -53.010  10.432  1.00  0.00     0.000 C 
BRANCH  17  18
ATOM     18  C   UNL     1       3.272 -54.367  11.125  1.00  0.00    -0.000 C 
BRANCH  18  19
ATOM     19  C   UNL     1       3.861 -55.575  10.370  1.00  0.00    -0.000 C 
BRANCH  19  20
ATOM     20  C   UNL     1       3.331 -56.951  10.819  1.00  0.00    -0.000 C 
BRANCH  20  21
ATOM     21  C   UNL     1       4.312 -58.125  10.635  1.00  0.00    -0.000 C 
BRANCH  21  22
ATOM     22  C   UNL     1       3.645 -59.369  10.026  1.00  0.00    -0.000 C 
BRANCH  22  23
ATOM     23  C   UNL     1       2.505 -59.928  10.899  1.00  0.00    -0.000 C 
BRANCH  23  24
ATOM     24  C   UNL     1       1.255 -60.403  10.128  1.00  0.00    -0.000 C 
BRANCH  24  25
ATOM     25  C   UNL     1      -0.075 -60.263  10.889  1.00  0.00    -0.003 C 
ATOM     26  C   UNL     1      -1.057 -59.312  10.204  1.00  0.00     0.004 C 
ENDBRANCH  24  25
ENDBRANCH  23  24
ENDBRANCH  22  23
ENDBRANCH  21  22
ENDBRANCH  20  21
ENDBRANCH  19  20
ENDBRANCH  18  19
ENDBRANCH  17  18
ENDBRANCH  16  17
ENDBRANCH  15  16
ENDBRANCH   1  15
TORSDOF 22
ENDMDL
