MODEL 1
REMARK VINA RESULT:    -3.836      0.000      0.000
REMARK INTER + INTRA:          -4.550
REMARK INTER:                  -4.508
REMARK INTRA:                  -0.042
REMARK UNBOUND:                -0.042
REMARK SMILES O=C([O-])CCC(=O)[O-]
REMARK SMILES IDX 4 1 2 2 1 3 3 4 5 5 6 6 7 7 8 8
REMARK H PARENT
REMARK Flexibility Score: inf
ROOT
ATOM      1  C   UNL     1     -20.384  -0.664   8.777  1.00  0.00     0.059 C 
ENDROOT
BRANCH   1   2
ATOM      2  C   UNL     1     -19.922  -1.769   9.674  1.00  0.00     0.042 C 
ATOM      3  O   UNL     1     -20.009  -1.649  10.924  1.00  0.00    -0.550 OA
ATOM      4  O   UNL     1     -19.352  -2.913   9.130  1.00  0.00    -0.550 OA
ENDBRANCH   1   2
BRANCH   1   5
ATOM      5  C   UNL     1     -20.830   0.544   9.605  1.00  0.00     0.059 C 
BRANCH   5   6
ATOM      6  C   UNL     1     -21.074   1.723   8.717  1.00  0.00     0.042 C 
ATOM      7  O   UNL     1     -20.620   1.738   7.543  1.00  0.00    -0.550 OA
ATOM      8  O   UNL     1     -21.842   2.788   9.171  1.00  0.00    -0.550 OA
ENDBRANCH   5   6
ENDBRANCH   1   5
TORSDOF 3
ENDMDL
MODEL 2
REMARK VINA RESULT:    -3.833      1.318      4.057
REMARK INTER + INTRA:          -4.548
REMARK INTER:                  -4.507
REMARK INTRA:                  -0.041
REMARK UNBOUND:                -0.042
REMARK SMILES O=C([O-])CCC(=O)[O-]
REMARK SMILES IDX 4 1 2 2 1 3 3 4 5 5 6 6 7 7 8 8
REMARK H PARENT
REMARK Flexibility Score: inf
ROOT
ATOM      1  C   UNL     1     -20.705   0.696   8.822  1.00  0.00     0.059 C 
ENDROOT
BRANCH   1   2
ATOM      2  C   UNL     1     -21.412   1.696   9.680  1.00  0.00     0.042 C 
ATOM      3  O   UNL     1     -21.724   1.408  10.865  1.00  0.00    -0.550 OA
ATOM      4  O   UNL     1     -21.770   2.932   9.156  1.00  0.00    -0.550 OA
ENDBRANCH   1   2
BRANCH   1   5
ATOM      5  C   UNL     1     -20.375  -0.561   9.629  1.00  0.00     0.059 C 
BRANCH   5   6
ATOM      6  C   UNL     1     -19.968  -1.675   8.718  1.00  0.00     0.042 C 
ATOM      7  O   UNL     1     -19.441  -2.718   9.186  1.00  0.00    -0.550 OA
ATOM      8  O   UNL     1     -20.214  -1.582   7.353  1.00  0.00    -0.550 OA
ENDBRANCH   5   6
ENDBRANCH   1   5
TORSDOF 3
ENDMDL
MODEL 3
REMARK VINA RESULT:    -3.824      1.343      1.895
REMARK INTER + INTRA:          -4.536
REMARK INTER:                  -4.492
REMARK INTRA:                  -0.044
REMARK UNBOUND:                -0.042
REMARK SMILES O=C([O-])CCC(=O)[O-]
REMARK SMILES IDX 4 1 2 2 1 3 3 4 5 5 6 6 7 7 8 8
REMARK H PARENT
REMARK Flexibility Score: inf
ROOT
ATOM      1  C   UNL     1     -20.385  -0.540   9.515  1.00  0.00     0.059 C 
ENDROOT
BRANCH   1   2
ATOM      2  C   UNL     1     -20.031  -1.637   8.561  1.00  0.00     0.042 C 
ATOM      3  O   UNL     1     -20.305  -1.526   7.337  1.00  0.00    -0.550 OA
ATOM      4  O   UNL     1     -19.440  -2.803   9.030  1.00  0.00    -0.550 OA
ENDBRANCH   1   2
BRANCH   1   5
ATOM      5  C   UNL     1     -20.729   0.741   8.752  1.00  0.00     0.059 C 
BRANCH   5   6
ATOM      6  C   UNL     1     -21.420   1.715   9.652  1.00  0.00     0.042 C 
ATOM      7  O   UNL     1     -21.612   1.433  10.864  1.00  0.00    -0.550 OA
ATOM      8  O   UNL     1     -21.810   2.957   9.165  1.00  0.00    -0.550 OA
ENDBRANCH   5   6
ENDBRANCH   1   5
TORSDOF 3
ENDMDL
MODEL 4
REMARK VINA RESULT:    -3.813      1.327      4.048
REMARK INTER + INTRA:          -4.524
REMARK INTER:                  -4.479
REMARK INTRA:                  -0.045
REMARK UNBOUND:                -0.042
REMARK SMILES O=C([O-])CCC(=O)[O-]
REMARK SMILES IDX 4 1 2 2 1 3 3 4 5 5 6 6 7 7 8 8
REMARK H PARENT
REMARK Flexibility Score: inf
ROOT
ATOM      1  C   UNL     1     -20.736   0.742   8.734  1.00  0.00     0.059 C 
ENDROOT
BRANCH   1   2
ATOM      2  C   UNL     1     -21.416   1.736   9.622  1.00  0.00     0.042 C 
ATOM      3  O   UNL     1     -21.686   1.440  10.815  1.00  0.00    -0.550 OA
ATOM      4  O   UNL     1     -21.793   2.975   9.118  1.00  0.00    -0.550 OA
ENDBRANCH   1   2
BRANCH   1   5
ATOM      5  C   UNL     1     -20.390  -0.526   9.518  1.00  0.00     0.059 C 
BRANCH   5   6
ATOM      6  C   UNL     1     -20.063  -1.645   8.582  1.00  0.00     0.042 C 
ATOM      7  O   UNL     1     -20.295  -1.531   7.350  1.00  0.00    -0.550 OA
ATOM      8  O   UNL     1     -19.456  -2.799   9.063  1.00  0.00    -0.550 OA
ENDBRANCH   5   6
ENDBRANCH   1   5
TORSDOF 3
ENDMDL
MODEL 5
REMARK VINA RESULT:    -3.807      0.255      4.132
REMARK INTER + INTRA:          -4.517
REMARK INTER:                  -4.481
REMARK INTRA:                  -0.036
REMARK UNBOUND:                -0.042
REMARK SMILES O=C([O-])CCC(=O)[O-]
REMARK SMILES IDX 4 1 2 2 1 3 3 4 5 5 6 6 7 7 8 8
REMARK H PARENT
REMARK Flexibility Score: inf
ROOT
ATOM      1  C   UNL     1     -20.748   0.384   9.795  1.00  0.00     0.059 C 
ENDROOT
BRANCH   1   2
ATOM      2  C   UNL     1     -21.086   1.562   8.937  1.00  0.00     0.042 C 
ATOM      3  O   UNL     1     -21.815   2.485   9.386  1.00  0.00    -0.550 OA
ATOM      4  O   UNL     1     -20.635   1.619   7.624  1.00  0.00    -0.550 OA
ENDBRANCH   1   2
BRANCH   1   5
ATOM      5  C   UNL     1     -20.358  -0.814   8.926  1.00  0.00     0.059 C 
BRANCH   5   6
ATOM      6  C   UNL     1     -19.884  -1.946   9.781  1.00  0.00     0.042 C 
ATOM      7  O   UNL     1     -19.327  -2.947   9.258  1.00  0.00    -0.550 OA
ATOM      8  O   UNL     1     -20.014  -1.876  11.163  1.00  0.00    -0.550 OA
ENDBRANCH   5   6
ENDBRANCH   1   5
TORSDOF 3
ENDMDL
MODEL 6
REMARK VINA RESULT:    -3.778      0.450      4.429
REMARK INTER + INTRA:          -4.483
REMARK INTER:                  -4.437
REMARK INTRA:                  -0.046
REMARK UNBOUND:                -0.042
REMARK SMILES O=C([O-])CCC(=O)[O-]
REMARK SMILES IDX 4 1 2 2 1 3 3 4 5 5 6 6 7 7 8 8
REMARK H PARENT
REMARK Flexibility Score: inf
ROOT
ATOM      1  C   UNL     1     -20.748   0.312   9.342  1.00  0.00     0.059 C 
ENDROOT
BRANCH   1   2
ATOM      2  C   UNL     1     -20.751   1.455   8.377  1.00  0.00     0.042 C 
ATOM      3  O   UNL     1     -20.037   1.413   7.341  1.00  0.00    -0.550 OA
ATOM      4  O   UNL     1     -21.508   2.589   8.644  1.00  0.00    -0.550 OA
ENDBRANCH   1   2
BRANCH   1   5
ATOM      5  C   UNL     1     -20.371  -0.988   8.629  1.00  0.00     0.059 C 
BRANCH   5   6
ATOM      6  C   UNL     1     -19.848  -1.988   9.610  1.00  0.00     0.042 C 
ATOM      7  O   UNL     1     -19.952  -1.778  10.847  1.00  0.00    -0.550 OA
ATOM      8  O   UNL     1     -19.287  -3.177   9.159  1.00  0.00    -0.550 OA
ENDBRANCH   5   6
ENDBRANCH   1   5
TORSDOF 3
ENDMDL
MODEL 7
REMARK VINA RESULT:    -3.671      1.096      1.385
REMARK INTER + INTRA:          -4.357
REMARK INTER:                  -4.320
REMARK INTRA:                  -0.037
REMARK UNBOUND:                -0.042
REMARK SMILES O=C([O-])CCC(=O)[O-]
REMARK SMILES IDX 4 1 2 2 1 3 3 4 5 5 6 6 7 7 8 8
REMARK H PARENT
REMARK Flexibility Score: inf
ROOT
ATOM      1  C   UNL     1     -20.392  -0.562   9.544  1.00  0.00     0.059 C 
ENDROOT
BRANCH   1   2
ATOM      2  C   UNL     1     -19.928  -1.827  10.193  1.00  0.00     0.042 C 
ATOM      3  O   UNL     1     -20.005  -1.964  11.442  1.00  0.00    -0.550 OA
ATOM      4  O   UNL     1     -19.368  -2.839   9.423  1.00  0.00    -0.550 OA
ENDBRANCH   1   2
BRANCH   1   5
ATOM      5  C   UNL     1     -20.394  -0.713   8.021  1.00  0.00     0.059 C 
BRANCH   5   6
ATOM      6  C   UNL     1     -20.681   0.601   7.367  1.00  0.00     0.042 C 
ATOM      7  O   UNL     1     -20.880   0.662   6.125  1.00  0.00    -0.550 OA
ATOM      8  O   UNL     1     -20.775   1.755   8.136  1.00  0.00    -0.550 OA
ENDBRANCH   5   6
ENDBRANCH   1   5
TORSDOF 3
ENDMDL
MODEL 8
REMARK VINA RESULT:    -3.661      2.129      2.847
REMARK INTER + INTRA:          -4.345
REMARK INTER:                  -4.307
REMARK INTRA:                  -0.038
REMARK UNBOUND:                -0.042
REMARK SMILES O=C([O-])CCC(=O)[O-]
REMARK SMILES IDX 4 1 2 2 1 3 3 4 5 5 6 6 7 7 8 8
REMARK H PARENT
REMARK Flexibility Score: inf
ROOT
ATOM      1  C   UNL     1     -20.498   0.940   7.826  1.00  0.00     0.059 C 
ENDROOT
BRANCH   1   2
ATOM      2  C   UNL     1     -20.178  -0.246   6.972  1.00  0.00     0.042 C 
ATOM      3  O   UNL     1     -19.349  -0.144   6.030  1.00  0.00    -0.550 OA
ATOM      4  O   UNL     1     -20.830  -1.453   7.187  1.00  0.00    -0.550 OA
ENDBRANCH   1   2
BRANCH   1   5
ATOM      5  C   UNL     1     -20.762   0.504   9.268  1.00  0.00     0.059 C 
BRANCH   5   6
ATOM      6  C   UNL     1     -21.428   1.605  10.033  1.00  0.00     0.042 C 
ATOM      7  O   UNL     1     -21.543   1.528  11.284  1.00  0.00    -0.550 OA
ATOM      8  O   UNL     1     -21.880   2.738   9.368  1.00  0.00    -0.550 OA
ENDBRANCH   5   6
ENDBRANCH   1   5
TORSDOF 3
ENDMDL
MODEL 9
REMARK VINA RESULT:    -3.033     11.514     12.897
REMARK INTER + INTRA:          -3.606
REMARK INTER:                  -3.570
REMARK INTRA:                  -0.036
REMARK UNBOUND:                -0.042
REMARK SMILES O=C([O-])CCC(=O)[O-]
REMARK SMILES IDX 4 1 2 2 1 3 3 4 5 5 6 6 7 7 8 8
REMARK H PARENT
REMARK Flexibility Score: inf
ROOT
ATOM      1  C   UNL     1     -15.073  10.123  12.001  1.00  0.00     0.059 C 
ENDROOT
BRANCH   1   2
ATOM      2  C   UNL     1     -15.147   9.997  10.512  1.00  0.00     0.042 C 
ATOM      3  O   UNL     1     -14.345  10.636   9.782  1.00  0.00    -0.550 OA
ATOM      4  O   UNL     1     -16.132   9.211   9.929  1.00  0.00    -0.550 OA
ENDBRANCH   1   2
BRANCH   1   5
ATOM      5  C   UNL     1     -13.912  11.034  12.403  1.00  0.00     0.059 C 
BRANCH   5   6
ATOM      6  C   UNL     1     -13.491  10.753  13.811  1.00  0.00     0.042 C 
ATOM      7  O   UNL     1     -12.366  10.238  14.046  1.00  0.00    -0.550 OA
ATOM      8  O   UNL     1     -14.322  11.102  14.868  1.00  0.00    -0.550 OA
ENDBRANCH   5   6
ENDBRANCH   1   5
TORSDOF 3
ENDMDL
