MODEL 1
REMARK VINA RESULT:    -5.443      0.000      0.000
REMARK INTER + INTRA:         -11.372
REMARK INTER:                  -9.579
REMARK INTRA:                  -1.793
REMARK UNBOUND:                -1.793
REMARK SMILES CCCCCCC=CCCCCCCCC(=O)[O-]
REMARK SMILES IDX 10 1 11 2 12 3 13 4 14 5 15 6 16 7 17 8 18 9 9 10 8 11 7 12
REMARK SMILES IDX 6 13 5 14 4 15 3 16 2 17 1 18
REMARK H PARENT
REMARK Flexibility Score: inf
ROOT
ATOM      1  C   UNL     1     -28.489  -0.876  20.311  1.00  0.00     0.004 C 
ENDROOT
BRANCH   1   2
ATOM      2  C   UNL     1     -28.971  -2.322  20.114  1.00  0.00     0.000 C 
BRANCH   2   3
ATOM      3  C   UNL     1     -29.204  -2.673  18.635  1.00  0.00     0.000 C 
BRANCH   3   4
ATOM      4  C   UNL     1     -28.251  -1.926  17.685  1.00  0.00     0.000 C 
BRANCH   4   5
ATOM      5  C   UNL     1     -28.033  -2.597  16.316  1.00  0.00     0.006 C 
BRANCH   5   6
ATOM      6  C   UNL     1     -29.339  -3.070  15.665  1.00  0.00     0.053 C 
BRANCH   6   7
ATOM      7  C   UNL     1     -29.082  -4.238  14.766  1.00  0.00     0.041 C 
ATOM      8  O   UNL     1     -30.000  -5.065  14.523  1.00  0.00    -0.550 OA
ATOM      9  O   UNL     1     -27.841  -4.386  14.158  1.00  0.00    -0.550 OA
ENDBRANCH   6   7
ENDBRANCH   5   6
ENDBRANCH   4   5
ENDBRANCH   3   4
ENDBRANCH   2   3
ENDBRANCH   1   2
BRANCH   1  10
ATOM     10  C   UNL     1     -27.377  -0.759  21.366  1.00  0.00     0.027 C 
BRANCH  10  11
ATOM     11  C   UNL     1     -27.584   0.445  22.251  1.00  0.00    -0.031 C 
ATOM     12  C   UNL     1     -27.506   0.438  23.596  1.00  0.00    -0.031 C 
BRANCH  12  13
ATOM     13  C   UNL     1     -27.185  -0.769  24.445  1.00  0.00     0.027 C 
BRANCH  13  14
ATOM     14  C   UNL     1     -28.480  -1.399  24.976  1.00  0.00     0.004 C 
BRANCH  14  15
ATOM     15  C   UNL     1     -29.030  -2.499  24.053  1.00  0.00     0.000 C 
BRANCH  15  16
ATOM     16  C   UNL     1     -30.415  -2.153  23.483  1.00  0.00    -0.000 C 
BRANCH  16  17
ATOM     17  C   UNL     1     -30.949  -0.812  24.010  1.00  0.00    -0.003 C 
ATOM     18  C   UNL     1     -31.342   0.152  22.891  1.00  0.00     0.004 C 
ENDBRANCH  16  17
ENDBRANCH  15  16
ENDBRANCH  14  15
ENDBRANCH  13  14
ENDBRANCH  12  13
ENDBRANCH  10  11
ENDBRANCH   1  10
TORSDOF 13
ENDMDL
MODEL 2
REMARK VINA RESULT:    -5.417      1.436      3.154
REMARK INTER + INTRA:         -11.326
REMARK INTER:                  -9.733
REMARK INTRA:                  -1.593
REMARK UNBOUND:                -1.793
REMARK SMILES CCCCCCC=CCCCCCCCC(=O)[O-]
REMARK SMILES IDX 10 1 11 2 12 3 13 4 14 5 15 6 16 7 17 8 18 9 9 10 8 11 7 12
REMARK SMILES IDX 6 13 5 14 4 15 3 16 2 17 1 18
REMARK H PARENT
REMARK Flexibility Score: inf
ROOT
ATOM      1  C   UNL     1     -28.803  -2.249  20.733  1.00  0.00     0.004 C 
ENDROOT
BRANCH   1   2
ATOM      2  C   UNL     1     -27.989  -1.276  19.864  1.00  0.00     0.000 C 
BRANCH   2   3
ATOM      3  C   UNL     1     -28.188  -1.520  18.358  1.00  0.00     0.000 C 
BRANCH   3   4
ATOM      4  C   UNL     1     -28.884  -2.859  18.055  1.00  0.00     0.000 C 
BRANCH   4   5
ATOM      5  C   UNL     1     -28.578  -3.457  16.669  1.00  0.00     0.006 C 
BRANCH   5   6
ATOM      6  C   UNL     1     -28.451  -2.393  15.571  1.00  0.00     0.053 C 
BRANCH   6   7
ATOM      7  C   UNL     1     -27.163  -2.558  14.830  1.00  0.00     0.041 C 
ATOM      8  O   UNL     1     -26.623  -1.568  14.268  1.00  0.00    -0.550 OA
ATOM      9  O   UNL     1     -26.531  -3.795  14.802  1.00  0.00    -0.550 OA
ENDBRANCH   6   7
ENDBRANCH   5   6
ENDBRANCH   4   5
ENDBRANCH   3   4
ENDBRANCH   2   3
ENDBRANCH   1   2
BRANCH   1  10
ATOM     10  C   UNL     1     -30.200  -1.708  21.081  1.00  0.00     0.027 C 
BRANCH  10  11
ATOM     11  C   UNL     1     -30.488  -1.839  22.556  1.00  0.00    -0.031 C 
ATOM     12  C   UNL     1     -30.798  -0.817  23.376  1.00  0.00    -0.031 C 
BRANCH  12  13
ATOM     13  C   UNL     1     -30.925   0.629  22.959  1.00  0.00     0.027 C 
BRANCH  13  14
ATOM     14  C   UNL     1     -29.535   1.274  22.867  1.00  0.00     0.004 C 
BRANCH  14  15
ATOM     15  C   UNL     1     -28.514   0.629  23.818  1.00  0.00     0.000 C 
BRANCH  15  16
ATOM     16  C   UNL     1     -27.126   0.471  23.174  1.00  0.00    -0.000 C 
BRANCH  16  17
ATOM     17  C   UNL     1     -26.496  -0.899  23.466  1.00  0.00    -0.003 C 
ATOM     18  C   UNL     1     -27.356  -1.765  24.385  1.00  0.00     0.004 C 
ENDBRANCH  16  17
ENDBRANCH  15  16
ENDBRANCH  14  15
ENDBRANCH  13  14
ENDBRANCH  12  13
ENDBRANCH  10  11
ENDBRANCH   1  10
TORSDOF 13
ENDMDL
MODEL 3
REMARK VINA RESULT:    -5.401      1.165      2.539
REMARK INTER + INTRA:         -11.298
REMARK INTER:                  -9.366
REMARK INTRA:                  -1.931
REMARK UNBOUND:                -1.793
REMARK SMILES CCCCCCC=CCCCCCCCC(=O)[O-]
REMARK SMILES IDX 10 1 11 2 12 3 13 4 14 5 15 6 16 7 17 8 18 9 9 10 8 11 7 12
REMARK SMILES IDX 6 13 5 14 4 15 3 16 2 17 1 18
REMARK H PARENT
REMARK Flexibility Score: inf
ROOT
ATOM      1  C   UNL     1     -30.209  -1.103  20.986  1.00  0.00     0.004 C 
ENDROOT
BRANCH   1   2
ATOM      2  C   UNL     1     -29.193  -2.226  20.725  1.00  0.00     0.000 C 
BRANCH   2   3
ATOM      3  C   UNL     1     -27.891  -1.710  20.089  1.00  0.00     0.000 C 
BRANCH   3   4
ATOM      4  C   UNL     1     -28.018  -1.468  18.574  1.00  0.00     0.000 C 
BRANCH   4   5
ATOM      5  C   UNL     1     -28.709  -2.597  17.787  1.00  0.00     0.006 C 
BRANCH   5   6
ATOM      6  C   UNL     1     -28.371  -2.580  16.291  1.00  0.00     0.053 C 
BRANCH   6   7
ATOM      7  C   UNL     1     -29.329  -3.438  15.529  1.00  0.00     0.041 C 
ATOM      8  O   UNL     1     -30.240  -2.911  14.838  1.00  0.00    -0.550 OA
ATOM      9  O   UNL     1     -29.186  -4.820  15.541  1.00  0.00    -0.550 OA
ENDBRANCH   6   7
ENDBRANCH   5   6
ENDBRANCH   4   5
ENDBRANCH   3   4
ENDBRANCH   2   3
ENDBRANCH   1   2
BRANCH   1  10
ATOM     10  C   UNL     1     -30.805  -1.159  22.402  1.00  0.00     0.027 C 
BRANCH  10  11
ATOM     11  C   UNL     1     -30.714   0.180  23.090  1.00  0.00    -0.031 C 
ATOM     12  C   UNL     1     -30.472   0.360  24.403  1.00  0.00    -0.031 C 
BRANCH  12  13
ATOM     13  C   UNL     1     -30.238  -0.744  25.406  1.00  0.00     0.027 C 
BRANCH  13  14
ATOM     14  C   UNL     1     -28.733  -0.968  25.603  1.00  0.00     0.004 C 
BRANCH  14  15
ATOM     15  C   UNL     1     -28.170  -2.073  24.694  1.00  0.00     0.000 C 
BRANCH  15  16
ATOM     16  C   UNL     1     -27.166  -1.534  23.661  1.00  0.00    -0.000 C 
BRANCH  16  17
ATOM     17  C   UNL     1     -26.784  -0.069  23.923  1.00  0.00    -0.003 C 
ATOM     18  C   UNL     1     -27.161   0.859  22.769  1.00  0.00     0.004 C 
ENDBRANCH  16  17
ENDBRANCH  15  16
ENDBRANCH  14  15
ENDBRANCH  13  14
ENDBRANCH  12  13
ENDBRANCH  10  11
ENDBRANCH   1  10
TORSDOF 13
ENDMDL
MODEL 4
REMARK VINA RESULT:    -5.376      1.073      2.448
REMARK INTER + INTRA:         -11.254
REMARK INTER:                  -9.484
REMARK INTRA:                  -1.770
REMARK UNBOUND:                -1.793
REMARK SMILES CCCCCCC=CCCCCCCCC(=O)[O-]
REMARK SMILES IDX 10 1 11 2 12 3 13 4 14 5 15 6 16 7 17 8 18 9 9 10 8 11 7 12
REMARK SMILES IDX 6 13 5 14 4 15 3 16 2 17 1 18
REMARK H PARENT
REMARK Flexibility Score: inf
ROOT
ATOM      1  C   UNL     1     -28.233  -1.167  20.287  1.00  0.00     0.004 C 
ENDROOT
BRANCH   1   2
ATOM      2  C   UNL     1     -28.811  -2.574  20.066  1.00  0.00     0.000 C 
BRANCH   2   3
ATOM      3  C   UNL     1     -29.005  -2.907  18.577  1.00  0.00     0.000 C 
BRANCH   3   4
ATOM      4  C   UNL     1     -28.234  -1.955  17.644  1.00  0.00     0.000 C 
BRANCH   4   5
ATOM      5  C   UNL     1     -28.184  -2.385  16.167  1.00  0.00     0.006 C 
BRANCH   5   6
ATOM      6  C   UNL     1     -28.608  -3.843  15.951  1.00  0.00     0.053 C 
BRANCH   6   7
ATOM      7  C   UNL     1     -29.730  -3.921  14.965  1.00  0.00     0.041 C 
ATOM      8  O   UNL     1     -30.522  -2.951  14.828  1.00  0.00    -0.550 OA
ATOM      9  O   UNL     1     -29.873  -5.045  14.162  1.00  0.00    -0.550 OA
ENDBRANCH   6   7
ENDBRANCH   5   6
ENDBRANCH   4   5
ENDBRANCH   3   4
ENDBRANCH   2   3
ENDBRANCH   1   2
BRANCH   1  10
ATOM     10  C   UNL     1     -29.197  -0.242  21.049  1.00  0.00     0.027 C 
BRANCH  10  11
ATOM     11  C   UNL     1     -30.424  -0.989  21.512  1.00  0.00    -0.031 C 
ATOM     12  C   UNL     1     -30.958  -0.907  22.745  1.00  0.00    -0.031 C 
BRANCH  12  13
ATOM     13  C   UNL     1     -30.432  -0.046  23.868  1.00  0.00     0.027 C 
BRANCH  13  14
ATOM     14  C   UNL     1     -30.011  -0.924  25.054  1.00  0.00     0.004 C 
BRANCH  14  15
ATOM     15  C   UNL     1     -28.495  -0.898  25.306  1.00  0.00     0.000 C 
BRANCH  15  16
ATOM     16  C   UNL     1     -27.725  -1.853  24.379  1.00  0.00    -0.000 C 
BRANCH  16  17
ATOM     17  C   UNL     1     -26.631  -1.135  23.574  1.00  0.00    -0.003 C 
ATOM     18  C   UNL     1     -26.723   0.388  23.673  1.00  0.00     0.004 C 
ENDBRANCH  16  17
ENDBRANCH  15  16
ENDBRANCH  14  15
ENDBRANCH  13  14
ENDBRANCH  12  13
ENDBRANCH  10  11
ENDBRANCH   1  10
TORSDOF 13
ENDMDL
MODEL 5
REMARK VINA RESULT:    -5.359      1.017      1.566
REMARK INTER + INTRA:         -11.225
REMARK INTER:                  -9.629
REMARK INTRA:                  -1.596
REMARK UNBOUND:                -1.793
REMARK SMILES CCCCCCC=CCCCCCCCC(=O)[O-]
REMARK SMILES IDX 10 1 11 2 12 3 13 4 14 5 15 6 16 7 17 8 18 9 9 10 8 11 7 12
REMARK SMILES IDX 6 13 5 14 4 15 3 16 2 17 1 18
REMARK H PARENT
REMARK Flexibility Score: inf
ROOT
ATOM      1  C   UNL     1     -27.582  -1.266  20.388  1.00  0.00     0.004 C 
ENDROOT
BRANCH   1   2
ATOM      2  C   UNL     1     -28.698  -2.317  20.290  1.00  0.00     0.000 C 
BRANCH   2   3
ATOM      3  C   UNL     1     -29.054  -2.670  18.835  1.00  0.00     0.000 C 
BRANCH   3   4
ATOM      4  C   UNL     1     -28.222  -1.882  17.808  1.00  0.00     0.000 C 
BRANCH   4   5
ATOM      5  C   UNL     1     -28.223  -2.463  16.382  1.00  0.00     0.006 C 
BRANCH   5   6
ATOM      6  C   UNL     1     -28.612  -3.946  16.338  1.00  0.00     0.053 C 
BRANCH   6   7
ATOM      7  C   UNL     1     -29.467  -4.227  15.144  1.00  0.00     0.041 C 
ATOM      8  O   UNL     1     -29.153  -5.144  14.340  1.00  0.00    -0.550 OA
ATOM      9  O   UNL     1     -30.639  -3.508  14.944  1.00  0.00    -0.550 OA
ENDBRANCH   6   7
ENDBRANCH   5   6
ENDBRANCH   4   5
ENDBRANCH   3   4
ENDBRANCH   2   3
ENDBRANCH   1   2
BRANCH   1  10
ATOM     10  C   UNL     1     -27.574  -0.532  21.739  1.00  0.00     0.027 C 
BRANCH  10  11
ATOM     11  C   UNL     1     -27.121  -1.441  22.855  1.00  0.00    -0.031 C 
ATOM     12  C   UNL     1     -27.006  -1.079  24.147  1.00  0.00    -0.031 C 
BRANCH  12  13
ATOM     13  C   UNL     1     -27.324   0.288  24.702  1.00  0.00     0.027 C 
BRANCH  13  14
ATOM     14  C   UNL     1     -28.272   0.164  25.903  1.00  0.00     0.004 C 
BRANCH  14  15
ATOM     15  C   UNL     1     -29.509  -0.697  25.600  1.00  0.00     0.000 C 
BRANCH  15  16
ATOM     16  C   UNL     1     -30.547   0.043  24.740  1.00  0.00    -0.000 C 
BRANCH  16  17
ATOM     17  C   UNL     1     -30.882  -0.712  23.444  1.00  0.00    -0.003 C 
ATOM     18  C   UNL     1     -30.744  -2.227  23.587  1.00  0.00     0.004 C 
ENDBRANCH  16  17
ENDBRANCH  15  16
ENDBRANCH  14  15
ENDBRANCH  13  14
ENDBRANCH  12  13
ENDBRANCH  10  11
ENDBRANCH   1  10
TORSDOF 13
ENDMDL
MODEL 6
REMARK VINA RESULT:    -5.302      1.730      2.941
REMARK INTER + INTRA:         -11.124
REMARK INTER:                  -9.538
REMARK INTRA:                  -1.586
REMARK UNBOUND:                -1.793
REMARK SMILES CCCCCCC=CCCCCCCCC(=O)[O-]
REMARK SMILES IDX 10 1 11 2 12 3 13 4 14 5 15 6 16 7 17 8 18 9 9 10 8 11 7 12
REMARK SMILES IDX 6 13 5 14 4 15 3 16 2 17 1 18
REMARK H PARENT
REMARK Flexibility Score: inf
ROOT
ATOM      1  C   UNL     1     -27.876  -1.501  19.990  1.00  0.00     0.004 C 
ENDROOT
BRANCH   1   2
ATOM      2  C   UNL     1     -27.938  -1.594  18.457  1.00  0.00     0.000 C 
BRANCH   2   3
ATOM      3  C   UNL     1     -28.744  -2.811  17.970  1.00  0.00     0.000 C 
BRANCH   3   4
ATOM      4  C   UNL     1     -28.851  -2.883  16.436  1.00  0.00     0.000 C 
BRANCH   4   5
ATOM      5  C   UNL     1     -27.836  -3.817  15.753  1.00  0.00     0.006 C 
BRANCH   5   6
ATOM      6  C   UNL     1     -27.579  -3.454  14.285  1.00  0.00     0.053 C 
BRANCH   6   7
ATOM      7  C   UNL     1     -26.502  -2.421  14.183  1.00  0.00     0.041 C 
ATOM      8  O   UNL     1     -25.304  -2.770  14.009  1.00  0.00    -0.550 OA
ATOM      9  O   UNL     1     -26.827  -1.071  14.230  1.00  0.00    -0.550 OA
ENDBRANCH   6   7
ENDBRANCH   5   6
ENDBRANCH   4   5
ENDBRANCH   3   4
ENDBRANCH   2   3
ENDBRANCH   1   2
BRANCH   1  10
ATOM     10  C   UNL     1     -29.077  -2.175  20.675  1.00  0.00     0.027 C 
BRANCH  10  11
ATOM     11  C   UNL     1     -30.108  -1.159  21.099  1.00  0.00    -0.031 C 
ATOM     12  C   UNL     1     -30.751  -1.158  22.283  1.00  0.00    -0.031 C 
BRANCH  12  13
ATOM     13  C   UNL     1     -30.540  -2.163  23.390  1.00  0.00     0.027 C 
BRANCH  13  14
ATOM     14  C   UNL     1     -29.524  -1.623  24.406  1.00  0.00     0.004 C 
BRANCH  14  15
ATOM     15  C   UNL     1     -28.173  -2.354  24.346  1.00  0.00     0.000 C 
BRANCH  15  16
ATOM     16  C   UNL     1     -27.075  -1.512  23.677  1.00  0.00    -0.000 C 
BRANCH  16  17
ATOM     17  C   UNL     1     -27.153  -0.028  24.067  1.00  0.00    -0.003 C 
ATOM     18  C   UNL     1     -27.367   0.892  22.865  1.00  0.00     0.004 C 
ENDBRANCH  16  17
ENDBRANCH  15  16
ENDBRANCH  14  15
ENDBRANCH  13  14
ENDBRANCH  12  13
ENDBRANCH  10  11
ENDBRANCH   1  10
TORSDOF 13
ENDMDL
MODEL 7
REMARK VINA RESULT:    -5.275      7.700     10.860
REMARK INTER + INTRA:         -11.077
REMARK INTER:                  -9.328
REMARK INTRA:                  -1.749
REMARK UNBOUND:                -1.793
REMARK SMILES CCCCCCC=CCCCCCCCC(=O)[O-]
REMARK SMILES IDX 10 1 11 2 12 3 13 4 14 5 15 6 16 7 17 8 18 9 9 10 8 11 7 12
REMARK SMILES IDX 6 13 5 14 4 15 3 16 2 17 1 18
REMARK H PARENT
REMARK Flexibility Score: inf
ROOT
ATOM      1  C   UNL     1     -28.858  -0.201  26.731  1.00  0.00     0.004 C 
ENDROOT
BRANCH   1   2
ATOM      2  C   UNL     1     -29.725   1.050  26.947  1.00  0.00     0.000 C 
BRANCH   2   3
ATOM      3  C   UNL     1     -30.350   1.101  28.352  1.00  0.00     0.000 C 
BRANCH   3   4
ATOM      4  C   UNL     1     -29.297   1.139  29.475  1.00  0.00     0.000 C 
BRANCH   4   5
ATOM      5  C   UNL     1     -29.853   1.420  30.883  1.00  0.00     0.006 C 
BRANCH   5   6
ATOM      6  C   UNL     1     -30.227   2.891  31.098  1.00  0.00     0.053 C 
BRANCH   6   7
ATOM      7  C   UNL     1     -31.199   3.023  32.227  1.00  0.00     0.041 C 
ATOM      8  O   UNL     1     -32.349   2.517  32.137  1.00  0.00    -0.550 OA
ATOM      9  O   UNL     1     -30.819   3.663  33.400  1.00  0.00    -0.550 OA
ENDBRANCH   6   7
ENDBRANCH   5   6
ENDBRANCH   4   5
ENDBRANCH   3   4
ENDBRANCH   2   3
ENDBRANCH   1   2
BRANCH   1  10
ATOM     10  C   UNL     1     -27.681   0.051  25.774  1.00  0.00     0.027 C 
BRANCH  10  11
ATOM     11  C   UNL     1     -27.439  -1.137  24.877  1.00  0.00    -0.031 C 
ATOM     12  C   UNL     1     -27.307  -1.080  23.538  1.00  0.00    -0.031 C 
BRANCH  12  13
ATOM     13  C   UNL     1     -27.364   0.181  22.709  1.00  0.00     0.027 C 
BRANCH  13  14
ATOM     14  C   UNL     1     -28.758   0.341  22.088  1.00  0.00     0.004 C 
BRANCH  14  15
ATOM     15  C   UNL     1     -29.667   1.280  22.897  1.00  0.00     0.000 C 
BRANCH  15  16
ATOM     16  C   UNL     1     -30.879   0.553  23.502  1.00  0.00    -0.000 C 
BRANCH  16  17
ATOM     17  C   UNL     1     -31.044  -0.872  22.950  1.00  0.00    -0.003 C 
ATOM     18  C   UNL     1     -31.270  -1.912  24.046  1.00  0.00     0.004 C 
ENDBRANCH  16  17
ENDBRANCH  15  16
ENDBRANCH  14  15
ENDBRANCH  13  14
ENDBRANCH  12  13
ENDBRANCH  10  11
ENDBRANCH   1  10
TORSDOF 13
ENDMDL
MODEL 8
REMARK VINA RESULT:    -5.191      7.935     11.208
REMARK INTER + INTRA:         -10.929
REMARK INTER:                  -9.244
REMARK INTRA:                  -1.686
REMARK UNBOUND:                -1.793
REMARK SMILES CCCCCCC=CCCCCCCCC(=O)[O-]
REMARK SMILES IDX 10 1 11 2 12 3 13 4 14 5 15 6 16 7 17 8 18 9 9 10 8 11 7 12
REMARK SMILES IDX 6 13 5 14 4 15 3 16 2 17 1 18
REMARK H PARENT
REMARK Flexibility Score: inf
ROOT
ATOM      1  C   UNL     1     -29.670   0.730  26.765  1.00  0.00     0.004 C 
ENDROOT
BRANCH   1   2
ATOM      2  C   UNL     1     -30.027   1.144  28.201  1.00  0.00     0.000 C 
BRANCH   2   3
ATOM      3  C   UNL     1     -28.978   0.683  29.228  1.00  0.00     0.000 C 
BRANCH   3   4
ATOM      4  C   UNL     1     -29.311   1.124  30.664  1.00  0.00     0.000 C 
BRANCH   4   5
ATOM      5  C   UNL     1     -30.422   2.185  30.782  1.00  0.00     0.006 C 
BRANCH   5   6
ATOM      6  C   UNL     1     -30.481   2.840  32.167  1.00  0.00     0.053 C 
BRANCH   6   7
ATOM      7  C   UNL     1     -30.658   1.802  33.229  1.00  0.00     0.041 C 
ATOM      8  O   UNL     1     -29.765   1.628  34.100  1.00  0.00    -0.550 OA
ATOM      9  O   UNL     1     -31.832   1.061  33.288  1.00  0.00    -0.550 OA
ENDBRANCH   6   7
ENDBRANCH   5   6
ENDBRANCH   4   5
ENDBRANCH   3   4
ENDBRANCH   2   3
ENDBRANCH   1   2
BRANCH   1  10
ATOM     10  C   UNL     1     -28.639  -0.410  26.714  1.00  0.00     0.027 C 
BRANCH  10  11
ATOM     11  C   UNL     1     -27.680  -0.232  25.563  1.00  0.00    -0.031 C 
ATOM     12  C   UNL     1     -27.508  -1.111  24.558  1.00  0.00    -0.031 C 
BRANCH  12  13
ATOM     13  C   UNL     1     -28.254  -2.414  24.402  1.00  0.00     0.027 C 
BRANCH  13  14
ATOM     14  C   UNL     1     -29.369  -2.262  23.358  1.00  0.00     0.004 C 
BRANCH  14  15
ATOM     15  C   UNL     1     -30.707  -1.823  23.975  1.00  0.00     0.000 C 
BRANCH  15  16
ATOM     16  C   UNL     1     -31.206  -0.482  23.410  1.00  0.00    -0.000 C 
BRANCH  16  17
ATOM     17  C   UNL     1     -30.228   0.125  22.391  1.00  0.00    -0.003 C 
ATOM     18  C   UNL     1     -29.614   1.440  22.868  1.00  0.00     0.004 C 
ENDBRANCH  16  17
ENDBRANCH  15  16
ENDBRANCH  14  15
ENDBRANCH  13  14
ENDBRANCH  12  13
ENDBRANCH  10  11
ENDBRANCH   1  10
TORSDOF 13
ENDMDL
MODEL 9
REMARK VINA RESULT:    -5.093      7.831     11.332
REMARK INTER + INTRA:         -10.757
REMARK INTER:                  -9.184
REMARK INTRA:                  -1.574
REMARK UNBOUND:                -1.793
REMARK SMILES CCCCCCC=CCCCCCCCC(=O)[O-]
REMARK SMILES IDX 10 1 11 2 12 3 13 4 14 5 15 6 16 7 17 8 18 9 9 10 8 11 7 12
REMARK SMILES IDX 6 13 5 14 4 15 3 16 2 17 1 18
REMARK H PARENT
REMARK Flexibility Score: inf
ROOT
ATOM      1  C   UNL     1     -29.052   0.380  26.383  1.00  0.00     0.004 C 
ENDROOT
BRANCH   1   2
ATOM      2  C   UNL     1     -28.851   0.372  27.907  1.00  0.00     0.000 C 
BRANCH   2   3
ATOM      3  C   UNL     1     -29.958   1.134  28.654  1.00  0.00     0.000 C 
BRANCH   3   4
ATOM      4  C   UNL     1     -29.618   1.385  30.134  1.00  0.00     0.000 C 
BRANCH   4   5
ATOM      5  C   UNL     1     -30.376   2.554  30.790  1.00  0.00     0.006 C 
BRANCH   5   6
ATOM      6  C   UNL     1     -30.190   2.611  32.312  1.00  0.00     0.053 C 
BRANCH   6   7
ATOM      7  C   UNL     1     -31.319   1.915  33.003  1.00  0.00     0.041 C 
ATOM      8  O   UNL     1     -31.107   1.250  34.051  1.00  0.00    -0.550 OA
ATOM      9  O   UNL     1     -32.614   2.042  32.517  1.00  0.00    -0.550 OA
ENDBRANCH   6   7
ENDBRANCH   5   6
ENDBRANCH   4   5
ENDBRANCH   3   4
ENDBRANCH   2   3
ENDBRANCH   1   2
BRANCH   1  10
ATOM     10  C   UNL     1     -30.511   0.116  25.975  1.00  0.00     0.027 C 
BRANCH  10  11
ATOM     11  C   UNL     1     -30.626  -1.121  25.119  1.00  0.00    -0.031 C 
ATOM     12  C   UNL     1     -30.806  -1.122  23.784  1.00  0.00    -0.031 C 
BRANCH  12  13
ATOM     13  C   UNL     1     -30.910   0.109  22.917  1.00  0.00     0.027 C 
BRANCH  13  14
ATOM     14  C   UNL     1     -29.603   0.319  22.140  1.00  0.00     0.004 C 
BRANCH  14  15
ATOM     15  C   UNL     1     -28.694   1.382  22.778  1.00  0.00     0.000 C 
BRANCH  15  16
ATOM     16  C   UNL     1     -27.300   0.834  23.128  1.00  0.00    -0.000 C 
BRANCH  16  17
ATOM     17  C   UNL     1     -27.183  -0.677  22.875  1.00  0.00    -0.003 C 
ATOM     18  C   UNL     1     -26.731  -1.453  24.112  1.00  0.00     0.004 C 
ENDBRANCH  16  17
ENDBRANCH  15  16
ENDBRANCH  14  15
ENDBRANCH  13  14
ENDBRANCH  12  13
ENDBRANCH  10  11
ENDBRANCH   1  10
TORSDOF 13
ENDMDL
