MODEL 1
REMARK VINA RESULT:    -3.519      0.000      0.000
REMARK INTER + INTRA:          -3.455
REMARK INTER:                  -3.827
REMARK INTRA:                   0.372
REMARK UNBOUND:                 0.372
REMARK SMILES C[C@H]1[C@@H](C)CC[C@]2(C(=O)[O-])CC[C@@]3(C)C(=CC[C@H]4[C@@]5(C)CC[C@@H](O)C(C)(C)[C@H]5CC[C@]43C)[C@@H]12
REMARK SMILES IDX 7 1 6 2 11 3 33 4 5 5 12 6 15 7 2 8 3 9 13 10 16 11 1 12
REMARK SMILES IDX 4 13 14 14 31 15 17 16 18 17 30 18 32 19 19 20 29 21 28 22
REMARK SMILES IDX 21 23 20 24 25 25 22 26 23 27 26 28 27 29 8 30 9 31 10 32
REMARK SMILES IDX 24 33
REMARK H PARENT 24 34
REMARK Flexibility Score: inf
ROOT
ATOM      1  C   UNL     1      -6.418  -9.847  -9.129  1.00  0.00     0.017 C 
ATOM      2  C   UNL     1      -5.890 -10.470  -7.800  1.00  0.00     0.014 C 
ATOM      3  C   UNL     1      -5.223  -9.153  -9.879  1.00  0.00     0.014 C 
ATOM      4  C   UNL     1      -7.531  -8.806  -8.740  1.00  0.00     0.030 C 
ATOM      5  C   UNL     1      -7.004 -11.105  -6.950  1.00  0.00     0.004 C 
ATOM      6  C   UNL     1      -5.349  -7.621  -9.987  1.00  0.00     0.013 C 
ATOM      7  C   UNL     1      -7.865  -7.849  -9.895  1.00  0.00    -0.063 C 
ATOM      8  C   UNL     1      -8.702  -9.420  -7.895  1.00  0.00    -0.003 C 
ATOM      9  C   UNL     1      -8.113 -10.087  -6.616  1.00  0.00    -0.011 C 
ATOM     10  C   UNL     1      -6.704  -7.162 -10.643  1.00  0.00    -0.006 C 
ATOM     11  C   UNL     1      -9.116  -7.405 -10.113  1.00  0.00    -0.027 C 
ATOM     12  C   UNL     1      -9.652 -10.363  -8.671  1.00  0.00     0.008 C 
ATOM     13  C   UNL     1      -9.188 -10.724  -5.722  1.00  0.00     0.008 C 
ATOM     14  C   UNL     1      -6.672  -7.665 -12.124  1.00  0.00     0.017 C 
ATOM     15  C   UNL     1      -6.921  -5.561 -10.591  1.00  0.00    -0.020 C 
ATOM     16  C   UNL     1      -9.391  -6.362 -11.145  1.00  0.00     0.032 C 
ATOM     17  C   UNL     1      -8.402  -5.151 -11.048  1.00  0.00     0.006 C 
ATOM     18  C   UNL     1      -6.694  -5.025  -9.156  1.00  0.00     0.008 C 
ATOM     19  C   UNL     1      -5.862  -4.876 -11.518  1.00  0.00     0.012 C 
ATOM     20  C   UNL     1      -9.088  -3.895 -10.315  1.00  0.00    -0.025 C 
ATOM     21  C   UNL     1      -6.908  -3.516  -8.979  1.00  0.00     0.005 C 
ATOM     22  C   UNL     1      -8.012  -2.840  -9.856  1.00  0.00     0.003 C 
ATOM     23  C   UNL     1      -9.952  -4.315  -9.069  1.00  0.00     0.010 C 
ATOM     24  C   UNL     1     -10.035  -3.267 -11.389  1.00  0.00     0.012 C 
ATOM     25  C   UNL     1      -8.616  -1.519  -9.168  1.00  0.00    -0.006 C 
ATOM     26  C   UNL     1     -10.026  -3.284  -7.921  1.00  0.00     0.033 C 
ATOM     27  C   UNL     1      -9.955  -1.829  -8.398  1.00  0.00     0.120 C 
ATOM     28  C   UNL     1      -8.900  -0.434 -10.247  1.00  0.00     0.014 C 
ATOM     29  C   UNL     1      -7.586  -0.842  -8.207  1.00  0.00     0.014 C 
ENDROOT
BRANCH   1  30
ATOM     30  C   UNL     1      -6.944 -10.949 -10.046  1.00  0.00     0.048 C 
ATOM     31  O   UNL     1      -6.486 -12.121  -9.967  1.00  0.00    -0.550 OA
ATOM     32  O   UNL     1      -7.843 -10.659 -11.063  1.00  0.00    -0.550 OA
ENDBRANCH   1  30
BRANCH  27  33
ATOM     33  O   UNL     1     -10.125  -0.989  -7.282  1.00  0.00    -0.393 OA
ATOM     34  H   UNL     1      -9.455  -0.260  -7.362  1.00  0.00     0.210 HD
ENDBRANCH  27  33
TORSDOF 2
ENDMDL
MODEL 2
REMARK VINA RESULT:    -2.432      1.942      4.015
REMARK INTER + INTRA:          -2.274
REMARK INTER:                  -2.783
REMARK INTRA:                   0.509
REMARK UNBOUND:                 0.372
REMARK SMILES C[C@H]1[C@@H](C)CC[C@]2(C(=O)[O-])CC[C@@]3(C)C(=CC[C@H]4[C@@]5(C)CC[C@@H](O)C(C)(C)[C@H]5CC[C@]43C)[C@@H]12
REMARK SMILES IDX 7 1 6 2 11 3 33 4 5 5 12 6 15 7 2 8 3 9 13 10 16 11 1 12
REMARK SMILES IDX 4 13 14 14 31 15 17 16 18 17 30 18 32 19 19 20 29 21 28 22
REMARK SMILES IDX 21 23 20 24 25 25 22 26 23 27 26 28 27 29 8 30 9 31 10 32
REMARK SMILES IDX 24 33
REMARK H PARENT 24 34
REMARK Flexibility Score: inf
ROOT
ATOM      1  C   UNL     1      -6.016 -10.505  -9.404  1.00  0.00     0.017 C 
ATOM      2  C   UNL     1      -5.327 -11.256 -10.585  1.00  0.00     0.014 C 
ATOM      3  C   UNL     1      -7.576 -10.628  -9.560  1.00  0.00     0.014 C 
ATOM      4  C   UNL     1      -5.550  -9.005  -9.476  1.00  0.00     0.030 C 
ATOM      5  C   UNL     1      -3.794 -11.125 -10.567  1.00  0.00     0.004 C 
ATOM      6  C   UNL     1      -8.290  -9.292  -9.839  1.00  0.00     0.013 C 
ATOM      7  C   UNL     1      -6.433  -8.078  -8.626  1.00  0.00    -0.063 C 
ATOM      8  C   UNL     1      -3.991  -8.826  -9.432  1.00  0.00    -0.003 C 
ATOM      9  C   UNL     1      -3.351  -9.648 -10.590  1.00  0.00    -0.011 C 
ATOM     10  C   UNL     1      -7.966  -8.187  -8.766  1.00  0.00    -0.006 C 
ATOM     11  C   UNL     1      -5.926  -7.024  -7.962  1.00  0.00    -0.027 C 
ATOM     12  C   UNL     1      -3.332  -9.115  -8.063  1.00  0.00     0.008 C 
ATOM     13  C   UNL     1      -1.818  -9.538 -10.626  1.00  0.00     0.008 C 
ATOM     14  C   UNL     1      -8.574  -8.690  -7.415  1.00  0.00     0.017 C 
ATOM     15  C   UNL     1      -8.562  -6.735  -9.152  1.00  0.00    -0.020 C 
ATOM     16  C   UNL     1      -6.822  -6.053  -7.266  1.00  0.00     0.032 C 
ATOM     17  C   UNL     1      -8.018  -5.592  -8.169  1.00  0.00     0.006 C 
ATOM     18  C   UNL     1      -8.169  -6.351 -10.600  1.00  0.00     0.008 C 
ATOM     19  C   UNL     1     -10.125  -6.797  -9.094  1.00  0.00     0.012 C 
ATOM     20  C   UNL     1      -7.750  -4.136  -8.793  1.00  0.00    -0.025 C 
ATOM     21  C   UNL     1      -8.653  -4.971 -11.066  1.00  0.00     0.005 C 
ATOM     22  C   UNL     1      -8.726  -3.836  -9.993  1.00  0.00     0.003 C 
ATOM     23  C   UNL     1      -6.268  -3.947  -9.285  1.00  0.00     0.010 C 
ATOM     24  C   UNL     1      -8.016  -3.136  -7.620  1.00  0.00     0.012 C 
ATOM     25  C   UNL     1      -8.570  -2.373 -10.639  1.00  0.00    -0.006 C 
ATOM     26  C   UNL     1      -6.071  -2.998 -10.488  1.00  0.00     0.033 C 
ATOM     27  C   UNL     1      -7.087  -1.850 -10.536  1.00  0.00     0.120 C 
ATOM     28  C   UNL     1      -9.507  -1.363  -9.913  1.00  0.00     0.014 C 
ATOM     29  C   UNL     1      -9.052  -2.340 -12.125  1.00  0.00     0.014 C 
ENDROOT
BRANCH   1  30
ATOM     30  C   UNL     1      -5.644 -11.169  -8.080  1.00  0.00     0.048 C 
ATOM     31  O   UNL     1      -4.677 -11.976  -8.017  1.00  0.00    -0.550 OA
ATOM     32  O   UNL     1      -6.432 -10.997  -6.951  1.00  0.00    -0.550 OA
ENDBRANCH   1  30
BRANCH  27  33
ATOM     33  O   UNL     1      -6.753  -1.008 -11.613  1.00  0.00    -0.393 OA
ATOM     34  H   UNL     1      -6.528  -0.121 -11.228  1.00  0.00     0.210 HD
ENDBRANCH  27  33
TORSDOF 2
ENDMDL
MODEL 3
REMARK VINA RESULT:    -0.815     11.042     13.306
REMARK INTER + INTRA:          -0.515
REMARK INTER:                  -0.794
REMARK INTRA:                   0.280
REMARK UNBOUND:                 0.372
REMARK SMILES C[C@H]1[C@@H](C)CC[C@]2(C(=O)[O-])CC[C@@]3(C)C(=CC[C@H]4[C@@]5(C)CC[C@@H](O)C(C)(C)[C@H]5CC[C@]43C)[C@@H]12
REMARK SMILES IDX 7 1 6 2 11 3 33 4 5 5 12 6 15 7 2 8 3 9 13 10 16 11 1 12
REMARK SMILES IDX 4 13 14 14 31 15 17 16 18 17 30 18 32 19 19 20 29 21 28 22
REMARK SMILES IDX 21 23 20 24 25 25 22 26 23 27 26 28 27 29 8 30 9 31 10 32
REMARK SMILES IDX 24 33
REMARK H PARENT 24 34
REMARK Flexibility Score: inf
ROOT
ATOM      1  C   UNL     1       7.296  -9.045  -8.867  1.00  0.00     0.017 C 
ATOM      2  C   UNL     1       6.929 -10.479  -8.376  1.00  0.00     0.014 C 
ATOM      3  C   UNL     1       7.301  -8.068  -7.635  1.00  0.00     0.014 C 
ATOM      4  C   UNL     1       6.209  -8.627  -9.925  1.00  0.00     0.030 C 
ATOM      5  C   UNL     1       6.818 -11.497  -9.524  1.00  0.00     0.004 C 
ATOM      6  C   UNL     1       6.201  -6.990  -7.680  1.00  0.00     0.013 C 
ATOM      7  C   UNL     1       6.217  -7.116 -10.204  1.00  0.00    -0.063 C 
ATOM      8  C   UNL     1       6.083  -9.626 -11.128  1.00  0.00    -0.003 C 
ATOM      9  C   UNL     1       5.784 -11.053 -10.578  1.00  0.00    -0.011 C 
ATOM     10  C   UNL     1       6.224  -6.143  -9.006  1.00  0.00    -0.006 C 
ATOM     11  C   UNL     1       5.971  -6.618 -11.430  1.00  0.00    -0.027 C 
ATOM     12  C   UNL     1       7.266  -9.610 -12.125  1.00  0.00     0.008 C 
ATOM     13  C   UNL     1       5.648 -12.106 -11.688  1.00  0.00     0.008 C 
ATOM     14  C   UNL     1       7.568  -5.343  -8.998  1.00  0.00     0.017 C 
ATOM     15  C   UNL     1       4.964  -5.139  -9.139  1.00  0.00    -0.020 C 
ATOM     16  C   UNL     1       5.837  -5.147 -11.646  1.00  0.00     0.032 C 
ATOM     17  C   UNL     1       4.891  -4.473 -10.595  1.00  0.00     0.006 C 
ATOM     18  C   UNL     1       3.635  -5.894  -8.887  1.00  0.00     0.008 C 
ATOM     19  C   UNL     1       5.085  -4.029  -8.042  1.00  0.00     0.012 C 
ATOM     20  C   UNL     1       3.434  -4.194 -11.214  1.00  0.00    -0.025 C 
ATOM     21  C   UNL     1       2.365  -5.045  -9.021  1.00  0.00     0.005 C 
ATOM     22  C   UNL     1       2.376  -3.900 -10.086  1.00  0.00     0.003 C 
ATOM     23  C   UNL     1       2.912  -5.383 -12.103  1.00  0.00     0.010 C 
ATOM     24  C   UNL     1       3.615  -2.935 -12.125  1.00  0.00     0.012 C 
ATOM     25  C   UNL     1       0.901  -3.547 -10.620  1.00  0.00    -0.006 C 
ATOM     26  C   UNL     1       1.381  -5.588 -12.125  1.00  0.00     0.033 C 
ATOM     27  C   UNL     1       0.586  -4.286 -11.976  1.00  0.00     0.120 C 
ATOM     28  C   UNL     1       0.764  -2.013 -10.844  1.00  0.00     0.014 C 
ATOM     29  C   UNL     1      -0.196  -3.879  -9.558  1.00  0.00     0.014 C 
ENDROOT
BRANCH   1  30
ATOM     30  C   UNL     1       8.708  -9.040  -9.449  1.00  0.00     0.048 C 
ATOM     31  O   UNL     1       9.447 -10.056  -9.343  1.00  0.00    -0.550 OA
ATOM     32  O   UNL     1       9.250  -7.884  -9.994  1.00  0.00    -0.550 OA
ENDBRANCH   1  30
BRANCH  27  33
ATOM     33  O   UNL     1      -0.783  -4.586 -12.103  1.00  0.00    -0.393 OA
ATOM     34  H   UNL     1      -0.858  -5.574 -12.175  1.00  0.00     0.210 HD
ENDBRANCH  27  33
TORSDOF 2
ENDMDL
