MODEL 1
REMARK VINA RESULT:    -5.438      0.000      0.000
REMARK INTER + INTRA:          -5.927
REMARK INTER:                  -5.756
REMARK INTRA:                  -0.171
REMARK UNBOUND:                -0.171
REMARK SMILES CC(C)[C@H]1CC[C@H](C)CC1=O
REMARK SMILES IDX 8 1 7 2 6 3 5 4 4 5 10 6 11 7 9 8 2 9 1 10 3 11
REMARK H PARENT
REMARK Flexibility Score: inf
ROOT
ATOM      1  C   UNL     1     135.516   6.571  94.986  1.00  0.00     0.008 C 
ATOM      2  C   UNL     1     135.608   5.073  94.680  1.00  0.00    -0.007 C 
ATOM      3  C   UNL     1     136.461   4.354  95.742  1.00  0.00     0.004 C 
ATOM      4  C   UNL     1     136.594   2.860  95.415  1.00  0.00     0.012 C 
ATOM      5  C   UNL     1     135.211   2.169  95.350  1.00  0.00     0.058 C 
ATOM      6  C   UNL     1     134.287   2.959  94.438  1.00  0.00     0.136 C 
ATOM      7  O   UNL     1     133.532   2.396  93.658  1.00  0.00    -0.299 OA
ATOM      8  C   UNL     1     134.201   4.452  94.601  1.00  0.00     0.079 C 
ENDROOT
BRANCH   5   9
ATOM      9  C   UNL     1     135.292   0.653  94.981  1.00  0.00    -0.007 C 
ATOM     10  C   UNL     1     136.711   0.184  94.612  1.00  0.00     0.008 C 
ATOM     11  C   UNL     1     134.715  -0.237  96.093  1.00  0.00     0.008 C 
ENDBRANCH   5   9
TORSDOF 1
ENDMDL
MODEL 2
REMARK VINA RESULT:    -4.988      1.254      4.198
REMARK INTER + INTRA:          -5.450
REMARK INTER:                  -5.273
REMARK INTRA:                  -0.177
REMARK UNBOUND:                -0.171
REMARK SMILES CC(C)[C@H]1CC[C@H](C)CC1=O
REMARK SMILES IDX 8 1 7 2 6 3 5 4 4 5 10 6 11 7 9 8 2 9 1 10 3 11
REMARK H PARENT
REMARK Flexibility Score: inf
ROOT
ATOM      1  C   UNL     1     136.735  -0.849  95.017  1.00  0.00     0.008 C 
ATOM      2  C   UNL     1     136.033   0.496  95.227  1.00  0.00    -0.007 C 
ATOM      3  C   UNL     1     136.973   1.661  94.859  1.00  0.00     0.004 C 
ATOM      4  C   UNL     1     136.290   3.013  95.111  1.00  0.00     0.012 C 
ATOM      5  C   UNL     1     134.990   3.153  94.284  1.00  0.00     0.058 C 
ATOM      6  C   UNL     1     134.115   1.929  94.493  1.00  0.00     0.136 C 
ATOM      7  O   UNL     1     132.903   2.029  94.621  1.00  0.00    -0.299 OA
ATOM      8  C   UNL     1     134.736   0.562  94.400  1.00  0.00     0.079 C 
ENDROOT
BRANCH   5   9
ATOM      9  C   UNL     1     134.237   4.498  94.536  1.00  0.00    -0.007 C 
ATOM     10  C   UNL     1     134.500   5.100  95.928  1.00  0.00     0.008 C 
ATOM     11  C   UNL     1     134.544   5.538  93.447  1.00  0.00     0.008 C 
ENDBRANCH   5   9
TORSDOF 1
ENDMDL
MODEL 3
REMARK VINA RESULT:    -4.967      1.868      2.819
REMARK INTER + INTRA:          -5.428
REMARK INTER:                  -5.428
REMARK INTRA:                  -0.000
REMARK UNBOUND:                -0.171
REMARK SMILES CC(C)[C@H]1CC[C@H](C)CC1=O
REMARK SMILES IDX 8 1 7 2 6 3 5 4 4 5 10 6 11 7 9 8 2 9 1 10 3 11
REMARK H PARENT
REMARK Flexibility Score: inf
ROOT
ATOM      1  C   UNL     1     136.547   4.691  95.776  1.00  0.00     0.008 C 
ATOM      2  C   UNL     1     135.930   3.290  95.715  1.00  0.00    -0.007 C 
ATOM      3  C   UNL     1     134.524   3.345  95.086  1.00  0.00     0.004 C 
ATOM      4  C   UNL     1     133.882   1.950  95.064  1.00  0.00     0.012 C 
ATOM      5  C   UNL     1     134.740   0.945  94.258  1.00  0.00     0.058 C 
ATOM      6  C   UNL     1     136.179   0.995  94.743  1.00  0.00     0.136 C 
ATOM      7  O   UNL     1     136.839  -0.025  94.877  1.00  0.00    -0.299 OA
ATOM      8  C   UNL     1     136.842   2.333  94.925  1.00  0.00     0.079 C 
ENDROOT
BRANCH   5   9
ATOM      9  C   UNL     1     134.147  -0.500  94.240  1.00  0.00    -0.007 C 
ATOM     10  C   UNL     1     133.969  -1.111  95.641  1.00  0.00     0.008 C 
ATOM     11  C   UNL     1     132.821  -0.563  93.466  1.00  0.00     0.008 C 
ENDBRANCH   5   9
TORSDOF 1
ENDMDL
MODEL 4
REMARK VINA RESULT:    -4.928      1.605      4.639
REMARK INTER + INTRA:          -5.386
REMARK INTER:                  -5.239
REMARK INTRA:                  -0.147
REMARK UNBOUND:                -0.171
REMARK SMILES CC(C)[C@H]1CC[C@H](C)CC1=O
REMARK SMILES IDX 8 1 7 2 6 3 5 4 4 5 10 6 11 7 9 8 2 9 1 10 3 11
REMARK H PARENT
REMARK Flexibility Score: inf
ROOT
ATOM      1  C   UNL     1     134.116  -1.219  95.362  1.00  0.00     0.008 C 
ATOM      2  C   UNL     1     134.539   0.144  94.807  1.00  0.00    -0.007 C 
ATOM      3  C   UNL     1     133.366   1.140  94.863  1.00  0.00     0.004 C 
ATOM      4  C   UNL     1     133.771   2.496  94.266  1.00  0.00     0.012 C 
ATOM      5  C   UNL     1     134.972   3.112  95.023  1.00  0.00     0.058 C 
ATOM      6  C   UNL     1     136.087   2.086  95.136  1.00  0.00     0.136 C 
ATOM      7  O   UNL     1     137.258   2.402  94.981  1.00  0.00    -0.299 OA
ATOM      8  C   UNL     1     135.752   0.689  95.583  1.00  0.00     0.079 C 
ENDROOT
BRANCH   5   9
ATOM      9  C   UNL     1     135.447   4.475  94.428  1.00  0.00    -0.007 C 
ATOM     10  C   UNL     1     134.469   5.072  93.400  1.00  0.00     0.008 C 
ATOM     11  C   UNL     1     135.748   5.505  95.527  1.00  0.00     0.008 C 
ENDBRANCH   5   9
TORSDOF 1
ENDMDL
MODEL 5
REMARK VINA RESULT:    -4.857      1.710      2.623
REMARK INTER + INTRA:          -5.312
REMARK INTER:                  -5.139
REMARK INTRA:                  -0.173
REMARK UNBOUND:                -0.171
REMARK SMILES CC(C)[C@H]1CC[C@H](C)CC1=O
REMARK SMILES IDX 8 1 7 2 6 3 5 4 4 5 10 6 11 7 9 8 2 9 1 10 3 11
REMARK H PARENT
REMARK Flexibility Score: inf
ROOT
ATOM      1  C   UNL     1     132.880   6.397  93.888  1.00  0.00     0.008 C 
ATOM      2  C   UNL     1     133.550   5.190  94.552  1.00  0.00    -0.007 C 
ATOM      3  C   UNL     1     133.127   3.884  93.853  1.00  0.00     0.004 C 
ATOM      4  C   UNL     1     133.760   2.666  94.543  1.00  0.00     0.012 C 
ATOM      5  C   UNL     1     135.305   2.749  94.530  1.00  0.00     0.058 C 
ATOM      6  C   UNL     1     135.750   4.104  95.055  1.00  0.00     0.136 C 
ATOM      7  O   UNL     1     136.710   4.209  95.805  1.00  0.00    -0.299 OA
ATOM      8  C   UNL     1     135.082   5.345  94.532  1.00  0.00     0.079 C 
ENDROOT
BRANCH   5   9
ATOM      9  C   UNL     1     135.996   1.550  95.256  1.00  0.00    -0.007 C 
ATOM     10  C   UNL     1     135.021   0.676  96.064  1.00  0.00     0.008 C 
ATOM     11  C   UNL     1     136.800   0.678  94.279  1.00  0.00     0.008 C 
ENDBRANCH   5   9
TORSDOF 1
ENDMDL
MODEL 6
REMARK VINA RESULT:    -4.821      1.809      4.509
REMARK INTER + INTRA:          -5.273
REMARK INTER:                  -5.129
REMARK INTRA:                  -0.144
REMARK UNBOUND:                -0.171
REMARK SMILES CC(C)[C@H]1CC[C@H](C)CC1=O
REMARK SMILES IDX 8 1 7 2 6 3 5 4 4 5 10 6 11 7 9 8 2 9 1 10 3 11
REMARK H PARENT
REMARK Flexibility Score: inf
ROOT
ATOM      1  C   UNL     1     136.684   0.260  94.662  1.00  0.00     0.008 C 
ATOM      2  C   UNL     1     136.087   1.633  94.338  1.00  0.00    -0.007 C 
ATOM      3  C   UNL     1     134.562   1.529  94.145  1.00  0.00     0.004 C 
ATOM      4  C   UNL     1     133.964   2.894  93.775  1.00  0.00     0.012 C 
ATOM      5  C   UNL     1     134.248   3.951  94.869  1.00  0.00     0.058 C 
ATOM      6  C   UNL     1     135.729   3.955  95.206  1.00  0.00     0.136 C 
ATOM      7  O   UNL     1     136.334   5.001  95.395  1.00  0.00    -0.299 OA
ATOM      8  C   UNL     1     136.426   2.644  95.448  1.00  0.00     0.079 C 
ENDROOT
BRANCH   5   9
ATOM      9  C   UNL     1     133.692   5.368  94.520  1.00  0.00    -0.007 C 
ATOM     10  C   UNL     1     132.729   5.373  93.319  1.00  0.00     0.008 C 
ATOM     11  C   UNL     1     133.024   6.035  95.732  1.00  0.00     0.008 C 
ENDBRANCH   5   9
TORSDOF 1
ENDMDL
MODEL 7
REMARK VINA RESULT:    -4.752      2.335      4.534
REMARK INTER + INTRA:          -5.200
REMARK INTER:                  -5.254
REMARK INTRA:                   0.053
REMARK UNBOUND:                -0.171
REMARK SMILES CC(C)[C@H]1CC[C@H](C)CC1=O
REMARK SMILES IDX 8 1 7 2 6 3 5 4 4 5 10 6 11 7 9 8 2 9 1 10 3 11
REMARK H PARENT
REMARK Flexibility Score: inf
ROOT
ATOM      1  C   UNL     1     131.876  -0.900  92.720  1.00  0.00     0.008 C 
ATOM      2  C   UNL     1     133.096  -0.143  93.255  1.00  0.00    -0.007 C 
ATOM      3  C   UNL     1     132.765   1.349  93.453  1.00  0.00     0.004 C 
ATOM      4  C   UNL     1     133.997   2.121  93.946  1.00  0.00     0.012 C 
ATOM      5  C   UNL     1     134.521   1.554  95.287  1.00  0.00     0.058 C 
ATOM      6  C   UNL     1     134.693   0.049  95.175  1.00  0.00     0.136 C 
ATOM      7  O   UNL     1     135.660  -0.517  95.665  1.00  0.00    -0.299 OA
ATOM      8  C   UNL     1     133.584  -0.771  94.574  1.00  0.00     0.079 C 
ENDROOT
BRANCH   5   9
ATOM      9  C   UNL     1     135.799   2.283  95.811  1.00  0.00    -0.007 C 
ATOM     10  C   UNL     1     137.009   2.159  94.868  1.00  0.00     0.008 C 
ATOM     11  C   UNL     1     135.525   3.762  96.124  1.00  0.00     0.008 C 
ENDBRANCH   5   9
TORSDOF 1
ENDMDL
MODEL 8
REMARK VINA RESULT:    -4.725      1.665      4.260
REMARK INTER + INTRA:          -5.172
REMARK INTER:                  -5.014
REMARK INTRA:                  -0.158
REMARK UNBOUND:                -0.171
REMARK SMILES CC(C)[C@H]1CC[C@H](C)CC1=O
REMARK SMILES IDX 8 1 7 2 6 3 5 4 4 5 10 6 11 7 9 8 2 9 1 10 3 11
REMARK H PARENT
REMARK Flexibility Score: inf
ROOT
ATOM      1  C   UNL     1     137.156   2.061  95.009  1.00  0.00     0.008 C 
ATOM      2  C   UNL     1     135.805   2.753  95.207  1.00  0.00    -0.007 C 
ATOM      3  C   UNL     1     135.979   4.284  95.237  1.00  0.00     0.004 C 
ATOM      4  C   UNL     1     134.634   4.982  95.482  1.00  0.00     0.012 C 
ATOM      5  C   UNL     1     133.605   4.629  94.382  1.00  0.00     0.058 C 
ATOM      6  C   UNL     1     133.538   3.121  94.207  1.00  0.00     0.136 C 
ATOM      7  O   UNL     1     132.470   2.548  94.041  1.00  0.00    -0.299 OA
ATOM      8  C   UNL     1     134.819   2.341  94.099  1.00  0.00     0.079 C 
ENDROOT
BRANCH   5   9
ATOM      9  C   UNL     1     132.206   5.286  94.608  1.00  0.00    -0.007 C 
ATOM     10  C   UNL     1     132.186   6.312  95.754  1.00  0.00     0.008 C 
ATOM     11  C   UNL     1     131.659   5.923  93.321  1.00  0.00     0.008 C 
ENDBRANCH   5   9
TORSDOF 1
ENDMDL
MODEL 9
REMARK VINA RESULT:    -4.616      2.347      3.872
REMARK INTER + INTRA:          -5.056
REMARK INTER:                  -4.894
REMARK INTRA:                  -0.162
REMARK UNBOUND:                -0.171
REMARK SMILES CC(C)[C@H]1CC[C@H](C)CC1=O
REMARK SMILES IDX 8 1 7 2 6 3 5 4 4 5 10 6 11 7 9 8 2 9 1 10 3 11
REMARK H PARENT
REMARK Flexibility Score: inf
ROOT
ATOM      1  C   UNL     1     137.080   2.017  95.001  1.00  0.00     0.008 C 
ATOM      2  C   UNL     1     135.723   1.972  94.292  1.00  0.00    -0.007 C 
ATOM      3  C   UNL     1     134.856   0.827  94.852  1.00  0.00     0.004 C 
ATOM      4  C   UNL     1     133.512   0.749  94.114  1.00  0.00     0.012 C 
ATOM      5  C   UNL     1     132.718   2.071  94.242  1.00  0.00     0.058 C 
ATOM      6  C   UNL     1     133.607   3.242  93.861  1.00  0.00     0.136 C 
ATOM      7  O   UNL     1     133.179   4.172  93.192  1.00  0.00    -0.299 OA
ATOM      8  C   UNL     1     134.996   3.322  94.433  1.00  0.00     0.079 C 
ENDROOT
BRANCH   5   9
ATOM      9  C   UNL     1     131.358   2.054  93.474  1.00  0.00    -0.007 C 
ATOM     10  C   UNL     1     131.009   0.682  92.871  1.00  0.00     0.008 C 
ATOM     11  C   UNL     1     130.200   2.553  94.352  1.00  0.00     0.008 C 
ENDBRANCH   5   9
TORSDOF 1
ENDMDL
