MODEL 1
REMARK VINA RESULT:    -4.989      0.000      0.000
REMARK INTER + INTRA:          -6.336
REMARK INTER:                  -6.156
REMARK INTRA:                  -0.180
REMARK UNBOUND:                -0.180
REMARK SMILES CCCCC=CC(C)=O
REMARK SMILES IDX 4 1 3 2 2 3 1 4 5 5 6 6 7 7 9 8 8 9
REMARK H PARENT
REMARK Flexibility Score: inf
ROOT
ATOM      1  C   UNL     1     -13.649 -14.020  28.621  1.00  0.00     0.027 C 
ENDROOT
BRANCH   1   2
ATOM      2  C   UNL     1     -14.388 -14.031  29.967  1.00  0.00     0.004 C 
BRANCH   2   3
ATOM      3  C   UNL     1     -13.847 -15.111  30.915  1.00  0.00    -0.003 C 
ATOM      4  C   UNL     1     -14.414 -14.942  32.321  1.00  0.00     0.004 C 
ENDBRANCH   2   3
ENDBRANCH   1   2
BRANCH   1   5
ATOM      5  C   UNL     1     -12.760 -15.220  28.447  1.00  0.00    -0.023 C 
ATOM      6  C   UNL     1     -12.827 -15.986  27.352  1.00  0.00     0.042 C 
BRANCH   6   7
ATOM      7  C   UNL     1     -11.972 -17.171  27.137  1.00  0.00     0.152 C 
ATOM      8  O   UNL     1     -12.077 -18.144  27.930  1.00  0.00    -0.295 OA
ATOM      9  C   UNL     1     -10.985 -17.255  26.011  1.00  0.00     0.093 C 
ENDBRANCH   6   7
ENDBRANCH   1   5
TORSDOF 4
ENDMDL
MODEL 2
REMARK VINA RESULT:    -4.821      1.500      2.056
REMARK INTER + INTRA:          -6.128
REMARK INTER:                  -6.006
REMARK INTRA:                  -0.122
REMARK UNBOUND:                -0.180
REMARK SMILES CCCCC=CC(C)=O
REMARK SMILES IDX 4 1 3 2 2 3 1 4 5 5 6 6 7 7 9 8 8 9
REMARK H PARENT
REMARK Flexibility Score: inf
ROOT
ATOM      1  C   UNL     1     -13.386 -14.692  29.419  1.00  0.00     0.027 C 
ENDROOT
BRANCH   1   2
ATOM      2  C   UNL     1     -14.081 -13.876  28.319  1.00  0.00     0.004 C 
BRANCH   2   3
ATOM      3  C   UNL     1     -14.853 -12.676  28.889  1.00  0.00    -0.003 C 
ATOM      4  C   UNL     1     -16.302 -13.047  29.187  1.00  0.00     0.004 C 
ENDBRANCH   2   3
ENDBRANCH   1   2
BRANCH   1   5
ATOM      5  C   UNL     1     -12.191 -15.444  28.903  1.00  0.00    -0.023 C 
ATOM      6  C   UNL     1     -12.253 -16.169  27.780  1.00  0.00     0.042 C 
BRANCH   6   7
ATOM      7  C   UNL     1     -11.105 -16.922  27.234  1.00  0.00     0.152 C 
ATOM      8  O   UNL     1     -10.236 -17.361  28.033  1.00  0.00    -0.295 OA
ATOM      9  C   UNL     1     -10.938 -17.177  25.766  1.00  0.00     0.093 C 
ENDBRANCH   6   7
ENDBRANCH   1   5
TORSDOF 4
ENDMDL
MODEL 3
REMARK VINA RESULT:    -4.782      2.351      3.281
REMARK INTER + INTRA:          -6.081
REMARK INTER:                  -5.950
REMARK INTRA:                  -0.131
REMARK UNBOUND:                -0.180
REMARK SMILES CCCCC=CC(C)=O
REMARK SMILES IDX 4 1 3 2 2 3 1 4 5 5 6 6 7 7 9 8 8 9
REMARK H PARENT
REMARK Flexibility Score: inf
ROOT
ATOM      1  C   UNL     1     -12.413 -16.085  27.985  1.00  0.00     0.027 C 
ENDROOT
BRANCH   1   2
ATOM      2  C   UNL     1     -12.805 -14.787  28.707  1.00  0.00     0.004 C 
BRANCH   2   3
ATOM      3  C   UNL     1     -14.019 -14.107  28.057  1.00  0.00    -0.003 C 
ATOM      4  C   UNL     1     -14.668 -13.111  29.014  1.00  0.00     0.004 C 
ENDBRANCH   2   3
ENDBRANCH   1   2
BRANCH   1   5
ATOM      5  C   UNL     1     -12.900 -17.310  28.708  1.00  0.00    -0.023 C 
ATOM      6  C   UNL     1     -12.669 -18.539  28.234  1.00  0.00     0.042 C 
BRANCH   6   7
ATOM      7  C   UNL     1     -13.124 -19.771  28.911  1.00  0.00     0.152 C 
ATOM      8  O   UNL     1     -13.694 -20.661  28.225  1.00  0.00    -0.295 OA
ATOM      9  C   UNL     1     -12.936 -19.995  30.381  1.00  0.00     0.093 C 
ENDBRANCH   6   7
ENDBRANCH   1   5
TORSDOF 4
ENDMDL
MODEL 4
REMARK VINA RESULT:    -4.640      2.089      2.933
REMARK INTER + INTRA:          -5.905
REMARK INTER:                  -5.747
REMARK INTRA:                  -0.157
REMARK UNBOUND:                -0.180
REMARK SMILES CCCCC=CC(C)=O
REMARK SMILES IDX 4 1 3 2 2 3 1 4 5 5 6 6 7 7 9 8 8 9
REMARK H PARENT
REMARK Flexibility Score: inf
ROOT
ATOM      1  C   UNL     1     -11.921 -15.371  28.622  1.00  0.00     0.027 C 
ENDROOT
BRANCH   1   2
ATOM      2  C   UNL     1     -13.274 -14.894  29.171  1.00  0.00     0.004 C 
BRANCH   2   3
ATOM      3  C   UNL     1     -14.008 -13.976  28.182  1.00  0.00    -0.003 C 
ATOM      4  C   UNL     1     -14.763 -12.871  28.915  1.00  0.00     0.004 C 
ENDBRANCH   2   3
ENDBRANCH   1   2
BRANCH   1   5
ATOM      5  C   UNL     1     -11.793 -16.869  28.643  1.00  0.00    -0.023 C 
ATOM      6  C   UNL     1     -12.747 -17.645  29.170  1.00  0.00     0.042 C 
BRANCH   6   7
ATOM      7  C   UNL     1     -12.665 -19.119  29.209  1.00  0.00     0.152 C 
ATOM      8  O   UNL     1     -11.737 -19.655  29.871  1.00  0.00    -0.295 OA
ATOM      9  C   UNL     1     -13.644 -19.997  28.488  1.00  0.00     0.093 C 
ENDBRANCH   6   7
ENDBRANCH   1   5
TORSDOF 4
ENDMDL
MODEL 5
REMARK VINA RESULT:    -4.605      3.044      4.401
REMARK INTER + INTRA:          -5.862
REMARK INTER:                  -5.690
REMARK INTRA:                  -0.172
REMARK UNBOUND:                -0.180
REMARK SMILES CCCCC=CC(C)=O
REMARK SMILES IDX 4 1 3 2 2 3 1 4 5 5 6 6 7 7 9 8 8 9
REMARK H PARENT
REMARK Flexibility Score: inf
ROOT
ATOM      1  C   UNL     1     -13.694 -15.845  32.339  1.00  0.00     0.027 C 
ENDROOT
BRANCH   1   2
ATOM      2  C   UNL     1     -13.673 -17.380  32.389  1.00  0.00     0.004 C 
BRANCH   2   3
ATOM      3  C   UNL     1     -13.039 -17.991  31.130  1.00  0.00    -0.003 C 
ATOM      4  C   UNL     1     -12.840 -19.495  31.290  1.00  0.00     0.004 C 
ENDBRANCH   2   3
ENDBRANCH   1   2
BRANCH   1   5
ATOM      5  C   UNL     1     -13.597 -15.317  30.935  1.00  0.00    -0.023 C 
ATOM      6  C   UNL     1     -14.369 -14.309  30.513  1.00  0.00     0.042 C 
BRANCH   6   7
ATOM      7  C   UNL     1     -14.306 -13.755  29.145  1.00  0.00     0.152 C 
ATOM      8  O   UNL     1     -13.730 -14.426  28.248  1.00  0.00    -0.295 OA
ATOM      9  C   UNL     1     -14.901 -12.426  28.789  1.00  0.00     0.093 C 
ENDBRANCH   6   7
ENDBRANCH   1   5
TORSDOF 4
ENDMDL
MODEL 6
REMARK VINA RESULT:    -4.602      1.900      4.987
REMARK INTER + INTRA:          -5.858
REMARK INTER:                  -5.699
REMARK INTRA:                  -0.160
REMARK UNBOUND:                -0.180
REMARK SMILES CCCCC=CC(C)=O
REMARK SMILES IDX 4 1 3 2 2 3 1 4 5 5 6 6 7 7 9 8 8 9
REMARK H PARENT
REMARK Flexibility Score: inf
ROOT
ATOM      1  C   UNL     1     -12.494 -15.009  28.567  1.00  0.00     0.027 C 
ENDROOT
BRANCH   1   2
ATOM      2  C   UNL     1     -12.807 -16.077  27.510  1.00  0.00     0.004 C 
BRANCH   2   3
ATOM      3  C   UNL     1     -11.667 -17.096  27.361  1.00  0.00    -0.003 C 
ATOM      4  C   UNL     1     -11.093 -17.075  25.948  1.00  0.00     0.004 C 
ENDBRANCH   2   3
ENDBRANCH   1   2
BRANCH   1   5
ATOM      5  C   UNL     1     -13.387 -15.118  29.772  1.00  0.00    -0.023 C 
ATOM      6  C   UNL     1     -13.082 -15.922  30.797  1.00  0.00     0.042 C 
BRANCH   6   7
ATOM      7  C   UNL     1     -13.927 -16.059  32.001  1.00  0.00     0.152 C 
ATOM      8  O   UNL     1     -13.974 -17.175  32.582  1.00  0.00    -0.295 OA
ATOM      9  C   UNL     1     -14.731 -14.919  32.552  1.00  0.00     0.093 C 
ENDBRANCH   6   7
ENDBRANCH   1   5
TORSDOF 4
ENDMDL
MODEL 7
REMARK VINA RESULT:    -4.583      2.348      5.015
REMARK INTER + INTRA:          -5.835
REMARK INTER:                  -5.694
REMARK INTRA:                  -0.140
REMARK UNBOUND:                -0.180
REMARK SMILES CCCCC=CC(C)=O
REMARK SMILES IDX 4 1 3 2 2 3 1 4 5 5 6 6 7 7 9 8 8 9
REMARK H PARENT
REMARK Flexibility Score: inf
ROOT
ATOM      1  C   UNL     1     -11.298 -15.922  28.661  1.00  0.00     0.027 C 
ENDROOT
BRANCH   1   2
ATOM      2  C   UNL     1     -11.788 -17.173  27.919  1.00  0.00     0.004 C 
BRANCH   2   3
ATOM      3  C   UNL     1     -12.017 -16.907  26.423  1.00  0.00    -0.003 C 
ATOM      4  C   UNL     1     -10.793 -17.301  25.602  1.00  0.00     0.004 C 
ENDBRANCH   2   3
ENDBRANCH   1   2
BRANCH   1   5
ATOM      5  C   UNL     1     -12.411 -15.213  29.383  1.00  0.00    -0.023 C 
ATOM      6  C   UNL     1     -13.252 -14.396  28.739  1.00  0.00     0.042 C 
BRANCH   6   7
ATOM      7  C   UNL     1     -14.360 -13.682  29.406  1.00  0.00     0.152 C 
ATOM      8  O   UNL     1     -14.775 -14.111  30.515  1.00  0.00    -0.295 OA
ATOM      9  C   UNL     1     -15.008 -12.468  28.809  1.00  0.00     0.093 C 
ENDBRANCH   6   7
ENDBRANCH   1   5
TORSDOF 4
ENDMDL
MODEL 8
REMARK VINA RESULT:    -4.479      2.231      3.441
REMARK INTER + INTRA:          -5.707
REMARK INTER:                  -5.520
REMARK INTRA:                  -0.186
REMARK UNBOUND:                -0.180
REMARK SMILES CCCCC=CC(C)=O
REMARK SMILES IDX 4 1 3 2 2 3 1 4 5 5 6 6 7 7 9 8 8 9
REMARK H PARENT
REMARK Flexibility Score: inf
ROOT
ATOM      1  C   UNL     1     -12.833 -16.721  26.837  1.00  0.00     0.027 C 
ENDROOT
BRANCH   1   2
ATOM      2  C   UNL     1     -13.699 -15.475  27.072  1.00  0.00     0.004 C 
BRANCH   2   3
ATOM      3  C   UNL     1     -13.247 -14.681  28.306  1.00  0.00    -0.003 C 
ATOM      4  C   UNL     1     -14.209 -13.534  28.604  1.00  0.00     0.004 C 
ENDBRANCH   2   3
ENDBRANCH   1   2
BRANCH   1   5
ATOM      5  C   UNL     1     -12.942 -17.714  27.961  1.00  0.00    -0.023 C 
ATOM      6  C   UNL     1     -11.857 -18.180  28.590  1.00  0.00     0.042 C 
BRANCH   6   7
ATOM      7  C   UNL     1     -11.916 -19.152  29.700  1.00  0.00     0.152 C 
ATOM      8  O   UNL     1     -10.866 -19.384  30.356  1.00  0.00    -0.295 OA
ATOM      9  C   UNL     1     -13.178 -19.871  30.071  1.00  0.00     0.093 C 
ENDBRANCH   6   7
ENDBRANCH   1   5
TORSDOF 4
ENDMDL
MODEL 9
REMARK VINA RESULT:    -4.311      1.660      2.255
REMARK INTER + INTRA:          -5.499
REMARK INTER:                  -5.299
REMARK INTRA:                  -0.200
REMARK UNBOUND:                -0.180
REMARK SMILES CCCCC=CC(C)=O
REMARK SMILES IDX 4 1 3 2 2 3 1 4 5 5 6 6 7 7 9 8 8 9
REMARK H PARENT
REMARK Flexibility Score: inf
ROOT
ATOM      1  C   UNL     1     -12.722 -15.996  30.855  1.00  0.00     0.027 C 
ENDROOT
BRANCH   1   2
ATOM      2  C   UNL     1     -13.220 -16.980  31.924  1.00  0.00     0.004 C 
BRANCH   2   3
ATOM      3  C   UNL     1     -14.344 -16.382  32.783  1.00  0.00    -0.003 C 
ATOM      4  C   UNL     1     -14.648 -14.946  32.368  1.00  0.00     0.004 C 
ENDBRANCH   2   3
ENDBRANCH   1   2
BRANCH   1   5
ATOM      5  C   UNL     1     -12.809 -16.567  29.467  1.00  0.00    -0.023 C 
ATOM      6  C   UNL     1     -12.881 -15.777  28.390  1.00  0.00     0.042 C 
BRANCH   6   7
ATOM      7  C   UNL     1     -12.964 -16.293  27.008  1.00  0.00     0.152 C 
ATOM      8  O   UNL     1     -14.055 -16.189  26.389  1.00  0.00    -0.295 OA
ATOM      9  C   UNL     1     -11.797 -16.937  26.321  1.00  0.00     0.093 C 
ENDBRANCH   6   7
ENDBRANCH   1   5
TORSDOF 4
ENDMDL
