MODEL 1
REMARK VINA RESULT:    -6.104      0.000      0.000
REMARK INTER + INTRA:          -9.275
REMARK INTER:                  -8.245
REMARK INTRA:                  -1.030
REMARK UNBOUND:                -1.030
REMARK SMILES CC(=O)CCC=C(C)CCC=C(C)C
REMARK SMILES IDX 7 1 6 2 8 3 9 4 10 5 11 6 13 7 12 8 14 9 5 10 4 11 2 12 3 13
REMARK SMILES IDX 1 14
REMARK H PARENT
REMARK Flexibility Score: inf
ROOT
ATOM      1  C   UNL     1      27.838 -13.178  31.081  1.00  0.00    -0.077 C 
ATOM      2  C   UNL     1      29.058 -13.408  31.622  1.00  0.00    -0.028 C 
ATOM      3  C   UNL     1      26.747 -14.186  31.345  1.00  0.00     0.039 C 
ENDROOT
BRANCH   1   4
ATOM      4  C   UNL     1      27.515 -11.953  30.243  1.00  0.00     0.034 C 
BRANCH   4   5
ATOM      5  C   UNL     1      26.943 -12.347  28.875  1.00  0.00     0.032 C 
BRANCH   5   6
ATOM      6  C   UNL     1      27.608 -11.575  27.762  1.00  0.00    -0.028 C 
ATOM      7  C   UNL     1      28.002 -13.654  26.436  1.00  0.00     0.039 C 
ATOM      8  C   UNL     1      28.094 -12.161  26.647  1.00  0.00    -0.080 C 
ATOM      9  C   UNL     1      28.741 -11.296  25.596  1.00  0.00     0.039 C 
ENDBRANCH   5   6
ENDBRANCH   4   5
ENDBRANCH   1   4
BRANCH   2  10
ATOM     10  C   UNL     1      30.277 -12.533  31.449  1.00  0.00     0.035 C 
BRANCH  10  11
ATOM     11  C   UNL     1      31.350 -13.274  30.646  1.00  0.00     0.079 C 
BRANCH  11  12
ATOM     12  C   UNL     1      31.179 -13.022  29.171  1.00  0.00     0.130 C 
ATOM     13  O   UNL     1      30.753 -11.942  28.791  1.00  0.00    -0.300 OA
ATOM     14  C   UNL     1      31.524 -14.072  28.156  1.00  0.00     0.087 C 
ENDBRANCH  11  12
ENDBRANCH  10  11
ENDBRANCH   2  10
TORSDOF 6
ENDMDL
MODEL 2
REMARK VINA RESULT:    -6.102      1.492      4.014
REMARK INTER + INTRA:          -9.272
REMARK INTER:                  -8.350
REMARK INTRA:                  -0.922
REMARK UNBOUND:                -1.030
REMARK SMILES CC(=O)CCC=C(C)CCC=C(C)C
REMARK SMILES IDX 7 1 6 2 8 3 9 4 10 5 11 6 13 7 12 8 14 9 5 10 4 11 2 12 3 13
REMARK SMILES IDX 1 14
REMARK H PARENT
REMARK Flexibility Score: inf
ROOT
ATOM      1  C   UNL     1      28.724 -12.480  26.902  1.00  0.00    -0.077 C 
ATOM      2  C   UNL     1      29.891 -12.576  27.584  1.00  0.00    -0.028 C 
ATOM      3  C   UNL     1      28.584 -11.366  25.896  1.00  0.00     0.039 C 
ENDROOT
BRANCH   1   4
ATOM      4  C   UNL     1      27.567 -13.446  27.090  1.00  0.00     0.034 C 
BRANCH   4   5
ATOM      5  C   UNL     1      26.499 -12.862  28.023  1.00  0.00     0.032 C 
BRANCH   5   6
ATOM      6  C   UNL     1      26.716 -13.306  29.449  1.00  0.00    -0.028 C 
ATOM      7  C   UNL     1      25.016 -15.122  29.235  1.00  0.00     0.039 C 
ATOM      8  C   UNL     1      26.046 -14.335  30.011  1.00  0.00    -0.080 C 
ATOM      9  C   UNL     1      26.338 -14.695  31.444  1.00  0.00     0.039 C 
ENDBRANCH   5   6
ENDBRANCH   4   5
ENDBRANCH   1   4
BRANCH   2  10
ATOM     10  C   UNL     1      30.209 -13.603  28.645  1.00  0.00     0.035 C 
BRANCH  10  11
ATOM     11  C   UNL     1      31.503 -13.228  29.372  1.00  0.00     0.079 C 
BRANCH  11  12
ATOM     12  C   UNL     1      31.219 -12.855  30.803  1.00  0.00     0.130 C 
ATOM     13  O   UNL     1      32.135 -12.479  31.520  1.00  0.00    -0.300 OA
ATOM     14  C   UNL     1      29.832 -12.934  31.369  1.00  0.00     0.087 C 
ENDBRANCH  11  12
ENDBRANCH  10  11
ENDBRANCH   2  10
TORSDOF 6
ENDMDL
MODEL 3
REMARK VINA RESULT:    -6.056      1.241      3.915
REMARK INTER + INTRA:          -9.210
REMARK INTER:                  -8.351
REMARK INTRA:                  -0.859
REMARK UNBOUND:                -1.030
REMARK SMILES CC(=O)CCC=C(C)CCC=C(C)C
REMARK SMILES IDX 7 1 6 2 8 3 9 4 10 5 11 6 13 7 12 8 14 9 5 10 4 11 2 12 3 13
REMARK SMILES IDX 1 14
REMARK H PARENT
REMARK Flexibility Score: inf
ROOT
ATOM      1  C   UNL     1      26.821 -13.719  30.745  1.00  0.00    -0.077 C 
ATOM      2  C   UNL     1      26.285 -13.923  29.518  1.00  0.00    -0.028 C 
ATOM      3  C   UNL     1      26.669 -14.812  31.773  1.00  0.00     0.039 C 
ENDROOT
BRANCH   1   4
ATOM      4  C   UNL     1      27.579 -12.459  31.125  1.00  0.00     0.034 C 
BRANCH   4   5
ATOM      5  C   UNL     1      29.058 -12.758  31.402  1.00  0.00     0.032 C 
BRANCH   5   6
ATOM      6  C   UNL     1      29.779 -13.165  30.139  1.00  0.00    -0.028 C 
ATOM      7  C   UNL     1      31.991 -12.494  31.082  1.00  0.00     0.039 C 
ATOM      8  C   UNL     1      31.115 -13.049  29.984  1.00  0.00    -0.080 C 
ATOM      9  C   UNL     1      31.734 -13.484  28.682  1.00  0.00     0.039 C 
ENDBRANCH   5   6
ENDBRANCH   4   5
ENDBRANCH   1   4
BRANCH   2  10
ATOM     10  C   UNL     1      26.312 -12.941  28.372  1.00  0.00     0.035 C 
BRANCH  10  11
ATOM     11  C   UNL     1      27.604 -13.104  27.566  1.00  0.00     0.079 C 
BRANCH  11  12
ATOM     12  C   UNL     1      28.171 -11.759  27.193  1.00  0.00     0.130 C 
ATOM     13  O   UNL     1      28.250 -10.883  28.040  1.00  0.00    -0.300 OA
ATOM     14  C   UNL     1      28.642 -11.473  25.797  1.00  0.00     0.087 C 
ENDBRANCH  11  12
ENDBRANCH  10  11
ENDBRANCH   2  10
TORSDOF 6
ENDMDL
MODEL 4
REMARK VINA RESULT:    -5.946      1.899      4.091
REMARK INTER + INTRA:          -9.061
REMARK INTER:                  -8.326
REMARK INTRA:                  -0.735
REMARK UNBOUND:                -1.030
REMARK SMILES CC(=O)CCC=C(C)CCC=C(C)C
REMARK SMILES IDX 7 1 6 2 8 3 9 4 10 5 11 6 13 7 12 8 14 9 5 10 4 11 2 12 3 13
REMARK SMILES IDX 1 14
REMARK H PARENT
REMARK Flexibility Score: inf
ROOT
ATOM      1  C   UNL     1      28.542 -11.656  27.227  1.00  0.00    -0.077 C 
ATOM      2  C   UNL     1      29.008 -10.702  28.069  1.00  0.00    -0.028 C 
ATOM      3  C   UNL     1      28.618 -11.388  25.745  1.00  0.00     0.039 C 
ENDROOT
BRANCH   1   4
ATOM      4  C   UNL     1      27.968 -12.979  27.704  1.00  0.00     0.034 C 
BRANCH   4   5
ATOM      5  C   UNL     1      26.616 -12.782  28.402  1.00  0.00     0.032 C 
BRANCH   5   6
ATOM      6  C   UNL     1      25.689 -13.944  28.136  1.00  0.00    -0.028 C 
ATOM      7  C   UNL     1      25.803 -14.691  30.516  1.00  0.00     0.039 C 
ATOM      8  C   UNL     1      25.313 -14.819  29.093  1.00  0.00    -0.080 C 
ATOM      9  C   UNL     1      24.384 -15.945  28.721  1.00  0.00     0.039 C 
ENDBRANCH   5   6
ENDBRANCH   4   5
ENDBRANCH   1   4
BRANCH   2  10
ATOM     10  C   UNL     1      28.994 -10.775  29.577  1.00  0.00     0.035 C 
BRANCH  10  11
ATOM     11  C   UNL     1      30.363 -11.221  30.098  1.00  0.00     0.079 C 
BRANCH  11  12
ATOM     12  C   UNL     1      30.249 -12.527  30.839  1.00  0.00     0.130 C 
ATOM     13  O   UNL     1      31.245 -13.216  31.000  1.00  0.00    -0.300 OA
ATOM     14  C   UNL     1      28.935 -13.001  31.385  1.00  0.00     0.087 C 
ENDBRANCH  11  12
ENDBRANCH  10  11
ENDBRANCH   2  10
TORSDOF 6
ENDMDL
MODEL 5
REMARK VINA RESULT:    -5.868      1.459      2.176
REMARK INTER + INTRA:          -8.957
REMARK INTER:                  -7.544
REMARK INTRA:                  -1.413
REMARK UNBOUND:                -1.030
REMARK SMILES CC(=O)CCC=C(C)CCC=C(C)C
REMARK SMILES IDX 7 1 6 2 8 3 9 4 10 5 11 6 13 7 12 8 14 9 5 10 4 11 2 12 3 13
REMARK SMILES IDX 1 14
REMARK H PARENT
REMARK Flexibility Score: inf
ROOT
ATOM      1  C   UNL     1      27.857 -10.848  31.235  1.00  0.00    -0.077 C 
ATOM      2  C   UNL     1      28.067 -12.102  31.702  1.00  0.00    -0.028 C 
ATOM      3  C   UNL     1      27.107  -9.882  32.117  1.00  0.00     0.039 C 
ENDROOT
BRANCH   1   4
ATOM      4  C   UNL     1      28.353 -10.368  29.882  1.00  0.00     0.034 C 
BRANCH   4   5
ATOM      5  C   UNL     1      27.306 -10.605  28.787  1.00  0.00     0.032 C 
BRANCH   5   6
ATOM      6  C   UNL     1      27.835 -11.521  27.711  1.00  0.00    -0.028 C 
ATOM      7  C   UNL     1      26.259 -13.344  28.366  1.00  0.00     0.039 C 
ATOM      8  C   UNL     1      27.365 -12.771  27.511  1.00  0.00    -0.080 C 
ATOM      9  C   UNL     1      27.966 -13.605  26.410  1.00  0.00     0.039 C 
ENDBRANCH   5   6
ENDBRANCH   4   5
ENDBRANCH   1   4
BRANCH   2  10
ATOM     10  C   UNL     1      28.771 -13.212  30.959  1.00  0.00     0.035 C 
BRANCH  10  11
ATOM     11  C   UNL     1      30.175 -13.425  31.532  1.00  0.00     0.079 C 
BRANCH  11  12
ATOM     12  C   UNL     1      31.221 -12.898  30.585  1.00  0.00     0.130 C 
ATOM     13  O   UNL     1      32.263 -12.443  31.032  1.00  0.00    -0.300 OA
ATOM     14  C   UNL     1      31.010 -12.922  29.100  1.00  0.00     0.087 C 
ENDBRANCH  11  12
ENDBRANCH  10  11
ENDBRANCH   2  10
TORSDOF 6
ENDMDL
MODEL 6
REMARK VINA RESULT:    -5.795      2.028      5.068
REMARK INTER + INTRA:          -8.858
REMARK INTER:                  -7.976
REMARK INTRA:                  -0.882
REMARK UNBOUND:                -1.030
REMARK SMILES CC(=O)CCC=C(C)CCC=C(C)C
REMARK SMILES IDX 7 1 6 2 8 3 9 4 10 5 11 6 13 7 12 8 14 9 5 10 4 11 2 12 3 13
REMARK SMILES IDX 1 14
REMARK H PARENT
REMARK Flexibility Score: inf
ROOT
ATOM      1  C   UNL     1      30.297 -12.972  28.517  1.00  0.00    -0.077 C 
ATOM      2  C   UNL     1      29.259 -13.229  27.685  1.00  0.00    -0.028 C 
ATOM      3  C   UNL     1      31.473 -13.915  28.490  1.00  0.00     0.039 C 
ENDROOT
BRANCH   1   4
ATOM      4  C   UNL     1      30.338 -11.778  29.455  1.00  0.00     0.034 C 
BRANCH   4   5
ATOM      5  C   UNL     1      30.535 -12.218  30.911  1.00  0.00     0.032 C 
BRANCH   5   6
ATOM      6  C   UNL     1      29.447 -13.170  31.346  1.00  0.00    -0.028 C 
ATOM      7  C   UNL     1      27.806 -11.308  31.620  1.00  0.00     0.039 C 
ATOM      8  C   UNL     1      28.201 -12.765  31.672  1.00  0.00    -0.080 C 
ATOM      9  C   UNL     1      27.191 -13.799  32.096  1.00  0.00     0.039 C 
ENDBRANCH   5   6
ENDBRANCH   4   5
ENDBRANCH   1   4
BRANCH   2  10
ATOM     10  C   UNL     1      27.988 -12.419  27.586  1.00  0.00     0.035 C 
BRANCH  10  11
ATOM     11  C   UNL     1      26.901 -13.032  28.473  1.00  0.00     0.079 C 
BRANCH  11  12
ATOM     12  C   UNL     1      26.106 -14.057  27.707  1.00  0.00     0.130 C 
ATOM     13  O   UNL     1      26.453 -14.366  26.577  1.00  0.00    -0.300 OA
ATOM     14  C   UNL     1      24.893 -14.707  28.304  1.00  0.00     0.087 C 
ENDBRANCH  11  12
ENDBRANCH  10  11
ENDBRANCH   2  10
TORSDOF 6
ENDMDL
MODEL 7
REMARK VINA RESULT:    -5.789      1.561      4.222
REMARK INTER + INTRA:          -8.850
REMARK INTER:                  -8.281
REMARK INTRA:                  -0.568
REMARK UNBOUND:                -1.030
REMARK SMILES CC(=O)CCC=C(C)CCC=C(C)C
REMARK SMILES IDX 7 1 6 2 8 3 9 4 10 5 11 6 13 7 12 8 14 9 5 10 4 11 2 12 3 13
REMARK SMILES IDX 1 14
REMARK H PARENT
REMARK Flexibility Score: inf
ROOT
ATOM      1  C   UNL     1      30.716 -12.593  30.401  1.00  0.00    -0.077 C 
ATOM      2  C   UNL     1      30.964 -13.240  29.237  1.00  0.00    -0.028 C 
ATOM      3  C   UNL     1      31.839 -12.482  31.400  1.00  0.00     0.039 C 
ENDROOT
BRANCH   1   4
ATOM      4  C   UNL     1      29.374 -11.964  30.735  1.00  0.00     0.034 C 
BRANCH   4   5
ATOM      5  C   UNL     1      28.436 -12.974  31.409  1.00  0.00     0.032 C 
BRANCH   5   6
ATOM      6  C   UNL     1      27.376 -13.461  30.450  1.00  0.00    -0.028 C 
ATOM      7  C   UNL     1      26.389 -14.975  32.172  1.00  0.00     0.039 C 
ATOM      8  C   UNL     1      26.440 -14.372  30.788  1.00  0.00    -0.080 C 
ATOM      9  C   UNL     1      25.428 -14.790  29.753  1.00  0.00     0.039 C 
ENDBRANCH   5   6
ENDBRANCH   4   5
ENDBRANCH   1   4
BRANCH   2  10
ATOM     10  C   UNL     1      29.965 -13.475  28.130  1.00  0.00     0.035 C 
BRANCH  10  11
ATOM     11  C   UNL     1      29.526 -12.140  27.522  1.00  0.00     0.079 C 
BRANCH  11  12
ATOM     12  C   UNL     1      28.484 -12.358  26.456  1.00  0.00     0.130 C 
ATOM     13  O   UNL     1      28.348 -11.529  25.569  1.00  0.00    -0.300 OA
ATOM     14  C   UNL     1      27.609 -13.576  26.460  1.00  0.00     0.087 C 
ENDBRANCH  11  12
ENDBRANCH  10  11
ENDBRANCH   2  10
TORSDOF 6
ENDMDL
MODEL 8
REMARK VINA RESULT:    -5.735      2.480      4.244
REMARK INTER + INTRA:          -8.777
REMARK INTER:                  -7.503
REMARK INTRA:                  -1.274
REMARK UNBOUND:                -1.030
REMARK SMILES CC(=O)CCC=C(C)CCC=C(C)C
REMARK SMILES IDX 7 1 6 2 8 3 9 4 10 5 11 6 13 7 12 8 14 9 5 10 4 11 2 12 3 13
REMARK SMILES IDX 1 14
REMARK H PARENT
REMARK Flexibility Score: inf
ROOT
ATOM      1  C   UNL     1      27.610 -11.223  31.123  1.00  0.00    -0.077 C 
ATOM      2  C   UNL     1      27.465 -12.491  31.579  1.00  0.00    -0.028 C 
ATOM      3  C   UNL     1      27.486 -10.097  32.118  1.00  0.00     0.039 C 
ENDROOT
BRANCH   1   4
ATOM      4  C   UNL     1      27.906 -10.888  29.671  1.00  0.00     0.034 C 
BRANCH   4   5
ATOM      5  C   UNL     1      29.413 -10.736  29.430  1.00  0.00     0.032 C 
BRANCH   5   6
ATOM      6  C   UNL     1      29.970 -11.924  28.682  1.00  0.00    -0.028 C 
ATOM      7  C   UNL     1      31.282 -12.672  30.671  1.00  0.00     0.039 C 
ATOM      8  C   UNL     1      30.821 -12.811  29.239  1.00  0.00    -0.080 C 
ATOM      9  C   UNL     1      31.319 -13.961  28.402  1.00  0.00     0.039 C 
ENDBRANCH   5   6
ENDBRANCH   4   5
ENDBRANCH   1   4
BRANCH   2  10
ATOM     10  C   UNL     1      27.528 -13.742  30.735  1.00  0.00     0.035 C 
BRANCH  10  11
ATOM     11  C   UNL     1      26.142 -14.386  30.641  1.00  0.00     0.079 C 
BRANCH  11  12
ATOM     12  C   UNL     1      25.684 -14.454  29.208  1.00  0.00     0.130 C 
ATOM     13  O   UNL     1      24.795 -15.232  28.896  1.00  0.00    -0.300 OA
ATOM     14  C   UNL     1      26.299 -13.583  28.152  1.00  0.00     0.087 C 
ENDBRANCH  11  12
ENDBRANCH  10  11
ENDBRANCH   2  10
TORSDOF 6
ENDMDL
MODEL 9
REMARK VINA RESULT:    -5.672      2.113      4.516
REMARK INTER + INTRA:          -8.692
REMARK INTER:                  -7.487
REMARK INTRA:                  -1.205
REMARK UNBOUND:                -1.030
REMARK SMILES CC(=O)CCC=C(C)CCC=C(C)C
REMARK SMILES IDX 7 1 6 2 8 3 9 4 10 5 11 6 13 7 12 8 14 9 5 10 4 11 2 12 3 13
REMARK SMILES IDX 1 14
REMARK H PARENT
REMARK Flexibility Score: inf
ROOT
ATOM      1  C   UNL     1      27.261 -13.039  28.006  1.00  0.00    -0.077 C 
ATOM      2  C   UNL     1      26.913 -13.548  29.212  1.00  0.00    -0.028 C 
ATOM      3  C   UNL     1      27.021 -13.890  26.785  1.00  0.00     0.039 C 
ENDROOT
BRANCH   1   4
ATOM      4  C   UNL     1      27.863 -11.656  27.827  1.00  0.00     0.034 C 
BRANCH   4   5
ATOM      5  C   UNL     1      29.383 -11.728  27.637  1.00  0.00     0.032 C 
BRANCH   5   6
ATOM      6  C   UNL     1      30.095 -11.836  28.964  1.00  0.00    -0.028 C 
ATOM      7  C   UNL     1      31.172 -13.992  28.308  1.00  0.00     0.039 C 
ATOM      8  C   UNL     1      30.912 -12.863  29.279  1.00  0.00    -0.080 C 
ATOM      9  C   UNL     1      31.573 -12.876  30.633  1.00  0.00     0.039 C 
ENDBRANCH   5   6
ENDBRANCH   4   5
ENDBRANCH   1   4
BRANCH   2  10
ATOM     10  C   UNL     1      27.099 -12.862  30.544  1.00  0.00     0.035 C 
BRANCH  10  11
ATOM     11  C   UNL     1      27.821 -13.793  31.522  1.00  0.00     0.079 C 
BRANCH  11  12
ATOM     12  C   UNL     1      26.844 -14.410  32.488  1.00  0.00     0.130 C 
ATOM     13  O   UNL     1      26.503 -15.573  32.339  1.00  0.00    -0.300 OA
ATOM     14  C   UNL     1      26.280 -13.623  33.634  1.00  0.00     0.087 C 
ENDBRANCH  11  12
ENDBRANCH  10  11
ENDBRANCH   2  10
TORSDOF 6
ENDMDL
