MODEL 1
REMARK VINA RESULT:    -3.347      0.000      0.000
REMARK INTER + INTRA:          -4.012
REMARK INTER:                  -3.934
REMARK INTRA:                  -0.077
REMARK UNBOUND:                -0.077
REMARK SMILES O=C([O-])CCC(=O)[O-]
REMARK SMILES IDX 4 1 2 2 1 3 3 4 5 5 6 6 7 7 8 8
REMARK H PARENT
REMARK Flexibility Score: inf
ROOT
ATOM      1  C   UNL     1     243.321 256.727 255.193  1.00  0.00     0.059 C 
ENDROOT
BRANCH   1   2
ATOM      2  C   UNL     1     243.937 257.773 256.069  1.00  0.00     0.042 C 
ATOM      3  O   UNL     1     243.206 258.516 256.776  1.00  0.00    -0.550 OA
ATOM      4  O   UNL     1     245.313 257.959 256.068  1.00  0.00    -0.550 OA
ENDBRANCH   1   2
BRANCH   1   5
ATOM      5  C   UNL     1     244.403 255.988 254.404  1.00  0.00     0.059 C 
BRANCH   5   6
ATOM      6  C   UNL     1     244.273 256.279 252.942  1.00  0.00     0.042 C 
ATOM      7  O   UNL     1     243.134 256.411 252.422  1.00  0.00    -0.550 OA
ATOM      8  O   UNL     1     245.410 256.451 252.163  1.00  0.00    -0.550 OA
ENDBRANCH   5   6
ENDBRANCH   1   5
TORSDOF 3
ENDMDL
MODEL 2
REMARK VINA RESULT:    -3.274     11.168     11.824
REMARK INTER + INTRA:          -3.926
REMARK INTER:                  -3.803
REMARK INTRA:                  -0.123
REMARK UNBOUND:                -0.077
REMARK SMILES O=C([O-])CCC(=O)[O-]
REMARK SMILES IDX 4 1 2 2 1 3 3 4 5 5 6 6 7 7 8 8
REMARK H PARENT
REMARK Flexibility Score: inf
ROOT
ATOM      1  C   UNL     1     254.790 262.016 254.095  1.00  0.00     0.059 C 
ENDROOT
BRANCH   1   2
ATOM      2  C   UNL     1     254.109 260.765 254.555  1.00  0.00     0.042 C 
ATOM      3  O   UNL     1     253.125 260.308 253.914  1.00  0.00    -0.550 OA
ATOM      4  O   UNL     1     254.530 260.130 255.715  1.00  0.00    -0.550 OA
ENDBRANCH   1   2
BRANCH   1   5
ATOM      5  C   UNL     1     254.497 262.270 252.616  1.00  0.00     0.059 C 
BRANCH   5   6
ATOM      6  C   UNL     1     255.612 261.747 251.766  1.00  0.00     0.042 C 
ATOM      7  O   UNL     1     256.599 262.479 251.495  1.00  0.00    -0.550 OA
ATOM      8  O   UNL     1     255.583 260.434 251.312  1.00  0.00    -0.550 OA
ENDBRANCH   5   6
ENDBRANCH   1   5
TORSDOF 3
ENDMDL
MODEL 3
REMARK VINA RESULT:    -3.255     11.209     12.185
REMARK INTER + INTRA:          -3.903
REMARK INTER:                  -3.782
REMARK INTRA:                  -0.121
REMARK UNBOUND:                -0.077
REMARK SMILES O=C([O-])CCC(=O)[O-]
REMARK SMILES IDX 4 1 2 2 1 3 3 4 5 5 6 6 7 7 8 8
REMARK H PARENT
REMARK Flexibility Score: inf
ROOT
ATOM      1  C   UNL     1     254.505 262.220 252.628  1.00  0.00     0.059 C 
ENDROOT
BRANCH   1   2
ATOM      2  C   UNL     1     255.654 261.696 251.826  1.00  0.00     0.042 C 
ATOM      3  O   UNL     1     255.637 260.512 251.395  1.00  0.00    -0.550 OA
ATOM      4  O   UNL     1     256.764 262.498 251.595  1.00  0.00    -0.550 OA
ENDBRANCH   1   2
BRANCH   1   5
ATOM      5  C   UNL     1     254.786 262.070 254.124  1.00  0.00     0.059 C 
BRANCH   5   6
ATOM      6  C   UNL     1     254.117 260.844 254.661  1.00  0.00     0.042 C 
ATOM      7  O   UNL     1     253.178 260.303 254.020  1.00  0.00    -0.550 OA
ATOM      8  O   UNL     1     254.562 260.270 255.844  1.00  0.00    -0.550 OA
ENDBRANCH   5   6
ENDBRANCH   1   5
TORSDOF 3
ENDMDL
MODEL 4
REMARK VINA RESULT:    -3.139      9.064     10.011
REMARK INTER + INTRA:          -3.767
REMARK INTER:                  -3.649
REMARK INTRA:                  -0.119
REMARK UNBOUND:                -0.077
REMARK SMILES O=C([O-])CCC(=O)[O-]
REMARK SMILES IDX 4 1 2 2 1 3 3 4 5 5 6 6 7 7 8 8
REMARK H PARENT
REMARK Flexibility Score: inf
ROOT
ATOM      1  C   UNL     1     248.194 257.199 245.625  1.00  0.00     0.059 C 
ENDROOT
BRANCH   1   2
ATOM      2  C   UNL     1     247.021 258.015 245.183  1.00  0.00     0.042 C 
ATOM      3  O   UNL     1     245.897 257.471 245.017  1.00  0.00    -0.550 OA
ATOM      4  O   UNL     1     247.178 259.367 244.908  1.00  0.00    -0.550 OA
ENDBRANCH   1   2
BRANCH   1   5
ATOM      5  C   UNL     1     248.524 257.489 247.090  1.00  0.00     0.059 C 
BRANCH   5   6
ATOM      6  C   UNL     1     249.708 258.399 247.188  1.00  0.00     0.042 C 
ATOM      7  O   UNL     1     250.865 257.959 246.961  1.00  0.00    -0.550 OA
ATOM      8  O   UNL     1     249.529 259.744 247.484  1.00  0.00    -0.550 OA
ENDBRANCH   5   6
ENDBRANCH   1   5
TORSDOF 3
ENDMDL
MODEL 5
REMARK VINA RESULT:    -3.119     14.904     16.476
REMARK INTER + INTRA:          -3.744
REMARK INTER:                  -3.708
REMARK INTRA:                  -0.036
REMARK UNBOUND:                -0.077
REMARK SMILES O=C([O-])CCC(=O)[O-]
REMARK SMILES IDX 4 1 2 2 1 3 3 4 5 5 6 6 7 7 8 8
REMARK H PARENT
REMARK Flexibility Score: inf
ROOT
ATOM      1  C   UNL     1     257.083 261.068 244.624  1.00  0.00     0.059 C 
ENDROOT
BRANCH   1   2
ATOM      2  C   UNL     1     258.475 261.616 244.685  1.00  0.00     0.042 C 
ATOM      3  O   UNL     1     259.308 261.139 245.501  1.00  0.00    -0.550 OA
ATOM      4  O   UNL     1     258.838 262.684 243.876  1.00  0.00    -0.550 OA
ENDBRANCH   1   2
BRANCH   1   5
ATOM      5  C   UNL     1     256.379 261.251 245.969  1.00  0.00     0.059 C 
BRANCH   5   6
ATOM      6  C   UNL     1     255.017 260.632 245.934  1.00  0.00     0.042 C 
ATOM      7  O   UNL     1     254.702 259.849 245.000  1.00  0.00    -0.550 OA
ATOM      8  O   UNL     1     254.113 260.880 246.958  1.00  0.00    -0.550 OA
ENDBRANCH   5   6
ENDBRANCH   1   5
TORSDOF 3
ENDMDL
MODEL 6
REMARK VINA RESULT:    -3.118      9.066      9.638
REMARK INTER + INTRA:          -3.742
REMARK INTER:                  -3.628
REMARK INTRA:                  -0.114
REMARK UNBOUND:                -0.077
REMARK SMILES O=C([O-])CCC(=O)[O-]
REMARK SMILES IDX 4 1 2 2 1 3 3 4 5 5 6 6 7 7 8 8
REMARK H PARENT
REMARK Flexibility Score: inf
ROOT
ATOM      1  C   UNL     1     248.568 257.482 247.098  1.00  0.00     0.059 C 
ENDROOT
BRANCH   1   2
ATOM      2  C   UNL     1     249.719 258.429 247.223  1.00  0.00     0.042 C 
ATOM      3  O   UNL     1     250.902 258.004 247.136  1.00  0.00    -0.550 OA
ATOM      4  O   UNL     1     249.489 259.773 247.484  1.00  0.00    -0.550 OA
ENDBRANCH   1   2
BRANCH   1   5
ATOM      5  C   UNL     1     248.252 257.219 245.625  1.00  0.00     0.059 C 
BRANCH   5   6
ATOM      6  C   UNL     1     246.976 257.897 245.235  1.00  0.00     0.042 C 
ATOM      7  O   UNL     1     246.937 259.149 245.114  1.00  0.00    -0.550 OA
ATOM      8  O   UNL     1     245.843 257.143 244.960  1.00  0.00    -0.550 OA
ENDBRANCH   5   6
ENDBRANCH   1   5
TORSDOF 3
ENDMDL
MODEL 7
REMARK VINA RESULT:    -3.108     11.009     11.740
REMARK INTER + INTRA:          -3.731
REMARK INTER:                  -3.612
REMARK INTRA:                  -0.119
REMARK UNBOUND:                -0.077
REMARK SMILES O=C([O-])CCC(=O)[O-]
REMARK SMILES IDX 4 1 2 2 1 3 3 4 5 5 6 6 7 7 8 8
REMARK H PARENT
REMARK Flexibility Score: inf
ROOT
ATOM      1  C   UNL     1     254.822 260.114 255.912  1.00  0.00     0.059 C 
ENDROOT
BRANCH   1   2
ATOM      2  C   UNL     1     254.201 260.788 254.729  1.00  0.00     0.042 C 
ATOM      3  O   UNL     1     253.321 260.192 254.052  1.00  0.00    -0.550 OA
ATOM      4  O   UNL     1     254.626 262.053 254.346  1.00  0.00    -0.550 OA
ENDBRANCH   1   2
BRANCH   1   5
ATOM      5  C   UNL     1     256.258 259.694 255.593  1.00  0.00     0.059 C 
BRANCH   5   6
ATOM      6  C   UNL     1     256.295 258.272 255.129  1.00  0.00     0.042 C 
ATOM      7  O   UNL     1     256.326 258.009 253.898  1.00  0.00    -0.550 OA
ATOM      8  O   UNL     1     256.345 257.239 256.055  1.00  0.00    -0.550 OA
ENDBRANCH   5   6
ENDBRANCH   1   5
TORSDOF 3
ENDMDL
MODEL 8
REMARK VINA RESULT:    -3.061     11.219     12.090
REMARK INTER + INTRA:          -3.676
REMARK INTER:                  -3.555
REMARK INTRA:                  -0.121
REMARK UNBOUND:                -0.077
REMARK SMILES O=C([O-])CCC(=O)[O-]
REMARK SMILES IDX 4 1 2 2 1 3 3 4 5 5 6 6 7 7 8 8
REMARK H PARENT
REMARK Flexibility Score: inf
ROOT
ATOM      1  C   UNL     1     254.826 261.874 254.375  1.00  0.00     0.059 C 
ENDROOT
BRANCH   1   2
ATOM      2  C   UNL     1     254.792 261.818 252.880  1.00  0.00     0.042 C 
ATOM      3  O   UNL     1     255.503 260.983 252.261  1.00  0.00    -0.550 OA
ATOM      4  O   UNL     1     254.011 262.720 252.169  1.00  0.00    -0.550 OA
ENDBRANCH   1   2
BRANCH   1   5
ATOM      5  C   UNL     1     254.245 260.590 254.971  1.00  0.00     0.059 C 
BRANCH   5   6
ATOM      6  C   UNL     1     255.286 259.867 255.766  1.00  0.00     0.042 C 
ATOM      7  O   UNL     1     255.156 259.739 257.011  1.00  0.00    -0.550 OA
ATOM      8  O   UNL     1     256.376 259.291 255.125  1.00  0.00    -0.550 OA
ENDBRANCH   5   6
ENDBRANCH   1   5
TORSDOF 3
ENDMDL
MODEL 9
REMARK VINA RESULT:    -3.060     11.198     11.810
REMARK INTER + INTRA:          -3.674
REMARK INTER:                  -3.553
REMARK INTRA:                  -0.121
REMARK UNBOUND:                -0.077
REMARK SMILES O=C([O-])CCC(=O)[O-]
REMARK SMILES IDX 4 1 2 2 1 3 3 4 5 5 6 6 7 7 8 8
REMARK H PARENT
REMARK Flexibility Score: inf
ROOT
ATOM      1  C   UNL     1     254.183 260.622 254.730  1.00  0.00     0.059 C 
ENDROOT
BRANCH   1   2
ATOM      2  C   UNL     1     255.240 259.833 255.437  1.00  0.00     0.042 C 
ATOM      3  O   UNL     1     256.144 259.253 254.779  1.00  0.00    -0.550 OA
ATOM      4  O   UNL     1     255.199 259.697 256.818  1.00  0.00    -0.550 OA
ENDBRANCH   1   2
BRANCH   1   5
ATOM      5  C   UNL     1     254.737 261.977 254.285  1.00  0.00     0.059 C 
BRANCH   5   6
ATOM      6  C   UNL     1     254.799 262.051 252.792  1.00  0.00     0.042 C 
ATOM      7  O   UNL     1     253.971 262.756 252.158  1.00  0.00    -0.550 OA
ATOM      8  O   UNL     1     255.800 261.379 252.103  1.00  0.00    -0.550 OA
ENDBRANCH   5   6
ENDBRANCH   1   5
TORSDOF 3
ENDMDL
