MODEL 1
REMARK VINA RESULT:    -7.033      0.000      0.000
REMARK INTER + INTRA:          -8.748
REMARK INTER:                  -8.267
REMARK INTRA:                  -0.481
REMARK UNBOUND:                -0.481
REMARK SMILES C=C(C)[C@@H]1CC[C@]2(CO)CC[C@@]3(C)[C@H](CC[C@H]4[C@]5(C)CC[C@@H](O)C(C)(C)[C@@H]5CC[C@@]43C)[C@H]12
REMARK SMILES IDX 4 1 5 2 6 3 7 4 32 5 14 6 15 7 16 8 17 9 18 10 20 11 21 12
REMARK SMILES IDX 22 13 24 14 27 15 28 16 29 17 30 18 12 19 11 20 10 21 13 22
REMARK SMILES IDX 31 23 25 24 26 25 19 26 2 27 3 28 1 29 8 30 9 31 23 33
REMARK H PARENT 9 32 23 34
REMARK Flexibility Score: inf
ROOT
ATOM      1  C   UNL     1       5.801 -23.793   5.227  1.00  0.00     0.018 C 
ATOM      2  C   UNL     1       4.710 -22.885   4.646  1.00  0.00     0.009 C 
ATOM      3  C   UNL     1       4.305 -23.494   3.300  1.00  0.00     0.010 C 
ATOM      4  C   UNL     1       5.028 -24.862   3.161  1.00  0.00    -0.003 C 
ATOM      5  C   UNL     1       5.547 -25.184   4.595  1.00  0.00     0.008 C 
ATOM      6  C   UNL     1       4.628 -26.181   5.407  1.00  0.00    -0.000 C 
ATOM      7  C   UNL     1       3.321 -25.551   5.935  1.00  0.00     0.005 C 
ATOM      8  C   UNL     1       2.484 -26.498   6.818  1.00  0.00     0.005 C 
ATOM      9  C   UNL     1       2.749 -28.015   6.576  1.00  0.00     0.002 C 
ATOM     10  C   UNL     1       1.776 -28.996   7.404  1.00  0.00    -0.026 C 
ATOM     11  C   UNL     1       2.320 -29.014   8.873  1.00  0.00     0.010 C 
ATOM     12  C   UNL     1       1.678 -30.058   9.773  1.00  0.00     0.033 C 
ATOM     13  C   UNL     1       1.941 -31.461   9.214  1.00  0.00     0.120 C 
ATOM     14  C   UNL     1       1.324 -31.665   7.797  1.00  0.00    -0.006 C 
ATOM     15  C   UNL     1       1.750 -30.474   6.800  1.00  0.00     0.003 C 
ATOM     16  C   UNL     1       3.075 -30.729   6.031  1.00  0.00     0.005 C 
ATOM     17  C   UNL     1       3.107 -29.861   4.773  1.00  0.00     0.008 C 
ATOM     18  C   UNL     1       3.022 -28.313   5.048  1.00  0.00    -0.024 C 
ATOM     19  C   UNL     1       4.419 -27.569   4.640  1.00  0.00    -0.024 C 
ATOM     20  C   UNL     1       4.538 -27.366   3.088  1.00  0.00     0.008 C 
ATOM     21  C   UNL     1       4.081 -25.976   2.625  1.00  0.00     0.010 C 
ATOM     22  C   UNL     1       5.661 -28.448   5.049  1.00  0.00     0.012 C 
ATOM     23  C   UNL     1       1.790 -27.825   4.210  1.00  0.00     0.012 C 
ATOM     24  C   UNL     1       1.806 -33.053   7.285  1.00  0.00     0.014 C 
ATOM     25  C   UNL     1      -0.231 -31.788   7.884  1.00  0.00     0.014 C 
ATOM     26  C   UNL     1       0.329 -28.419   7.435  1.00  0.00     0.012 C 
ENDROOT
BRANCH   1  27
ATOM     27  C   UNL     1       6.015 -23.761   6.743  1.00  0.00    -0.077 C 
ATOM     28  C   UNL     1       6.839 -24.790   7.485  1.00  0.00     0.039 C 
ATOM     29  C   UNL     1       5.345 -22.858   7.480  1.00  0.00     0.008 C 
ENDBRANCH   1  27
BRANCH   4  30
ATOM     30  C   UNL     1       6.241 -24.701   2.191  1.00  0.00     0.163 C 
BRANCH  30  31
ATOM     31  O   UNL     1       5.809 -24.532   0.863  1.00  0.00    -0.396 OA
ATOM     32  H   UNL     1       6.558 -24.793   0.268  1.00  0.00     0.210 HD
ENDBRANCH  30  31
ENDBRANCH   4  30
BRANCH  13  33
ATOM     33  O   UNL     1       1.514 -32.451  10.122  1.00  0.00    -0.393 OA
ATOM     34  H   UNL     1       1.956 -32.287  10.995  1.00  0.00     0.210 HD
ENDBRANCH  13  33
TORSDOF 4
ENDMDL
MODEL 2
REMARK VINA RESULT:    -6.713      2.179      4.646
REMARK INTER + INTRA:          -8.372
REMARK INTER:                  -7.903
REMARK INTRA:                  -0.469
REMARK UNBOUND:                -0.481
REMARK SMILES C=C(C)[C@@H]1CC[C@]2(CO)CC[C@@]3(C)[C@H](CC[C@H]4[C@]5(C)CC[C@@H](O)C(C)(C)[C@@H]5CC[C@@]43C)[C@H]12
REMARK SMILES IDX 4 1 5 2 6 3 7 4 32 5 14 6 15 7 16 8 17 9 18 10 20 11 21 12
REMARK SMILES IDX 22 13 24 14 27 15 28 16 29 17 30 18 12 19 11 20 10 21 13 22
REMARK SMILES IDX 31 23 25 24 26 25 19 26 2 27 3 28 1 29 8 30 9 31 23 33
REMARK H PARENT 9 32 23 34
REMARK Flexibility Score: inf
ROOT
ATOM      1  C   UNL     1       7.578 -23.251   2.366  1.00  0.00     0.018 C 
ATOM      2  C   UNL     1       8.929 -23.842   2.787  1.00  0.00     0.009 C 
ATOM      3  C   UNL     1       9.115 -23.497   4.268  1.00  0.00     0.010 C 
ATOM      4  C   UNL     1       7.795 -22.854   4.776  1.00  0.00    -0.003 C 
ATOM      5  C   UNL     1       6.745 -23.180   3.670  1.00  0.00     0.008 C 
ATOM      6  C   UNL     1       5.824 -24.421   3.999  1.00  0.00    -0.000 C 
ATOM      7  C   UNL     1       6.524 -25.788   3.848  1.00  0.00     0.005 C 
ATOM      8  C   UNL     1       5.590 -26.995   4.063  1.00  0.00     0.005 C 
ATOM      9  C   UNL     1       4.325 -26.693   4.922  1.00  0.00     0.002 C 
ATOM     10  C   UNL     1       3.427 -27.988   5.254  1.00  0.00    -0.026 C 
ATOM     11  C   UNL     1       2.612 -28.300   3.953  1.00  0.00     0.010 C 
ATOM     12  C   UNL     1       1.529 -29.355   4.121  1.00  0.00     0.033 C 
ATOM     13  C   UNL     1       0.499 -28.882   5.154  1.00  0.00     0.120 C 
ATOM     14  C   UNL     1       1.124 -28.667   6.565  1.00  0.00    -0.006 C 
ATOM     15  C   UNL     1       2.439 -27.740   6.484  1.00  0.00     0.003 C 
ATOM     16  C   UNL     1       2.155 -26.219   6.607  1.00  0.00     0.005 C 
ATOM     17  C   UNL     1       3.427 -25.500   7.057  1.00  0.00     0.008 C 
ATOM     18  C   UNL     1       4.650 -25.666   6.079  1.00  0.00    -0.024 C 
ATOM     19  C   UNL     1       5.038 -24.240   5.380  1.00  0.00    -0.024 C 
ATOM     20  C   UNL     1       5.846 -23.315   6.358  1.00  0.00     0.008 C 
ATOM     21  C   UNL     1       7.365 -23.413   6.164  1.00  0.00     0.010 C 
ATOM     22  C   UNL     1       3.740 -23.429   5.004  1.00  0.00     0.012 C 
ATOM     23  C   UNL     1       5.798 -26.255   6.970  1.00  0.00     0.012 C 
ATOM     24  C   UNL     1       0.020 -28.033   7.461  1.00  0.00     0.014 C 
ATOM     25  C   UNL     1       1.450 -30.037   7.240  1.00  0.00     0.014 C 
ATOM     26  C   UNL     1       4.340 -29.214   5.555  1.00  0.00     0.012 C 
ENDROOT
BRANCH   1  27
ATOM     27  C   UNL     1       6.885 -23.867   1.148  1.00  0.00    -0.077 C 
ATOM     28  C   UNL     1       7.429 -25.067   0.404  1.00  0.00     0.039 C 
ATOM     29  C   UNL     1       5.811 -23.251   0.624  1.00  0.00     0.008 C 
ENDBRANCH   1  27
BRANCH   4  30
ATOM     30  C   UNL     1       7.986 -21.307   4.875  1.00  0.00     0.163 C 
BRANCH  30  31
ATOM     31  O   UNL     1       6.746 -20.643   4.875  1.00  0.00    -0.396 OA
ATOM     32  H   UNL     1       6.072 -21.266   5.251  1.00  0.00     0.210 HD
ENDBRANCH  30  31
ENDBRANCH   4  30
BRANCH  13  33
ATOM     33  O   UNL     1      -0.606 -29.756   5.195  1.00  0.00    -0.393 OA
ATOM     34  H   UNL     1      -1.153 -29.531   5.991  1.00  0.00     0.210 HD
ENDBRANCH  13  33
TORSDOF 4
ENDMDL
MODEL 3
REMARK VINA RESULT:    -6.659      2.448      8.177
REMARK INTER + INTRA:          -8.307
REMARK INTER:                  -7.771
REMARK INTRA:                  -0.536
REMARK UNBOUND:                -0.481
REMARK SMILES C=C(C)[C@@H]1CC[C@]2(CO)CC[C@@]3(C)[C@H](CC[C@H]4[C@]5(C)CC[C@@H](O)C(C)(C)[C@@H]5CC[C@@]43C)[C@H]12
REMARK SMILES IDX 4 1 5 2 6 3 7 4 32 5 14 6 15 7 16 8 17 9 18 10 20 11 21 12
REMARK SMILES IDX 22 13 24 14 27 15 28 16 29 17 30 18 12 19 11 20 10 21 13 22
REMARK SMILES IDX 31 23 25 24 26 25 19 26 2 27 3 28 1 29 8 30 9 31 23 33
REMARK H PARENT 9 32 23 34
REMARK Flexibility Score: inf
ROOT
ATOM      1  C   UNL     1       1.546 -31.399   4.910  1.00  0.00     0.018 C 
ATOM      2  C   UNL     1       1.905 -31.546   6.393  1.00  0.00     0.009 C 
ATOM      3  C   UNL     1       3.276 -32.226   6.447  1.00  0.00     0.010 C 
ATOM      4  C   UNL     1       3.815 -32.324   4.994  1.00  0.00    -0.003 C 
ATOM      5  C   UNL     1       2.905 -31.363   4.169  1.00  0.00     0.008 C 
ATOM      6  C   UNL     1       3.539 -29.939   3.904  1.00  0.00    -0.000 C 
ATOM      7  C   UNL     1       3.541 -29.009   5.135  1.00  0.00     0.005 C 
ATOM      8  C   UNL     1       4.058 -27.587   4.841  1.00  0.00     0.005 C 
ATOM      9  C   UNL     1       4.993 -27.480   3.598  1.00  0.00     0.002 C 
ATOM     10  C   UNL     1       5.636 -26.019   3.379  1.00  0.00    -0.026 C 
ATOM     11  C   UNL     1       4.505 -25.133   2.753  1.00  0.00     0.010 C 
ATOM     12  C   UNL     1       4.969 -23.772   2.257  1.00  0.00     0.033 C 
ATOM     13  C   UNL     1       6.018 -23.950   1.153  1.00  0.00     0.120 C 
ATOM     14  C   UNL     1       7.294 -24.692   1.655  1.00  0.00    -0.006 C 
ATOM     15  C   UNL     1       6.910 -26.058   2.418  1.00  0.00     0.003 C 
ATOM     16  C   UNL     1       6.808 -27.299   1.491  1.00  0.00     0.005 C 
ATOM     17  C   UNL     1       6.986 -28.569   2.322  1.00  0.00     0.008 C 
ATOM     18  C   UNL     1       5.917 -28.755   3.464  1.00  0.00    -0.024 C 
ATOM     19  C   UNL     1       4.951 -30.037   3.158  1.00  0.00    -0.024 C 
ATOM     20  C   UNL     1       5.662 -31.394   3.496  1.00  0.00     0.008 C 
ATOM     21  C   UNL     1       5.317 -31.924   4.895  1.00  0.00     0.010 C 
ATOM     22  C   UNL     1       4.593 -30.115   1.625  1.00  0.00     0.012 C 
ATOM     23  C   UNL     1       6.758 -28.909   4.778  1.00  0.00     0.012 C 
ATOM     24  C   UNL     1       8.190 -24.952   0.409  1.00  0.00     0.014 C 
ATOM     25  C   UNL     1       8.147 -23.761   2.575  1.00  0.00     0.014 C 
ATOM     26  C   UNL     1       6.033 -25.394   4.749  1.00  0.00     0.012 C 
ENDROOT
BRANCH   1  27
ATOM     27  C   UNL     1       0.534 -30.315   4.531  1.00  0.00    -0.077 C 
ATOM     28  C   UNL     1       0.117 -30.033   3.104  1.00  0.00     0.039 C 
ATOM     29  C   UNL     1       0.078 -29.482   5.483  1.00  0.00     0.008 C 
ENDBRANCH   1  27
BRANCH   4  30
ATOM     30  C   UNL     1       3.632 -33.787   4.479  1.00  0.00     0.163 C 
BRANCH  30  31
ATOM     31  O   UNL     1       3.222 -33.803   3.134  1.00  0.00    -0.396 OA
ATOM     32  H   UNL     1       3.347 -32.888   2.771  1.00  0.00     0.210 HD
ENDBRANCH  30  31
ENDBRANCH   4  30
BRANCH  13  33
ATOM     33  O   UNL     1       6.329 -22.713   0.553  1.00  0.00    -0.393 OA
ATOM     34  H   UNL     1       6.771 -22.890  -0.318  1.00  0.00     0.210 HD
ENDBRANCH  13  33
TORSDOF 4
ENDMDL
MODEL 4
REMARK VINA RESULT:    -6.537      3.595      6.022
REMARK INTER + INTRA:          -8.165
REMARK INTER:                  -7.635
REMARK INTRA:                  -0.529
REMARK UNBOUND:                -0.481
REMARK SMILES C=C(C)[C@@H]1CC[C@]2(CO)CC[C@@]3(C)[C@H](CC[C@H]4[C@]5(C)CC[C@@H](O)C(C)(C)[C@@H]5CC[C@@]43C)[C@H]12
REMARK SMILES IDX 4 1 5 2 6 3 7 4 32 5 14 6 15 7 16 8 17 9 18 10 20 11 21 12
REMARK SMILES IDX 22 13 24 14 27 15 28 16 29 17 30 18 12 19 11 20 10 21 13 22
REMARK SMILES IDX 31 23 25 24 26 25 19 26 2 27 3 28 1 29 8 30 9 31 23 33
REMARK H PARENT 9 32 23 34
REMARK Flexibility Score: inf
ROOT
ATOM      1  C   UNL     1       5.408 -23.720   3.798  1.00  0.00     0.018 C 
ATOM      2  C   UNL     1       6.835 -23.514   4.321  1.00  0.00     0.009 C 
ATOM      3  C   UNL     1       6.913 -24.231   5.672  1.00  0.00     0.010 C 
ATOM      4  C   UNL     1       5.587 -25.015   5.872  1.00  0.00    -0.003 C 
ATOM      5  C   UNL     1       4.920 -25.031   4.462  1.00  0.00     0.008 C 
ATOM      6  C   UNL     1       5.148 -26.370   3.654  1.00  0.00    -0.000 C 
ATOM      7  C   UNL     1       6.569 -26.525   3.071  1.00  0.00     0.005 C 
ATOM      8  C   UNL     1       6.750 -27.779   2.193  1.00  0.00     0.005 C 
ATOM      9  C   UNL     1       5.739 -28.929   2.486  1.00  0.00     0.002 C 
ATOM     10  C   UNL     1       6.021 -30.283   1.660  1.00  0.00    -0.026 C 
ATOM     11  C   UNL     1       5.489 -30.027   0.209  1.00  0.00     0.010 C 
ATOM     12  C   UNL     1       5.454 -31.262  -0.679  1.00  0.00     0.033 C 
ATOM     13  C   UNL     1       4.517 -32.312  -0.072  1.00  0.00     0.120 C 
ATOM     14  C   UNL     1       4.991 -32.795   1.332  1.00  0.00    -0.006 C 
ATOM     15  C   UNL     1       5.292 -31.548   2.306  1.00  0.00     0.003 C 
ATOM     16  C   UNL     1       4.061 -31.063   3.119  1.00  0.00     0.005 C 
ATOM     17  C   UNL     1       4.538 -30.295   4.352  1.00  0.00     0.008 C 
ATOM     18  C   UNL     1       5.411 -29.024   4.030  1.00  0.00    -0.024 C 
ATOM     19  C   UNL     1       4.628 -27.653   4.455  1.00  0.00    -0.024 C 
ATOM     20  C   UNL     1       4.695 -27.403   6.003  1.00  0.00     0.008 C 
ATOM     21  C   UNL     1       5.831 -26.455   6.412  1.00  0.00     0.010 C 
ATOM     22  C   UNL     1       3.095 -27.754   4.107  1.00  0.00     0.012 C 
ATOM     23  C   UNL     1       6.748 -29.246   4.818  1.00  0.00     0.012 C 
ATOM     24  C   UNL     1       3.873 -33.719   1.898  1.00  0.00     0.014 C 
ATOM     25  C   UNL     1       6.246 -33.717   1.205  1.00  0.00     0.014 C 
ATOM     26  C   UNL     1       7.553 -30.550   1.571  1.00  0.00     0.012 C 
ENDROOT
BRANCH   1  27
ATOM     27  C   UNL     1       5.183 -23.596   2.288  1.00  0.00    -0.077 C 
ATOM     28  C   UNL     1       6.310 -23.592   1.280  1.00  0.00     0.039 C 
ATOM     29  C   UNL     1       3.942 -23.352   1.829  1.00  0.00     0.008 C 
ENDBRANCH   1  27
BRANCH   4  30
ATOM     30  C   UNL     1       4.678 -24.231   6.871  1.00  0.00     0.163 C 
BRANCH  30  31
ATOM     31  O   UNL     1       5.416 -23.263   7.575  1.00  0.00    -0.396 OA
ATOM     32  H   UNL     1       6.240 -23.077   7.055  1.00  0.00     0.210 HD
ENDBRANCH  30  31
ENDBRANCH   4  30
BRANCH  13  33
ATOM     33  O   UNL     1       4.326 -33.388  -0.962  1.00  0.00    -0.393 OA
ATOM     34  H   UNL     1       3.481 -33.236  -1.460  1.00  0.00     0.210 HD
ENDBRANCH  13  33
TORSDOF 4
ENDMDL
MODEL 5
REMARK VINA RESULT:    -6.403      3.364      7.986
REMARK INTER + INTRA:          -8.007
REMARK INTER:                  -7.431
REMARK INTRA:                  -0.576
REMARK UNBOUND:                -0.481
REMARK SMILES C=C(C)[C@@H]1CC[C@]2(CO)CC[C@@]3(C)[C@H](CC[C@H]4[C@]5(C)CC[C@@H](O)C(C)(C)[C@@H]5CC[C@@]43C)[C@H]12
REMARK SMILES IDX 4 1 5 2 6 3 7 4 32 5 14 6 15 7 16 8 17 9 18 10 20 11 21 12
REMARK SMILES IDX 22 13 24 14 27 15 28 16 29 17 30 18 12 19 11 20 10 21 13 22
REMARK SMILES IDX 31 23 25 24 26 25 19 26 2 27 3 28 1 29 8 30 9 31 23 33
REMARK H PARENT 9 32 23 34
REMARK Flexibility Score: inf
ROOT
ATOM      1  C   UNL     1       6.737 -31.824   1.122  1.00  0.00     0.018 C 
ATOM      2  C   UNL     1       5.476 -31.936   0.259  1.00  0.00     0.009 C 
ATOM      3  C   UNL     1       4.304 -32.150   1.221  1.00  0.00     0.010 C 
ATOM      4  C   UNL     1       4.843 -31.988   2.669  1.00  0.00    -0.003 C 
ATOM      5  C   UNL     1       6.240 -31.318   2.498  1.00  0.00     0.008 C 
ATOM      6  C   UNL     1       6.240 -29.754   2.728  1.00  0.00    -0.000 C 
ATOM      7  C   UNL     1       5.621 -28.943   1.569  1.00  0.00     0.005 C 
ATOM      8  C   UNL     1       5.725 -27.416   1.751  1.00  0.00     0.005 C 
ATOM      9  C   UNL     1       5.880 -26.947   3.230  1.00  0.00     0.002 C 
ATOM     10  C   UNL     1       5.851 -25.348   3.422  1.00  0.00    -0.026 C 
ATOM     11  C   UNL     1       7.264 -24.830   2.986  1.00  0.00     0.010 C 
ATOM     12  C   UNL     1       7.527 -23.365   3.302  1.00  0.00     0.033 C 
ATOM     13  C   UNL     1       7.449 -23.138   4.816  1.00  0.00     0.120 C 
ATOM     14  C   UNL     1       6.041 -23.467   5.399  1.00  0.00    -0.006 C 
ATOM     15  C   UNL     1       5.544 -24.926   4.931  1.00  0.00     0.003 C 
ATOM     16  C   UNL     1       5.973 -26.079   5.877  1.00  0.00     0.005 C 
ATOM     17  C   UNL     1       5.043 -27.275   5.675  1.00  0.00     0.008 C 
ATOM     18  C   UNL     1       5.036 -27.855   4.211  1.00  0.00    -0.024 C 
ATOM     19  C   UNL     1       5.681 -29.357   4.173  1.00  0.00    -0.024 C 
ATOM     20  C   UNL     1       4.665 -30.437   4.689  1.00  0.00     0.008 C 
ATOM     21  C   UNL     1       3.894 -31.129   3.557  1.00  0.00     0.010 C 
ATOM     22  C   UNL     1       6.928 -29.454   5.131  1.00  0.00     0.012 C 
ATOM     23  C   UNL     1       3.532 -27.812   3.770  1.00  0.00     0.012 C 
ATOM     24  C   UNL     1       6.151 -23.358   6.947  1.00  0.00     0.014 C 
ATOM     25  C   UNL     1       5.006 -22.369   4.992  1.00  0.00     0.014 C 
ATOM     26  C   UNL     1       4.792 -24.711   2.474  1.00  0.00     0.012 C 
ENDROOT
BRANCH   1  27
ATOM     27  C   UNL     1       7.943 -31.095   0.523  1.00  0.00    -0.077 C 
ATOM     28  C   UNL     1       7.919 -30.433  -0.837  1.00  0.00     0.039 C 
ATOM     29  C   UNL     1       9.123 -31.143   1.166  1.00  0.00     0.008 C 
ENDBRANCH   1  27
BRANCH   4  30
ATOM     30  C   UNL     1       5.016 -33.401   3.310  1.00  0.00     0.163 C 
BRANCH  30  31
ATOM     31  O   UNL     1       6.205 -33.476   4.058  1.00  0.00    -0.396 OA
ATOM     32  H   UNL     1       6.371 -32.578   4.447  1.00  0.00     0.210 HD
ENDBRANCH  30  31
ENDBRANCH   4  30
BRANCH  13  33
ATOM     33  O   UNL     1       7.866 -21.834   5.150  1.00  0.00    -0.393 OA
ATOM     34  H   UNL     1       7.059 -21.281   5.318  1.00  0.00     0.210 HD
ENDBRANCH  13  33
TORSDOF 4
ENDMDL
MODEL 6
REMARK VINA RESULT:    -6.311      1.794      2.793
REMARK INTER + INTRA:          -7.898
REMARK INTER:                  -7.326
REMARK INTRA:                  -0.572
REMARK UNBOUND:                -0.481
REMARK SMILES C=C(C)[C@@H]1CC[C@]2(CO)CC[C@@]3(C)[C@H](CC[C@H]4[C@]5(C)CC[C@@H](O)C(C)(C)[C@@H]5CC[C@@]43C)[C@H]12
REMARK SMILES IDX 4 1 5 2 6 3 7 4 32 5 14 6 15 7 16 8 17 9 18 10 20 11 21 12
REMARK SMILES IDX 22 13 24 14 27 15 28 16 29 17 30 18 12 19 11 20 10 21 13 22
REMARK SMILES IDX 31 23 25 24 26 25 19 26 2 27 3 28 1 29 8 30 9 31 23 33
REMARK H PARENT 9 32 23 34
REMARK Flexibility Score: inf
ROOT
ATOM      1  C   UNL     1       6.325 -24.750   3.489  1.00  0.00     0.018 C 
ATOM      2  C   UNL     1       5.701 -24.398   2.134  1.00  0.00     0.009 C 
ATOM      3  C   UNL     1       6.272 -25.392   1.118  1.00  0.00     0.010 C 
ATOM      4  C   UNL     1       7.099 -26.449   1.900  1.00  0.00    -0.003 C 
ATOM      5  C   UNL     1       6.683 -26.254   3.390  1.00  0.00     0.008 C 
ATOM      6  C   UNL     1       5.596 -27.283   3.899  1.00  0.00    -0.000 C 
ATOM      7  C   UNL     1       4.169 -27.005   3.380  1.00  0.00     0.005 C 
ATOM      8  C   UNL     1       3.098 -27.945   3.968  1.00  0.00     0.005 C 
ATOM      9  C   UNL     1       3.645 -29.309   4.487  1.00  0.00     0.002 C 
ATOM     10  C   UNL     1       2.504 -30.337   4.973  1.00  0.00    -0.026 C 
ATOM     11  C   UNL     1       2.049 -29.847   6.390  1.00  0.00     0.010 C 
ATOM     12  C   UNL     1       1.132 -30.809   7.129  1.00  0.00     0.033 C 
ATOM     13  C   UNL     1       1.856 -32.141   7.361  1.00  0.00     0.120 C 
ATOM     14  C   UNL     1       2.251 -32.848   6.030  1.00  0.00    -0.006 C 
ATOM     15  C   UNL     1       3.036 -31.841   5.048  1.00  0.00     0.003 C 
ATOM     16  C   UNL     1       4.575 -31.823   5.251  1.00  0.00     0.005 C 
ATOM     17  C   UNL     1       5.250 -31.300   3.983  1.00  0.00     0.008 C 
ATOM     18  C   UNL     1       4.820 -29.841   3.572  1.00  0.00    -0.024 C 
ATOM     19  C   UNL     1       6.071 -28.800   3.719  1.00  0.00    -0.024 C 
ATOM     20  C   UNL     1       7.075 -28.926   2.519  1.00  0.00     0.008 C 
ATOM     21  C   UNL     1       6.818 -27.899   1.407  1.00  0.00     0.010 C 
ATOM     22  C   UNL     1       6.914 -29.115   5.012  1.00  0.00     0.012 C 
ATOM     23  C   UNL     1       4.293 -29.978   2.102  1.00  0.00     0.012 C 
ATOM     24  C   UNL     1       3.115 -34.085   6.408  1.00  0.00     0.014 C 
ATOM     25  C   UNL     1       0.989 -33.441   5.324  1.00  0.00     0.014 C 
ATOM     26  C   UNL     1       1.273 -30.265   4.021  1.00  0.00     0.012 C 
ENDROOT
BRANCH   1  27
ATOM     27  C   UNL     1       5.575 -24.310   4.750  1.00  0.00    -0.077 C 
ATOM     28  C   UNL     1       4.252 -23.577   4.713  1.00  0.00     0.039 C 
ATOM     29  C   UNL     1       6.164 -24.461   5.949  1.00  0.00     0.008 C 
ENDBRANCH   1  27
BRANCH   4  30
ATOM     30  C   UNL     1       8.619 -26.130   1.737  1.00  0.00     0.163 C 
BRANCH  30  31
ATOM     31  O   UNL     1       8.828 -25.164   0.736  1.00  0.00    -0.396 OA
ATOM     32  H   UNL     1       9.726 -24.769   0.883  1.00  0.00     0.210 HD
ENDBRANCH  30  31
ENDBRANCH   4  30
BRANCH  13  33
ATOM     33  O   UNL     1       1.098 -32.984   8.200  1.00  0.00    -0.393 OA
ATOM     34  H   UNL     1       1.488 -33.895   8.164  1.00  0.00     0.210 HD
ENDBRANCH  13  33
TORSDOF 4
ENDMDL
MODEL 7
REMARK VINA RESULT:    -6.145      1.517      8.096
REMARK INTER + INTRA:          -7.704
REMARK INTER:                  -7.187
REMARK INTRA:                  -0.517
REMARK UNBOUND:                -0.481
REMARK SMILES C=C(C)[C@@H]1CC[C@]2(CO)CC[C@@]3(C)[C@H](CC[C@H]4[C@]5(C)CC[C@@H](O)C(C)(C)[C@@H]5CC[C@@]43C)[C@H]12
REMARK SMILES IDX 4 1 5 2 6 3 7 4 32 5 14 6 15 7 16 8 17 9 18 10 20 11 21 12
REMARK SMILES IDX 22 13 24 14 27 15 28 16 29 17 30 18 12 19 11 20 10 21 13 22
REMARK SMILES IDX 31 23 25 24 26 25 19 26 2 27 3 28 1 29 8 30 9 31 23 33
REMARK H PARENT 9 32 23 34
REMARK Flexibility Score: inf
ROOT
ATOM      1  C   UNL     1       1.617 -32.780   8.271  1.00  0.00     0.018 C 
ATOM      2  C   UNL     1       0.654 -33.320   7.207  1.00  0.00     0.009 C 
ATOM      3  C   UNL     1      -0.595 -32.435   7.258  1.00  0.00     0.010 C 
ATOM      4  C   UNL     1      -0.304 -31.258   8.229  1.00  0.00    -0.003 C 
ATOM      5  C   UNL     1       1.241 -31.286   8.434  1.00  0.00     0.008 C 
ATOM      6  C   UNL     1       2.032 -30.248   7.541  1.00  0.00    -0.000 C 
ATOM      7  C   UNL     1       2.141 -30.645   6.054  1.00  0.00     0.005 C 
ATOM      8  C   UNL     1       3.007 -29.685   5.214  1.00  0.00     0.005 C 
ATOM      9  C   UNL     1       3.136 -28.246   5.800  1.00  0.00     0.002 C 
ATOM     10  C   UNL     1       3.927 -27.214   4.849  1.00  0.00    -0.026 C 
ATOM     11  C   UNL     1       5.450 -27.546   5.016  1.00  0.00     0.010 C 
ATOM     12  C   UNL     1       6.391 -26.539   4.374  1.00  0.00     0.033 C 
ATOM     13  C   UNL     1       6.193 -25.160   5.015  1.00  0.00     0.120 C 
ATOM     14  C   UNL     1       4.751 -24.606   4.808  1.00  0.00    -0.006 C 
ATOM     15  C   UNL     1       3.643 -25.693   5.240  1.00  0.00     0.003 C 
ATOM     16  C   UNL     1       3.229 -25.622   6.734  1.00  0.00     0.005 C 
ATOM     17  C   UNL     1       1.856 -26.269   6.913  1.00  0.00     0.008 C 
ATOM     18  C   UNL     1       1.789 -27.783   6.485  1.00  0.00    -0.024 C 
ATOM     19  C   UNL     1       1.535 -28.747   7.780  1.00  0.00    -0.024 C 
ATOM     20  C   UNL     1       0.032 -28.727   8.233  1.00  0.00     0.008 C 
ATOM     21  C   UNL     1      -0.786 -29.891   7.657  1.00  0.00     0.010 C 
ATOM     22  C   UNL     1       2.359 -28.241   9.024  1.00  0.00     0.012 C 
ATOM     23  C   UNL     1       0.635 -27.849   5.425  1.00  0.00     0.012 C 
ATOM     24  C   UNL     1       4.640 -23.298   5.643  1.00  0.00     0.014 C 
ATOM     25  C   UNL     1       4.540 -24.156   3.326  1.00  0.00     0.014 C 
ATOM     26  C   UNL     1       3.544 -27.453   3.359  1.00  0.00     0.012 C 
ENDROOT
BRANCH   1  27
ATOM     27  C   UNL     1       3.106 -33.093   8.102  1.00  0.00    -0.077 C 
ATOM     28  C   UNL     1       3.705 -33.600   6.808  1.00  0.00     0.039 C 
ATOM     29  C   UNL     1       3.913 -33.041   9.176  1.00  0.00     0.008 C 
ENDBRANCH   1  27
BRANCH   4  30
ATOM     30  C   UNL     1      -1.017 -31.532   9.591  1.00  0.00     0.163 C 
BRANCH  30  31
ATOM     31  O   UNL     1      -1.974 -32.555   9.464  1.00  0.00    -0.396 OA
ATOM     32  H   UNL     1      -1.816 -33.207  10.195  1.00  0.00     0.210 HD
ENDBRANCH  30  31
ENDBRANCH   4  30
BRANCH  13  33
ATOM     33  O   UNL     1       7.175 -24.253   4.567  1.00  0.00    -0.393 OA
ATOM     34  H   UNL     1       8.068 -24.630   4.779  1.00  0.00     0.210 HD
ENDBRANCH  13  33
TORSDOF 4
ENDMDL
MODEL 8
REMARK VINA RESULT:    -5.875      3.318      6.343
REMARK INTER + INTRA:          -7.386
REMARK INTER:                  -6.950
REMARK INTRA:                  -0.436
REMARK UNBOUND:                -0.481
REMARK SMILES C=C(C)[C@@H]1CC[C@]2(CO)CC[C@@]3(C)[C@H](CC[C@H]4[C@]5(C)CC[C@@H](O)C(C)(C)[C@@H]5CC[C@@]43C)[C@H]12
REMARK SMILES IDX 4 1 5 2 6 3 7 4 32 5 14 6 15 7 16 8 17 9 18 10 20 11 21 12
REMARK SMILES IDX 22 13 24 14 27 15 28 16 29 17 30 18 12 19 11 20 10 21 13 22
REMARK SMILES IDX 31 23 25 24 26 25 19 26 2 27 3 28 1 29 8 30 9 31 23 33
REMARK H PARENT 9 32 23 34
REMARK Flexibility Score: inf
ROOT
ATOM      1  C   UNL     1       3.425 -25.175   6.483  1.00  0.00     0.018 C 
ATOM      2  C   UNL     1       4.211 -25.526   7.752  1.00  0.00     0.009 C 
ATOM      3  C   UNL     1       3.513 -26.738   8.377  1.00  0.00     0.010 C 
ATOM      4  C   UNL     1       2.418 -27.219   7.387  1.00  0.00    -0.003 C 
ATOM      5  C   UNL     1       2.755 -26.500   6.045  1.00  0.00     0.008 C 
ATOM      6  C   UNL     1       3.548 -27.396   5.012  1.00  0.00    -0.000 C 
ATOM      7  C   UNL     1       5.036 -27.604   5.365  1.00  0.00     0.005 C 
ATOM      8  C   UNL     1       5.827 -28.385   4.298  1.00  0.00     0.005 C 
ATOM      9  C   UNL     1       4.957 -29.298   3.382  1.00  0.00     0.002 C 
ATOM     10  C   UNL     1       5.805 -30.212   2.361  1.00  0.00    -0.026 C 
ATOM     11  C   UNL     1       6.249 -29.265   1.195  1.00  0.00     0.010 C 
ATOM     12  C   UNL     1       6.874 -29.978   0.005  1.00  0.00     0.033 C 
ATOM     13  C   UNL     1       5.861 -30.950  -0.610  1.00  0.00     0.120 C 
ATOM     14  C   UNL     1       5.421 -32.065   0.386  1.00  0.00    -0.006 C 
ATOM     15  C   UNL     1       4.951 -31.435   1.793  1.00  0.00     0.003 C 
ATOM     16  C   UNL     1       3.443 -31.074   1.857  1.00  0.00     0.005 C 
ATOM     17  C   UNL     1       2.997 -31.014   3.318  1.00  0.00     0.008 C 
ATOM     18  C   UNL     1       3.765 -29.952   4.191  1.00  0.00    -0.024 C 
ATOM     19  C   UNL     1       2.766 -28.746   4.660  1.00  0.00    -0.024 C 
ATOM     20  C   UNL     1       1.851 -29.184   5.858  1.00  0.00     0.008 C 
ATOM     21  C   UNL     1       2.410 -28.768   7.226  1.00  0.00     0.010 C 
ATOM     22  C   UNL     1       1.780 -28.351   3.496  1.00  0.00     0.012 C 
ATOM     23  C   UNL     1       4.358 -30.771   5.389  1.00  0.00     0.012 C 
ATOM     24  C   UNL     1       4.280 -32.868  -0.302  1.00  0.00     0.014 C 
ATOM     25  C   UNL     1       6.570 -33.102   0.597  1.00  0.00     0.014 C 
ATOM     26  C   UNL     1       7.089 -30.749   3.060  1.00  0.00     0.012 C 
ENDROOT
BRANCH   1  27
ATOM     27  C   UNL     1       4.158 -24.388   5.392  1.00  0.00    -0.077 C 
ATOM     28  C   UNL     1       5.665 -24.337   5.278  1.00  0.00     0.039 C 
ATOM     29  C   UNL     1       3.448 -23.600   4.565  1.00  0.00     0.008 C 
ENDBRANCH   1  27
BRANCH   4  30
ATOM     30  C   UNL     1       1.022 -26.742   7.899  1.00  0.00     0.163 C 
BRANCH  30  31
ATOM     31  O   UNL     1       0.193 -26.361   6.828  1.00  0.00    -0.396 OA
ATOM     32  H   UNL     1      -0.610 -26.942   6.848  1.00  0.00     0.210 HD
ENDBRANCH  30  31
ENDBRANCH   4  30
BRANCH  13  33
ATOM     33  O   UNL     1       6.351 -31.487  -1.818  1.00  0.00    -0.393 OA
ATOM     34  H   UNL     1       5.584 -31.846  -2.335  1.00  0.00     0.210 HD
ENDBRANCH  13  33
TORSDOF 4
ENDMDL
MODEL 9
REMARK VINA RESULT:    -5.705     12.278     14.734
REMARK INTER + INTRA:          -7.187
REMARK INTER:                  -6.767
REMARK INTRA:                  -0.420
REMARK UNBOUND:                -0.481
REMARK SMILES C=C(C)[C@@H]1CC[C@]2(CO)CC[C@@]3(C)[C@H](CC[C@H]4[C@]5(C)CC[C@@H](O)C(C)(C)[C@@H]5CC[C@@]43C)[C@H]12
REMARK SMILES IDX 4 1 5 2 6 3 7 4 32 5 14 6 15 7 16 8 17 9 18 10 20 11 21 12
REMARK SMILES IDX 22 13 24 14 27 15 28 16 29 17 30 18 12 19 11 20 10 21 13 22
REMARK SMILES IDX 31 23 25 24 26 25 19 26 2 27 3 28 1 29 8 30 9 31 23 33
REMARK H PARENT 9 32 23 34
REMARK Flexibility Score: inf
ROOT
ATOM      1  C   UNL     1       8.024 -20.982  -4.894  1.00  0.00     0.018 C 
ATOM      2  C   UNL     1       8.708 -20.261  -6.061  1.00  0.00     0.009 C 
ATOM      3  C   UNL     1       7.757 -20.365  -7.258  1.00  0.00     0.010 C 
ATOM      4  C   UNL     1       6.429 -20.993  -6.755  1.00  0.00    -0.003 C 
ATOM      5  C   UNL     1       6.508 -20.898  -5.201  1.00  0.00     0.008 C 
ATOM      6  C   UNL     1       5.721 -19.673  -4.586  1.00  0.00    -0.000 C 
ATOM      7  C   UNL     1       6.415 -18.309  -4.785  1.00  0.00     0.005 C 
ATOM      8  C   UNL     1       5.697 -17.137  -4.088  1.00  0.00     0.005 C 
ATOM      9  C   UNL     1       4.180 -17.373  -3.816  1.00  0.00     0.002 C 
ATOM     10  C   UNL     1       3.410 -16.093  -3.212  1.00  0.00    -0.026 C 
ATOM     11  C   UNL     1       3.793 -16.029  -1.694  1.00  0.00     0.010 C 
ATOM     12  C   UNL     1       2.994 -15.022  -0.882  1.00  0.00     0.033 C 
ATOM     13  C   UNL     1       1.505 -15.386  -0.921  1.00  0.00     0.120 C 
ATOM     14  C   UNL     1       0.918 -15.349  -2.364  1.00  0.00    -0.006 C 
ATOM     15  C   UNL     1       1.827 -16.204  -3.384  1.00  0.00     0.003 C 
ATOM     16  C   UNL     1       1.432 -17.702  -3.487  1.00  0.00     0.005 C 
ATOM     17  C   UNL     1       1.946 -18.272  -4.809  1.00  0.00     0.008 C 
ATOM     18  C   UNL     1       3.508 -18.191  -4.989  1.00  0.00    -0.024 C 
ATOM     19  C   UNL     1       4.174 -19.684  -4.996  1.00  0.00    -0.024 C 
ATOM     20  C   UNL     1       3.973 -20.403  -6.377  1.00  0.00     0.008 C 
ATOM     21  C   UNL     1       5.178 -20.252  -7.316  1.00  0.00     0.010 C 
ATOM     22  C   UNL     1       3.479 -20.612  -3.930  1.00  0.00     0.012 C 
ATOM     23  C   UNL     1       3.716 -17.411  -6.333  1.00  0.00     0.012 C 
ATOM     24  C   UNL     1      -0.536 -15.897  -2.280  1.00  0.00     0.014 C 
ATOM     25  C   UNL     1       0.763 -13.875  -2.860  1.00  0.00     0.014 C 
ATOM     26  C   UNL     1       3.920 -14.787  -3.892  1.00  0.00     0.012 C 
ENDROOT
BRANCH   1  27
ATOM     27  C   UNL     1       8.454 -20.599  -3.475  1.00  0.00    -0.077 C 
ATOM     28  C   UNL     1       9.124 -19.285  -3.139  1.00  0.00     0.039 C 
ATOM     29  C   UNL     1       8.353 -21.510  -2.491  1.00  0.00     0.008 C 
ENDBRANCH   1  27
BRANCH   4  30
ATOM     30  C   UNL     1       6.380 -22.494  -7.185  1.00  0.00     0.163 C 
BRANCH  30  31
ATOM     31  O   UNL     1       7.427 -22.800  -8.073  1.00  0.00    -0.396 OA
ATOM     32  H   UNL     1       7.159 -22.482  -8.974  1.00  0.00     0.210 HD
ENDBRANCH  30  31
ENDBRANCH   4  30
BRANCH  13  33
ATOM     33  O   UNL     1       0.768 -14.578  -0.032  1.00  0.00    -0.393 OA
ATOM     34  H   UNL     1       0.480 -13.761  -0.516  1.00  0.00     0.210 HD
ENDBRANCH  13  33
TORSDOF 4
ENDMDL
