MODEL 1
REMARK VINA RESULT:    -4.842      0.000      0.000
REMARK INTER + INTRA:          -6.077
REMARK INTER:                  -5.833
REMARK INTRA:                  -0.244
REMARK UNBOUND:                -0.244
REMARK SMILES O=c1c(O)c(-c2ccc(O)c(O)c2)oc2cc(O)cc(O)c12
REMARK SMILES IDX 5 1 3 2 2 3 1 4 22 5 20 6 19 7 17 8 16 9 15 10 14 11 6 12
REMARK SMILES IDX 7 13 8 14 9 15 13 16 11 17 10 18 12 20 4 22 21 24 18 26
REMARK H PARENT 10 19 12 21 4 23 21 25 18 27
REMARK Flexibility Score: inf
ROOT
ATOM      1  C   UNL     1     133.998 125.602 100.325  1.00  0.00     0.180 A 
ATOM      2  C   UNL     1     132.623 125.383 100.518  1.00  0.00     0.208 A 
ATOM      3  C   UNL     1     132.146 125.153 101.818  1.00  0.00     0.238 A 
ATOM      4  O   UNL     1     130.922 124.904 101.978  1.00  0.00    -0.285 OA
ATOM      5  C   UNL     1     133.046 125.161 102.911  1.00  0.00     0.111 A 
ATOM      6  C   UNL     1     132.666 124.981 104.274  1.00  0.00     0.134 A 
ATOM      7  C   UNL     1     133.657 124.877 105.259  1.00  0.00     0.093 A 
ATOM      8  C   UNL     1     135.009 125.014 104.937  1.00  0.00     0.123 A 
ATOM      9  C   UNL     1     135.386 125.250 103.618  1.00  0.00     0.094 A 
ATOM     10  C   UNL     1     134.423 125.322 102.608  1.00  0.00     0.146 A 
ATOM     11  O   UNL     1     134.826 125.538 101.361  1.00  0.00    -0.452 OA
ENDROOT
BRANCH   1  12
ATOM     12  C   UNL     1     134.573 125.876  98.988  1.00  0.00     0.025 A 
ATOM     13  C   UNL     1     135.304 124.896  98.293  1.00  0.00     0.016 A 
ATOM     14  C   UNL     1     135.817 125.168  97.021  1.00  0.00     0.051 A 
ATOM     15  C   UNL     1     135.599 126.411  96.422  1.00  0.00     0.157 A 
ATOM     16  C   UNL     1     134.337 127.116  98.373  1.00  0.00     0.062 A 
ATOM     17  C   UNL     1     134.852 127.391  97.098  1.00  0.00     0.158 A 
BRANCH  15  18
ATOM     18  O   UNL     1     136.125 126.654  95.152  1.00  0.00    -0.504 OA
ATOM     19  H   UNL     1     137.123 126.701  94.984  1.00  0.00     0.293 HD
ENDBRANCH  15  18
BRANCH  17  20
ATOM     20  O   UNL     1     134.624 128.630  96.502  1.00  0.00    -0.504 OA
ATOM     21  H   UNL     1     133.873 128.768  95.835  1.00  0.00     0.293 HD
ENDBRANCH  17  20
ENDBRANCH   1  12
BRANCH   2  22
ATOM     22  O   UNL     1     131.756 125.358  99.422  1.00  0.00    -0.502 OA
ATOM     23  H   UNL     1     131.621 126.160  98.817  1.00  0.00     0.293 HD
ENDBRANCH   2  22
BRANCH   6  24
ATOM     24  O   UNL     1     131.341 124.924 104.715  1.00  0.00    -0.507 OA
ATOM     25  H   UNL     1     130.765 124.095 104.700  1.00  0.00     0.293 HD
ENDBRANCH   6  24
BRANCH   8  26
ATOM     26  O   UNL     1     135.988 124.925 105.925  1.00  0.00    -0.508 OA
ATOM     27  H   UNL     1     136.288 125.740 106.448  1.00  0.00     0.293 HD
ENDBRANCH   8  26
TORSDOF 6
ENDMDL
MODEL 2
REMARK VINA RESULT:    -4.618     15.624     18.495
REMARK INTER + INTRA:          -5.808
REMARK INTER:                  -5.480
REMARK INTRA:                  -0.328
REMARK UNBOUND:                -0.244
REMARK SMILES O=c1c(O)c(-c2ccc(O)c(O)c2)oc2cc(O)cc(O)c12
REMARK SMILES IDX 5 1 3 2 2 3 1 4 22 5 20 6 19 7 17 8 16 9 15 10 14 11 6 12
REMARK SMILES IDX 7 13 8 14 9 15 13 16 11 17 10 18 12 20 4 22 21 24 18 26
REMARK H PARENT 10 19 12 21 4 23 21 25 18 27
REMARK Flexibility Score: inf
ROOT
ATOM      1  C   UNL     1     117.982 123.056  96.030  1.00  0.00     0.180 A 
ATOM      2  C   UNL     1     118.389 124.111  95.195  1.00  0.00     0.208 A 
ATOM      3  C   UNL     1     118.289 123.956  93.803  1.00  0.00     0.238 A 
ATOM      4  O   UNL     1     118.705 124.882  93.060  1.00  0.00    -0.285 OA
ATOM      5  C   UNL     1     117.768 122.755  93.264  1.00  0.00     0.111 A 
ATOM      6  C   UNL     1     117.584 122.505  91.871  1.00  0.00     0.134 A 
ATOM      7  C   UNL     1     117.184 121.233  91.444  1.00  0.00     0.093 A 
ATOM      8  C   UNL     1     116.898 120.222  92.364  1.00  0.00     0.123 A 
ATOM      9  C   UNL     1     117.017 120.474  93.729  1.00  0.00     0.094 A 
ATOM     10  C   UNL     1     117.449 121.722  94.184  1.00  0.00     0.146 A 
ATOM     11  O   UNL     1     117.560 121.917  95.492  1.00  0.00    -0.452 OA
ENDROOT
BRANCH   1  12
ATOM     12  C   UNL     1     118.034 123.153  97.506  1.00  0.00     0.025 A 
ATOM     13  C   UNL     1     116.992 123.750  98.237  1.00  0.00     0.016 A 
ATOM     14  C   UNL     1     117.050 123.809  99.632  1.00  0.00     0.051 A 
ATOM     15  C   UNL     1     118.140 123.265 100.317  1.00  0.00     0.157 A 
ATOM     16  C   UNL     1     119.117 122.589  98.199  1.00  0.00     0.062 A 
ATOM     17  C   UNL     1     119.179 122.648  99.600  1.00  0.00     0.158 A 
BRANCH  15  18
ATOM     18  O   UNL     1     118.172 123.341 101.710  1.00  0.00    -0.504 OA
ATOM     19  H   UNL     1     118.813 122.787 102.264  1.00  0.00     0.293 HD
ENDBRANCH  15  18
BRANCH  17  20
ATOM     20  O   UNL     1     120.264 122.097 100.277  1.00  0.00    -0.504 OA
ATOM     21  H   UNL     1     120.761 122.613 100.994  1.00  0.00     0.293 HD
ENDBRANCH  17  20
ENDBRANCH   1  12
BRANCH   2  22
ATOM     22  O   UNL     1     118.920 125.279  95.748  1.00  0.00    -0.502 OA
ATOM     23  H   UNL     1     119.710 125.764  95.339  1.00  0.00     0.293 HD
ENDBRANCH   2  22
BRANCH   6  24
ATOM     24  O   UNL     1     117.753 123.472  90.875  1.00  0.00    -0.507 OA
ATOM     25  H   UNL     1     117.422 124.423  90.936  1.00  0.00     0.293 HD
ENDBRANCH   6  24
BRANCH   8  26
ATOM     26  O   UNL     1     116.485 118.963  91.933  1.00  0.00    -0.508 OA
ATOM     27  H   UNL     1     116.654 118.646  90.985  1.00  0.00     0.293 HD
ENDBRANCH   8  26
TORSDOF 6
ENDMDL
MODEL 3
REMARK VINA RESULT:    -4.497      1.125      1.775
REMARK INTER + INTRA:          -5.662
REMARK INTER:                  -5.338
REMARK INTRA:                  -0.324
REMARK UNBOUND:                -0.244
REMARK SMILES O=c1c(O)c(-c2ccc(O)c(O)c2)oc2cc(O)cc(O)c12
REMARK SMILES IDX 5 1 3 2 2 3 1 4 22 5 20 6 19 7 17 8 16 9 15 10 14 11 6 12
REMARK SMILES IDX 7 13 8 14 9 15 13 16 11 17 10 18 12 20 4 22 21 24 18 26
REMARK H PARENT 10 19 12 21 4 23 21 25 18 27
REMARK Flexibility Score: inf
ROOT
ATOM      1  C   UNL     1     133.672 125.584 101.362  1.00  0.00     0.180 A 
ATOM      2  C   UNL     1     132.384 125.070 101.597  1.00  0.00     0.208 A 
ATOM      3  C   UNL     1     132.051 124.634 102.889  1.00  0.00     0.238 A 
ATOM      4  O   UNL     1     130.916 124.125 103.081  1.00  0.00    -0.285 OA
ATOM      5  C   UNL     1     133.002 124.731 103.933  1.00  0.00     0.111 A 
ATOM      6  C   UNL     1     132.757 124.357 105.289  1.00  0.00     0.134 A 
ATOM      7  C   UNL     1     133.812 124.374 106.211  1.00  0.00     0.093 A 
ATOM      8  C   UNL     1     135.085 124.814 105.840  1.00  0.00     0.123 A 
ATOM      9  C   UNL     1     135.318 125.237 104.534  1.00  0.00     0.094 A 
ATOM     10  C   UNL     1     134.295 125.198 103.583  1.00  0.00     0.146 A 
ATOM     11  O   UNL     1     134.563 125.601 102.347  1.00  0.00    -0.452 OA
ENDROOT
BRANCH   1  12
ATOM     12  C   UNL     1     134.090 126.085 100.033  1.00  0.00     0.025 A 
ATOM     13  C   UNL     1     133.988 127.448  99.701  1.00  0.00     0.016 A 
ATOM     14  C   UNL     1     134.412 127.903  98.449  1.00  0.00     0.051 A 
ATOM     15  C   UNL     1     134.953 127.012  97.519  1.00  0.00     0.157 A 
ATOM     16  C   UNL     1     134.655 125.197  99.104  1.00  0.00     0.062 A 
ATOM     17  C   UNL     1     135.080 125.652  97.847  1.00  0.00     0.158 A 
BRANCH  15  18
ATOM     18  O   UNL     1     135.366 127.496  96.277  1.00  0.00    -0.504 OA
ATOM     19  H   UNL     1     136.207 128.050  96.168  1.00  0.00     0.293 HD
ENDBRANCH  15  18
BRANCH  17  20
ATOM     20  O   UNL     1     135.627 124.760  96.927  1.00  0.00    -0.504 OA
ATOM     21  H   UNL     1     135.130 123.925  96.637  1.00  0.00     0.293 HD
ENDBRANCH  17  20
ENDBRANCH   1  12
BRANCH   2  22
ATOM     22  O   UNL     1     131.469 124.963 100.547  1.00  0.00    -0.502 OA
ATOM     23  H   UNL     1     130.939 125.756 100.204  1.00  0.00     0.293 HD
ENDBRANCH   2  22
BRANCH   6  24
ATOM     24  O   UNL     1     131.503 123.991 105.784  1.00  0.00    -0.507 OA
ATOM     25  H   UNL     1     131.118 123.059 105.741  1.00  0.00     0.293 HD
ENDBRANCH   6  24
BRANCH   8  26
ATOM     26  O   UNL     1     136.125 124.842 106.767  1.00  0.00    -0.508 OA
ATOM     27  H   UNL     1     136.306 124.059 107.384  1.00  0.00     0.293 HD
ENDBRANCH   8  26
TORSDOF 6
ENDMDL
MODEL 4
REMARK VINA RESULT:    -4.419     15.177     17.867
REMARK INTER + INTRA:          -5.568
REMARK INTER:                  -5.247
REMARK INTRA:                  -0.321
REMARK UNBOUND:                -0.244
REMARK SMILES O=c1c(O)c(-c2ccc(O)c(O)c2)oc2cc(O)cc(O)c12
REMARK SMILES IDX 5 1 3 2 2 3 1 4 22 5 20 6 19 7 17 8 16 9 15 10 14 11 6 12
REMARK SMILES IDX 7 13 8 14 9 15 13 16 11 17 10 18 12 20 4 22 21 24 18 26
REMARK H PARENT 10 19 12 21 4 23 21 25 18 27
REMARK Flexibility Score: inf
ROOT
ATOM      1  C   UNL     1     118.178 123.854  96.046  1.00  0.00     0.180 A 
ATOM      2  C   UNL     1     117.605 122.916  95.169  1.00  0.00     0.208 A 
ATOM      3  C   UNL     1     117.719 123.120  93.785  1.00  0.00     0.238 A 
ATOM      4  O   UNL     1     117.158 122.305  93.006  1.00  0.00    -0.285 OA
ATOM      5  C   UNL     1     118.417 124.250  93.294  1.00  0.00     0.111 A 
ATOM      6  C   UNL     1     118.628 124.533  91.911  1.00  0.00     0.134 A 
ATOM      7  C   UNL     1     119.219 125.747  91.538  1.00  0.00     0.093 A 
ATOM      8  C   UNL     1     119.665 126.657  92.499  1.00  0.00     0.123 A 
ATOM      9  C   UNL     1     119.517 126.362  93.852  1.00  0.00     0.094 A 
ATOM     10  C   UNL     1     118.899 125.175  94.256  1.00  0.00     0.146 A 
ATOM     11  O   UNL     1     118.768 124.938  95.555  1.00  0.00    -0.452 OA
ENDROOT
BRANCH   1  12
ATOM     12  C   UNL     1     118.121 123.696  97.517  1.00  0.00     0.025 A 
ATOM     13  C   UNL     1     117.024 124.167  98.261  1.00  0.00     0.016 A 
ATOM     14  C   UNL     1     116.980 123.985  99.646  1.00  0.00     0.051 A 
ATOM     15  C   UNL     1     118.019 123.322 100.306  1.00  0.00     0.157 A 
ATOM     16  C   UNL     1     119.152 123.012  98.180  1.00  0.00     0.062 A 
ATOM     17  C   UNL     1     119.110 122.829  99.571  1.00  0.00     0.158 A 
BRANCH  15  18
ATOM     18  O   UNL     1     117.948 123.158 101.689  1.00  0.00    -0.504 OA
ATOM     19  H   UNL     1     118.774 123.162 102.274  1.00  0.00     0.293 HD
ENDBRANCH  15  18
BRANCH  17  20
ATOM     20  O   UNL     1     120.145 122.161 100.221  1.00  0.00    -0.504 OA
ATOM     21  H   UNL     1     120.020 121.230 100.601  1.00  0.00     0.293 HD
ENDBRANCH  17  20
ENDBRANCH   1  12
BRANCH   2  22
ATOM     22  O   UNL     1     116.903 121.820  95.676  1.00  0.00    -0.502 OA
ATOM     23  H   UNL     1     116.258 121.900  96.455  1.00  0.00     0.293 HD
ENDBRANCH   2  22
BRANCH   6  24
ATOM     24  O   UNL     1     118.304 123.653  90.875  1.00  0.00    -0.507 OA
ATOM     25  H   UNL     1     117.363 123.412  90.599  1.00  0.00     0.293 HD
ENDBRANCH   6  24
BRANCH   8  26
ATOM     26  O   UNL     1     120.266 127.855  92.120  1.00  0.00    -0.508 OA
ATOM     27  H   UNL     1     120.217 128.681  92.705  1.00  0.00     0.293 HD
ENDBRANCH   8  26
TORSDOF 6
ENDMDL
MODEL 5
REMARK VINA RESULT:    -4.415      3.767      9.040
REMARK INTER + INTRA:          -5.562
REMARK INTER:                  -5.253
REMARK INTRA:                  -0.309
REMARK UNBOUND:                -0.244
REMARK SMILES O=c1c(O)c(-c2ccc(O)c(O)c2)oc2cc(O)cc(O)c12
REMARK SMILES IDX 5 1 3 2 2 3 1 4 22 5 20 6 19 7 17 8 16 9 15 10 14 11 6 12
REMARK SMILES IDX 7 13 8 14 9 15 13 16 11 17 10 18 12 20 4 22 21 24 18 26
REMARK H PARENT 10 19 12 21 4 23 21 25 18 27
REMARK Flexibility Score: inf
ROOT
ATOM      1  C   UNL     1     133.589 128.201  96.029  1.00  0.00     0.180 A 
ATOM      2  C   UNL     1     133.338 127.123  95.162  1.00  0.00     0.208 A 
ATOM      3  C   UNL     1     133.454 127.323  93.777  1.00  0.00     0.238 A 
ATOM      4  O   UNL     1     133.175 126.369  93.004  1.00  0.00    -0.285 OA
ATOM      5  C   UNL     1     133.835 128.591  93.277  1.00  0.00     0.111 A 
ATOM      6  C   UNL     1     134.022 128.894  91.895  1.00  0.00     0.134 A 
ATOM      7  C   UNL     1     134.271 130.216  91.505  1.00  0.00     0.093 A 
ATOM      8  C   UNL     1     134.405 131.233  92.454  1.00  0.00     0.123 A 
ATOM      9  C   UNL     1     134.283 130.936  93.808  1.00  0.00     0.094 A 
ATOM     10  C   UNL     1     133.999 129.633  94.226  1.00  0.00     0.146 A 
ATOM     11  O   UNL     1     133.880 129.396  95.527  1.00  0.00    -0.452 OA
ENDROOT
BRANCH   1  12
ATOM     12  C   UNL     1     133.512 128.063  97.501  1.00  0.00     0.025 A 
ATOM     13  C   UNL     1     134.564 127.492  98.238  1.00  0.00     0.016 A 
ATOM     14  C   UNL     1     134.480 127.394  99.630  1.00  0.00     0.051 A 
ATOM     15  C   UNL     1     133.354 127.874 100.306  1.00  0.00     0.157 A 
ATOM     16  C   UNL     1     132.392 128.564  98.185  1.00  0.00     0.062 A 
ATOM     17  C   UNL     1     132.305 128.465  99.582  1.00  0.00     0.158 A 
BRANCH  15  18
ATOM     18  O   UNL     1     133.298 127.761 101.695  1.00  0.00    -0.504 OA
ATOM     19  H   UNL     1     133.703 128.457 102.308  1.00  0.00     0.293 HD
ENDBRANCH  15  18
BRANCH  17  20
ATOM     20  O   UNL     1     131.184 128.953 100.250  1.00  0.00    -0.504 OA
ATOM     21  H   UNL     1     131.088 128.873 101.256  1.00  0.00     0.293 HD
ENDBRANCH  17  20
ENDBRANCH   1  12
BRANCH   2  22
ATOM     22  O   UNL     1     132.943 125.886  95.676  1.00  0.00    -0.502 OA
ATOM     23  H   UNL     1     132.303 125.801  96.458  1.00  0.00     0.293 HD
ENDBRANCH   2  22
BRANCH   6  24
ATOM     24  O   UNL     1     134.000 127.938  90.876  1.00  0.00    -0.507 OA
ATOM     25  H   UNL     1     133.228 127.316  90.688  1.00  0.00     0.293 HD
ENDBRANCH   6  24
BRANCH   8  26
ATOM     26  O   UNL     1     134.669 132.543  92.059  1.00  0.00    -0.508 OA
ATOM     27  H   UNL     1     135.235 133.164  92.626  1.00  0.00     0.293 HD
ENDBRANCH   8  26
TORSDOF 6
ENDMDL
MODEL 6
REMARK VINA RESULT:    -4.406      1.808      6.798
REMARK INTER + INTRA:          -5.552
REMARK INTER:                  -5.250
REMARK INTRA:                  -0.302
REMARK UNBOUND:                -0.244
REMARK SMILES O=c1c(O)c(-c2ccc(O)c(O)c2)oc2cc(O)cc(O)c12
REMARK SMILES IDX 5 1 3 2 2 3 1 4 22 5 20 6 19 7 17 8 16 9 15 10 14 11 6 12
REMARK SMILES IDX 7 13 8 14 9 15 13 16 11 17 10 18 12 20 4 22 21 24 18 26
REMARK H PARENT 10 19 12 21 4 23 21 25 18 27
REMARK Flexibility Score: inf
ROOT
ATOM      1  C   UNL     1     133.899 126.382 100.550  1.00  0.00     0.180 A 
ATOM      2  C   UNL     1     133.033 127.490 100.557  1.00  0.00     0.208 A 
ATOM      3  C   UNL     1     132.876 128.240  99.381  1.00  0.00     0.238 A 
ATOM      4  O   UNL     1     132.142 129.262  99.409  1.00  0.00    -0.285 OA
ATOM      5  C   UNL     1     133.574 127.865  98.208  1.00  0.00     0.111 A 
ATOM      6  C   UNL     1     133.458 128.528  96.949  1.00  0.00     0.134 A 
ATOM      7  C   UNL     1     134.294 128.151  95.891  1.00  0.00     0.093 A 
ATOM      8  C   UNL     1     135.194 127.091  96.026  1.00  0.00     0.123 A 
ATOM      9  C   UNL     1     135.272 126.399  97.232  1.00  0.00     0.094 A 
ATOM     10  C   UNL     1     134.477 126.775  98.318  1.00  0.00     0.146 A 
ATOM     11  O   UNL     1     134.590 126.095  99.452  1.00  0.00    -0.452 OA
ENDROOT
BRANCH   1  12
ATOM     12  C   UNL     1     134.098 125.529 101.743  1.00  0.00     0.025 A 
ATOM     13  C   UNL     1     133.438 124.295 101.877  1.00  0.00     0.016 A 
ATOM     14  C   UNL     1     133.659 123.493 103.001  1.00  0.00     0.051 A 
ATOM     15  C   UNL     1     134.549 123.904 103.997  1.00  0.00     0.157 A 
ATOM     16  C   UNL     1     135.007 125.928 102.736  1.00  0.00     0.062 A 
ATOM     17  C   UNL     1     135.230 125.125 103.865  1.00  0.00     0.158 A 
BRANCH  15  18
ATOM     18  O   UNL     1     134.748 123.084 105.108  1.00  0.00    -0.504 OA
ATOM     19  H   UNL     1     135.606 122.562 105.245  1.00  0.00     0.293 HD
ENDBRANCH  15  18
BRANCH  17  20
ATOM     20  O   UNL     1     136.125 125.537 104.851  1.00  0.00    -0.504 OA
ATOM     21  H   UNL     1     135.829 125.679 105.810  1.00  0.00     0.293 HD
ENDBRANCH  17  20
ENDBRANCH   1  12
BRANCH   2  22
ATOM     22  O   UNL     1     132.371 127.855 101.733  1.00  0.00    -0.502 OA
ATOM     23  H   UNL     1     132.761 128.520 102.392  1.00  0.00     0.293 HD
ENDBRANCH   2  22
BRANCH   6  24
ATOM     24  O   UNL     1     132.529 129.537  96.681  1.00  0.00    -0.507 OA
ATOM     25  H   UNL     1     131.758 129.784  97.284  1.00  0.00     0.293 HD
ENDBRANCH   6  24
BRANCH   8  26
ATOM     26  O   UNL     1     136.011 126.712  94.963  1.00  0.00    -0.508 OA
ATOM     27  H   UNL     1     136.936 126.327  95.117  1.00  0.00     0.293 HD
ENDBRANCH   8  26
TORSDOF 6
ENDMDL
MODEL 7
REMARK VINA RESULT:    -4.399      1.833      3.539
REMARK INTER + INTRA:          -5.543
REMARK INTER:                  -5.327
REMARK INTRA:                  -0.216
REMARK UNBOUND:                -0.244
REMARK SMILES O=c1c(O)c(-c2ccc(O)c(O)c2)oc2cc(O)cc(O)c12
REMARK SMILES IDX 5 1 3 2 2 3 1 4 22 5 20 6 19 7 17 8 16 9 15 10 14 11 6 12
REMARK SMILES IDX 7 13 8 14 9 15 13 16 11 17 10 18 12 20 4 22 21 24 18 26
REMARK H PARENT 10 19 12 21 4 23 21 25 18 27
REMARK Flexibility Score: inf
ROOT
ATOM      1  C   UNL     1     133.692 125.395 102.398  1.00  0.00     0.180 A 
ATOM      2  C   UNL     1     134.538 124.993 103.447  1.00  0.00     0.208 A 
ATOM      3  C   UNL     1     134.010 124.885 104.743  1.00  0.00     0.238 A 
ATOM      4  O   UNL     1     134.784 124.578 105.687  1.00  0.00    -0.285 OA
ATOM      5  C   UNL     1     132.641 125.163 104.973  1.00  0.00     0.111 A 
ATOM      6  C   UNL     1     131.992 125.046 106.238  1.00  0.00     0.134 A 
ATOM      7  C   UNL     1     130.665 125.473 106.375  1.00  0.00     0.093 A 
ATOM      8  C   UNL     1     129.945 125.951 105.278  1.00  0.00     0.123 A 
ATOM      9  C   UNL     1     130.552 126.013 104.026  1.00  0.00     0.094 A 
ATOM     10  C   UNL     1     131.885 125.628 103.865  1.00  0.00     0.146 A 
ATOM     11  O   UNL     1     132.429 125.713 102.656  1.00  0.00    -0.452 OA
ENDROOT
BRANCH   1  12
ATOM     12  C   UNL     1     134.168 125.509 101.001  1.00  0.00     0.025 A 
ATOM     13  C   UNL     1     134.556 124.374 100.266  1.00  0.00     0.016 A 
ATOM     14  C   UNL     1     134.979 124.502  98.940  1.00  0.00     0.051 A 
ATOM     15  C   UNL     1     135.010 125.757  98.325  1.00  0.00     0.157 A 
ATOM     16  C   UNL     1     134.180 126.765 100.373  1.00  0.00     0.062 A 
ATOM     17  C   UNL     1     134.605 126.896  99.043  1.00  0.00     0.158 A 
BRANCH  15  18
ATOM     18  O   UNL     1     135.439 125.854  97.002  1.00  0.00    -0.504 OA
ATOM     19  H   UNL     1     135.703 126.739  96.585  1.00  0.00     0.293 HD
ENDBRANCH  15  18
BRANCH  17  20
ATOM     20  O   UNL     1     134.626 128.149  98.434  1.00  0.00    -0.504 OA
ATOM     21  H   UNL     1     133.874 128.458  97.829  1.00  0.00     0.293 HD
ENDBRANCH  17  20
ENDBRANCH   1  12
BRANCH   2  22
ATOM     22  O   UNL     1     135.891 124.745 103.201  1.00  0.00    -0.502 OA
ATOM     23  H   UNL     1     136.373 125.113 102.389  1.00  0.00     0.293 HD
ENDBRANCH   2  22
BRANCH   6  24
ATOM     24  O   UNL     1     132.591 124.498 107.376  1.00  0.00    -0.507 OA
ATOM     25  H   UNL     1     132.229 123.711 107.893  1.00  0.00     0.293 HD
ENDBRANCH   6  24
BRANCH   8  26
ATOM     26  O   UNL     1     128.620 126.359 105.419  1.00  0.00    -0.508 OA
ATOM     27  H   UNL     1     127.922 125.755 105.838  1.00  0.00     0.293 HD
ENDBRANCH   8  26
TORSDOF 6
ENDMDL
MODEL 8
REMARK VINA RESULT:    -4.383     15.481     17.976
REMARK INTER + INTRA:          -5.524
REMARK INTER:                  -5.222
REMARK INTRA:                  -0.302
REMARK UNBOUND:                -0.244
REMARK SMILES O=c1c(O)c(-c2ccc(O)c(O)c2)oc2cc(O)cc(O)c12
REMARK SMILES IDX 5 1 3 2 2 3 1 4 22 5 20 6 19 7 17 8 16 9 15 10 14 11 6 12
REMARK SMILES IDX 7 13 8 14 9 15 13 16 11 17 10 18 12 20 4 22 21 24 18 26
REMARK H PARENT 10 19 12 21 4 23 21 25 18 27
REMARK Flexibility Score: inf
ROOT
ATOM      1  C   UNL     1     117.642 125.844 101.621  1.00  0.00     0.180 A 
ATOM      2  C   UNL     1     117.536 124.582 101.009  1.00  0.00     0.208 A 
ATOM      3  C   UNL     1     117.150 124.509  99.662  1.00  0.00     0.238 A 
ATOM      4  O   UNL     1     117.004 123.375  99.135  1.00  0.00    -0.285 OA
ATOM      5  C   UNL     1     116.891 125.697  98.937  1.00  0.00     0.111 A 
ATOM      6  C   UNL     1     116.534 125.743  97.556  1.00  0.00     0.134 A 
ATOM      7  C   UNL     1     116.173 126.965  96.976  1.00  0.00     0.093 A 
ATOM      8  C   UNL     1     116.221 128.153  97.710  1.00  0.00     0.123 A 
ATOM      9  C   UNL     1     116.626 128.127  99.042  1.00  0.00     0.094 A 
ATOM     10  C   UNL     1     116.957 126.918  99.659  1.00  0.00     0.146 A 
ATOM     11  O   UNL     1     117.329 126.936 100.933  1.00  0.00    -0.452 OA
ENDROOT
BRANCH   1  12
ATOM     12  C   UNL     1     118.066 126.004 103.030  1.00  0.00     0.025 A 
ATOM     13  C   UNL     1     119.420 125.914 103.401  1.00  0.00     0.016 A 
ATOM     14  C   UNL     1     119.800 126.093 104.734  1.00  0.00     0.051 A 
ATOM     15  C   UNL     1     118.842 126.375 105.711  1.00  0.00     0.157 A 
ATOM     16  C   UNL     1     117.109 126.309 104.011  1.00  0.00     0.062 A 
ATOM     17  C   UNL     1     117.489 126.488 105.350  1.00  0.00     0.158 A 
BRANCH  15  18
ATOM     18  O   UNL     1     119.252 126.547 107.033  1.00  0.00    -0.504 OA
ATOM     19  H   UNL     1     120.228 126.516 107.302  1.00  0.00     0.293 HD
ENDBRANCH  15  18
BRANCH  17  20
ATOM     20  O   UNL     1     116.529 126.777 106.317  1.00  0.00    -0.504 OA
ATOM     21  H   UNL     1     115.540 126.642 106.141  1.00  0.00     0.293 HD
ENDBRANCH  17  20
ENDBRANCH   1  12
BRANCH   2  22
ATOM     22  O   UNL     1     117.775 123.421 101.749  1.00  0.00    -0.502 OA
ATOM     23  H   UNL     1     118.348 123.418 102.586  1.00  0.00     0.293 HD
ENDBRANCH   2  22
BRANCH   6  24
ATOM     24  O   UNL     1     116.542 124.630  96.710  1.00  0.00    -0.507 OA
ATOM     25  H   UNL     1     115.718 124.134  96.405  1.00  0.00     0.293 HD
ENDBRANCH   6  24
BRANCH   8  26
ATOM     26  O   UNL     1     115.876 129.367  97.121  1.00  0.00    -0.508 OA
ATOM     27  H   UNL     1     115.439 130.110  97.655  1.00  0.00     0.293 HD
ENDBRANCH   8  26
TORSDOF 6
ENDMDL
MODEL 9
REMARK VINA RESULT:    -4.360     13.785     15.984
REMARK INTER + INTRA:          -5.497
REMARK INTER:                  -5.284
REMARK INTRA:                  -0.213
REMARK UNBOUND:                -0.244
REMARK SMILES O=c1c(O)c(-c2ccc(O)c(O)c2)oc2cc(O)cc(O)c12
REMARK SMILES IDX 5 1 3 2 2 3 1 4 22 5 20 6 19 7 17 8 16 9 15 10 14 11 6 12
REMARK SMILES IDX 7 13 8 14 9 15 13 16 11 17 10 18 12 20 4 22 21 24 18 26
REMARK H PARENT 10 19 12 21 4 23 21 25 18 27
REMARK Flexibility Score: inf
ROOT
ATOM      1  C   UNL     1     118.039 126.001 102.416  1.00  0.00     0.180 A 
ATOM      2  C   UNL     1     117.234 126.375 103.507  1.00  0.00     0.208 A 
ATOM      3  C   UNL     1     117.809 126.441 104.785  1.00  0.00     0.238 A 
ATOM      4  O   UNL     1     117.072 126.724 105.766  1.00  0.00    -0.285 OA
ATOM      5  C   UNL     1     119.184 126.148 104.957  1.00  0.00     0.111 A 
ATOM      6  C   UNL     1     119.880 126.224 106.200  1.00  0.00     0.134 A 
ATOM      7  C   UNL     1     121.208 125.785 106.276  1.00  0.00     0.093 A 
ATOM      8  C   UNL     1     121.884 125.337 105.139  1.00  0.00     0.123 A 
ATOM      9  C   UNL     1     121.232 125.316 103.909  1.00  0.00     0.094 A 
ATOM     10  C   UNL     1     119.896 125.713 103.808  1.00  0.00     0.146 A 
ATOM     11  O   UNL     1     119.309 125.668 102.619  1.00  0.00    -0.452 OA
ENDROOT
BRANCH   1  12
ATOM     12  C   UNL     1     117.511 125.932 101.034  1.00  0.00     0.025 A 
ATOM     13  C   UNL     1     117.100 127.089 100.350  1.00  0.00     0.016 A 
ATOM     14  C   UNL     1     116.628 127.004  99.037  1.00  0.00     0.051 A 
ATOM     15  C   UNL     1     116.572 125.769  98.385  1.00  0.00     0.157 A 
ATOM     16  C   UNL     1     117.474 124.696 100.368  1.00  0.00     0.062 A 
ATOM     17  C   UNL     1     117.000 124.608  99.051  1.00  0.00     0.158 A 
BRANCH  15  18
ATOM     18  O   UNL     1     116.095 125.715  97.075  1.00  0.00    -0.504 OA
ATOM     19  H   UNL     1     115.264 126.216  96.784  1.00  0.00     0.293 HD
ENDBRANCH  15  18
BRANCH  17  20
ATOM     20  O   UNL     1     116.955 123.375  98.404  1.00  0.00    -0.504 OA
ATOM     21  H   UNL     1     116.976 123.304  97.393  1.00  0.00     0.293 HD
ENDBRANCH  17  20
ENDBRANCH   1  12
BRANCH   2  22
ATOM     22  O   UNL     1     115.875 126.639 103.318  1.00  0.00    -0.502 OA
ATOM     23  H   UNL     1     115.391 126.410 102.457  1.00  0.00     0.293 HD
ENDBRANCH   2  22
BRANCH   6  24
ATOM     24  O   UNL     1     119.326 126.741 107.375  1.00  0.00    -0.507 OA
ATOM     25  H   UNL     1     118.548 127.383 107.409  1.00  0.00     0.293 HD
ENDBRANCH   6  24
BRANCH   8  26
ATOM     26  O   UNL     1     123.210 124.918 105.220  1.00  0.00    -0.508 OA
ATOM     27  H   UNL     1     123.451 123.971 105.490  1.00  0.00     0.293 HD
ENDBRANCH   8  26
TORSDOF 6
ENDMDL
