MODEL 1
REMARK VINA RESULT:    -4.076      0.000      0.000
REMARK INTER + INTRA:         -11.755
REMARK INTER:                 -10.272
REMARK INTRA:                  -1.482
REMARK UNBOUND:                -1.482
REMARK SMILES CCCCCCCCCCCCCCCCCCCCCCCCCCCC(=O)[O-]
REMARK SMILES IDX 15 1 16 2 17 3 18 4 19 5 20 6 21 7 22 8 23 9 24 10 25 11
REMARK SMILES IDX 26 12 27 13 28 14 29 15 30 16 14 17 13 18 12 19 11 20 10 21
REMARK SMILES IDX 9 22 8 23 7 24 6 25 5 26 4 27 3 28 2 29 1 30
REMARK H PARENT
REMARK Flexibility Score: inf
ROOT
ATOM      1  C   UNL     1      19.359   8.191   7.041  1.00  0.00     0.000 C 
ENDROOT
BRANCH   1   2
ATOM      2  C   UNL     1      20.738   8.835   7.270  1.00  0.00     0.000 C 
BRANCH   2   3
ATOM      3  C   UNL     1      21.346   8.589   8.663  1.00  0.00     0.000 C 
BRANCH   3   4
ATOM      4  C   UNL     1      22.333   9.670   9.145  1.00  0.00     0.000 C 
BRANCH   4   5
ATOM      5  C   UNL     1      23.635   9.139   9.771  1.00  0.00     0.000 C 
BRANCH   5   6
ATOM      6  C   UNL     1      23.855   7.641   9.513  1.00  0.00     0.000 C 
BRANCH   6   7
ATOM      7  C   UNL     1      25.341   7.244   9.531  1.00  0.00     0.000 C 
BRANCH   7   8
ATOM      8  C   UNL     1      25.984   7.164  10.932  1.00  0.00     0.000 C 
BRANCH   8   9
ATOM      9  C   UNL     1      26.102   5.744  11.521  1.00  0.00     0.000 C 
BRANCH   9  10
ATOM     10  C   UNL     1      24.951   5.336  12.460  1.00  0.00     0.000 C 
BRANCH  10  11
ATOM     11  C   UNL     1      25.326   5.471  13.946  1.00  0.00     0.000 C 
BRANCH  11  12
ATOM     12  C   UNL     1      25.446   4.105  14.647  1.00  0.00     0.006 C 
BRANCH  12  13
ATOM     13  C   UNL     1      24.474   3.044  14.104  1.00  0.00     0.053 C 
BRANCH  13  14
ATOM     14  C   UNL     1      25.165   1.743  13.836  1.00  0.00     0.041 C 
ATOM     15  O   UNL     1      25.462   1.411  12.656  1.00  0.00    -0.550 OA
ATOM     16  O   UNL     1      25.447   0.875  14.885  1.00  0.00    -0.550 OA
ENDBRANCH  13  14
ENDBRANCH  12  13
ENDBRANCH  11  12
ENDBRANCH  10  11
ENDBRANCH   9  10
ENDBRANCH   8   9
ENDBRANCH   7   8
ENDBRANCH   6   7
ENDBRANCH   5   6
ENDBRANCH   4   5
ENDBRANCH   3   4
ENDBRANCH   2   3
ENDBRANCH   1   2
BRANCH   1  17
ATOM     17  C   UNL     1      19.260   6.770   7.622  1.00  0.00     0.000 C 
BRANCH  17  18
ATOM     18  C   UNL     1      20.159   6.578   8.855  1.00  0.00     0.000 C 
BRANCH  18  19
ATOM     19  C   UNL     1      19.376   6.063  10.073  1.00  0.00     0.000 C 
BRANCH  19  20
ATOM     20  C   UNL     1      19.657   6.921  11.317  1.00  0.00     0.000 C 
BRANCH  20  21
ATOM     21  C   UNL     1      21.147   6.945  11.704  1.00  0.00     0.000 C 
BRANCH  21  22
ATOM     22  C   UNL     1      21.597   8.192  12.491  1.00  0.00    -0.000 C 
BRANCH  22  23
ATOM     23  C   UNL     1      22.827   7.926  13.375  1.00  0.00    -0.000 C 
BRANCH  23  24
ATOM     24  C   UNL     1      23.361   9.201  14.052  1.00  0.00    -0.000 C 
BRANCH  24  25
ATOM     25  C   UNL     1      24.853   9.161  14.438  1.00  0.00    -0.000 C 
BRANCH  25  26
ATOM     26  C   UNL     1      25.647  10.407  13.993  1.00  0.00    -0.000 C 
BRANCH  26  27
ATOM     27  C   UNL     1      24.891  11.715  14.286  1.00  0.00    -0.000 C 
BRANCH  27  28
ATOM     28  C   UNL     1      25.361  12.877  13.396  1.00  0.00    -0.000 C 
BRANCH  28  29
ATOM     29  C   UNL     1      24.369  14.051  13.393  1.00  0.00    -0.003 C 
ATOM     30  C   UNL     1      24.927  15.245  14.163  1.00  0.00     0.004 C 
ENDBRANCH  28  29
ENDBRANCH  27  28
ENDBRANCH  26  27
ENDBRANCH  25  26
ENDBRANCH  24  25
ENDBRANCH  23  24
ENDBRANCH  22  23
ENDBRANCH  21  22
ENDBRANCH  20  21
ENDBRANCH  19  20
ENDBRANCH  18  19
ENDBRANCH  17  18
ENDBRANCH   1  17
TORSDOF 26
ENDMDL
MODEL 2
REMARK VINA RESULT:    -3.704      5.302     10.514
REMARK INTER + INTRA:         -10.816
REMARK INTER:                  -8.622
REMARK INTRA:                  -2.194
REMARK UNBOUND:                -1.482
REMARK SMILES CCCCCCCCCCCCCCCCCCCCCCCCCCCC(=O)[O-]
REMARK SMILES IDX 15 1 16 2 17 3 18 4 19 5 20 6 21 7 22 8 23 9 24 10 25 11
REMARK SMILES IDX 26 12 27 13 28 14 29 15 30 16 14 17 13 18 12 19 11 20 10 21
REMARK SMILES IDX 9 22 8 23 7 24 6 25 5 26 4 27 3 28 2 29 1 30
REMARK H PARENT
REMARK Flexibility Score: inf
ROOT
ATOM      1  C   UNL     1      23.707   7.335  13.397  1.00  0.00     0.000 C 
ENDROOT
BRANCH   1   2
ATOM      2  C   UNL     1      24.313   8.121  14.572  1.00  0.00     0.000 C 
BRANCH   2   3
ATOM      3  C   UNL     1      23.888   9.599  14.653  1.00  0.00     0.000 C 
BRANCH   3   4
ATOM      4  C   UNL     1      24.994  10.573  15.103  1.00  0.00     0.000 C 
BRANCH   4   5
ATOM      5  C   UNL     1      25.178  11.816  14.214  1.00  0.00     0.000 C 
BRANCH   5   6
ATOM      6  C   UNL     1      24.933  13.133  14.968  1.00  0.00     0.000 C 
BRANCH   6   7
ATOM      7  C   UNL     1      24.141  14.158  14.138  1.00  0.00     0.000 C 
BRANCH   7   8
ATOM      8  C   UNL     1      24.786  15.555  14.028  1.00  0.00     0.000 C 
BRANCH   8   9
ATOM      9  C   UNL     1      23.979  16.703  14.668  1.00  0.00     0.000 C 
BRANCH   9  10
ATOM     10  C   UNL     1      24.764  18.012  14.867  1.00  0.00     0.000 C 
BRANCH  10  11
ATOM     11  C   UNL     1      23.946  19.256  14.481  1.00  0.00     0.000 C 
BRANCH  11  12
ATOM     12  C   UNL     1      22.480  18.916  14.152  1.00  0.00     0.006 C 
BRANCH  12  13
ATOM     13  C   UNL     1      21.717  20.066  13.473  1.00  0.00     0.053 C 
BRANCH  13  14
ATOM     14  C   UNL     1      21.092  19.631  12.183  1.00  0.00     0.041 C 
ATOM     15  O   UNL     1      21.761  19.649  11.114  1.00  0.00    -0.550 OA
ATOM     16  O   UNL     1      19.758  19.243  12.152  1.00  0.00    -0.550 OA
ENDBRANCH  13  14
ENDBRANCH  12  13
ENDBRANCH  11  12
ENDBRANCH  10  11
ENDBRANCH   9  10
ENDBRANCH   8   9
ENDBRANCH   7   8
ENDBRANCH   6   7
ENDBRANCH   5   6
ENDBRANCH   4   5
ENDBRANCH   3   4
ENDBRANCH   2   3
ENDBRANCH   1   2
BRANCH   1  17
ATOM     17  C   UNL     1      23.331   8.236  12.207  1.00  0.00     0.000 C 
BRANCH  17  18
ATOM     18  C   UNL     1      24.270   8.039  11.005  1.00  0.00     0.000 C 
BRANCH  18  19
ATOM     19  C   UNL     1      23.703   8.652   9.715  1.00  0.00     0.000 C 
BRANCH  19  20
ATOM     20  C   UNL     1      22.394   9.408   9.987  1.00  0.00     0.000 C 
BRANCH  20  21
ATOM     21  C   UNL     1      21.803  10.059   8.722  1.00  0.00     0.000 C 
BRANCH  21  22
ATOM     22  C   UNL     1      21.910   9.209   7.441  1.00  0.00    -0.000 C 
BRANCH  22  23
ATOM     23  C   UNL     1      20.596   9.172   6.641  1.00  0.00    -0.000 C 
BRANCH  23  24
ATOM     24  C   UNL     1      19.502   8.340   7.331  1.00  0.00    -0.000 C 
BRANCH  24  25
ATOM     25  C   UNL     1      19.936   6.930   7.781  1.00  0.00    -0.000 C 
BRANCH  25  26
ATOM     26  C   UNL     1      18.832   6.142   8.516  1.00  0.00    -0.000 C 
BRANCH  26  27
ATOM     27  C   UNL     1      19.377   5.366   9.728  1.00  0.00    -0.000 C 
BRANCH  27  28
ATOM     28  C   UNL     1      18.981   6.012  11.065  1.00  0.00    -0.000 C 
BRANCH  28  29
ATOM     29  C   UNL     1      19.817   7.263  11.382  1.00  0.00    -0.003 C 
ATOM     30  C   UNL     1      19.056   8.536  11.026  1.00  0.00     0.004 C 
ENDBRANCH  28  29
ENDBRANCH  27  28
ENDBRANCH  26  27
ENDBRANCH  25  26
ENDBRANCH  24  25
ENDBRANCH  23  24
ENDBRANCH  22  23
ENDBRANCH  21  22
ENDBRANCH  20  21
ENDBRANCH  19  20
ENDBRANCH  18  19
ENDBRANCH  17  18
ENDBRANCH   1  17
TORSDOF 26
ENDMDL
MODEL 3
REMARK VINA RESULT:    -3.203      3.296      6.663
REMARK INTER + INTRA:          -9.554
REMARK INTER:                  -6.609
REMARK INTRA:                  -2.945
REMARK UNBOUND:                -1.482
REMARK SMILES CCCCCCCCCCCCCCCCCCCCCCCCCCCC(=O)[O-]
REMARK SMILES IDX 15 1 16 2 17 3 18 4 19 5 20 6 21 7 22 8 23 9 24 10 25 11
REMARK SMILES IDX 26 12 27 13 28 14 29 15 30 16 14 17 13 18 12 19 11 20 10 21
REMARK SMILES IDX 9 22 8 23 7 24 6 25 5 26 4 27 3 28 2 29 1 30
REMARK H PARENT
REMARK Flexibility Score: inf
ROOT
ATOM      1  C   UNL     1      23.379   7.008  13.170  1.00  0.00     0.000 C 
ENDROOT
BRANCH   1   2
ATOM      2  C   UNL     1      22.842   8.447  13.095  1.00  0.00     0.000 C 
BRANCH   2   3
ATOM      3  C   UNL     1      21.919   8.735  11.896  1.00  0.00     0.000 C 
BRANCH   3   4
ATOM      4  C   UNL     1      20.700   7.800  11.772  1.00  0.00     0.000 C 
BRANCH   4   5
ATOM      5  C   UNL     1      19.376   8.491  11.400  1.00  0.00     0.000 C 
BRANCH   5   6
ATOM      6  C   UNL     1      18.177   7.531  11.408  1.00  0.00     0.000 C 
BRANCH   6   7
ATOM      7  C   UNL     1      18.595   6.053  11.507  1.00  0.00     0.000 C 
BRANCH   7   8
ATOM      8  C   UNL     1      18.496   5.251  10.193  1.00  0.00     0.000 C 
BRANCH   8   9
ATOM      9  C   UNL     1      19.218   5.879   8.984  1.00  0.00     0.000 C 
BRANCH   9  10
ATOM     10  C   UNL     1      20.733   6.085   9.172  1.00  0.00     0.000 C 
BRANCH  10  11
ATOM     11  C   UNL     1      21.268   7.285   8.373  1.00  0.00     0.000 C 
BRANCH  11  12
ATOM     12  C   UNL     1      20.154   8.274   7.979  1.00  0.00     0.006 C 
BRANCH  12  13
ATOM     13  C   UNL     1      20.325   8.868   6.570  1.00  0.00     0.053 C 
BRANCH  13  14
ATOM     14  C   UNL     1      21.513   9.776   6.491  1.00  0.00     0.041 C 
ATOM     15  O   UNL     1      21.768  10.399   5.425  1.00  0.00    -0.550 OA
ATOM     16  O   UNL     1      22.363   9.907   7.583  1.00  0.00    -0.550 OA
ENDBRANCH  13  14
ENDBRANCH  12  13
ENDBRANCH  11  12
ENDBRANCH  10  11
ENDBRANCH   9  10
ENDBRANCH   8   9
ENDBRANCH   7   8
ENDBRANCH   6   7
ENDBRANCH   5   6
ENDBRANCH   4   5
ENDBRANCH   3   4
ENDBRANCH   2   3
ENDBRANCH   1   2
BRANCH   1  17
ATOM     17  C   UNL     1      24.661   6.892  14.014  1.00  0.00     0.000 C 
BRANCH  17  18
ATOM     18  C   UNL     1      25.843   6.328  13.208  1.00  0.00     0.000 C 
BRANCH  18  19
ATOM     19  C   UNL     1      25.413   5.212  12.244  1.00  0.00     0.000 C 
BRANCH  19  20
ATOM     20  C   UNL     1      25.869   5.512  10.807  1.00  0.00     0.000 C 
BRANCH  20  21
ATOM     21  C   UNL     1      24.851   6.358  10.019  1.00  0.00     0.000 C 
BRANCH  21  22
ATOM     22  C   UNL     1      25.405   7.673   9.437  1.00  0.00    -0.000 C 
BRANCH  22  23
ATOM     23  C   UNL     1      26.125   8.533  10.490  1.00  0.00    -0.000 C 
BRANCH  23  24
ATOM     24  C   UNL     1      25.228   9.642  11.067  1.00  0.00    -0.000 C 
BRANCH  24  25
ATOM     25  C   UNL     1      25.909  10.565  12.098  1.00  0.00    -0.000 C 
BRANCH  25  26
ATOM     26  C   UNL     1      24.985  11.669  12.654  1.00  0.00    -0.000 C 
BRANCH  26  27
ATOM     27  C   UNL     1      25.224  11.930  14.152  1.00  0.00    -0.000 C 
BRANCH  27  28
ATOM     28  C   UNL     1      25.598  13.393  14.441  1.00  0.00    -0.000 C 
BRANCH  28  29
ATOM     29  C   UNL     1      24.794  14.383  13.582  1.00  0.00    -0.003 C 
ATOM     30  C   UNL     1      24.704  15.748  14.258  1.00  0.00     0.004 C 
ENDBRANCH  28  29
ENDBRANCH  27  28
ENDBRANCH  26  27
ENDBRANCH  25  26
ENDBRANCH  24  25
ENDBRANCH  23  24
ENDBRANCH  22  23
ENDBRANCH  21  22
ENDBRANCH  20  21
ENDBRANCH  19  20
ENDBRANCH  18  19
ENDBRANCH  17  18
ENDBRANCH   1  17
TORSDOF 26
ENDMDL
MODEL 4
REMARK VINA RESULT:    -3.100      2.292      7.228
REMARK INTER + INTRA:          -9.295
REMARK INTER:                  -7.201
REMARK INTRA:                  -2.094
REMARK UNBOUND:                -1.482
REMARK SMILES CCCCCCCCCCCCCCCCCCCCCCCCCCCC(=O)[O-]
REMARK SMILES IDX 15 1 16 2 17 3 18 4 19 5 20 6 21 7 22 8 23 9 24 10 25 11
REMARK SMILES IDX 26 12 27 13 28 14 29 15 30 16 14 17 13 18 12 19 11 20 10 21
REMARK SMILES IDX 9 22 8 23 7 24 6 25 5 26 4 27 3 28 2 29 1 30
REMARK H PARENT
REMARK Flexibility Score: inf
ROOT
ATOM      1  C   UNL     1      24.930  10.077  11.220  1.00  0.00     0.000 C 
ENDROOT
BRANCH   1   2
ATOM      2  C   UNL     1      25.455   8.910  10.367  1.00  0.00     0.000 C 
BRANCH   2   3
ATOM      3  C   UNL     1      24.452   8.351   9.342  1.00  0.00     0.000 C 
BRANCH   3   4
ATOM      4  C   UNL     1      23.197   9.217   9.118  1.00  0.00     0.000 C 
BRANCH   4   5
ATOM      5  C   UNL     1      21.954   8.457   8.621  1.00  0.00     0.000 C 
BRANCH   5   6
ATOM      6  C   UNL     1      20.893   9.383   8.005  1.00  0.00     0.000 C 
BRANCH   6   7
ATOM      7  C   UNL     1      19.717   8.612   7.382  1.00  0.00     0.000 C 
BRANCH   7   8
ATOM      8  C   UNL     1      20.009   7.139   7.027  1.00  0.00     0.000 C 
BRANCH   8   9
ATOM      9  C   UNL     1      19.011   6.114   7.602  1.00  0.00     0.000 C 
BRANCH   9  10
ATOM     10  C   UNL     1      18.603   6.360   9.066  1.00  0.00     0.000 C 
BRANCH  10  11
ATOM     11  C   UNL     1      19.303   5.400  10.043  1.00  0.00     0.000 C 
BRANCH  11  12
ATOM     12  C   UNL     1      19.382   5.971  11.472  1.00  0.00     0.006 C 
BRANCH  12  13
ATOM     13  C   UNL     1      19.590   7.494  11.518  1.00  0.00     0.053 C 
BRANCH  13  14
ATOM     14  C   UNL     1      21.014   7.851  11.815  1.00  0.00     0.041 C 
ATOM     15  O   UNL     1      21.387   9.055  11.790  1.00  0.00    -0.550 OA
ATOM     16  O   UNL     1      21.941   6.851  12.082  1.00  0.00    -0.550 OA
ENDBRANCH  13  14
ENDBRANCH  12  13
ENDBRANCH  11  12
ENDBRANCH  10  11
ENDBRANCH   9  10
ENDBRANCH   8   9
ENDBRANCH   7   8
ENDBRANCH   6   7
ENDBRANCH   5   6
ENDBRANCH   4   5
ENDBRANCH   3   4
ENDBRANCH   2   3
ENDBRANCH   1   2
BRANCH   1  17
ATOM     17  C   UNL     1      26.050  11.018  11.699  1.00  0.00     0.000 C 
BRANCH  17  18
ATOM     18  C   UNL     1      26.125  11.105  13.232  1.00  0.00     0.000 C 
BRANCH  18  19
ATOM     19  C   UNL     1      25.402  12.344  13.782  1.00  0.00     0.000 C 
BRANCH  19  20
ATOM     20  C   UNL     1      24.230  11.945  14.693  1.00  0.00     0.000 C 
BRANCH  20  21
ATOM     21  C   UNL     1      24.283  10.467  15.125  1.00  0.00     0.000 C 
BRANCH  21  22
ATOM     22  C   UNL     1      23.824   9.457  14.055  1.00  0.00    -0.000 C 
BRANCH  22  23
ATOM     23  C   UNL     1      24.268   8.018  14.366  1.00  0.00    -0.000 C 
BRANCH  23  24
ATOM     24  C   UNL     1      25.698   7.718  13.885  1.00  0.00    -0.000 C 
BRANCH  24  25
ATOM     25  C   UNL     1      26.069   6.223  13.825  1.00  0.00    -0.000 C 
BRANCH  25  26
ATOM     26  C   UNL     1      25.316   5.436  12.732  1.00  0.00    -0.000 C 
BRANCH  26  27
ATOM     27  C   UNL     1      25.634   3.931  12.773  1.00  0.00    -0.000 C 
BRANCH  27  28
ATOM     28  C   UNL     1      24.914   3.209  13.924  1.00  0.00    -0.000 C 
BRANCH  28  29
ATOM     29  C   UNL     1      24.615   1.737  13.596  1.00  0.00    -0.003 C 
ATOM     30  C   UNL     1      25.620   1.184  12.590  1.00  0.00     0.004 C 
ENDBRANCH  28  29
ENDBRANCH  27  28
ENDBRANCH  26  27
ENDBRANCH  25  26
ENDBRANCH  24  25
ENDBRANCH  23  24
ENDBRANCH  22  23
ENDBRANCH  21  22
ENDBRANCH  20  21
ENDBRANCH  19  20
ENDBRANCH  18  19
ENDBRANCH  17  18
ENDBRANCH   1  17
TORSDOF 26
ENDMDL
MODEL 5
REMARK VINA RESULT:    -3.099      2.390      5.607
REMARK INTER + INTRA:          -9.291
REMARK INTER:                  -8.730
REMARK INTRA:                  -0.561
REMARK UNBOUND:                -1.482
REMARK SMILES CCCCCCCCCCCCCCCCCCCCCCCCCCCC(=O)[O-]
REMARK SMILES IDX 15 1 16 2 17 3 18 4 19 5 20 6 21 7 22 8 23 9 24 10 25 11
REMARK SMILES IDX 26 12 27 13 28 14 29 15 30 16 14 17 13 18 12 19 11 20 10 21
REMARK SMILES IDX 9 22 8 23 7 24 6 25 5 26 4 27 3 28 2 29 1 30
REMARK H PARENT
REMARK Flexibility Score: inf
ROOT
ATOM      1  C   UNL     1      24.679   8.550  10.101  1.00  0.00     0.000 C 
ENDROOT
BRANCH   1   2
ATOM      2  C   UNL     1      23.597   9.637   9.986  1.00  0.00     0.000 C 
BRANCH   2   3
ATOM      3  C   UNL     1      22.507   9.360   8.934  1.00  0.00     0.000 C 
BRANCH   3   4
ATOM      4  C   UNL     1      21.174   8.832   9.497  1.00  0.00     0.000 C 
BRANCH   4   5
ATOM      5  C   UNL     1      20.706   7.483   8.923  1.00  0.00     0.000 C 
BRANCH   5   6
ATOM      6  C   UNL     1      20.024   6.590   9.972  1.00  0.00     0.000 C 
BRANCH   6   7
ATOM      7  C   UNL     1      19.778   7.316  11.305  1.00  0.00     0.000 C 
BRANCH   7   8
ATOM      8  C   UNL     1      20.955   8.174  11.814  1.00  0.00     0.000 C 
BRANCH   8   9
ATOM      9  C   UNL     1      22.101   7.388  12.483  1.00  0.00     0.000 C 
BRANCH   9  10
ATOM     10  C   UNL     1      23.003   8.223  13.410  1.00  0.00     0.000 C 
BRANCH  10  11
ATOM     11  C   UNL     1      23.758   7.359  14.435  1.00  0.00     0.000 C 
BRANCH  11  12
ATOM     12  C   UNL     1      25.273   7.638  14.435  1.00  0.00     0.006 C 
BRANCH  12  13
ATOM     13  C   UNL     1      26.125   6.417  14.050  1.00  0.00     0.053 C 
BRANCH  13  14
ATOM     14  C   UNL     1      25.556   5.692  12.869  1.00  0.00     0.041 C 
ATOM     15  O   UNL     1      26.014   5.902  11.713  1.00  0.00    -0.550 OA
ATOM     16  O   UNL     1      24.492   4.814  13.037  1.00  0.00    -0.550 OA
ENDBRANCH  13  14
ENDBRANCH  12  13
ENDBRANCH  11  12
ENDBRANCH  10  11
ENDBRANCH   9  10
ENDBRANCH   8   9
ENDBRANCH   7   8
ENDBRANCH   6   7
ENDBRANCH   5   6
ENDBRANCH   4   5
ENDBRANCH   3   4
ENDBRANCH   2   3
ENDBRANCH   1   2
BRANCH   1  17
ATOM     17  C   UNL     1      26.064   9.122  10.452  1.00  0.00     0.000 C 
BRANCH  17  18
ATOM     18  C   UNL     1      26.123   9.674  11.887  1.00  0.00     0.000 C 
BRANCH  18  19
ATOM     19  C   UNL     1      26.072  11.209  11.924  1.00  0.00     0.000 C 
BRANCH  19  20
ATOM     20  C   UNL     1      26.061  11.730  13.370  1.00  0.00     0.000 C 
BRANCH  20  21
ATOM     21  C   UNL     1      24.638  11.904  13.933  1.00  0.00     0.000 C 
BRANCH  21  22
ATOM     22  C   UNL     1      24.520  12.884  15.117  1.00  0.00    -0.000 C 
BRANCH  22  23
ATOM     23  C   UNL     1      23.873  14.222  14.719  1.00  0.00    -0.000 C 
BRANCH  23  24
ATOM     24  C   UNL     1      24.848  15.161  13.987  1.00  0.00    -0.000 C 
BRANCH  24  25
ATOM     25  C   UNL     1      25.422  16.306  14.845  1.00  0.00    -0.000 C 
BRANCH  25  26
ATOM     26  C   UNL     1      24.516  17.553  14.910  1.00  0.00    -0.000 C 
BRANCH  26  27
ATOM     27  C   UNL     1      23.083  17.257  14.431  1.00  0.00    -0.000 C 
BRANCH  27  28
ATOM     28  C   UNL     1      22.058  18.254  14.996  1.00  0.00    -0.000 C 
BRANCH  28  29
ATOM     29  C   UNL     1      20.706  18.181  14.267  1.00  0.00    -0.003 C 
ATOM     30  C   UNL     1      19.722  19.201  14.831  1.00  0.00     0.004 C 
ENDBRANCH  28  29
ENDBRANCH  27  28
ENDBRANCH  26  27
ENDBRANCH  25  26
ENDBRANCH  24  25
ENDBRANCH  23  24
ENDBRANCH  22  23
ENDBRANCH  21  22
ENDBRANCH  20  21
ENDBRANCH  19  20
ENDBRANCH  18  19
ENDBRANCH  17  18
ENDBRANCH   1  17
TORSDOF 26
ENDMDL
MODEL 6
REMARK VINA RESULT:    -2.917      3.793      7.136
REMARK INTER + INTRA:          -8.832
REMARK INTER:                  -7.426
REMARK INTRA:                  -1.406
REMARK UNBOUND:                -1.482
REMARK SMILES CCCCCCCCCCCCCCCCCCCCCCCCCCCC(=O)[O-]
REMARK SMILES IDX 15 1 16 2 17 3 18 4 19 5 20 6 21 7 22 8 23 9 24 10 25 11
REMARK SMILES IDX 26 12 27 13 28 14 29 15 30 16 14 17 13 18 12 19 11 20 10 21
REMARK SMILES IDX 9 22 8 23 7 24 6 25 5 26 4 27 3 28 2 29 1 30
REMARK H PARENT
REMARK Flexibility Score: inf
ROOT
ATOM      1  C   UNL     1      22.812   9.351  10.840  1.00  0.00     0.000 C 
ENDROOT
BRANCH   1   2
ATOM      2  C   UNL     1      23.808   8.722   9.850  1.00  0.00     0.000 C 
BRANCH   2   3
ATOM      3  C   UNL     1      25.290   9.015  10.145  1.00  0.00     0.000 C 
BRANCH   3   4
ATOM      4  C   UNL     1      26.122   7.794  10.584  1.00  0.00     0.000 C 
BRANCH   4   5
ATOM      5  C   UNL     1      25.343   6.472  10.691  1.00  0.00     0.000 C 
BRANCH   5   6
ATOM      6  C   UNL     1      25.393   5.860  12.100  1.00  0.00     0.000 C 
BRANCH   6   7
ATOM      7  C   UNL     1      24.268   6.374  13.014  1.00  0.00     0.000 C 
BRANCH   7   8
ATOM      8  C   UNL     1      22.879   5.750  12.763  1.00  0.00     0.000 C 
BRANCH   8   9
ATOM      9  C   UNL     1      21.769   6.750  12.383  1.00  0.00     0.000 C 
BRANCH   9  10
ATOM     10  C   UNL     1      21.018   6.418  11.080  1.00  0.00     0.000 C 
BRANCH  10  11
ATOM     11  C   UNL     1      19.547   6.867  11.115  1.00  0.00     0.000 C 
BRANCH  11  12
ATOM     12  C   UNL     1      19.266   8.034  10.150  1.00  0.00     0.006 C 
BRANCH  12  13
ATOM     13  C   UNL     1      20.196   8.059   8.925  1.00  0.00     0.053 C 
BRANCH  13  14
ATOM     14  C   UNL     1      19.476   7.663   7.672  1.00  0.00     0.041 C 
ATOM     15  O   UNL     1      19.579   8.363   6.630  1.00  0.00    -0.550 OA
ATOM     16  O   UNL     1      18.657   6.540   7.666  1.00  0.00    -0.550 OA
ENDBRANCH  13  14
ENDBRANCH  12  13
ENDBRANCH  11  12
ENDBRANCH  10  11
ENDBRANCH   9  10
ENDBRANCH   8   9
ENDBRANCH   7   8
ENDBRANCH   6   7
ENDBRANCH   5   6
ENDBRANCH   4   5
ENDBRANCH   3   4
ENDBRANCH   2   3
ENDBRANCH   1   2
BRANCH   1  17
ATOM     17  C   UNL     1      23.392   9.497  12.258  1.00  0.00     0.000 C 
BRANCH  17  18
ATOM     18  C   UNL     1      24.342  10.700  12.380  1.00  0.00     0.000 C 
BRANCH  18  19
ATOM     19  C   UNL     1      25.364  10.525  13.514  1.00  0.00     0.000 C 
BRANCH  19  20
ATOM     20  C   UNL     1      25.549  11.830  14.303  1.00  0.00     0.000 C 
BRANCH  20  21
ATOM     21  C   UNL     1      24.472  12.883  13.980  1.00  0.00     0.000 C 
BRANCH  21  22
ATOM     22  C   UNL     1      24.433  14.091  14.937  1.00  0.00    -0.000 C 
BRANCH  22  23
ATOM     23  C   UNL     1      24.343  15.435  14.194  1.00  0.00    -0.000 C 
BRANCH  23  24
ATOM     24  C   UNL     1      23.981  16.606  15.125  1.00  0.00    -0.000 C 
BRANCH  24  25
ATOM     25  C   UNL     1      22.507  17.054  15.070  1.00  0.00    -0.000 C 
BRANCH  25  26
ATOM     26  C   UNL     1      22.303  18.458  14.462  1.00  0.00    -0.000 C 
BRANCH  26  27
ATOM     27  C   UNL     1      21.020  19.135  14.976  1.00  0.00    -0.000 C 
BRANCH  27  28
ATOM     28  C   UNL     1      19.905  19.161  13.917  1.00  0.00    -0.000 C 
BRANCH  28  29
ATOM     29  C   UNL     1      20.441  18.921  12.497  1.00  0.00    -0.003 C 
ATOM     30  C   UNL     1      21.136  20.166  11.954  1.00  0.00     0.004 C 
ENDBRANCH  28  29
ENDBRANCH  27  28
ENDBRANCH  26  27
ENDBRANCH  25  26
ENDBRANCH  24  25
ENDBRANCH  23  24
ENDBRANCH  22  23
ENDBRANCH  21  22
ENDBRANCH  20  21
ENDBRANCH  19  20
ENDBRANCH  18  19
ENDBRANCH  17  18
ENDBRANCH   1  17
TORSDOF 26
ENDMDL
MODEL 7
REMARK VINA RESULT:    -2.305      1.886      5.851
REMARK INTER + INTRA:          -7.292
REMARK INTER:                  -5.600
REMARK INTRA:                  -1.692
REMARK UNBOUND:                -1.482
REMARK SMILES CCCCCCCCCCCCCCCCCCCCCCCCCCCC(=O)[O-]
REMARK SMILES IDX 15 1 16 2 17 3 18 4 19 5 20 6 21 7 22 8 23 9 24 10 25 11
REMARK SMILES IDX 26 12 27 13 28 14 29 15 30 16 14 17 13 18 12 19 11 20 10 21
REMARK SMILES IDX 9 22 8 23 7 24 6 25 5 26 4 27 3 28 2 29 1 30
REMARK H PARENT
REMARK Flexibility Score: inf
ROOT
ATOM      1  C   UNL     1      23.047   8.229  13.514  1.00  0.00     0.000 C 
ENDROOT
BRANCH   1   2
ATOM      2  C   UNL     1      23.410   9.453  14.372  1.00  0.00     0.000 C 
BRANCH   2   3
ATOM      3  C   UNL     1      24.916   9.767  14.452  1.00  0.00     0.000 C 
BRANCH   3   4
ATOM      4  C   UNL     1      25.844   8.648  13.942  1.00  0.00     0.000 C 
BRANCH   4   5
ATOM      5  C   UNL     1      26.114   8.657  12.427  1.00  0.00     0.000 C 
BRANCH   5   6
ATOM      6  C   UNL     1      26.124  10.073  11.829  1.00  0.00     0.000 C 
BRANCH   6   7
ATOM      7  C   UNL     1      24.721  10.566  11.438  1.00  0.00     0.000 C 
BRANCH   7   8
ATOM      8  C   UNL     1      23.963   9.669  10.437  1.00  0.00     0.000 C 
BRANCH   8   9
ATOM      9  C   UNL     1      24.848   8.723   9.602  1.00  0.00     0.000 C 
BRANCH   9  10
ATOM     10  C   UNL     1      24.578   7.223   9.822  1.00  0.00     0.000 C 
BRANCH  10  11
ATOM     11  C   UNL     1      25.827   6.357   9.586  1.00  0.00     0.000 C 
BRANCH  11  12
ATOM     12  C   UNL     1      25.797   5.049  10.399  1.00  0.00     0.006 C 
BRANCH  12  13
ATOM     13  C   UNL     1      26.123   5.240  11.890  1.00  0.00     0.053 C 
BRANCH  13  14
ATOM     14  C   UNL     1      25.361   4.281  12.752  1.00  0.00     0.041 C 
ATOM     15  O   UNL     1      24.436   4.695  13.502  1.00  0.00    -0.550 OA
ATOM     16  O   UNL     1      25.697   2.932  12.757  1.00  0.00    -0.550 OA
ENDBRANCH  13  14
ENDBRANCH  12  13
ENDBRANCH  11  12
ENDBRANCH  10  11
ENDBRANCH   9  10
ENDBRANCH   8   9
ENDBRANCH   7   8
ENDBRANCH   6   7
ENDBRANCH   5   6
ENDBRANCH   4   5
ENDBRANCH   3   4
ENDBRANCH   2   3
ENDBRANCH   1   2
BRANCH   1  17
ATOM     17  C   UNL     1      21.735   8.417  12.732  1.00  0.00     0.000 C 
BRANCH  17  18
ATOM     18  C   UNL     1      21.668   7.528  11.479  1.00  0.00     0.000 C 
BRANCH  18  19
ATOM     19  C   UNL     1      20.465   7.867  10.586  1.00  0.00     0.000 C 
BRANCH  19  20
ATOM     20  C   UNL     1      19.164   7.917  11.402  1.00  0.00     0.000 C 
BRANCH  20  21
ATOM     21  C   UNL     1      18.540   6.526  11.620  1.00  0.00     0.000 C 
BRANCH  21  22
ATOM     22  C   UNL     1      19.031   5.431  10.653  1.00  0.00    -0.000 C 
BRANCH  22  23
ATOM     23  C   UNL     1      18.028   5.142   9.523  1.00  0.00    -0.000 C 
BRANCH  23  24
ATOM     24  C   UNL     1      18.333   5.932   8.239  1.00  0.00    -0.000 C 
BRANCH  24  25
ATOM     25  C   UNL     1      19.804   6.366   8.071  1.00  0.00    -0.000 C 
BRANCH  25  26
ATOM     26  C   UNL     1      20.057   7.245   6.829  1.00  0.00    -0.000 C 
BRANCH  26  27
ATOM     27  C   UNL     1      19.866   8.744   7.126  1.00  0.00    -0.000 C 
BRANCH  27  28
ATOM     28  C   UNL     1      20.981   9.313   8.018  1.00  0.00    -0.000 C 
BRANCH  28  29
ATOM     29  C   UNL     1      22.165   9.855   7.201  1.00  0.00    -0.003 C 
ATOM     30  C   UNL     1      21.714  10.310   5.817  1.00  0.00     0.004 C 
ENDBRANCH  28  29
ENDBRANCH  27  28
ENDBRANCH  26  27
ENDBRANCH  25  26
ENDBRANCH  24  25
ENDBRANCH  23  24
ENDBRANCH  22  23
ENDBRANCH  21  22
ENDBRANCH  20  21
ENDBRANCH  19  20
ENDBRANCH  18  19
ENDBRANCH  17  18
ENDBRANCH   1  17
TORSDOF 26
ENDMDL
MODEL 8
REMARK VINA RESULT:    -2.219      3.551      8.279
REMARK INTER + INTRA:          -7.074
REMARK INTER:                  -4.748
REMARK INTRA:                  -2.326
REMARK UNBOUND:                -1.482
REMARK SMILES CCCCCCCCCCCCCCCCCCCCCCCCCCCC(=O)[O-]
REMARK SMILES IDX 15 1 16 2 17 3 18 4 19 5 20 6 21 7 22 8 23 9 24 10 25 11
REMARK SMILES IDX 26 12 27 13 28 14 29 15 30 16 14 17 13 18 12 19 11 20 10 21
REMARK SMILES IDX 9 22 8 23 7 24 6 25 5 26 4 27 3 28 2 29 1 30
REMARK H PARENT
REMARK Flexibility Score: inf
ROOT
ATOM      1  C   UNL     1      21.071   8.998   9.186  1.00  0.00     0.000 C 
ENDROOT
BRANCH   1   2
ATOM      2  C   UNL     1      22.330   8.248   9.656  1.00  0.00     0.000 C 
BRANCH   2   3
ATOM      3  C   UNL     1      23.597   9.114   9.772  1.00  0.00     0.000 C 
BRANCH   3   4
ATOM      4  C   UNL     1      24.919   8.328   9.871  1.00  0.00     0.000 C 
BRANCH   4   5
ATOM      5  C   UNL     1      25.953   8.901  10.857  1.00  0.00     0.000 C 
BRANCH   5   6
ATOM      6  C   UNL     1      25.479  10.197  11.533  1.00  0.00     0.000 C 
BRANCH   6   7
ATOM      7  C   UNL     1      25.420  10.084  13.066  1.00  0.00     0.000 C 
BRANCH   7   8
ATOM      8  C   UNL     1      24.018   9.816  13.653  1.00  0.00     0.000 C 
BRANCH   8   9
ATOM      9  C   UNL     1      23.796   8.391  14.199  1.00  0.00     0.000 C 
BRANCH   9  10
ATOM     10  C   UNL     1      23.426   7.342  13.135  1.00  0.00     0.000 C 
BRANCH  10  11
ATOM     11  C   UNL     1      24.511   6.265  12.966  1.00  0.00     0.000 C 
BRANCH  11  12
ATOM     12  C   UNL     1      24.533   5.265  14.138  1.00  0.00     0.006 C 
BRANCH  12  13
ATOM     13  C   UNL     1      23.882   3.911  13.806  1.00  0.00     0.053 C 
BRANCH  13  14
ATOM     14  C   UNL     1      24.903   2.878  13.442  1.00  0.00     0.041 C 
ATOM     15  O   UNL     1      25.697   3.078  12.483  1.00  0.00    -0.550 OA
ATOM     16  O   UNL     1      24.954   1.674  14.135  1.00  0.00    -0.550 OA
ENDBRANCH  13  14
ENDBRANCH  12  13
ENDBRANCH  11  12
ENDBRANCH  10  11
ENDBRANCH   9  10
ENDBRANCH   8   9
ENDBRANCH   7   8
ENDBRANCH   6   7
ENDBRANCH   5   6
ENDBRANCH   4   5
ENDBRANCH   3   4
ENDBRANCH   2   3
ENDBRANCH   1   2
BRANCH   1  17
ATOM     17  C   UNL     1      19.787   8.164   9.340  1.00  0.00     0.000 C 
BRANCH  17  18
ATOM     18  C   UNL     1      20.069   6.652   9.353  1.00  0.00     0.000 C 
BRANCH  18  19
ATOM     19  C   UNL     1      18.984   5.862  10.100  1.00  0.00     0.000 C 
BRANCH  19  20
ATOM     20  C   UNL     1      18.153   5.006   9.131  1.00  0.00     0.000 C 
BRANCH  20  21
ATOM     21  C   UNL     1      16.666   4.931   9.524  1.00  0.00     0.000 C 
BRANCH  21  22
ATOM     22  C   UNL     1      15.767   4.165   8.534  1.00  0.00    -0.000 C 
BRANCH  22  23
ATOM     23  C   UNL     1      14.651   3.372   9.234  1.00  0.00    -0.000 C 
BRANCH  23  24
ATOM     24  C   UNL     1      14.064   2.259   8.347  1.00  0.00    -0.000 C 
BRANCH  24  25
ATOM     25  C   UNL     1      15.041   1.119   7.996  1.00  0.00    -0.000 C 
BRANCH  25  26
ATOM     26  C   UNL     1      15.329   0.987   6.486  1.00  0.00    -0.000 C 
BRANCH  26  27
ATOM     27  C   UNL     1      16.678   1.614   6.093  1.00  0.00    -0.000 C 
BRANCH  27  28
ATOM     28  C   UNL     1      16.977   1.472   4.591  1.00  0.00    -0.000 C 
BRANCH  28  29
ATOM     29  C   UNL     1      17.159   2.833   3.899  1.00  0.00    -0.003 C 
ATOM     30  C   UNL     1      18.575   2.984   3.351  1.00  0.00     0.004 C 
ENDBRANCH  28  29
ENDBRANCH  27  28
ENDBRANCH  26  27
ENDBRANCH  25  26
ENDBRANCH  24  25
ENDBRANCH  23  24
ENDBRANCH  22  23
ENDBRANCH  21  22
ENDBRANCH  20  21
ENDBRANCH  19  20
ENDBRANCH  18  19
ENDBRANCH  17  18
ENDBRANCH   1  17
TORSDOF 26
ENDMDL
