MODEL 1
REMARK VINA RESULT:    -5.544      0.000      0.000
REMARK INTER + INTRA:          -5.544
REMARK INTER:                  -5.544
REMARK INTRA:                   0.000
REMARK UNBOUND:                 0.000
REMARK SMILES CC1=CC(=O)[C@H]2C[C@@H]1C2(C)C
REMARK SMILES IDX 1 1 2 2 3 3 4 4 5 5 6 6 7 7 8 8 9 9 10 10 11 11
REMARK H PARENT
REMARK Flexibility Score: inf
ROOT
ATOM      1  C   UNL     1     -14.000 -20.156  28.593  1.00  0.00     0.040 C 
ATOM      2  C   UNL     1     -12.905 -19.173  28.868  1.00  0.00    -0.066 C 
ATOM      3  C   UNL     1     -11.873 -19.452  29.712  1.00  0.00     0.047 C 
ATOM      4  C   UNL     1     -10.852 -18.369  29.889  1.00  0.00     0.159 C 
ATOM      5  O   UNL     1      -9.875 -18.488  30.675  1.00  0.00    -0.295 OA
ATOM      6  C   UNL     1     -11.080 -17.111  29.051  1.00  0.00     0.067 C 
ATOM      7  C   UNL     1     -11.420 -17.651  27.645  1.00  0.00     0.021 C 
ATOM      8  C   UNL     1     -12.872 -17.808  28.153  1.00  0.00     0.022 C 
ATOM      9  C   UNL     1     -12.571 -16.687  29.190  1.00  0.00    -0.019 C 
ATOM     10  C   UNL     1     -13.239 -16.784  30.590  1.00  0.00     0.012 C 
ATOM     11  C   UNL     1     -12.836 -15.270  28.622  1.00  0.00     0.012 C 
ENDROOT
TORSDOF 0
ENDMDL
MODEL 2
REMARK VINA RESULT:    -5.442      2.051      3.021
REMARK INTER + INTRA:          -5.442
REMARK INTER:                  -5.442
REMARK INTRA:                   0.000
REMARK UNBOUND:                 0.000
REMARK SMILES CC1=CC(=O)[C@H]2C[C@@H]1C2(C)C
REMARK SMILES IDX 1 1 2 2 3 3 4 4 5 5 6 6 7 7 8 8 9 9 10 10 11 11
REMARK H PARENT
REMARK Flexibility Score: inf
ROOT
ATOM      1  C   UNL     1     -12.874 -19.293  31.080  1.00  0.00     0.040 C 
ATOM      2  C   UNL     1     -12.684 -18.186  30.092  1.00  0.00    -0.066 C 
ATOM      3  C   UNL     1     -13.146 -18.267  28.812  1.00  0.00     0.047 C 
ATOM      4  C   UNL     1     -12.879 -17.080  27.936  1.00  0.00     0.159 C 
ATOM      5  O   UNL     1     -13.216 -17.050  26.724  1.00  0.00    -0.295 OA
ATOM      6  C   UNL     1     -12.169 -15.910  28.618  1.00  0.00     0.067 C 
ATOM      7  C   UNL     1     -12.914 -15.748  29.961  1.00  0.00     0.021 C 
ATOM      8  C   UNL     1     -11.998 -16.868  30.504  1.00  0.00     0.022 C 
ATOM      9  C   UNL     1     -10.957 -16.466  29.420  1.00  0.00    -0.019 C 
ATOM     10  C   UNL     1     -10.097 -17.588  28.774  1.00  0.00     0.012 C 
ATOM     11  C   UNL     1     -10.005 -15.342  29.904  1.00  0.00     0.012 C 
ENDROOT
TORSDOF 0
ENDMDL
MODEL 3
REMARK VINA RESULT:    -5.395      1.948      3.429
REMARK INTER + INTRA:          -5.395
REMARK INTER:                  -5.395
REMARK INTRA:                   0.000
REMARK UNBOUND:                 0.000
REMARK SMILES CC1=CC(=O)[C@H]2C[C@@H]1C2(C)C
REMARK SMILES IDX 1 1 2 2 3 3 4 4 5 5 6 6 7 7 8 8 9 9 10 10 11 11
REMARK H PARENT
REMARK Flexibility Score: inf
ROOT
ATOM      1  C   UNL     1     -13.828 -14.417  28.813  1.00  0.00     0.040 C 
ATOM      2  C   UNL     1     -12.769 -15.453  28.601  1.00  0.00    -0.066 C 
ATOM      3  C   UNL     1     -12.622 -16.109  27.416  1.00  0.00     0.047 C 
ATOM      4  C   UNL     1     -11.519 -17.122  27.353  1.00  0.00     0.159 C 
ATOM      5  O   UNL     1     -11.309 -17.824  26.329  1.00  0.00    -0.295 OA
ATOM      6  C   UNL     1     -10.669 -17.244  28.617  1.00  0.00     0.067 C 
ATOM      7  C   UNL     1     -10.374 -15.781  29.016  1.00  0.00     0.021 C 
ATOM      8  C   UNL     1     -11.754 -15.785  29.712  1.00  0.00     0.022 C 
ATOM      9  C   UNL     1     -11.619 -17.330  29.846  1.00  0.00    -0.019 C 
ATOM     10  C   UNL     1     -12.907 -18.193  29.725  1.00  0.00     0.012 C 
ATOM     11  C   UNL     1     -10.874 -17.748  31.139  1.00  0.00     0.012 C 
ENDROOT
TORSDOF 0
ENDMDL
MODEL 4
REMARK VINA RESULT:    -5.284      1.943      3.018
REMARK INTER + INTRA:          -5.284
REMARK INTER:                  -5.284
REMARK INTRA:                   0.000
REMARK UNBOUND:                 0.000
REMARK SMILES CC1=CC(=O)[C@H]2C[C@@H]1C2(C)C
REMARK SMILES IDX 1 1 2 2 3 3 4 4 5 5 6 6 7 7 8 8 9 9 10 10 11 11
REMARK H PARENT
REMARK Flexibility Score: inf
ROOT
ATOM      1  C   UNL     1     -11.199 -19.105  31.077  1.00  0.00     0.040 C 
ATOM      2  C   UNL     1     -11.583 -17.940  30.219  1.00  0.00    -0.066 C 
ATOM      3  C   UNL     1     -12.519 -17.029  30.608  1.00  0.00     0.047 C 
ATOM      4  C   UNL     1     -12.800 -15.917  29.642  1.00  0.00     0.159 C 
ATOM      5  O   UNL     1     -13.673 -15.038  29.865  1.00  0.00    -0.295 OA
ATOM      6  C   UNL     1     -11.953 -15.926  28.370  1.00  0.00     0.067 C 
ATOM      7  C   UNL     1     -10.517 -16.189  28.873  1.00  0.00     0.021 C 
ATOM      8  C   UNL     1     -10.884 -17.690  28.868  1.00  0.00     0.022 C 
ATOM      9  C   UNL     1     -11.954 -17.367  27.785  1.00  0.00    -0.019 C 
ATOM     10  C   UNL     1     -13.284 -18.172  27.803  1.00  0.00     0.012 C 
ATOM     11  C   UNL     1     -11.373 -17.421  26.349  1.00  0.00     0.012 C 
ENDROOT
TORSDOF 0
ENDMDL
MODEL 5
REMARK VINA RESULT:    -5.251      1.508      2.303
REMARK INTER + INTRA:          -5.251
REMARK INTER:                  -5.251
REMARK INTRA:                   0.000
REMARK UNBOUND:                 0.000
REMARK SMILES CC1=CC(=O)[C@H]2C[C@@H]1C2(C)C
REMARK SMILES IDX 1 1 2 2 3 3 4 4 5 5 6 6 7 7 8 8 9 9 10 10 11 11
REMARK H PARENT
REMARK Flexibility Score: inf
ROOT
ATOM      1  C   UNL     1     -13.628 -16.432  26.585  1.00  0.00     0.040 C 
ATOM      2  C   UNL     1     -12.820 -17.123  27.638  1.00  0.00    -0.066 C 
ATOM      3  C   UNL     1     -13.130 -18.370  28.091  1.00  0.00     0.047 C 
ATOM      4  C   UNL     1     -12.230 -18.933  29.150  1.00  0.00     0.159 C 
ATOM      5  O   UNL     1     -12.436 -20.056  29.680  1.00  0.00    -0.295 OA
ATOM      6  C   UNL     1     -11.047 -18.048  29.541  1.00  0.00     0.067 C 
ATOM      7  C   UNL     1     -10.472 -17.568  28.191  1.00  0.00     0.021 C 
ATOM      8  C   UNL     1     -11.554 -16.465  28.221  1.00  0.00     0.022 C 
ATOM      9  C   UNL     1     -11.567 -16.600  29.772  1.00  0.00    -0.019 C 
ATOM     10  C   UNL     1     -12.920 -16.410  30.514  1.00  0.00     0.012 C 
ATOM     11  C   UNL     1     -10.509 -15.694  30.452  1.00  0.00     0.012 C 
ENDROOT
TORSDOF 0
ENDMDL
MODEL 6
REMARK VINA RESULT:    -5.165      1.758      3.373
REMARK INTER + INTRA:          -5.165
REMARK INTER:                  -5.165
REMARK INTRA:                   0.000
REMARK UNBOUND:                 0.000
REMARK SMILES CC1=CC(=O)[C@H]2C[C@@H]1C2(C)C
REMARK SMILES IDX 1 1 2 2 3 3 4 4 5 5 6 6 7 7 8 8 9 9 10 10 11 11
REMARK H PARENT
REMARK Flexibility Score: inf
ROOT
ATOM      1  C   UNL     1     -11.376 -17.259  26.037  1.00  0.00     0.040 C 
ATOM      2  C   UNL     1     -11.869 -17.242  27.450  1.00  0.00    -0.066 C 
ATOM      3  C   UNL     1     -12.387 -16.121  28.025  1.00  0.00     0.047 C 
ATOM      4  C   UNL     1     -12.838 -16.256  29.448  1.00  0.00     0.159 C 
ATOM      5  O   UNL     1     -13.294 -15.282  30.104  1.00  0.00    -0.295 OA
ATOM      6  C   UNL     1     -12.705 -17.656  30.047  1.00  0.00     0.067 C 
ATOM      7  C   UNL     1     -13.264 -18.589  28.951  1.00  0.00     0.021 C 
ATOM      8  C   UNL     1     -11.861 -18.525  28.304  1.00  0.00     0.022 C 
ATOM      9  C   UNL     1     -11.287 -18.204  29.715  1.00  0.00    -0.019 C 
ATOM     10  C   UNL     1     -10.078 -17.232  29.812  1.00  0.00     0.012 C 
ATOM     11  C   UNL     1     -10.947 -19.484  30.519  1.00  0.00     0.012 C 
ENDROOT
TORSDOF 0
ENDMDL
MODEL 7
REMARK VINA RESULT:    -5.156      1.526      3.151
REMARK INTER + INTRA:          -5.156
REMARK INTER:                  -5.156
REMARK INTRA:                   0.000
REMARK UNBOUND:                 0.000
REMARK SMILES CC1=CC(=O)[C@H]2C[C@@H]1C2(C)C
REMARK SMILES IDX 1 1 2 2 3 3 4 4 5 5 6 6 7 7 8 8 9 9 10 10 11 11
REMARK H PARENT
REMARK Flexibility Score: inf
ROOT
ATOM      1  C   UNL     1     -13.651 -14.253  28.627  1.00  0.00     0.040 C 
ATOM      2  C   UNL     1     -13.127 -15.651  28.729  1.00  0.00    -0.066 C 
ATOM      3  C   UNL     1     -13.079 -16.324  29.912  1.00  0.00     0.047 C 
ATOM      4  C   UNL     1     -12.527 -17.717  29.859  1.00  0.00     0.159 C 
ATOM      5  O   UNL     1     -12.390 -18.425  30.891  1.00  0.00    -0.295 OA
ATOM      6  C   UNL     1     -12.143 -18.216  28.467  1.00  0.00     0.067 C 
ATOM      7  C   UNL     1     -13.337 -17.806  27.577  1.00  0.00     0.021 C 
ATOM      8  C   UNL     1     -12.668 -16.416  27.472  1.00  0.00     0.022 C 
ATOM      9  C   UNL     1     -11.306 -17.112  27.759  1.00  0.00    -0.019 C 
ATOM     10  C   UNL     1     -10.247 -16.339  28.593  1.00  0.00     0.012 C 
ATOM     11  C   UNL     1     -10.624 -17.628  26.466  1.00  0.00     0.012 C 
ENDROOT
TORSDOF 0
ENDMDL
MODEL 8
REMARK VINA RESULT:    -4.940      1.350      3.195
REMARK INTER + INTRA:          -4.940
REMARK INTER:                  -4.940
REMARK INTRA:                   0.000
REMARK UNBOUND:                 0.000
REMARK SMILES CC1=CC(=O)[C@H]2C[C@@H]1C2(C)C
REMARK SMILES IDX 1 1 2 2 3 3 4 4 5 5 6 6 7 7 8 8 9 9 10 10 11 11
REMARK H PARENT
REMARK Flexibility Score: inf
ROOT
ATOM      1  C   UNL     1      -9.875 -15.066  29.684  1.00  0.00     0.040 C 
ATOM      2  C   UNL     1     -10.820 -16.208  29.480  1.00  0.00    -0.066 C 
ATOM      3  C   UNL     1     -10.564 -17.457  29.959  1.00  0.00     0.047 C 
ATOM      4  C   UNL     1     -11.602 -18.501  29.675  1.00  0.00     0.159 C 
ATOM      5  O   UNL     1     -11.462 -19.702  30.026  1.00  0.00    -0.295 OA
ATOM      6  C   UNL     1     -12.841 -18.005  28.929  1.00  0.00     0.067 C 
ATOM      7  C   UNL     1     -13.218 -16.694  29.653  1.00  0.00     0.021 C 
ATOM      8  C   UNL     1     -12.166 -16.000  28.758  1.00  0.00     0.022 C 
ATOM      9  C   UNL     1     -12.378 -17.141  27.721  1.00  0.00    -0.019 C 
ATOM     10  C   UNL     1     -11.151 -17.622  26.895  1.00  0.00     0.012 C 
ATOM     11  C   UNL     1     -13.536 -16.836  26.736  1.00  0.00     0.012 C 
ENDROOT
TORSDOF 0
ENDMDL
MODEL 9
REMARK VINA RESULT:    -4.897      2.103      3.766
REMARK INTER + INTRA:          -4.897
REMARK INTER:                  -4.897
REMARK INTRA:                   0.000
REMARK UNBOUND:                 0.000
REMARK SMILES CC1=CC(=O)[C@H]2C[C@@H]1C2(C)C
REMARK SMILES IDX 1 1 2 2 3 3 4 4 5 5 6 6 7 7 8 8 9 9 10 10 11 11
REMARK H PARENT
REMARK Flexibility Score: inf
ROOT
ATOM      1  C   UNL     1      -9.875 -15.488  30.029  1.00  0.00     0.040 C 
ATOM      2  C   UNL     1     -10.965 -16.076  29.189  1.00  0.00    -0.066 C 
ATOM      3  C   UNL     1     -11.957 -15.315  28.649  1.00  0.00     0.047 C 
ATOM      4  C   UNL     1     -12.981 -16.045  27.832  1.00  0.00     0.159 C 
ATOM      5  O   UNL     1     -13.970 -15.461  27.317  1.00  0.00    -0.295 OA
ATOM      6  C   UNL     1     -12.739 -17.545  27.669  1.00  0.00     0.067 C 
ATOM      7  C   UNL     1     -11.237 -17.650  27.328  1.00  0.00     0.021 C 
ATOM      8  C   UNL     1     -10.976 -17.580  28.850  1.00  0.00     0.022 C 
ATOM      9  C   UNL     1     -12.409 -18.148  29.064  1.00  0.00    -0.019 C 
ATOM     10  C   UNL     1     -13.220 -17.651  30.294  1.00  0.00     0.012 C 
ATOM     11  C   UNL     1     -12.437 -19.698  29.058  1.00  0.00     0.012 C 
ENDROOT
TORSDOF 0
ENDMDL
