MODEL 1
REMARK VINA RESULT:    -4.181      0.000      0.000
REMARK INTER + INTRA:          -5.174
REMARK INTER:                  -5.037
REMARK INTRA:                  -0.137
REMARK UNBOUND:                -0.137
REMARK SMILES O=c1c(O)c(-c2ccc(O)c(O)c2)oc2cc(O)cc(O)c12
REMARK SMILES IDX 5 1 3 2 2 3 1 4 22 5 20 6 19 7 17 8 16 9 15 10 14 11 6 12
REMARK SMILES IDX 7 13 8 14 9 15 13 16 11 17 10 18 12 20 4 22 21 24 18 26
REMARK H PARENT 10 19 12 21 4 23 21 25 18 27
REMARK Flexibility Score: inf
ROOT
ATOM      1  C   UNL     1       7.375   0.175   8.568  1.00  0.00     0.180 A 
ATOM      2  C   UNL     1       7.176  -1.215   8.628  1.00  0.00     0.208 A 
ATOM      3  C   UNL     1       7.877  -1.964   9.586  1.00  0.00     0.238 A 
ATOM      4  O   UNL     1       7.654  -3.198   9.671  1.00  0.00    -0.285 OA
ATOM      5  C   UNL     1       8.782  -1.315  10.462  1.00  0.00     0.111 A 
ATOM      6  C   UNL     1       9.576  -1.980  11.444  1.00  0.00     0.134 A 
ATOM      7  C   UNL     1      10.338  -1.224  12.343  1.00  0.00     0.093 A 
ATOM      8  C   UNL     1      10.386   0.169  12.252  1.00  0.00     0.123 A 
ATOM      9  C   UNL     1       9.661   0.823  11.260  1.00  0.00     0.094 A 
ATOM     10  C   UNL     1       8.863   0.099  10.371  1.00  0.00     0.146 A 
ATOM     11  O   UNL     1       8.180   0.763   9.447  1.00  0.00    -0.452 OA
ENDROOT
BRANCH   1  12
ATOM     12  C   UNL     1       6.691   1.028   7.570  1.00  0.00     0.025 A 
ATOM     13  C   UNL     1       7.415   1.763   6.616  1.00  0.00     0.016 A 
ATOM     14  C   UNL     1       6.750   2.579   5.698  1.00  0.00     0.051 A 
ATOM     15  C   UNL     1       5.353   2.685   5.728  1.00  0.00     0.157 A 
ATOM     16  C   UNL     1       5.292   1.154   7.610  1.00  0.00     0.062 A 
ATOM     17  C   UNL     1       4.622   1.971   6.692  1.00  0.00     0.158 A 
BRANCH  15  18
ATOM     18  O   UNL     1       4.691   3.499   4.811  1.00  0.00    -0.504 OA
ATOM     19  H   UNL     1       3.679   3.551   4.780  1.00  0.00     0.293 HD
ENDBRANCH  15  18
BRANCH  17  20
ATOM     20  O   UNL     1       3.232   2.060   6.753  1.00  0.00    -0.504 OA
ATOM     21  H   UNL     1       2.757   2.596   7.470  1.00  0.00     0.293 HD
ENDBRANCH  17  20
ENDBRANCH   1  12
BRANCH   2  22
ATOM     22  O   UNL     1       6.262  -1.831   7.768  1.00  0.00    -0.502 OA
ATOM     23  H   UNL     1       6.200  -1.600   6.784  1.00  0.00     0.293 HD
ENDBRANCH   2  22
BRANCH   6  24
ATOM     24  O   UNL     1       9.671  -3.370  11.560  1.00  0.00    -0.507 OA
ATOM     25  H   UNL     1       8.889  -4.005  11.522  1.00  0.00     0.293 HD
ENDBRANCH   6  24
BRANCH   8  26
ATOM     26  O   UNL     1      11.160   0.913  13.142  1.00  0.00    -0.508 OA
ATOM     27  H   UNL     1      11.453   1.859  12.927  1.00  0.00     0.293 HD
ENDBRANCH   8  26
TORSDOF 6
ENDMDL
MODEL 2
REMARK VINA RESULT:    -4.156      1.541      6.926
REMARK INTER + INTRA:          -5.143
REMARK INTER:                  -4.863
REMARK INTRA:                  -0.280
REMARK UNBOUND:                -0.137
REMARK SMILES O=c1c(O)c(-c2ccc(O)c(O)c2)oc2cc(O)cc(O)c12
REMARK SMILES IDX 5 1 3 2 2 3 1 4 22 5 20 6 19 7 17 8 16 9 15 10 14 11 6 12
REMARK SMILES IDX 7 13 8 14 9 15 13 16 11 17 10 18 12 20 4 22 21 24 18 26
REMARK H PARENT 10 19 12 21 4 23 21 25 18 27
REMARK Flexibility Score: inf
ROOT
ATOM      1  C   UNL     1       7.507   0.146   8.723  1.00  0.00     0.180 A 
ATOM      2  C   UNL     1       6.106   0.176   8.827  1.00  0.00     0.208 A 
ATOM      3  C   UNL     1       5.357   0.738   7.782  1.00  0.00     0.238 A 
ATOM      4  O   UNL     1       4.101   0.713   7.856  1.00  0.00    -0.285 OA
ATOM      5  C   UNL     1       6.019   1.278   6.653  1.00  0.00     0.111 A 
ATOM      6  C   UNL     1       5.362   1.908   5.553  1.00  0.00     0.134 A 
ATOM      7  C   UNL     1       6.106   2.289   4.430  1.00  0.00     0.093 A 
ATOM      8  C   UNL     1       7.493   2.121   4.395  1.00  0.00     0.123 A 
ATOM      9  C   UNL     1       8.150   1.562   5.487  1.00  0.00     0.094 A 
ATOM     10  C   UNL     1       7.431   1.139   6.607  1.00  0.00     0.146 A 
ATOM     11  O   UNL     1       8.095   0.601   7.622  1.00  0.00    -0.452 OA
ENDROOT
BRANCH   1  12
ATOM     12  C   UNL     1       8.366  -0.407   9.795  1.00  0.00     0.025 A 
ATOM     13  C   UNL     1       8.516  -1.794   9.970  1.00  0.00     0.016 A 
ATOM     14  C   UNL     1       9.313  -2.294  11.003  1.00  0.00     0.051 A 
ATOM     15  C   UNL     1       9.959  -1.417  11.885  1.00  0.00     0.157 A 
ATOM     16  C   UNL     1       8.999   0.466  10.695  1.00  0.00     0.062 A 
ATOM     17  C   UNL     1       9.798  -0.031  11.730  1.00  0.00     0.158 A 
BRANCH  15  18
ATOM     18  O   UNL     1      10.755  -1.919  12.914  1.00  0.00    -0.504 OA
ATOM     19  H   UNL     1      10.405  -2.004  13.862  1.00  0.00     0.293 HD
ENDBRANCH  15  18
BRANCH  17  20
ATOM     20  O   UNL     1      10.423   0.867  12.596  1.00  0.00    -0.504 OA
ATOM     21  H   UNL     1      10.189   0.919  13.580  1.00  0.00     0.293 HD
ENDBRANCH  17  20
ENDBRANCH   1  12
BRANCH   2  22
ATOM     22  O   UNL     1       5.472  -0.383   9.941  1.00  0.00    -0.502 OA
ATOM     23  H   UNL     1       5.012  -1.284   9.910  1.00  0.00     0.293 HD
ENDBRANCH   2  22
BRANCH   6  24
ATOM     24  O   UNL     1       3.996   2.206   5.526  1.00  0.00    -0.507 OA
ATOM     25  H   UNL     1       3.568   2.886   4.918  1.00  0.00     0.293 HD
ENDBRANCH   6  24
BRANCH   8  26
ATOM     26  O   UNL     1       8.229   2.518   3.279  1.00  0.00    -0.508 OA
ATOM     27  H   UNL     1       9.055   3.097   3.367  1.00  0.00     0.293 HD
ENDBRANCH   8  26
TORSDOF 6
ENDMDL
MODEL 3
REMARK VINA RESULT:    -4.129      9.833     12.204
REMARK INTER + INTRA:          -5.111
REMARK INTER:                  -4.800
REMARK INTRA:                  -0.311
REMARK UNBOUND:                -0.137
REMARK SMILES O=c1c(O)c(-c2ccc(O)c(O)c2)oc2cc(O)cc(O)c12
REMARK SMILES IDX 5 1 3 2 2 3 1 4 22 5 20 6 19 7 17 8 16 9 15 10 14 11 6 12
REMARK SMILES IDX 7 13 8 14 9 15 13 16 11 17 10 18 12 20 4 22 21 24 18 26
REMARK H PARENT 10 19 12 21 4 23 21 25 18 27
REMARK Flexibility Score: inf
ROOT
ATOM      1  C   UNL     1      11.044   9.280  12.907  1.00  0.00     0.180 A 
ATOM      2  C   UNL     1      11.526   8.151  12.224  1.00  0.00     0.208 A 
ATOM      3  C   UNL     1      12.304   8.333  11.069  1.00  0.00     0.238 A 
ATOM      4  O   UNL     1      12.777   7.320  10.493  1.00  0.00    -0.285 OA
ATOM      5  C   UNL     1      12.576   9.642  10.604  1.00  0.00     0.111 A 
ATOM      6  C   UNL     1      13.319   9.944   9.422  1.00  0.00     0.134 A 
ATOM      7  C   UNL     1      13.639  11.274   9.129  1.00  0.00     0.093 A 
ATOM      8  C   UNL     1      13.186  12.319   9.938  1.00  0.00     0.123 A 
ATOM      9  C   UNL     1      12.411  12.039  11.060  1.00  0.00     0.094 A 
ATOM     10  C   UNL     1      12.106  10.719  11.399  1.00  0.00     0.146 A 
ATOM     11  O   UNL     1      11.372  10.496  12.483  1.00  0.00    -0.452 OA
ENDROOT
BRANCH   1  12
ATOM     12  C   UNL     1      10.198   9.168  14.117  1.00  0.00     0.025 A 
ATOM     13  C   UNL     1       8.798   9.265  14.042  1.00  0.00     0.016 A 
ATOM     14  C   UNL     1       8.020   9.180  15.199  1.00  0.00     0.051 A 
ATOM     15  C   UNL     1       8.630   9.012  16.450  1.00  0.00     0.157 A 
ATOM     16  C   UNL     1      10.805   9.022  15.375  1.00  0.00     0.062 A 
ATOM     17  C   UNL     1      10.029   8.936  16.537  1.00  0.00     0.158 A 
BRANCH  15  18
ATOM     18  O   UNL     1       7.851   8.927  17.603  1.00  0.00    -0.504 OA
ATOM     19  H   UNL     1       7.293   9.709  17.926  1.00  0.00     0.293 HD
ENDBRANCH  15  18
BRANCH  17  20
ATOM     20  O   UNL     1      10.666   8.776  17.767  1.00  0.00    -0.504 OA
ATOM     21  H   UNL     1      10.619   7.910  18.290  1.00  0.00     0.293 HD
ENDBRANCH  17  20
ENDBRANCH   1  12
BRANCH   2  22
ATOM     22  O   UNL     1      11.263   6.868  12.713  1.00  0.00    -0.502 OA
ATOM     23  H   UNL     1      10.582   6.252  12.286  1.00  0.00     0.293 HD
ENDBRANCH   2  22
BRANCH   6  24
ATOM     24  O   UNL     1      13.739   8.982   8.498  1.00  0.00    -0.507 OA
ATOM     25  H   UNL     1      14.472   9.119   7.819  1.00  0.00     0.293 HD
ENDBRANCH   6  24
BRANCH   8  26
ATOM     26  O   UNL     1      13.496  13.643   9.629  1.00  0.00    -0.508 OA
ATOM     27  H   UNL     1      13.229  14.057   8.744  1.00  0.00     0.293 HD
ENDBRANCH   8  26
TORSDOF 6
ENDMDL
MODEL 4
REMARK VINA RESULT:    -4.083      8.516     10.143
REMARK INTER + INTRA:          -5.055
REMARK INTER:                  -4.721
REMARK INTRA:                  -0.335
REMARK UNBOUND:                -0.137
REMARK SMILES O=c1c(O)c(-c2ccc(O)c(O)c2)oc2cc(O)cc(O)c12
REMARK SMILES IDX 5 1 3 2 2 3 1 4 22 5 20 6 19 7 17 8 16 9 15 10 14 11 6 12
REMARK SMILES IDX 7 13 8 14 9 15 13 16 11 17 10 18 12 20 4 22 21 24 18 26
REMARK H PARENT 10 19 12 21 4 23 21 25 18 27
REMARK Flexibility Score: inf
ROOT
ATOM      1  C   UNL     1      12.127   7.479  12.153  1.00  0.00     0.180 A 
ATOM      2  C   UNL     1      12.906   6.729  13.052  1.00  0.00     0.208 A 
ATOM      3  C   UNL     1      13.741   5.718  12.550  1.00  0.00     0.238 A 
ATOM      4  O   UNL     1      14.476   5.088  13.353  1.00  0.00    -0.285 OA
ATOM      5  C   UNL     1      13.775   5.459  11.159  1.00  0.00     0.111 A 
ATOM      6  C   UNL     1      14.554   4.432  10.545  1.00  0.00     0.134 A 
ATOM      7  C   UNL     1      14.612   4.350   9.148  1.00  0.00     0.093 A 
ATOM      8  C   UNL     1      13.866   5.217   8.345  1.00  0.00     0.123 A 
ATOM      9  C   UNL     1      13.057   6.184   8.936  1.00  0.00     0.094 A 
ATOM     10  C   UNL     1      13.007   6.313  10.326  1.00  0.00     0.146 A 
ATOM     11  O   UNL     1      12.231   7.256  10.848  1.00  0.00    -0.452 OA
ENDROOT
BRANCH   1  12
ATOM     12  C   UNL     1      11.205   8.543  12.608  1.00  0.00     0.025 A 
ATOM     13  C   UNL     1       9.875   8.257  12.963  1.00  0.00     0.016 A 
ATOM     14  C   UNL     1       9.015   9.281  13.367  1.00  0.00     0.051 A 
ATOM     15  C   UNL     1       9.465  10.608  13.408  1.00  0.00     0.157 A 
ATOM     16  C   UNL     1      11.644   9.877  12.631  1.00  0.00     0.062 A 
ATOM     17  C   UNL     1      10.786  10.905  13.035  1.00  0.00     0.158 A 
BRANCH  15  18
ATOM     18  O   UNL     1       8.605  11.627  13.813  1.00  0.00    -0.504 OA
ATOM     19  H   UNL     1       8.956  12.493  14.208  1.00  0.00     0.293 HD
ENDBRANCH  15  18
BRANCH  17  20
ATOM     20  O   UNL     1      11.262  12.216  13.059  1.00  0.00    -0.504 OA
ATOM     21  H   UNL     1      11.595  12.684  12.224  1.00  0.00     0.293 HD
ENDBRANCH  17  20
ENDBRANCH   1  12
BRANCH   2  22
ATOM     22  O   UNL     1      12.873   7.017  14.419  1.00  0.00    -0.502 OA
ATOM     23  H   UNL     1      12.648   6.318  15.117  1.00  0.00     0.293 HD
ENDBRANCH   2  22
BRANCH   6  24
ATOM     24  O   UNL     1      15.262   3.458  11.257  1.00  0.00    -0.507 OA
ATOM     25  H   UNL     1      15.302   3.397  12.262  1.00  0.00     0.293 HD
ENDBRANCH   6  24
BRANCH   8  26
ATOM     26  O   UNL     1      13.917   5.119   6.956  1.00  0.00    -0.508 OA
ATOM     27  H   UNL     1      14.275   4.290   6.496  1.00  0.00     0.293 HD
ENDBRANCH   8  26
TORSDOF 6
ENDMDL
MODEL 5
REMARK VINA RESULT:    -4.045      8.359     10.179
REMARK INTER + INTRA:          -5.009
REMARK INTER:                  -4.943
REMARK INTRA:                  -0.067
REMARK UNBOUND:                -0.137
REMARK SMILES O=c1c(O)c(-c2ccc(O)c(O)c2)oc2cc(O)cc(O)c12
REMARK SMILES IDX 5 1 3 2 2 3 1 4 22 5 20 6 19 7 17 8 16 9 15 10 14 11 6 12
REMARK SMILES IDX 7 13 8 14 9 15 13 16 11 17 10 18 12 20 4 22 21 24 18 26
REMARK H PARENT 10 19 12 21 4 23 21 25 18 27
REMARK Flexibility Score: inf
ROOT
ATOM      1  C   UNL     1      12.899   6.595  11.725  1.00  0.00     0.180 A 
ATOM      2  C   UNL     1      13.806   6.649  12.797  1.00  0.00     0.208 A 
ATOM      3  C   UNL     1      13.429   7.315  13.975  1.00  0.00     0.238 A 
ATOM      4  O   UNL     1      14.224   7.314  14.950  1.00  0.00    -0.285 OA
ATOM      5  C   UNL     1      12.157   7.931  14.059  1.00  0.00     0.111 A 
ATOM      6  C   UNL     1      11.686   8.666  15.188  1.00  0.00     0.134 A 
ATOM      7  C   UNL     1      10.362   9.120  15.214  1.00  0.00     0.093 A 
ATOM      8  C   UNL     1       9.512   8.923  14.122  1.00  0.00     0.123 A 
ATOM      9  C   UNL     1       9.981   8.258  12.992  1.00  0.00     0.094 A 
ATOM     10  C   UNL     1      11.286   7.761  12.951  1.00  0.00     0.146 A 
ATOM     11  O   UNL     1      11.688   7.125  11.859  1.00  0.00    -0.452 OA
ENDROOT
BRANCH   1  12
ATOM     12  C   UNL     1      13.233   5.933  10.443  1.00  0.00     0.025 A 
ATOM     13  C   UNL     1      13.633   4.587  10.397  1.00  0.00     0.016 A 
ATOM     14  C   UNL     1      13.965   3.990   9.178  1.00  0.00     0.051 A 
ATOM     15  C   UNL     1      13.919   4.732   7.990  1.00  0.00     0.157 A 
ATOM     16  C   UNL     1      13.208   6.679   9.252  1.00  0.00     0.062 A 
ATOM     17  C   UNL     1      13.541   6.084   8.030  1.00  0.00     0.158 A 
BRANCH  15  18
ATOM     18  O   UNL     1      14.251   4.134   6.776  1.00  0.00    -0.504 OA
ATOM     19  H   UNL     1      15.174   3.750   6.608  1.00  0.00     0.293 HD
ENDBRANCH  15  18
BRANCH  17  20
ATOM     20  O   UNL     1      13.491   6.852   6.867  1.00  0.00    -0.504 OA
ATOM     21  H   UNL     1      12.948   6.572   6.059  1.00  0.00     0.293 HD
ENDBRANCH  17  20
ENDBRANCH   1  12
BRANCH   2  22
ATOM     22  O   UNL     1      15.048   6.016  12.700  1.00  0.00    -0.502 OA
ATOM     23  H   UNL     1      15.248   5.137  13.162  1.00  0.00     0.293 HD
ENDBRANCH   2  22
BRANCH   6  24
ATOM     24  O   UNL     1      12.481   8.998  16.290  1.00  0.00    -0.507 OA
ATOM     25  H   UNL     1      12.596   9.930  16.655  1.00  0.00     0.293 HD
ENDBRANCH   6  24
BRANCH   8  26
ATOM     26  O   UNL     1       8.200   9.392  14.150  1.00  0.00    -0.508 OA
ATOM     27  H   UNL     1       7.422   8.779  14.361  1.00  0.00     0.293 HD
ENDBRANCH   8  26
TORSDOF 6
ENDMDL
MODEL 6
REMARK VINA RESULT:    -4.007      8.568     11.193
REMARK INTER + INTRA:          -4.964
REMARK INTER:                  -4.648
REMARK INTRA:                  -0.316
REMARK UNBOUND:                -0.137
REMARK SMILES O=c1c(O)c(-c2ccc(O)c(O)c2)oc2cc(O)cc(O)c12
REMARK SMILES IDX 5 1 3 2 2 3 1 4 22 5 20 6 19 7 17 8 16 9 15 10 14 11 6 12
REMARK SMILES IDX 7 13 8 14 9 15 13 16 11 17 10 18 12 20 4 22 21 24 18 26
REMARK H PARENT 10 19 12 21 4 23 21 25 18 27
REMARK Flexibility Score: inf
ROOT
ATOM      1  C   UNL     1      11.687   8.466  12.167  1.00  0.00     0.180 A 
ATOM      2  C   UNL     1      12.236   9.589  11.525  1.00  0.00     0.208 A 
ATOM      3  C   UNL     1      13.122   9.395  10.453  1.00  0.00     0.238 A 
ATOM      4  O   UNL     1      13.568  10.403   9.848  1.00  0.00    -0.285 OA
ATOM      5  C   UNL     1      13.459   8.081  10.047  1.00  0.00     0.111 A 
ATOM      6  C   UNL     1      14.376   7.767   8.999  1.00  0.00     0.134 A 
ATOM      7  C   UNL     1      14.535   6.436   8.596  1.00  0.00     0.093 A 
ATOM      8  C   UNL     1      13.858   5.401   9.246  1.00  0.00     0.123 A 
ATOM      9  C   UNL     1      13.006   5.692  10.308  1.00  0.00     0.094 A 
ATOM     10  C   UNL     1      12.800   7.014  10.710  1.00  0.00     0.146 A 
ATOM     11  O   UNL     1      11.971   7.248  11.720  1.00  0.00    -0.452 OA
ENDROOT
BRANCH   1  12
ATOM     12  C   UNL     1      10.766   8.589  13.320  1.00  0.00     0.025 A 
ATOM     13  C   UNL     1       9.385   8.777  13.137  1.00  0.00     0.016 A 
ATOM     14  C   UNL     1       8.538   8.914  14.239  1.00  0.00     0.051 A 
ATOM     15  C   UNL     1       9.059   8.881  15.540  1.00  0.00     0.157 A 
ATOM     16  C   UNL     1      11.286   8.578  14.625  1.00  0.00     0.062 A 
ATOM     17  C   UNL     1      10.440   8.715  15.732  1.00  0.00     0.158 A 
BRANCH  15  18
ATOM     18  O   UNL     1       8.212   9.017  16.638  1.00  0.00    -0.504 OA
ATOM     19  H   UNL     1       7.516   8.315  16.862  1.00  0.00     0.293 HD
ENDBRANCH  15  18
BRANCH  17  20
ATOM     20  O   UNL     1      10.991   8.685  17.013  1.00  0.00    -0.504 OA
ATOM     21  H   UNL     1      11.664   7.982  17.294  1.00  0.00     0.293 HD
ENDBRANCH  17  20
ENDBRANCH   1  12
BRANCH   2  22
ATOM     22  O   UNL     1      11.873  10.877  11.928  1.00  0.00    -0.502 OA
ATOM     23  H   UNL     1      11.510  11.567  11.282  1.00  0.00     0.293 HD
ENDBRANCH   2  22
BRANCH   6  24
ATOM     24  O   UNL     1      15.170   8.715   8.347  1.00  0.00    -0.507 OA
ATOM     25  H   UNL     1      16.178   8.701   8.320  1.00  0.00     0.293 HD
ENDBRANCH   6  24
BRANCH   8  26
ATOM     26  O   UNL     1      14.033   4.077   8.848  1.00  0.00    -0.508 OA
ATOM     27  H   UNL     1      13.662   3.306   9.391  1.00  0.00     0.293 HD
ENDBRANCH   8  26
TORSDOF 6
ENDMDL
MODEL 7
REMARK VINA RESULT:    -3.965      9.527     11.382
REMARK INTER + INTRA:          -4.913
REMARK INTER:                  -4.596
REMARK INTRA:                  -0.317
REMARK UNBOUND:                -0.137
REMARK SMILES O=c1c(O)c(-c2ccc(O)c(O)c2)oc2cc(O)cc(O)c12
REMARK SMILES IDX 5 1 3 2 2 3 1 4 22 5 20 6 19 7 17 8 16 9 15 10 14 11 6 12
REMARK SMILES IDX 7 13 8 14 9 15 13 16 11 17 10 18 12 20 4 22 21 24 18 26
REMARK H PARENT 10 19 12 21 4 23 21 25 18 27
REMARK Flexibility Score: inf
ROOT
ATOM      1  C   UNL     1      11.728   8.707  13.536  1.00  0.00     0.180 A 
ATOM      2  C   UNL     1      12.483   8.228  14.620  1.00  0.00     0.208 A 
ATOM      3  C   UNL     1      11.896   8.190  15.895  1.00  0.00     0.238 A 
ATOM      4  O   UNL     1      12.557   7.710  16.851  1.00  0.00    -0.285 OA
ATOM      5  C   UNL     1      10.567   8.647  16.072  1.00  0.00     0.111 A 
ATOM      6  C   UNL     1       9.886   8.692  17.326  1.00  0.00     0.134 A 
ATOM      7  C   UNL     1       8.530   9.039  17.363  1.00  0.00     0.093 A 
ATOM      8  C   UNL     1       7.849   9.406  16.200  1.00  0.00     0.123 A 
ATOM      9  C   UNL     1       8.521   9.423  14.981  1.00  0.00     0.094 A 
ATOM     10  C   UNL     1       9.864   9.047  14.906  1.00  0.00     0.146 A 
ATOM     11  O   UNL     1      10.463   9.066  13.722  1.00  0.00    -0.452 OA
ENDROOT
BRANCH   1  12
ATOM     12  C   UNL     1      12.286   8.801  12.167  1.00  0.00     0.025 A 
ATOM     13  C   UNL     1      12.825  10.003  11.678  1.00  0.00     0.016 A 
ATOM     14  C   UNL     1      13.325  10.075  10.375  1.00  0.00     0.051 A 
ATOM     15  C   UNL     1      13.280   8.952   9.537  1.00  0.00     0.157 A 
ATOM     16  C   UNL     1      12.225   7.685  11.316  1.00  0.00     0.062 A 
ATOM     17  C   UNL     1      12.724   7.753  10.011  1.00  0.00     0.158 A 
BRANCH  15  18
ATOM     18  O   UNL     1      13.780   9.026   8.238  1.00  0.00    -0.504 OA
ATOM     19  H   UNL     1      13.496   9.762   7.601  1.00  0.00     0.293 HD
ENDBRANCH  15  18
BRANCH  17  20
ATOM     20  O   UNL     1      12.659   6.620   9.201  1.00  0.00    -0.504 OA
ATOM     21  H   UNL     1      13.483   6.084   8.955  1.00  0.00     0.293 HD
ENDBRANCH  17  20
ENDBRANCH   1  12
BRANCH   2  22
ATOM     22  O   UNL     1      13.785   7.762  14.419  1.00  0.00    -0.502 OA
ATOM     23  H   UNL     1      14.211   7.716  13.501  1.00  0.00     0.293 HD
ENDBRANCH   2  22
BRANCH   6  24
ATOM     24  O   UNL     1      10.498   8.433  18.556  1.00  0.00    -0.507 OA
ATOM     25  H   UNL     1      10.009   8.175  19.399  1.00  0.00     0.293 HD
ENDBRANCH   6  24
BRANCH   8  26
ATOM     26  O   UNL     1       6.503   9.766  16.249  1.00  0.00    -0.508 OA
ATOM     27  H   UNL     1       5.841   9.436  15.556  1.00  0.00     0.293 HD
ENDBRANCH   8  26
TORSDOF 6
ENDMDL
MODEL 8
REMARK VINA RESULT:    -3.914      1.454      2.472
REMARK INTER + INTRA:          -4.852
REMARK INTER:                  -4.596
REMARK INTRA:                  -0.256
REMARK UNBOUND:                -0.137
REMARK SMILES O=c1c(O)c(-c2ccc(O)c(O)c2)oc2cc(O)cc(O)c12
REMARK SMILES IDX 5 1 3 2 2 3 1 4 22 5 20 6 19 7 17 8 16 9 15 10 14 11 6 12
REMARK SMILES IDX 7 13 8 14 9 15 13 16 11 17 10 18 12 20 4 22 21 24 18 26
REMARK H PARENT 10 19 12 21 4 23 21 25 18 27
REMARK Flexibility Score: inf
ROOT
ATOM      1  C   UNL     1       8.152  -0.790   9.958  1.00  0.00     0.180 A 
ATOM      2  C   UNL     1       8.507  -2.149   9.974  1.00  0.00     0.208 A 
ATOM      3  C   UNL     1       9.619  -2.555  10.730  1.00  0.00     0.238 A 
ATOM      4  O   UNL     1       9.899  -3.779  10.783  1.00  0.00    -0.285 OA
ATOM      5  C   UNL     1      10.370  -1.593  11.447  1.00  0.00     0.111 A 
ATOM      6  C   UNL     1      11.539  -1.885  12.214  1.00  0.00     0.134 A 
ATOM      7  C   UNL     1      12.126  -0.878  12.989  1.00  0.00     0.093 A 
ATOM      8  C   UNL     1      11.626   0.427  12.973  1.00  0.00     0.123 A 
ATOM      9  C   UNL     1      10.523   0.735  12.182  1.00  0.00     0.094 A 
ATOM     10  C   UNL     1       9.893  -0.257  11.426  1.00  0.00     0.146 A 
ATOM     11  O   UNL     1       8.837   0.078  10.694  1.00  0.00    -0.452 OA
ENDROOT
BRANCH   1  12
ATOM     12  C   UNL     1       7.009  -0.283   9.165  1.00  0.00     0.025 A 
ATOM     13  C   UNL     1       5.682  -0.508   9.568  1.00  0.00     0.016 A 
ATOM     14  C   UNL     1       4.618  -0.040   8.792  1.00  0.00     0.051 A 
ATOM     15  C   UNL     1       4.864   0.646   7.595  1.00  0.00     0.157 A 
ATOM     16  C   UNL     1       7.249   0.387   7.954  1.00  0.00     0.062 A 
ATOM     17  C   UNL     1       6.187   0.857   7.174  1.00  0.00     0.158 A 
BRANCH  15  18
ATOM     18  O   UNL     1       3.801   1.112   6.823  1.00  0.00    -0.504 OA
ATOM     19  H   UNL     1       2.847   0.820   7.002  1.00  0.00     0.293 HD
ENDBRANCH  15  18
BRANCH  17  20
ATOM     20  O   UNL     1       6.465   1.531   5.985  1.00  0.00    -0.504 OA
ATOM     21  H   UNL     1       6.482   1.058   5.089  1.00  0.00     0.293 HD
ENDBRANCH  17  20
ENDBRANCH   1  12
BRANCH   2  22
ATOM     22  O   UNL     1       7.738  -3.085   9.275  1.00  0.00    -0.502 OA
ATOM     23  H   UNL     1       7.452  -2.944   8.314  1.00  0.00     0.293 HD
ENDBRANCH   2  22
BRANCH   6  24
ATOM     24  O   UNL     1      12.172  -3.132  12.227  1.00  0.00    -0.507 OA
ATOM     25  H   UNL     1      12.055  -3.843  11.522  1.00  0.00     0.293 HD
ENDBRANCH   6  24
BRANCH   8  26
ATOM     26  O   UNL     1      12.227   1.427  13.735  1.00  0.00    -0.508 OA
ATOM     27  H   UNL     1      12.588   1.242  14.664  1.00  0.00     0.293 HD
ENDBRANCH   8  26
TORSDOF 6
ENDMDL
MODEL 9
REMARK VINA RESULT:    -3.888     10.192     12.058
REMARK INTER + INTRA:          -4.821
REMARK INTER:                  -4.500
REMARK INTRA:                  -0.321
REMARK UNBOUND:                -0.137
REMARK SMILES O=c1c(O)c(-c2ccc(O)c(O)c2)oc2cc(O)cc(O)c12
REMARK SMILES IDX 5 1 3 2 2 3 1 4 22 5 20 6 19 7 17 8 16 9 15 10 14 11 6 12
REMARK SMILES IDX 7 13 8 14 9 15 13 16 11 17 10 18 12 20 4 22 21 24 18 26
REMARK H PARENT 10 19 12 21 4 23 21 25 18 27
REMARK Flexibility Score: inf
ROOT
ATOM      1  C   UNL     1       8.295   9.731  15.593  1.00  0.00     0.180 A 
ATOM      2  C   UNL     1       9.059   9.480  16.745  1.00  0.00     0.208 A 
ATOM      3  C   UNL     1      10.273   8.786  16.620  1.00  0.00     0.238 A 
ATOM      4  O   UNL     1      10.978   8.612  17.647  1.00  0.00    -0.285 OA
ATOM      5  C   UNL     1      10.700   8.338  15.347  1.00  0.00     0.111 A 
ATOM      6  C   UNL     1      11.893   7.591  15.108  1.00  0.00     0.134 A 
ATOM      7  C   UNL     1      12.283   7.314  13.793  1.00  0.00     0.093 A 
ATOM      8  C   UNL     1      11.489   7.700  12.710  1.00  0.00     0.123 A 
ATOM      9  C   UNL     1      10.294   8.377  12.935  1.00  0.00     0.094 A 
ATOM     10  C   UNL     1       9.896   8.700  14.235  1.00  0.00     0.146 A 
ATOM     11  O   UNL     1       8.754   9.356  14.404  1.00  0.00    -0.452 OA
ENDROOT
BRANCH   1  12
ATOM     12  C   UNL     1       6.993  10.433  15.648  1.00  0.00     0.025 A 
ATOM     13  C   UNL     1       5.808   9.754  15.980  1.00  0.00     0.016 A 
ATOM     14  C   UNL     1       4.587  10.432  16.003  1.00  0.00     0.051 A 
ATOM     15  C   UNL     1       4.528  11.795  15.680  1.00  0.00     0.157 A 
ATOM     16  C   UNL     1       6.925  11.794  15.304  1.00  0.00     0.062 A 
ATOM     17  C   UNL     1       5.704  12.476  15.326  1.00  0.00     0.158 A 
BRANCH  15  18
ATOM     18  O   UNL     1       3.309  12.469  15.705  1.00  0.00    -0.504 OA
ATOM     19  H   UNL     1       3.045  13.116  14.969  1.00  0.00     0.293 HD
ENDBRANCH  15  18
BRANCH  17  20
ATOM     20  O   UNL     1       5.679  13.831  14.993  1.00  0.00    -0.504 OA
ATOM     21  H   UNL     1       4.978  14.463  15.361  1.00  0.00     0.293 HD
ENDBRANCH  17  20
ENDBRANCH   1  12
BRANCH   2  22
ATOM     22  O   UNL     1       8.629   9.950  17.990  1.00  0.00    -0.502 OA
ATOM     23  H   UNL     1       7.774  10.479  18.105  1.00  0.00     0.293 HD
ENDBRANCH   2  22
BRANCH   6  24
ATOM     24  O   UNL     1      12.709   7.079  16.122  1.00  0.00    -0.507 OA
ATOM     25  H   UNL     1      12.403   6.888  17.064  1.00  0.00     0.293 HD
ENDBRANCH   6  24
BRANCH   8  26
ATOM     26  O   UNL     1      11.878   7.406  11.404  1.00  0.00    -0.508 OA
ATOM     27  H   UNL     1      12.080   6.457  11.112  1.00  0.00     0.293 HD
ENDBRANCH   8  26
TORSDOF 6
ENDMDL
