MODEL 1
REMARK VINA RESULT:    -4.544      0.000      0.000
REMARK INTER + INTRA:         -11.612
REMARK INTER:                  -8.795
REMARK INTRA:                  -2.818
REMARK UNBOUND:                -2.818
REMARK SMILES CCCCCCCCCCCCCCCCCC(=O)[O-]
REMARK SMILES IDX 10 1 11 2 12 3 13 4 14 5 15 6 16 7 17 8 18 9 19 10 20 11
REMARK SMILES IDX 9 12 8 13 7 14 6 15 5 16 4 17 3 18 2 19 1 20
REMARK H PARENT
REMARK Flexibility Score: inf
ROOT
ATOM      1  C   UNL     1       7.445  -9.154 -22.490  1.00  0.00     0.000 C 
ENDROOT
BRANCH   1   2
ATOM      2  C   UNL     1       6.662  -8.170 -21.598  1.00  0.00     0.000 C 
BRANCH   2   3
ATOM      3  C   UNL     1       7.516  -7.075 -20.934  1.00  0.00     0.000 C 
BRANCH   3   4
ATOM      4  C   UNL     1       7.520  -5.759 -21.726  1.00  0.00     0.000 C 
BRANCH   4   5
ATOM      5  C   UNL     1       8.952  -5.297 -22.017  1.00  0.00     0.000 C 
BRANCH   5   6
ATOM      6  C   UNL     1       8.958  -4.043 -22.904  1.00  0.00     0.000 C 
BRANCH   6   7
ATOM      7  C   UNL     1      10.342  -3.734 -23.503  1.00  0.00     0.006 C 
BRANCH   7   8
ATOM      8  C   UNL     1      10.371  -3.737 -25.042  1.00  0.00     0.053 C 
BRANCH   8   9
ATOM      9  C   UNL     1      11.401  -4.673 -25.599  1.00  0.00     0.041 C 
ATOM     10  O   UNL     1      11.769  -5.680 -24.939  1.00  0.00    -0.550 OA
ATOM     11  O   UNL     1      11.932  -4.450 -26.864  1.00  0.00    -0.550 OA
ENDBRANCH   8   9
ENDBRANCH   7   8
ENDBRANCH   6   7
ENDBRANCH   5   6
ENDBRANCH   4   5
ENDBRANCH   3   4
ENDBRANCH   2   3
ENDBRANCH   1   2
BRANCH   1  12
ATOM     12  C   UNL     1       8.966  -9.196 -22.243  1.00  0.00     0.000 C 
BRANCH  12  13
ATOM     13  C   UNL     1       9.831  -8.869 -23.473  1.00  0.00    -0.000 C 
BRANCH  13  14
ATOM     14  C   UNL     1       9.076  -9.062 -24.799  1.00  0.00    -0.000 C 
BRANCH  14  15
ATOM     15  C   UNL     1       9.163  -7.830 -25.713  1.00  0.00    -0.000 C 
BRANCH  15  16
ATOM     16  C   UNL     1       8.232  -6.692 -25.258  1.00  0.00    -0.000 C 
BRANCH  16  17
ATOM     17  C   UNL     1       6.754  -6.988 -25.552  1.00  0.00    -0.000 C 
BRANCH  17  18
ATOM     18  C   UNL     1       5.977  -5.734 -25.990  1.00  0.00    -0.000 C 
BRANCH  18  19
ATOM     19  C   UNL     1       6.749  -4.435 -25.708  1.00  0.00    -0.003 C 
ATOM     20  C   UNL     1       5.832  -3.278 -25.312  1.00  0.00     0.004 C 
ENDBRANCH  18  19
ENDBRANCH  17  18
ENDBRANCH  16  17
ENDBRANCH  15  16
ENDBRANCH  14  15
ENDBRANCH  13  14
ENDBRANCH  12  13
ENDBRANCH   1  12
TORSDOF 16
ENDMDL
MODEL 2
REMARK VINA RESULT:    -4.388      9.020     11.321
REMARK INTER + INTRA:         -11.309
REMARK INTER:                  -8.640
REMARK INTRA:                  -2.669
REMARK UNBOUND:                -2.818
REMARK SMILES CCCCCCCCCCCCCCCCCC(=O)[O-]
REMARK SMILES IDX 10 1 11 2 12 3 13 4 14 5 15 6 16 7 17 8 18 9 19 10 20 11
REMARK SMILES IDX 9 12 8 13 7 14 6 15 5 16 4 17 3 18 2 19 1 20
REMARK H PARENT
REMARK Flexibility Score: inf
ROOT
ATOM      1  C   UNL     1      20.220  -4.407 -17.647  1.00  0.00     0.000 C 
ENDROOT
BRANCH   1   2
ATOM      2  C   UNL     1      19.398  -5.670 -17.974  1.00  0.00     0.000 C 
BRANCH   2   3
ATOM      3  C   UNL     1      18.678  -6.308 -16.772  1.00  0.00     0.000 C 
BRANCH   3   4
ATOM      4  C   UNL     1      17.161  -6.072 -16.792  1.00  0.00     0.000 C 
BRANCH   4   5
ATOM      5  C   UNL     1      16.782  -4.856 -15.940  1.00  0.00     0.000 C 
BRANCH   5   6
ATOM      6  C   UNL     1      16.039  -3.805 -16.777  1.00  0.00     0.000 C 
BRANCH   6   7
ATOM      7  C   UNL     1      15.828  -4.237 -18.240  1.00  0.00     0.006 C 
BRANCH   7   8
ATOM      8  C   UNL     1      15.745  -3.063 -19.232  1.00  0.00     0.053 C 
BRANCH   8   9
ATOM      9  C   UNL     1      14.550  -3.150 -20.132  1.00  0.00     0.041 C 
ATOM     10  O   UNL     1      14.438  -2.375 -21.118  1.00  0.00    -0.550 OA
ATOM     11  O   UNL     1      13.572  -4.111 -19.900  1.00  0.00    -0.550 OA
ENDBRANCH   8   9
ENDBRANCH   7   8
ENDBRANCH   6   7
ENDBRANCH   5   6
ENDBRANCH   4   5
ENDBRANCH   3   4
ENDBRANCH   2   3
ENDBRANCH   1   2
BRANCH   1  12
ATOM     12  C   UNL     1      19.489  -3.070 -17.885  1.00  0.00     0.000 C 
BRANCH  12  13
ATOM     13  C   UNL     1      19.404  -2.634 -19.358  1.00  0.00    -0.000 C 
BRANCH  13  14
ATOM     14  C   UNL     1      20.769  -2.662 -20.067  1.00  0.00    -0.000 C 
BRANCH  14  15
ATOM     15  C   UNL     1      20.706  -3.349 -21.440  1.00  0.00    -0.000 C 
BRANCH  15  16
ATOM     16  C   UNL     1      21.011  -4.856 -21.359  1.00  0.00    -0.000 C 
BRANCH  16  17
ATOM     17  C   UNL     1      19.969  -5.708 -22.099  1.00  0.00    -0.000 C 
BRANCH  17  18
ATOM     18  C   UNL     1      18.528  -5.376 -21.675  1.00  0.00    -0.000 C 
BRANCH  18  19
ATOM     19  C   UNL     1      17.705  -4.761 -22.818  1.00  0.00    -0.003 C 
ATOM     20  C   UNL     1      16.219  -5.109 -22.728  1.00  0.00     0.004 C 
ENDBRANCH  18  19
ENDBRANCH  17  18
ENDBRANCH  16  17
ENDBRANCH  15  16
ENDBRANCH  14  15
ENDBRANCH  13  14
ENDBRANCH  12  13
ENDBRANCH   1  12
TORSDOF 16
ENDMDL
MODEL 3
REMARK VINA RESULT:    -4.387      8.675     11.207
REMARK INTER + INTRA:         -11.307
REMARK INTER:                  -8.346
REMARK INTRA:                  -2.961
REMARK UNBOUND:                -2.818
REMARK SMILES CCCCCCCCCCCCCCCCCC(=O)[O-]
REMARK SMILES IDX 10 1 11 2 12 3 13 4 14 5 15 6 16 7 17 8 18 9 19 10 20 11
REMARK SMILES IDX 9 12 8 13 7 14 6 15 5 16 4 17 3 18 2 19 1 20
REMARK H PARENT
REMARK Flexibility Score: inf
ROOT
ATOM      1  C   UNL     1      18.606  -6.272 -16.736  1.00  0.00     0.000 C 
ENDROOT
BRANCH   1   2
ATOM      2  C   UNL     1      18.977  -6.519 -18.212  1.00  0.00     0.000 C 
BRANCH   2   3
ATOM      3  C   UNL     1      17.799  -6.450 -19.199  1.00  0.00     0.000 C 
BRANCH   3   4
ATOM      4  C   UNL     1      18.154  -5.719 -20.502  1.00  0.00     0.000 C 
BRANCH   4   5
ATOM      5  C   UNL     1      16.999  -4.824 -20.963  1.00  0.00     0.000 C 
BRANCH   5   6
ATOM      6  C   UNL     1      15.695  -5.188 -20.238  1.00  0.00     0.000 C 
BRANCH   6   7
ATOM      7  C   UNL     1      14.646  -4.061 -20.278  1.00  0.00     0.006 C 
BRANCH   7   8
ATOM      8  C   UNL     1      13.400  -4.337 -19.419  1.00  0.00     0.053 C 
BRANCH   8   9
ATOM      9  C   UNL     1      12.159  -4.518 -20.239  1.00  0.00     0.041 C 
ATOM     10  O   UNL     1      12.036  -3.930 -21.345  1.00  0.00    -0.550 OA
ATOM     11  O   UNL     1      11.149  -5.365 -19.796  1.00  0.00    -0.550 OA
ENDBRANCH   8   9
ENDBRANCH   7   8
ENDBRANCH   6   7
ENDBRANCH   5   6
ENDBRANCH   4   5
ENDBRANCH   3   4
ENDBRANCH   2   3
ENDBRANCH   1   2
BRANCH   1  12
ATOM     12  C   UNL     1      17.104  -6.043 -16.467  1.00  0.00     0.000 C 
BRANCH  12  13
ATOM     13  C   UNL     1      16.744  -4.633 -15.969  1.00  0.00    -0.000 C 
BRANCH  13  14
ATOM     14  C   UNL     1      16.199  -3.728 -17.086  1.00  0.00    -0.000 C 
BRANCH  14  15
ATOM     15  C   UNL     1      17.057  -2.471 -17.298  1.00  0.00    -0.000 C 
BRANCH  15  16
ATOM     16  C   UNL     1      18.174  -2.688 -18.335  1.00  0.00    -0.000 C 
BRANCH  16  17
ATOM     17  C   UNL     1      19.545  -2.924 -17.683  1.00  0.00    -0.000 C 
BRANCH  17  18
ATOM     18  C   UNL     1      20.682  -3.006 -18.716  1.00  0.00    -0.000 C 
BRANCH  18  19
ATOM     19  C   UNL     1      20.284  -2.416 -20.078  1.00  0.00    -0.003 C 
ATOM     20  C   UNL     1      20.686  -3.313 -21.249  1.00  0.00     0.004 C 
ENDBRANCH  18  19
ENDBRANCH  17  18
ENDBRANCH  16  17
ENDBRANCH  15  16
ENDBRANCH  14  15
ENDBRANCH  13  14
ENDBRANCH  12  13
ENDBRANCH   1  12
TORSDOF 16
ENDMDL
MODEL 4
REMARK VINA RESULT:    -4.311      8.840     11.756
REMARK INTER + INTRA:         -11.162
REMARK INTER:                  -8.193
REMARK INTRA:                  -2.969
REMARK UNBOUND:                -2.818
REMARK SMILES CCCCCCCCCCCCCCCCCC(=O)[O-]
REMARK SMILES IDX 10 1 11 2 12 3 13 4 14 5 15 6 16 7 17 8 18 9 19 10 20 11
REMARK SMILES IDX 9 12 8 13 7 14 6 15 5 16 4 17 3 18 2 19 1 20
REMARK H PARENT
REMARK Flexibility Score: inf
ROOT
ATOM      1  C   UNL     1      20.189  -2.412 -20.068  1.00  0.00     0.000 C 
ENDROOT
BRANCH   1   2
ATOM      2  C   UNL     1      21.012  -3.526 -20.747  1.00  0.00     0.000 C 
BRANCH   2   3
ATOM      3  C   UNL     1      20.479  -3.985 -22.116  1.00  0.00     0.000 C 
BRANCH   3   4
ATOM      4  C   UNL     1      20.240  -5.500 -22.185  1.00  0.00     0.000 C 
BRANCH   4   5
ATOM      5  C   UNL     1      18.741  -5.819 -22.192  1.00  0.00     0.000 C 
BRANCH   5   6
ATOM      6  C   UNL     1      17.903  -4.541 -22.046  1.00  0.00     0.000 C 
BRANCH   6   7
ATOM      7  C   UNL     1      16.547  -4.782 -21.358  1.00  0.00     0.006 C 
BRANCH   7   8
ATOM      8  C   UNL     1      15.400  -3.920 -21.917  1.00  0.00     0.053 C 
BRANCH   8   9
ATOM      9  C   UNL     1      14.590  -3.265 -20.839  1.00  0.00     0.041 C 
ATOM     10  O   UNL     1      13.698  -3.913 -20.232  1.00  0.00    -0.550 OA
ATOM     11  O   UNL     1      14.844  -1.946 -20.484  1.00  0.00    -0.550 OA
ENDBRANCH   8   9
ENDBRANCH   7   8
ENDBRANCH   6   7
ENDBRANCH   5   6
ENDBRANCH   4   5
ENDBRANCH   3   4
ENDBRANCH   2   3
ENDBRANCH   1   2
BRANCH   1  12
ATOM     12  C   UNL     1      19.404  -2.849 -18.814  1.00  0.00     0.000 C 
BRANCH  12  13
ATOM     13  C   UNL     1      17.901  -2.523 -18.846  1.00  0.00    -0.000 C 
BRANCH  13  14
ATOM     14  C   UNL     1      17.239  -2.625 -17.462  1.00  0.00    -0.000 C 
BRANCH  14  15
ATOM     15  C   UNL     1      15.994  -3.525 -17.468  1.00  0.00    -0.000 C 
BRANCH  15  16
ATOM     16  C   UNL     1      16.348  -5.019 -17.579  1.00  0.00    -0.000 C 
BRANCH  16  17
ATOM     17  C   UNL     1      17.107  -5.538 -16.349  1.00  0.00    -0.000 C 
BRANCH  17  18
ATOM     18  C   UNL     1      18.455  -6.181 -16.716  1.00  0.00    -0.000 C 
BRANCH  18  19
ATOM     19  C   UNL     1      18.625  -6.369 -18.232  1.00  0.00    -0.003 C 
ATOM     20  C   UNL     1      20.085  -6.552 -18.644  1.00  0.00     0.004 C 
ENDBRANCH  18  19
ENDBRANCH  17  18
ENDBRANCH  16  17
ENDBRANCH  15  16
ENDBRANCH  14  15
ENDBRANCH  13  14
ENDBRANCH  12  13
ENDBRANCH   1  12
TORSDOF 16
ENDMDL
MODEL 5
REMARK VINA RESULT:    -4.295      9.158     11.279
REMARK INTER + INTRA:         -11.131
REMARK INTER:                  -8.131
REMARK INTRA:                  -2.999
REMARK UNBOUND:                -2.818
REMARK SMILES CCCCCCCCCCCCCCCCCC(=O)[O-]
REMARK SMILES IDX 10 1 11 2 12 3 13 4 14 5 15 6 16 7 17 8 18 9 19 10 20 11
REMARK SMILES IDX 9 12 8 13 7 14 6 15 5 16 4 17 3 18 2 19 1 20
REMARK H PARENT
REMARK Flexibility Score: inf
ROOT
ATOM      1  C   UNL     1      18.595  -6.220 -16.887  1.00  0.00     0.000 C 
ENDROOT
BRANCH   1   2
ATOM      2  C   UNL     1      17.122  -6.019 -16.479  1.00  0.00     0.000 C 
BRANCH   2   3
ATOM      3  C   UNL     1      16.725  -4.564 -16.169  1.00  0.00     0.000 C 
BRANCH   3   4
ATOM      4  C   UNL     1      15.840  -3.943 -17.259  1.00  0.00     0.000 C 
BRANCH   4   5
ATOM      5  C   UNL     1      16.508  -2.708 -17.873  1.00  0.00     0.000 C 
BRANCH   5   6
ATOM      6  C   UNL     1      17.004  -2.999 -19.297  1.00  0.00     0.000 C 
BRANCH   6   7
ATOM      7  C   UNL     1      16.308  -4.210 -19.943  1.00  0.00     0.006 C 
BRANCH   7   8
ATOM      8  C   UNL     1      15.962  -4.011 -21.430  1.00  0.00     0.053 C 
BRANCH   8   9
ATOM      9  C   UNL     1      14.486  -3.926 -21.675  1.00  0.00     0.041 C 
ATOM     10  O   UNL     1      13.728  -3.403 -20.817  1.00  0.00    -0.550 OA
ATOM     11  O   UNL     1      13.950  -4.398 -22.867  1.00  0.00    -0.550 OA
ENDBRANCH   8   9
ENDBRANCH   7   8
ENDBRANCH   6   7
ENDBRANCH   5   6
ENDBRANCH   4   5
ENDBRANCH   3   4
ENDBRANCH   2   3
ENDBRANCH   1   2
BRANCH   1  12
ATOM     12  C   UNL     1      18.838  -6.394 -18.400  1.00  0.00     0.000 C 
BRANCH  12  13
ATOM     13  C   UNL     1      20.293  -6.707 -18.790  1.00  0.00    -0.000 C 
BRANCH  13  14
ATOM     14  C   UNL     1      20.634  -6.264 -20.223  1.00  0.00    -0.000 C 
BRANCH  14  15
ATOM     15  C   UNL     1      19.403  -5.764 -20.995  1.00  0.00    -0.000 C 
BRANCH  15  16
ATOM     16  C   UNL     1      19.681  -4.462 -21.767  1.00  0.00    -0.000 C 
BRANCH  16  17
ATOM     17  C   UNL     1      20.892  -3.697 -21.215  1.00  0.00    -0.000 C 
BRANCH  17  18
ATOM     18  C   UNL     1      20.502  -2.680 -20.128  1.00  0.00    -0.000 C 
BRANCH  18  19
ATOM     19  C   UNL     1      21.213  -2.943 -18.792  1.00  0.00    -0.003 C 
ATOM     20  C   UNL     1      20.251  -2.963 -17.604  1.00  0.00     0.004 C 
ENDBRANCH  18  19
ENDBRANCH  17  18
ENDBRANCH  16  17
ENDBRANCH  15  16
ENDBRANCH  14  15
ENDBRANCH  13  14
ENDBRANCH  12  13
ENDBRANCH   1  12
TORSDOF 16
ENDMDL
MODEL 6
REMARK VINA RESULT:    -4.294      1.945      4.462
REMARK INTER + INTRA:         -11.128
REMARK INTER:                  -8.257
REMARK INTRA:                  -2.871
REMARK UNBOUND:                -2.818
REMARK SMILES CCCCCCCCCCCCCCCCCC(=O)[O-]
REMARK SMILES IDX 10 1 11 2 12 3 13 4 14 5 15 6 16 7 17 8 18 9 19 10 20 11
REMARK SMILES IDX 9 12 8 13 7 14 6 15 5 16 4 17 3 18 2 19 1 20
REMARK H PARENT
REMARK Flexibility Score: inf
ROOT
ATOM      1  C   UNL     1       6.815  -8.247 -21.759  1.00  0.00     0.000 C 
ENDROOT
BRANCH   1   2
ATOM      2  C   UNL     1       7.700  -9.354 -22.369  1.00  0.00     0.000 C 
BRANCH   2   3
ATOM      3  C   UNL     1       7.706  -9.408 -23.907  1.00  0.00     0.000 C 
BRANCH   3   4
ATOM      4  C   UNL     1       9.030  -8.924 -24.516  1.00  0.00     0.000 C 
BRANCH   4   5
ATOM      5  C   UNL     1       8.822  -7.650 -25.342  1.00  0.00     0.000 C 
BRANCH   5   6
ATOM      6  C   UNL     1       7.327  -7.359 -25.542  1.00  0.00     0.000 C 
BRANCH   6   7
ATOM      7  C   UNL     1       6.893  -6.001 -24.961  1.00  0.00     0.006 C 
BRANCH   7   8
ATOM      8  C   UNL     1       8.020  -4.954 -24.912  1.00  0.00     0.053 C 
BRANCH   8   9
ATOM      9  C   UNL     1       7.559  -3.588 -25.321  1.00  0.00     0.041 C 
ATOM     10  O   UNL     1       8.388  -2.731 -25.724  1.00  0.00    -0.550 OA
ATOM     11  O   UNL     1       6.206  -3.271 -25.288  1.00  0.00    -0.550 OA
ENDBRANCH   8   9
ENDBRANCH   7   8
ENDBRANCH   6   7
ENDBRANCH   5   6
ENDBRANCH   4   5
ENDBRANCH   3   4
ENDBRANCH   2   3
ENDBRANCH   1   2
BRANCH   1  12
ATOM     12  C   UNL     1       7.580  -7.030 -21.201  1.00  0.00     0.000 C 
BRANCH  12  13
ATOM     13  C   UNL     1       9.076  -7.272 -20.936  1.00  0.00    -0.000 C 
BRANCH  13  14
ATOM     14  C   UNL     1       9.985  -6.526 -21.929  1.00  0.00    -0.000 C 
BRANCH  14  15
ATOM     15  C   UNL     1       9.819  -5.001 -21.849  1.00  0.00    -0.000 C 
BRANCH  15  16
ATOM     16  C   UNL     1      11.122  -4.249 -22.177  1.00  0.00    -0.000 C 
BRANCH  16  17
ATOM     17  C   UNL     1      10.958  -3.271 -23.350  1.00  0.00    -0.000 C 
BRANCH  17  18
ATOM     18  C   UNL     1      11.892  -3.601 -24.527  1.00  0.00    -0.000 C 
BRANCH  18  19
ATOM     19  C   UNL     1      11.809  -5.076 -24.950  1.00  0.00    -0.003 C 
ATOM     20  C   UNL     1      11.525  -5.247 -26.442  1.00  0.00     0.004 C 
ENDBRANCH  18  19
ENDBRANCH  17  18
ENDBRANCH  16  17
ENDBRANCH  15  16
ENDBRANCH  14  15
ENDBRANCH  13  14
ENDBRANCH  12  13
ENDBRANCH   1  12
TORSDOF 16
ENDMDL
MODEL 7
REMARK VINA RESULT:    -4.278      9.302     11.505
REMARK INTER + INTRA:         -11.097
REMARK INTER:                  -8.267
REMARK INTRA:                  -2.830
REMARK UNBOUND:                -2.818
REMARK SMILES CCCCCCCCCCCCCCCCCC(=O)[O-]
REMARK SMILES IDX 10 1 11 2 12 3 13 4 14 5 15 6 16 7 17 8 18 9 19 10 20 11
REMARK SMILES IDX 9 12 8 13 7 14 6 15 5 16 4 17 3 18 2 19 1 20
REMARK H PARENT
REMARK Flexibility Score: inf
ROOT
ATOM      1  C   UNL     1      18.616  -6.339 -16.743  1.00  0.00     0.000 C 
ENDROOT
BRANCH   1   2
ATOM      2  C   UNL     1      17.112  -6.071 -16.535  1.00  0.00     0.000 C 
BRANCH   2   3
ATOM      3  C   UNL     1      16.771  -4.678 -15.977  1.00  0.00     0.000 C 
BRANCH   3   4
ATOM      4  C   UNL     1      15.974  -3.818 -16.968  1.00  0.00     0.000 C 
BRANCH   4   5
ATOM      5  C   UNL     1      16.801  -2.618 -17.443  1.00  0.00     0.000 C 
BRANCH   5   6
ATOM      6  C   UNL     1      16.916  -2.598 -18.974  1.00  0.00     0.000 C 
BRANCH   6   7
ATOM      7  C   UNL     1      16.431  -3.901 -19.634  1.00  0.00     0.006 C 
BRANCH   7   8
ATOM      8  C   UNL     1      15.327  -3.695 -20.687  1.00  0.00     0.053 C 
BRANCH   8   9
ATOM      9  C   UNL     1      15.673  -4.299 -22.014  1.00  0.00     0.041 C 
ATOM     10  O   UNL     1      16.419  -3.682 -22.818  1.00  0.00    -0.550 OA
ATOM     11  O   UNL     1      15.195  -5.560 -22.350  1.00  0.00    -0.550 OA
ENDBRANCH   8   9
ENDBRANCH   7   8
ENDBRANCH   6   7
ENDBRANCH   5   6
ENDBRANCH   4   5
ENDBRANCH   3   4
ENDBRANCH   2   3
ENDBRANCH   1   2
BRANCH   1  12
ATOM     12  C   UNL     1      19.212  -5.758 -18.042  1.00  0.00     0.000 C 
BRANCH  12  13
ATOM     13  C   UNL     1      20.741  -5.593 -18.034  1.00  0.00    -0.000 C 
BRANCH  13  14
ATOM     14  C   UNL     1      21.188  -4.213 -17.522  1.00  0.00    -0.000 C 
BRANCH  14  15
ATOM     15  C   UNL     1      20.413  -3.061 -18.178  1.00  0.00    -0.000 C 
BRANCH  15  16
ATOM     16  C   UNL     1      21.035  -2.617 -19.514  1.00  0.00    -0.000 C 
BRANCH  16  17
ATOM     17  C   UNL     1      20.166  -2.996 -20.723  1.00  0.00    -0.000 C 
BRANCH  17  18
ATOM     18  C   UNL     1      20.750  -4.174 -21.522  1.00  0.00    -0.000 C 
BRANCH  18  19
ATOM     19  C   UNL     1      19.695  -4.879 -22.388  1.00  0.00    -0.003 C 
ATOM     20  C   UNL     1      18.964  -5.993 -21.639  1.00  0.00     0.004 C 
ENDBRANCH  18  19
ENDBRANCH  17  18
ENDBRANCH  16  17
ENDBRANCH  15  16
ENDBRANCH  14  15
ENDBRANCH  13  14
ENDBRANCH  12  13
ENDBRANCH   1  12
TORSDOF 16
ENDMDL
MODEL 8
REMARK VINA RESULT:    -4.219      2.397      4.480
REMARK INTER + INTRA:         -10.983
REMARK INTER:                  -8.259
REMARK INTRA:                  -2.724
REMARK UNBOUND:                -2.818
REMARK SMILES CCCCCCCCCCCCCCCCCC(=O)[O-]
REMARK SMILES IDX 10 1 11 2 12 3 13 4 14 5 15 6 16 7 17 8 18 9 19 10 20 11
REMARK SMILES IDX 9 12 8 13 7 14 6 15 5 16 4 17 3 18 2 19 1 20
REMARK H PARENT
REMARK Flexibility Score: inf
ROOT
ATOM      1  C   UNL     1       9.092  -8.173 -20.526  1.00  0.00     0.000 C 
ENDROOT
BRANCH   1   2
ATOM      2  C   UNL     1       7.833  -8.727 -21.223  1.00  0.00     0.000 C 
BRANCH   2   3
ATOM      3  C   UNL     1       6.983  -7.677 -21.962  1.00  0.00     0.000 C 
BRANCH   3   4
ATOM      4  C   UNL     1       7.114  -6.272 -21.358  1.00  0.00     0.000 C 
BRANCH   4   5
ATOM      5  C   UNL     1       7.385  -5.228 -22.447  1.00  0.00     0.000 C 
BRANCH   5   6
ATOM      6  C   UNL     1       8.371  -5.767 -23.494  1.00  0.00     0.000 C 
BRANCH   6   7
ATOM      7  C   UNL     1       7.823  -5.699 -24.931  1.00  0.00     0.006 C 
BRANCH   7   8
ATOM      8  C   UNL     1       6.480  -4.955 -25.053  1.00  0.00     0.053 C 
BRANCH   8   9
ATOM      9  C   UNL     1       6.649  -3.512 -25.421  1.00  0.00     0.041 C 
ATOM     10  O   UNL     1       5.649  -2.750 -25.483  1.00  0.00    -0.550 OA
ATOM     11  O   UNL     1       7.919  -3.000 -25.664  1.00  0.00    -0.550 OA
ENDBRANCH   8   9
ENDBRANCH   7   8
ENDBRANCH   6   7
ENDBRANCH   5   6
ENDBRANCH   4   5
ENDBRANCH   3   4
ENDBRANCH   2   3
ENDBRANCH   1   2
BRANCH   1  12
ATOM     12  C   UNL     1      10.409  -8.364 -21.304  1.00  0.00     0.000 C 
BRANCH  12  13
ATOM     13  C   UNL     1      11.152  -7.061 -21.649  1.00  0.00    -0.000 C 
BRANCH  13  14
ATOM     14  C   UNL     1      11.017  -5.992 -20.551  1.00  0.00    -0.000 C 
BRANCH  14  15
ATOM     15  C   UNL     1      10.909  -4.570 -21.124  1.00  0.00    -0.000 C 
BRANCH  15  16
ATOM     16  C   UNL     1      12.274  -4.004 -21.555  1.00  0.00    -0.000 C 
BRANCH  16  17
ATOM     17  C   UNL     1      12.159  -3.018 -22.727  1.00  0.00    -0.000 C 
BRANCH  17  18
ATOM     18  C   UNL     1      10.983  -3.350 -23.662  1.00  0.00    -0.000 C 
BRANCH  18  19
ATOM     19  C   UNL     1      11.444  -3.711 -25.083  1.00  0.00    -0.003 C 
ATOM     20  C   UNL     1      11.622  -5.217 -25.280  1.00  0.00     0.004 C 
ENDBRANCH  18  19
ENDBRANCH  17  18
ENDBRANCH  16  17
ENDBRANCH  15  16
ENDBRANCH  14  15
ENDBRANCH  13  14
ENDBRANCH  12  13
ENDBRANCH   1  12
TORSDOF 16
ENDMDL
MODEL 9
REMARK VINA RESULT:    -4.176      9.694     12.431
REMARK INTER + INTRA:         -10.900
REMARK INTER:                  -8.155
REMARK INTRA:                  -2.745
REMARK UNBOUND:                -2.818
REMARK SMILES CCCCCCCCCCCCCCCCCC(=O)[O-]
REMARK SMILES IDX 10 1 11 2 12 3 13 4 14 5 15 6 16 7 17 8 18 9 19 10 20 11
REMARK SMILES IDX 9 12 8 13 7 14 6 15 5 16 4 17 3 18 2 19 1 20
REMARK H PARENT
REMARK Flexibility Score: inf
ROOT
ATOM      1  C   UNL     1      19.004  -2.564 -19.330  1.00  0.00     0.000 C 
ENDROOT
BRANCH   1   2
ATOM      2  C   UNL     1      20.495  -2.886 -19.558  1.00  0.00     0.000 C 
BRANCH   2   3
ATOM      3  C   UNL     1      20.844  -3.377 -20.974  1.00  0.00     0.000 C 
BRANCH   3   4
ATOM      4  C   UNL     1      21.343  -4.829 -20.996  1.00  0.00     0.000 C 
BRANCH   4   5
ATOM      5  C   UNL     1      20.327  -5.748 -21.682  1.00  0.00     0.000 C 
BRANCH   5   6
ATOM      6  C   UNL     1      19.235  -4.934 -22.391  1.00  0.00     0.000 C 
BRANCH   6   7
ATOM      7  C   UNL     1      17.814  -5.280 -21.909  1.00  0.00     0.006 C 
BRANCH   7   8
ATOM      8  C   UNL     1      16.857  -4.075 -21.872  1.00  0.00     0.053 C 
BRANCH   8   9
ATOM      9  C   UNL     1      15.466  -4.454 -21.461  1.00  0.00     0.041 C 
ATOM     10  O   UNL     1      15.277  -5.190 -20.458  1.00  0.00    -0.550 OA
ATOM     11  O   UNL     1      14.374  -3.967 -22.170  1.00  0.00    -0.550 OA
ENDBRANCH   8   9
ENDBRANCH   7   8
ENDBRANCH   6   7
ENDBRANCH   5   6
ENDBRANCH   4   5
ENDBRANCH   3   4
ENDBRANCH   2   3
ENDBRANCH   1   2
BRANCH   1  12
ATOM     12  C   UNL     1      18.471  -2.892 -17.920  1.00  0.00     0.000 C 
BRANCH  12  13
ATOM     13  C   UNL     1      17.092  -3.574 -17.894  1.00  0.00    -0.000 C 
BRANCH  13  14
ATOM     14  C   UNL     1      16.828  -4.333 -16.582  1.00  0.00    -0.000 C 
BRANCH  14  15
ATOM     15  C   UNL     1      17.569  -5.678 -16.520  1.00  0.00    -0.000 C 
BRANCH  15  16
ATOM     16  C   UNL     1      17.736  -6.323 -17.907  1.00  0.00    -0.000 C 
BRANCH  16  17
ATOM     17  C   UNL     1      19.210  -6.479 -18.310  1.00  0.00    -0.000 C 
BRANCH  17  18
ATOM     18  C   UNL     1      20.155  -6.496 -17.095  1.00  0.00    -0.000 C 
BRANCH  18  19
ATOM     19  C   UNL     1      21.334  -5.523 -17.252  1.00  0.00    -0.003 C 
ATOM     20  C   UNL     1      22.668  -6.140 -16.833  1.00  0.00     0.004 C 
ENDBRANCH  18  19
ENDBRANCH  17  18
ENDBRANCH  16  17
ENDBRANCH  15  16
ENDBRANCH  14  15
ENDBRANCH  13  14
ENDBRANCH  12  13
ENDBRANCH   1  12
TORSDOF 16
ENDMDL
