MODEL 1
REMARK VINA RESULT:    -4.527      0.000      0.000
REMARK INTER + INTRA:          -5.614
REMARK INTER:                  -5.453
REMARK INTRA:                  -0.161
REMARK UNBOUND:                -0.161
REMARK SMILES [NH3+][C@@H](Cc1cnc[nH]1)C(=O)[O-]
REMARK SMILES IDX 3 1 2 2 1 3 9 7 10 8 11 9 4 10 5 11 8 12 6 13 7 14
REMARK H PARENT 1 4 1 5 1 6 8 15
REMARK Flexibility Score: inf
ROOT
ATOM      1  C   UNL     1     -21.220 -20.405 121.670  1.00  0.00     0.127 C 
ENDROOT
BRANCH   1   2
ATOM      2  C   UNL     1     -22.384 -21.089 122.414  1.00  0.00     0.233 C 
BRANCH   2   3
ATOM      3  N   UNL     1     -23.383 -20.096 122.829  1.00  0.00    -0.350 N 
ATOM      4  H   UNL     1     -23.873 -19.714 121.988  1.00  0.00     0.345 HD
ATOM      5  H   UNL     1     -22.928 -19.309 123.347  1.00  0.00     0.345 HD
ATOM      6  H   UNL     1     -24.097 -20.547 123.446  1.00  0.00     0.345 HD
ENDBRANCH   2   3
BRANCH   2   7
ATOM      7  C   UNL     1     -21.885 -21.859 123.608  1.00  0.00     0.099 C 
ATOM      8  O   UNL     1     -21.921 -23.118 123.618  1.00  0.00    -0.544 OA
ATOM      9  O   UNL     1     -21.398 -21.180 124.718  1.00  0.00    -0.544 OA
ENDBRANCH   2   7
ENDBRANCH   1   2
BRANCH   1  10
ATOM     10  C   UNL     1     -20.767 -21.214 120.489  1.00  0.00     0.041 A 
ATOM     11  C   UNL     1     -21.573 -21.783 119.530  1.00  0.00     0.134 A 
ATOM     12  N   UNL     1     -19.496 -21.570 120.251  1.00  0.00    -0.348 N 
ATOM     13  N   UNL     1     -20.807 -22.491 118.675  1.00  0.00    -0.245 NA
ATOM     14  C   UNL     1     -19.550 -22.337 119.146  1.00  0.00     0.196 A 
ATOM     15  H   UNL     1     -18.648 -21.321 120.807  1.00  0.00     0.167 HD
ENDBRANCH   1  10
TORSDOF 4
ENDMDL
MODEL 2
REMARK VINA RESULT:    -4.501      6.449      7.591
REMARK INTER + INTRA:          -5.583
REMARK INTER:                  -5.422
REMARK INTRA:                  -0.161
REMARK UNBOUND:                -0.161
REMARK SMILES [NH3+][C@@H](Cc1cnc[nH]1)C(=O)[O-]
REMARK SMILES IDX 3 1 2 2 1 3 9 7 10 8 11 9 4 10 5 11 8 12 6 13 7 14
REMARK H PARENT 1 4 1 5 1 6 8 15
REMARK Flexibility Score: inf
ROOT
ATOM      1  C   UNL     1     -17.511 -27.387 121.631  1.00  0.00     0.127 C 
ENDROOT
BRANCH   1   2
ATOM      2  C   UNL     1     -16.333 -28.053 122.371  1.00  0.00     0.233 C 
BRANCH   2   3
ATOM      3  N   UNL     1     -16.693 -29.412 122.793  1.00  0.00    -0.350 N 
ATOM      4  H   UNL     1     -17.431 -29.796 122.159  1.00  0.00     0.345 HD
ATOM      5  H   UNL     1     -17.054 -29.410 123.775  1.00  0.00     0.345 HD
ATOM      6  H   UNL     1     -15.855 -30.036 122.735  1.00  0.00     0.345 HD
ENDBRANCH   2   3
BRANCH   2   7
ATOM      7  C   UNL     1     -15.906 -27.232 123.559  1.00  0.00     0.099 C 
ATOM      8  O   UNL     1     -14.771 -26.686 123.585  1.00  0.00    -0.544 OA
ATOM      9  O   UNL     1     -16.760 -27.088 124.646  1.00  0.00    -0.544 OA
ENDBRANCH   2   7
ENDBRANCH   1   2
BRANCH   1  10
ATOM     10  C   UNL     1     -17.043 -26.596 120.445  1.00  0.00     0.041 A 
ATOM     11  C   UNL     1     -16.110 -26.993 119.514  1.00  0.00     0.134 A 
ATOM     12  N   UNL     1     -17.415 -25.337 120.172  1.00  0.00    -0.348 N 
ATOM     13  N   UNL     1     -15.901 -25.985 118.642  1.00  0.00    -0.245 NA
ATOM     14  C   UNL     1     -16.714 -24.996 119.074  1.00  0.00     0.196 A 
ATOM     15  H   UNL     1     -18.092 -24.743 120.700  1.00  0.00     0.167 HD
ENDBRANCH   1  10
TORSDOF 4
ENDMDL
MODEL 3
REMARK VINA RESULT:    -4.428      6.349      7.467
REMARK INTER + INTRA:          -5.495
REMARK INTER:                  -5.349
REMARK INTRA:                  -0.146
REMARK UNBOUND:                -0.161
REMARK SMILES [NH3+][C@@H](Cc1cnc[nH]1)C(=O)[O-]
REMARK SMILES IDX 3 1 2 2 1 3 9 7 10 8 11 9 4 10 5 11 8 12 6 13 7 14
REMARK H PARENT 1 4 1 5 1 6 8 15
REMARK Flexibility Score: inf
ROOT
ATOM      1  C   UNL     1     -13.407 -20.735 121.645  1.00  0.00     0.127 C 
ENDROOT
BRANCH   1   2
ATOM      2  C   UNL     1     -13.395 -19.412 122.436  1.00  0.00     0.233 C 
BRANCH   2   3
ATOM      3  N   UNL     1     -12.023 -19.041 122.798  1.00  0.00    -0.350 N 
ATOM      4  H   UNL     1     -11.892 -19.132 123.832  1.00  0.00     0.345 HD
ATOM      5  H   UNL     1     -11.818 -18.055 122.513  1.00  0.00     0.345 HD
ATOM      6  H   UNL     1     -11.344 -19.684 122.326  1.00  0.00     0.345 HD
ENDBRANCH   2   3
BRANCH   2   7
ATOM      7  C   UNL     1     -14.253 -19.512 123.670  1.00  0.00     0.099 C 
ATOM      8  O   UNL     1     -15.374 -18.939 123.719  1.00  0.00    -0.544 OA
ATOM      9  O   UNL     1     -13.801 -20.226 124.773  1.00  0.00    -0.544 OA
ENDBRANCH   2   7
ENDBRANCH   1   2
BRANCH   1  10
ATOM     10  C   UNL     1     -14.372 -20.684 120.496  1.00  0.00     0.041 A 
ATOM     11  C   UNL     1     -15.744 -20.731 120.578  1.00  0.00     0.134 A 
ATOM     12  N   UNL     1     -14.018 -20.671 119.202  1.00  0.00    -0.348 N 
ATOM     13  N   UNL     1     -16.261 -20.734 119.332  1.00  0.00    -0.245 NA
ATOM     14  C   UNL     1     -15.180 -20.696 118.523  1.00  0.00     0.196 A 
ATOM     15  H   UNL     1     -13.053 -20.658 118.804  1.00  0.00     0.167 HD
ENDBRANCH   1  10
TORSDOF 4
ENDMDL
MODEL 4
REMARK VINA RESULT:    -4.400      6.661      7.718
REMARK INTER + INTRA:          -5.462
REMARK INTER:                  -5.253
REMARK INTRA:                  -0.209
REMARK UNBOUND:                -0.161
REMARK SMILES [NH3+][C@@H](Cc1cnc[nH]1)C(=O)[O-]
REMARK SMILES IDX 3 1 2 2 1 3 9 7 10 8 11 9 4 10 5 11 8 12 6 13 7 14
REMARK H PARENT 1 4 1 5 1 6 8 15
REMARK Flexibility Score: inf
ROOT
ATOM      1  C   UNL     1     -14.531 -19.125 123.326  1.00  0.00     0.127 C 
ENDROOT
BRANCH   1   2
ATOM      2  C   UNL     1     -13.274 -19.923 122.924  1.00  0.00     0.233 C 
BRANCH   2   3
ATOM      3  N   UNL     1     -12.100 -19.045 122.881  1.00  0.00    -0.350 N 
ATOM      4  H   UNL     1     -11.226 -19.618 122.941  1.00  0.00     0.345 HD
ATOM      5  H   UNL     1     -12.117 -18.364 123.676  1.00  0.00     0.345 HD
ATOM      6  H   UNL     1     -12.083 -18.518 121.977  1.00  0.00     0.345 HD
ENDBRANCH   2   3
BRANCH   2   7
ATOM      7  C   UNL     1     -13.468 -20.604 121.594  1.00  0.00     0.099 C 
ATOM      8  O   UNL     1     -13.169 -21.819 121.448  1.00  0.00    -0.544 OA
ATOM      9  O   UNL     1     -13.962 -19.885 120.512  1.00  0.00    -0.544 OA
ENDBRANCH   2   7
ENDBRANCH   1   2
BRANCH   1  10
ATOM     10  C   UNL     1     -15.765 -19.979 123.285  1.00  0.00     0.041 A 
ATOM     11  C   UNL     1     -16.131 -20.932 124.207  1.00  0.00     0.134 A 
ATOM     12  N   UNL     1     -16.653 -19.988 122.280  1.00  0.00    -0.348 N 
ATOM     13  N   UNL     1     -17.262 -21.537 123.790  1.00  0.00    -0.245 NA
ATOM     14  C   UNL     1     -17.549 -20.935 122.616  1.00  0.00     0.196 A 
ATOM     15  H   UNL     1     -16.648 -19.400 121.418  1.00  0.00     0.167 HD
ENDBRANCH   1  10
TORSDOF 4
ENDMDL
MODEL 5
REMARK VINA RESULT:    -4.383      6.887      7.301
REMARK INTER + INTRA:          -5.441
REMARK INTER:                  -5.290
REMARK INTRA:                  -0.151
REMARK UNBOUND:                -0.161
REMARK SMILES [NH3+][C@@H](Cc1cnc[nH]1)C(=O)[O-]
REMARK SMILES IDX 3 1 2 2 1 3 9 7 10 8 11 9 4 10 5 11 8 12 6 13 7 14
REMARK H PARENT 1 4 1 5 1 6 8 15
REMARK Flexibility Score: inf
ROOT
ATOM      1  C   UNL     1     -16.230 -25.955 119.906  1.00  0.00     0.127 C 
ENDROOT
BRANCH   1   2
ATOM      2  C   UNL     1     -16.943 -27.100 120.653  1.00  0.00     0.233 C 
BRANCH   2   3
ATOM      3  N   UNL     1     -18.301 -26.697 121.036  1.00  0.00    -0.350 N 
ATOM      4  H   UNL     1     -18.935 -27.529 121.020  1.00  0.00     0.345 HD
ATOM      5  H   UNL     1     -18.671 -25.973 120.377  1.00  0.00     0.345 HD
ATOM      6  H   UNL     1     -18.296 -26.308 122.007  1.00  0.00     0.345 HD
ENDBRANCH   2   3
BRANCH   2   7
ATOM      7  C   UNL     1     -16.161 -27.522 121.869  1.00  0.00     0.099 C 
ATOM      8  O   UNL     1     -15.299 -26.754 122.374  1.00  0.00    -0.544 OA
ATOM      9  O   UNL     1     -16.373 -28.776 122.430  1.00  0.00    -0.544 OA
ENDBRANCH   2   7
ENDBRANCH   1   2
BRANCH   1  10
ATOM     10  C   UNL     1     -16.648 -25.890 118.466  1.00  0.00     0.041 A 
ATOM     11  C   UNL     1     -16.862 -24.749 117.728  1.00  0.00     0.134 A 
ATOM     12  N   UNL     1     -16.959 -26.955 117.712  1.00  0.00    -0.348 N 
ATOM     13  N   UNL     1     -17.296 -25.094 116.498  1.00  0.00    -0.245 NA
ATOM     14  C   UNL     1     -17.341 -26.444 116.527  1.00  0.00     0.196 A 
ATOM     15  H   UNL     1     -16.925 -27.962 117.985  1.00  0.00     0.167 HD
ENDBRANCH   1  10
TORSDOF 4
ENDMDL
MODEL 6
REMARK VINA RESULT:    -4.382      1.845      2.645
REMARK INTER + INTRA:          -5.440
REMARK INTER:                  -5.282
REMARK INTRA:                  -0.157
REMARK UNBOUND:                -0.161
REMARK SMILES [NH3+][C@@H](Cc1cnc[nH]1)C(=O)[O-]
REMARK SMILES IDX 3 1 2 2 1 3 9 7 10 8 11 9 4 10 5 11 8 12 6 13 7 14
REMARK H PARENT 1 4 1 5 1 6 8 15
REMARK Flexibility Score: inf
ROOT
ATOM      1  C   UNL     1     -20.739 -22.304 119.877  1.00  0.00     0.127 C 
ENDROOT
BRANCH   1   2
ATOM      2  C   UNL     1     -21.335 -21.100 120.633  1.00  0.00     0.233 C 
BRANCH   2   3
ATOM      3  N   UNL     1     -20.292 -20.110 120.927  1.00  0.00    -0.350 N 
ATOM      4  H   UNL     1     -20.712 -19.289 121.421  1.00  0.00     0.345 HD
ATOM      5  H   UNL     1     -19.835 -19.781 120.045  1.00  0.00     0.345 HD
ATOM      6  H   UNL     1     -19.568 -20.532 121.553  1.00  0.00     0.345 HD
ENDBRANCH   2   3
BRANCH   2   7
ATOM      7  C   UNL     1     -22.012 -21.541 121.904  1.00  0.00     0.099 C 
ATOM      8  O   UNL     1     -21.748 -22.662 122.414  1.00  0.00    -0.544 OA
ATOM      9  O   UNL     1     -22.949 -20.716 122.514  1.00  0.00    -0.544 OA
ENDBRANCH   2   7
ENDBRANCH   1   2
BRANCH   1  10
ATOM     10  C   UNL     1     -20.425 -21.961 118.449  1.00  0.00     0.041 A 
ATOM     11  C   UNL     1     -19.252 -22.229 117.783  1.00  0.00     0.134 A 
ATOM     12  N   UNL     1     -21.230 -21.258 117.639  1.00  0.00    -0.348 N 
ATOM     13  N   UNL     1     -19.320 -21.705 116.542  1.00  0.00    -0.245 NA
ATOM     14  C   UNL     1     -20.538 -21.123 116.492  1.00  0.00     0.196 A 
ATOM     15  H   UNL     1     -22.181 -20.883 117.852  1.00  0.00     0.167 HD
ENDBRANCH   1  10
TORSDOF 4
ENDMDL
MODEL 7
REMARK VINA RESULT:    -4.380      6.650      7.889
REMARK INTER + INTRA:          -5.437
REMARK INTER:                  -5.229
REMARK INTRA:                  -0.208
REMARK UNBOUND:                -0.161
REMARK SMILES [NH3+][C@@H](Cc1cnc[nH]1)C(=O)[O-]
REMARK SMILES IDX 3 1 2 2 1 3 9 7 10 8 11 9 4 10 5 11 8 12 6 13 7 14
REMARK H PARENT 1 4 1 5 1 6 8 15
REMARK Flexibility Score: inf
ROOT
ATOM      1  C   UNL     1     -15.440 -27.200 123.247  1.00  0.00     0.127 C 
ENDROOT
BRANCH   1   2
ATOM      2  C   UNL     1     -16.776 -27.882 122.890  1.00  0.00     0.233 C 
BRANCH   2   3
ATOM      3  N   UNL     1     -16.603 -29.336 122.801  1.00  0.00    -0.350 N 
ATOM      4  H   UNL     1     -15.674 -29.608 123.198  1.00  0.00     0.345 HD
ATOM      5  H   UNL     1     -16.655 -29.655 121.806  1.00  0.00     0.345 HD
ATOM      6  H   UNL     1     -17.349 -29.818 123.356  1.00  0.00     0.345 HD
ENDBRANCH   2   3
BRANCH   2   7
ATOM      7  C   UNL     1     -17.332 -27.341 121.599  1.00  0.00     0.099 C 
ATOM      8  O   UNL     1     -18.536 -26.980 121.523  1.00  0.00    -0.544 OA
ATOM      9  O   UNL     1     -16.519 -27.255 120.475  1.00  0.00    -0.544 OA
ENDBRANCH   2   7
ENDBRANCH   1   2
BRANCH   1  10
ATOM     10  C   UNL     1     -15.563 -25.704 123.240  1.00  0.00     0.041 A 
ATOM     11  C   UNL     1     -16.159 -24.928 124.208  1.00  0.00     0.134 A 
ATOM     12  N   UNL     1     -15.176 -24.911 122.230  1.00  0.00    -0.348 N 
ATOM     13  N   UNL     1     -16.137 -23.639 123.814  1.00  0.00    -0.245 NA
ATOM     14  C   UNL     1     -15.530 -23.668 122.607  1.00  0.00     0.196 A 
ATOM     15  H   UNL     1     -14.713 -25.193 121.338  1.00  0.00     0.167 HD
ENDBRANCH   1  10
TORSDOF 4
ENDMDL
MODEL 8
REMARK VINA RESULT:    -4.361      6.786      7.533
REMARK INTER + INTRA:          -5.415
REMARK INTER:                  -5.270
REMARK INTRA:                  -0.145
REMARK UNBOUND:                -0.161
REMARK SMILES [NH3+][C@@H](Cc1cnc[nH]1)C(=O)[O-]
REMARK SMILES IDX 3 1 2 2 1 3 9 7 10 8 11 9 4 10 5 11 8 12 6 13 7 14
REMARK H PARENT 1 4 1 5 1 6 8 15
REMARK Flexibility Score: inf
ROOT
ATOM      1  C   UNL     1     -15.136 -20.375 120.310  1.00  0.00     0.127 C 
ENDROOT
BRANCH   1   2
ATOM      2  C   UNL     1     -13.723 -20.314 120.924  1.00  0.00     0.233 C 
BRANCH   2   3
ATOM      3  N   UNL     1     -13.267 -21.657 121.299  1.00  0.00    -0.350 N 
ATOM      4  H   UNL     1     -12.249 -21.758 121.082  1.00  0.00     0.345 HD
ATOM      5  H   UNL     1     -13.802 -22.389 120.777  1.00  0.00     0.345 HD
ATOM      6  H   UNL     1     -13.398 -21.803 122.327  1.00  0.00     0.345 HD
ENDBRANCH   2   3
BRANCH   2   7
ATOM      7  C   UNL     1     -13.692 -19.398 122.119  1.00  0.00     0.099 C 
ATOM      8  O   UNL     1     -14.764 -18.956 122.615  1.00  0.00    -0.544 OA
ATOM      9  O   UNL     1     -12.475 -19.018 122.672  1.00  0.00    -0.544 OA
ENDBRANCH   2   7
ENDBRANCH   1   2
BRANCH   1  10
ATOM     10  C   UNL     1     -15.092 -20.752 118.858  1.00  0.00     0.041 A 
ATOM     11  C   UNL     1     -16.056 -21.446 118.163  1.00  0.00     0.134 A 
ATOM     12  N   UNL     1     -14.049 -20.532 118.044  1.00  0.00    -0.348 N 
ATOM     13  N   UNL     1     -15.626 -21.654 116.902  1.00  0.00    -0.245 NA
ATOM     14  C   UNL     1     -14.403 -21.083 116.867  1.00  0.00     0.196 A 
ATOM     15  H   UNL     1     -13.151 -20.051 118.272  1.00  0.00     0.167 HD
ENDBRANCH   1  10
TORSDOF 4
ENDMDL
MODEL 9
REMARK VINA RESULT:    -4.287      2.826      4.675
REMARK INTER + INTRA:          -5.325
REMARK INTER:                  -5.000
REMARK INTRA:                  -0.325
REMARK UNBOUND:                -0.161
REMARK SMILES [NH3+][C@@H](Cc1cnc[nH]1)C(=O)[O-]
REMARK SMILES IDX 3 1 2 2 1 3 9 7 10 8 11 9 4 10 5 11 8 12 6 13 7 14
REMARK H PARENT 1 4 1 5 1 6 8 15
REMARK Flexibility Score: inf
ROOT
ATOM      1  C   UNL     1     -19.825 -21.565 121.253  1.00  0.00     0.127 C 
ENDROOT
BRANCH   1   2
ATOM      2  C   UNL     1     -20.118 -22.840 120.436  1.00  0.00     0.233 C 
BRANCH   2   3
ATOM      3  N   UNL     1     -18.994 -23.778 120.528  1.00  0.00    -0.350 N 
ATOM      4  H   UNL     1     -19.257 -24.587 121.137  1.00  0.00     0.345 HD
ATOM      5  H   UNL     1     -18.150 -23.308 120.930  1.00  0.00     0.345 HD
ATOM      6  H   UNL     1     -18.761 -24.148 119.577  1.00  0.00     0.345 HD
ENDBRANCH   2   3
BRANCH   2   7
ATOM      7  C   UNL     1     -20.404 -22.505 118.996  1.00  0.00     0.099 C 
ATOM      8  O   UNL     1     -19.544 -22.733 118.103  1.00  0.00    -0.544 OA
ATOM      9  O   UNL     1     -21.616 -21.923 118.646  1.00  0.00    -0.544 OA
ENDBRANCH   2   7
ENDBRANCH   1   2
BRANCH   1  10
ATOM     10  C   UNL     1     -20.991 -21.181 122.116  1.00  0.00     0.041 A 
ATOM     11  C   UNL     1     -20.965 -20.955 123.473  1.00  0.00     0.134 A 
ATOM     12  N   UNL     1     -22.259 -21.087 121.689  1.00  0.00    -0.348 N 
ATOM     13  N   UNL     1     -22.218 -20.704 123.902  1.00  0.00    -0.245 NA
ATOM     14  C   UNL     1     -22.977 -20.792 122.788  1.00  0.00     0.196 A 
ATOM     15  H   UNL     1     -22.617 -21.225 120.718  1.00  0.00     0.167 HD
ENDBRANCH   1  10
TORSDOF 4
ENDMDL
