MODEL 1
REMARK VINA RESULT:    -2.956      0.000      0.000
REMARK INTER + INTRA:          -3.838
REMARK INTER:                  -3.647
REMARK INTRA:                  -0.191
REMARK UNBOUND:                -0.191
REMARK SMILES CCCCCC(=O)[O-]
REMARK SMILES IDX 4 1 5 2 6 3 7 4 8 5 3 6 2 7 1 8
REMARK H PARENT
REMARK Flexibility Score: inf
ROOT
ATOM      1  C   UNL     1      10.195  14.351  -0.006  1.00  0.00     0.006 C 
ENDROOT
BRANCH   1   2
ATOM      2  C   UNL     1       9.643  14.729   1.375  1.00  0.00     0.053 C 
BRANCH   2   3
ATOM      3  C   UNL     1       9.905  16.173   1.664  1.00  0.00     0.041 C 
ATOM      4  O   UNL     1      11.065  16.645   1.536  1.00  0.00    -0.550 OA
ATOM      5  O   UNL     1       8.877  16.987   2.123  1.00  0.00    -0.550 OA
ENDBRANCH   2   3
ENDBRANCH   1   2
BRANCH   1   6
ATOM      6  C   UNL     1      11.509  13.559   0.079  1.00  0.00     0.000 C 
BRANCH   6   7
ATOM      7  C   UNL     1      11.700  12.875   1.441  1.00  0.00    -0.003 C 
ATOM      8  C   UNL     1      13.040  13.256   2.065  1.00  0.00     0.004 C 
ENDBRANCH   6   7
ENDBRANCH   1   6
TORSDOF 4
ENDMDL
MODEL 2
REMARK VINA RESULT:    -2.659      0.826      2.201
REMARK INTER + INTRA:          -3.471
REMARK INTER:                  -3.555
REMARK INTRA:                   0.084
REMARK UNBOUND:                -0.191
REMARK SMILES CCCCCC(=O)[O-]
REMARK SMILES IDX 4 1 5 2 6 3 7 4 8 5 3 6 2 7 1 8
REMARK H PARENT
REMARK Flexibility Score: inf
ROOT
ATOM      1  C   UNL     1      11.600  14.172   2.109  1.00  0.00     0.006 C 
ENDROOT
BRANCH   1   2
ATOM      2  C   UNL     1      10.169  14.726   2.125  1.00  0.00     0.053 C 
BRANCH   2   3
ATOM      3  C   UNL     1      10.179  16.204   1.896  1.00  0.00     0.041 C 
ATOM      4  O   UNL     1       9.145  16.887   2.120  1.00  0.00    -0.550 OA
ATOM      5  O   UNL     1      11.316  16.822   1.389  1.00  0.00    -0.550 OA
ENDBRANCH   2   3
ENDBRANCH   1   2
BRANCH   1   6
ATOM      6  C   UNL     1      11.763  12.982   1.152  1.00  0.00     0.000 C 
BRANCH   6   7
ATOM      7  C   UNL     1      11.819  13.411  -0.322  1.00  0.00    -0.003 C 
ATOM      8  C   UNL     1      10.416  13.609  -0.890  1.00  0.00     0.004 C 
ENDBRANCH   6   7
ENDBRANCH   1   6
TORSDOF 4
ENDMDL
MODEL 3
REMARK VINA RESULT:    -2.443      2.348      3.753
REMARK INTER + INTRA:          -3.205
REMARK INTER:                  -3.091
REMARK INTRA:                  -0.115
REMARK UNBOUND:                -0.191
REMARK SMILES CCCCCC(=O)[O-]
REMARK SMILES IDX 4 1 5 2 6 3 7 4 8 5 3 6 2 7 1 8
REMARK H PARENT
REMARK Flexibility Score: inf
ROOT
ATOM      1  C   UNL     1      10.016  14.629   0.128  1.00  0.00     0.006 C 
ENDROOT
BRANCH   1   2
ATOM      2  C   UNL     1      10.535  13.198  -0.059  1.00  0.00     0.053 C 
BRANCH   2   3
ATOM      3  C   UNL     1      11.909  13.062   0.517  1.00  0.00     0.041 C 
ATOM      4  O   UNL     1      12.089  13.160   1.759  1.00  0.00    -0.550 OA
ATOM      5  O   UNL     1      13.000  12.875  -0.323  1.00  0.00    -0.550 OA
ENDBRANCH   2   3
ENDBRANCH   1   2
BRANCH   1   6
ATOM      6  C   UNL     1       9.318  14.833   1.481  1.00  0.00     0.000 C 
BRANCH   6   7
ATOM      7  C   UNL     1       9.661  16.185   2.125  1.00  0.00    -0.003 C 
ATOM      8  C   UNL     1      11.081  16.619   1.772  1.00  0.00     0.004 C 
ENDBRANCH   6   7
ENDBRANCH   1   6
TORSDOF 4
ENDMDL
MODEL 4
REMARK VINA RESULT:    -2.220      1.826      2.500
REMARK INTER + INTRA:          -2.929
REMARK INTER:                  -3.120
REMARK INTRA:                   0.190
REMARK UNBOUND:                -0.191
REMARK SMILES CCCCCC(=O)[O-]
REMARK SMILES IDX 4 1 5 2 6 3 7 4 8 5 3 6 2 7 1 8
REMARK H PARENT
REMARK Flexibility Score: inf
ROOT
ATOM      1  C   UNL     1       9.770  14.729   1.683  1.00  0.00     0.006 C 
ENDROOT
BRANCH   1   2
ATOM      2  C   UNL     1       9.307  16.125   2.120  1.00  0.00     0.053 C 
BRANCH   2   3
ATOM      3  C   UNL     1       7.813  16.208   2.106  1.00  0.00     0.041 C 
ATOM      4  O   UNL     1       7.240  17.328   2.122  1.00  0.00    -0.550 OA
ATOM      5  O   UNL     1       7.053  15.045   2.125  1.00  0.00    -0.550 OA
ENDBRANCH   2   3
ENDBRANCH   1   2
BRANCH   1   6
ATOM      6  C   UNL     1       9.303  14.368   0.265  1.00  0.00     0.000 C 
BRANCH   6   7
ATOM      7  C   UNL     1      10.402  13.686  -0.564  1.00  0.00    -0.003 C 
ATOM      8  C   UNL     1      11.661  13.463   0.269  1.00  0.00     0.004 C 
ENDBRANCH   6   7
ENDBRANCH   1   6
TORSDOF 4
ENDMDL
MODEL 5
REMARK VINA RESULT:    -2.120      2.372      4.022
REMARK INTER + INTRA:          -2.806
REMARK INTER:                  -2.692
REMARK INTRA:                  -0.114
REMARK UNBOUND:                -0.191
REMARK SMILES CCCCCC(=O)[O-]
REMARK SMILES IDX 4 1 5 2 6 3 7 4 8 5 3 6 2 7 1 8
REMARK H PARENT
REMARK Flexibility Score: inf
ROOT
ATOM      1  C   UNL     1      10.097  14.593   1.677  1.00  0.00     0.006 C 
ENDROOT
BRANCH   1   2
ATOM      2  C   UNL     1      11.436  13.950   1.295  1.00  0.00     0.053 C 
BRANCH   2   3
ATOM      3  C   UNL     1      11.450  13.597  -0.159  1.00  0.00     0.041 C 
ATOM      4  O   UNL     1      12.528  13.271  -0.722  1.00  0.00    -0.550 OA
ATOM      5  O   UNL     1      10.280  13.675  -0.904  1.00  0.00    -0.550 OA
ENDBRANCH   2   3
ENDBRANCH   1   2
BRANCH   1   6
ATOM      6  C   UNL     1      10.178  16.125   1.756  1.00  0.00     0.000 C 
BRANCH   6   7
ATOM      7  C   UNL     1       8.833  16.770   2.124  1.00  0.00    -0.003 C 
ATOM      8  C   UNL     1       7.709  15.738   2.123  1.00  0.00     0.004 C 
ENDBRANCH   6   7
ENDBRANCH   1   6
TORSDOF 4
ENDMDL
MODEL 6
REMARK VINA RESULT:    -1.480      1.883      2.583
REMARK INTER + INTRA:          -2.017
REMARK INTER:                  -1.933
REMARK INTRA:                  -0.085
REMARK UNBOUND:                -0.191
REMARK SMILES CCCCCC(=O)[O-]
REMARK SMILES IDX 4 1 5 2 6 3 7 4 8 5 3 6 2 7 1 8
REMARK H PARENT
REMARK Flexibility Score: inf
ROOT
ATOM      1  C   UNL     1       9.334  14.638   2.031  1.00  0.00     0.006 C 
ENDROOT
BRANCH   1   2
ATOM      2  C   UNL     1       9.832  16.088   2.083  1.00  0.00     0.053 C 
BRANCH   2   3
ATOM      3  C   UNL     1      11.327  16.128   2.061  1.00  0.00     0.041 C 
ATOM      4  O   UNL     1      11.991  15.060   2.122  1.00  0.00    -0.550 OA
ATOM      5  O   UNL     1      11.989  17.349   2.024  1.00  0.00    -0.550 OA
ENDBRANCH   2   3
ENDBRANCH   1   2
BRANCH   1   6
ATOM      6  C   UNL     1       8.611  14.308   0.716  1.00  0.00     0.000 C 
BRANCH   6   7
ATOM      7  C   UNL     1       9.565  14.257  -0.487  1.00  0.00    -0.003 C 
ATOM      8  C   UNL     1      10.706  13.274  -0.243  1.00  0.00     0.004 C 
ENDBRANCH   6   7
ENDBRANCH   1   6
TORSDOF 4
ENDMDL
MODEL 7
REMARK VINA RESULT:    -0.335     15.537     16.393
REMARK INTER + INTRA:          -0.605
REMARK INTER:                  -0.519
REMARK INTRA:                  -0.085
REMARK UNBOUND:                -0.191
REMARK SMILES CCCCCC(=O)[O-]
REMARK SMILES IDX 4 1 5 2 6 3 7 4 8 5 3 6 2 7 1 8
REMARK H PARENT
REMARK Flexibility Score: inf
ROOT
ATOM      1  C   UNL     1      18.646  17.417 -11.774  1.00  0.00     0.006 C 
ENDROOT
BRANCH   1   2
ATOM      2  C   UNL     1      17.986  17.034 -13.105  1.00  0.00     0.053 C 
BRANCH   2   3
ATOM      3  C   UNL     1      17.599  15.589 -13.099  1.00  0.00     0.041 C 
ATOM      4  O   UNL     1      18.452  14.704 -13.370  1.00  0.00    -0.550 OA
ATOM      5  O   UNL     1      16.284  15.223 -12.842  1.00  0.00    -0.550 OA
ENDBRANCH   2   3
ENDBRANCH   1   2
BRANCH   1   6
ATOM      6  C   UNL     1      18.388  18.881 -11.385  1.00  0.00     0.000 C 
BRANCH   6   7
ATOM      7  C   UNL     1      18.634  19.854 -12.547  1.00  0.00    -0.003 C 
ATOM      8  C   UNL     1      19.755  20.835 -12.215  1.00  0.00     0.004 C 
ENDBRANCH   6   7
ENDBRANCH   1   6
TORSDOF 4
ENDMDL
MODEL 8
REMARK VINA RESULT:    -0.244      1.917      2.422
REMARK INTER + INTRA:          -0.492
REMARK INTER:                  -1.196
REMARK INTRA:                   0.705
REMARK UNBOUND:                -0.191
REMARK SMILES CCCCCC(=O)[O-]
REMARK SMILES IDX 4 1 5 2 6 3 7 4 8 5 3 6 2 7 1 8
REMARK H PARENT
REMARK Flexibility Score: inf
ROOT
ATOM      1  C   UNL     1      11.078  15.659   1.374  1.00  0.00     0.006 C 
ENDROOT
BRANCH   1   2
ATOM      2  C   UNL     1       9.621  15.981   1.020  1.00  0.00     0.053 C 
BRANCH   2   3
ATOM      3  C   UNL     1       8.878  14.728   0.676  1.00  0.00     0.041 C 
ATOM      4  O   UNL     1       7.882  14.375   1.359  1.00  0.00    -0.550 OA
ATOM      5  O   UNL     1       9.317  13.924  -0.368  1.00  0.00    -0.550 OA
ENDBRANCH   2   3
ENDBRANCH   1   2
BRANCH   1   6
ATOM      6  C   UNL     1      11.224  14.327   2.125  1.00  0.00     0.000 C 
BRANCH   6   7
ATOM      7  C   UNL     1      11.670  13.178   1.209  1.00  0.00    -0.003 C 
ATOM      8  C   UNL     1      13.158  12.886   1.376  1.00  0.00     0.004 C 
ENDBRANCH   6   7
ENDBRANCH   1   6
TORSDOF 4
ENDMDL
MODEL 9
REMARK VINA RESULT:    -0.210     15.734     16.233
REMARK INTER + INTRA:          -0.450
REMARK INTER:                  -0.419
REMARK INTRA:                  -0.030
REMARK UNBOUND:                -0.191
REMARK SMILES CCCCCC(=O)[O-]
REMARK SMILES IDX 4 1 5 2 6 3 7 4 8 5 3 6 2 7 1 8
REMARK H PARENT
REMARK Flexibility Score: inf
ROOT
ATOM      1  C   UNL     1      18.741  17.689 -11.704  1.00  0.00     0.006 C 
ENDROOT
BRANCH   1   2
ATOM      2  C   UNL     1      18.356  19.106 -11.262  1.00  0.00     0.053 C 
BRANCH   2   3
ATOM      3  C   UNL     1      18.781  20.108 -12.288  1.00  0.00     0.041 C 
ATOM      4  O   UNL     1      17.960  20.523 -13.147  1.00  0.00    -0.550 OA
ATOM      5  O   UNL     1      20.099  20.546 -12.326  1.00  0.00    -0.550 OA
ENDBRANCH   2   3
ENDBRANCH   1   2
BRANCH   1   6
ATOM      6  C   UNL     1      17.920  17.202 -12.908  1.00  0.00     0.000 C 
BRANCH   6   7
ATOM      7  C   UNL     1      17.886  15.670 -13.019  1.00  0.00    -0.003 C 
ATOM      8  C   UNL     1      16.457  15.143 -12.917  1.00  0.00     0.004 C 
ENDBRANCH   6   7
ENDBRANCH   1   6
TORSDOF 4
ENDMDL
