MODEL 1
REMARK VINA RESULT:    -4.531      0.000      0.000
REMARK INTER + INTRA:          -9.226
REMARK INTER:                  -7.842
REMARK INTRA:                  -1.384
REMARK UNBOUND:                -1.384
REMARK SMILES CCCCCCCCCCCCCCO
REMARK SMILES IDX 8 1 7 2 6 3 5 4 4 5 3 6 2 7 1 8 9 9 10 10 11 11 12 12 13 13
REMARK SMILES IDX 14 14 15 15
REMARK H PARENT 15 16
REMARK Flexibility Score: inf
ROOT
ATOM      1  C   UNL     1       7.905  12.305   8.121  1.00  0.00     0.000 C 
ENDROOT
BRANCH   1   2
ATOM      2  C   UNL     1       9.313  12.260   7.507  1.00  0.00    -0.000 C 
BRANCH   2   3
ATOM      3  C   UNL     1       9.340  11.563   6.136  1.00  0.00    -0.000 C 
BRANCH   3   4
ATOM      4  C   UNL     1       9.390  12.559   4.967  1.00  0.00    -0.000 C 
BRANCH   4   5
ATOM      5  C   UNL     1       8.284  12.313   3.928  1.00  0.00    -0.000 C 
BRANCH   5   6
ATOM      6  C   UNL     1       6.897  12.364   4.581  1.00  0.00    -0.000 C 
BRANCH   6   7
ATOM      7  C   UNL     1       6.147  11.043   4.382  1.00  0.00    -0.003 C 
ATOM      8  C   UNL     1       4.822  11.042   5.140  1.00  0.00     0.004 C 
ENDBRANCH   6   7
ENDBRANCH   5   6
ENDBRANCH   4   5
ENDBRANCH   3   4
ENDBRANCH   2   3
ENDBRANCH   1   2
BRANCH   1   9
ATOM      9  C   UNL     1       7.172  10.958   8.026  1.00  0.00     0.000 C 
BRANCH   9  10
ATOM     10  C   UNL     1       5.789  11.038   8.691  1.00  0.00     0.000 C 
BRANCH  10  11
ATOM     11  C   UNL     1       5.078   9.676   8.748  1.00  0.00     0.000 C 
BRANCH  11  12
ATOM     12  C   UNL     1       3.550   9.800   8.642  1.00  0.00     0.002 C 
BRANCH  12  13
ATOM     13  C   UNL     1       3.097  11.241   8.912  1.00  0.00     0.028 C 
BRANCH  13  14
ATOM     14  C   UNL     1       1.859  11.288   9.808  1.00  0.00     0.156 C 
BRANCH  14  15
ATOM     15  O   UNL     1       1.870  10.211  10.703  1.00  0.00    -0.396 OA
ATOM     16  H   UNL     1       1.198   9.564  10.364  1.00  0.00     0.210 HD
ENDBRANCH  14  15
ENDBRANCH  13  14
ENDBRANCH  12  13
ENDBRANCH  11  12
ENDBRANCH  10  11
ENDBRANCH   9  10
ENDBRANCH   1   9
TORSDOF 13
ENDMDL
MODEL 2
REMARK VINA RESULT:    -4.364      0.970      1.534
REMARK INTER + INTRA:          -8.936
REMARK INTER:                  -7.720
REMARK INTRA:                  -1.216
REMARK UNBOUND:                -1.384
REMARK SMILES CCCCCCCCCCCCCCO
REMARK SMILES IDX 8 1 7 2 6 3 5 4 4 5 3 6 2 7 1 8 9 9 10 10 11 11 12 12 13 13
REMARK SMILES IDX 14 14 15 15
REMARK H PARENT 15 16
REMARK Flexibility Score: inf
ROOT
ATOM      1  C   UNL     1       7.195  10.931   8.032  1.00  0.00     0.000 C 
ENDROOT
BRANCH   1   2
ATOM      2  C   UNL     1       7.934  12.272   8.159  1.00  0.00    -0.000 C 
BRANCH   2   3
ATOM      3  C   UNL     1       9.303  12.263   7.458  1.00  0.00    -0.000 C 
BRANCH   3   4
ATOM      4  C   UNL     1       9.265  11.552   6.097  1.00  0.00    -0.000 C 
BRANCH   4   5
ATOM      5  C   UNL     1       9.227  12.532   4.914  1.00  0.00    -0.000 C 
BRANCH   5   6
ATOM      6  C   UNL     1       8.166  12.114   3.889  1.00  0.00    -0.000 C 
BRANCH   6   7
ATOM      7  C   UNL     1       7.221  11.060   4.475  1.00  0.00    -0.003 C 
ATOM      8  C   UNL     1       5.772  11.541   4.446  1.00  0.00     0.004 C 
ENDBRANCH   6   7
ENDBRANCH   5   6
ENDBRANCH   4   5
ENDBRANCH   3   4
ENDBRANCH   2   3
ENDBRANCH   1   2
BRANCH   1   9
ATOM      9  C   UNL     1       5.669  11.080   8.138  1.00  0.00     0.000 C 
BRANCH   9  10
ATOM     10  C   UNL     1       4.960   9.787   7.708  1.00  0.00     0.000 C 
BRANCH  10  11
ATOM     11  C   UNL     1       3.789   9.416   8.632  1.00  0.00     0.000 C 
BRANCH  11  12
ATOM     12  C   UNL     1       3.681  10.342   9.853  1.00  0.00     0.002 C 
BRANCH  12  13
ATOM     13  C   UNL     1       2.242  10.384  10.385  1.00  0.00     0.028 C 
BRANCH  13  14
ATOM     14  C   UNL     1       1.474  11.592   9.847  1.00  0.00     0.156 C 
BRANCH  14  15
ATOM     15  O   UNL     1       0.718  11.224   8.726  1.00  0.00    -0.396 OA
ATOM     16  H   UNL     1      -0.218  11.481   8.929  1.00  0.00     0.210 HD
ENDBRANCH  14  15
ENDBRANCH  13  14
ENDBRANCH  12  13
ENDBRANCH  11  12
ENDBRANCH  10  11
ENDBRANCH   9  10
ENDBRANCH   1   9
TORSDOF 13
ENDMDL
MODEL 3
REMARK VINA RESULT:    -4.342      1.242      3.047
REMARK INTER + INTRA:          -8.898
REMARK INTER:                  -7.565
REMARK INTRA:                  -1.333
REMARK UNBOUND:                -1.384
REMARK SMILES CCCCCCCCCCCCCCO
REMARK SMILES IDX 8 1 7 2 6 3 5 4 4 5 3 6 2 7 1 8 9 9 10 10 11 11 12 12 13 13
REMARK SMILES IDX 14 14 15 15
REMARK H PARENT 15 16
REMARK Flexibility Score: inf
ROOT
ATOM      1  C   UNL     1       6.112  10.725   4.946  1.00  0.00     0.000 C 
ENDROOT
BRANCH   1   2
ATOM      2  C   UNL     1       5.764  12.187   4.624  1.00  0.00    -0.000 C 
BRANCH   2   3
ATOM      3  C   UNL     1       6.978  13.125   4.745  1.00  0.00    -0.000 C 
BRANCH   3   4
ATOM      4  C   UNL     1       8.227  12.569   4.044  1.00  0.00    -0.000 C 
BRANCH   4   5
ATOM      5  C   UNL     1       9.504  12.737   4.882  1.00  0.00    -0.000 C 
BRANCH   5   6
ATOM      6  C   UNL     1       9.550  11.714   6.023  1.00  0.00    -0.000 C 
BRANCH   6   7
ATOM      7  C   UNL     1       9.991  12.373   7.335  1.00  0.00    -0.003 C 
ATOM      8  C   UNL     1       8.787  12.795   8.172  1.00  0.00     0.004 C 
ENDBRANCH   6   7
ENDBRANCH   5   6
ENDBRANCH   4   5
ENDBRANCH   3   4
ENDBRANCH   2   3
ENDBRANCH   1   2
BRANCH   1   9
ATOM      9  C   UNL     1       6.052  10.418   6.451  1.00  0.00     0.000 C 
BRANCH   9  10
ATOM     10  C   UNL     1       4.879  11.155   7.115  1.00  0.00     0.000 C 
BRANCH  10  11
ATOM     11  C   UNL     1       5.259  11.777   8.469  1.00  0.00     0.000 C 
BRANCH  11  12
ATOM     12  C   UNL     1       4.033  12.214   9.285  1.00  0.00     0.002 C 
BRANCH  12  13
ATOM     13  C   UNL     1       3.051  11.049   9.466  1.00  0.00     0.028 C 
BRANCH  13  14
ATOM     14  C   UNL     1       1.627  11.542   9.724  1.00  0.00     0.156 C 
BRANCH  14  15
ATOM     15  O   UNL     1       0.784  11.156   8.674  1.00  0.00    -0.396 OA
ATOM     16  H   UNL     1       0.331  11.982   8.365  1.00  0.00     0.210 HD
ENDBRANCH  14  15
ENDBRANCH  13  14
ENDBRANCH  12  13
ENDBRANCH  11  12
ENDBRANCH  10  11
ENDBRANCH   9  10
ENDBRANCH   1   9
TORSDOF 13
ENDMDL
MODEL 4
REMARK VINA RESULT:    -4.279      1.749      5.115
REMARK INTER + INTRA:          -8.790
REMARK INTER:                  -7.677
REMARK INTRA:                  -1.113
REMARK UNBOUND:                -1.384
REMARK SMILES CCCCCCCCCCCCCCO
REMARK SMILES IDX 8 1 7 2 6 3 5 4 4 5 3 6 2 7 1 8 9 9 10 10 11 11 12 12 13 13
REMARK SMILES IDX 14 14 15 15
REMARK H PARENT 15 16
REMARK Flexibility Score: inf
ROOT
ATOM      1  C   UNL     1       7.812  11.439   7.789  1.00  0.00     0.000 C 
ENDROOT
BRANCH   1   2
ATOM      2  C   UNL     1       7.801  12.792   8.517  1.00  0.00    -0.000 C 
BRANCH   2   3
ATOM      3  C   UNL     1       6.513  13.019   9.328  1.00  0.00    -0.000 C 
BRANCH   3   4
ATOM      4  C   UNL     1       5.533  11.840   9.221  1.00  0.00    -0.000 C 
BRANCH   4   5
ATOM      5  C   UNL     1       4.064  12.278   9.326  1.00  0.00    -0.000 C 
BRANCH   5   6
ATOM      6  C   UNL     1       3.120  11.099   9.057  1.00  0.00    -0.000 C 
BRANCH   6   7
ATOM      7  C   UNL     1       1.880  11.172   9.956  1.00  0.00    -0.003 C 
ATOM      8  C   UNL     1       1.151  12.502   9.782  1.00  0.00     0.004 C 
ENDBRANCH   6   7
ENDBRANCH   5   6
ENDBRANCH   4   5
ENDBRANCH   3   4
ENDBRANCH   2   3
ENDBRANCH   1   2
BRANCH   1   9
ATOM      9  C   UNL     1       8.943  11.330   6.753  1.00  0.00     0.000 C 
BRANCH   9  10
ATOM     10  C   UNL     1       8.374  11.233   5.329  1.00  0.00     0.000 C 
BRANCH  10  11
ATOM     11  C   UNL     1       7.833  12.577   4.815  1.00  0.00     0.000 C 
BRANCH  11  12
ATOM     12  C   UNL     1       6.301  12.665   4.885  1.00  0.00     0.002 C 
BRANCH  12  13
ATOM     13  C   UNL     1       5.658  11.310   4.561  1.00  0.00     0.028 C 
BRANCH  13  14
ATOM     14  C   UNL     1       4.654  10.887   5.635  1.00  0.00     0.156 C 
BRANCH  14  15
ATOM     15  O   UNL     1       5.167   9.818   6.381  1.00  0.00    -0.396 OA
ATOM     16  H   UNL     1       4.400   9.440   6.884  1.00  0.00     0.210 HD
ENDBRANCH  14  15
ENDBRANCH  13  14
ENDBRANCH  12  13
ENDBRANCH  11  12
ENDBRANCH  10  11
ENDBRANCH   9  10
ENDBRANCH   1   9
TORSDOF 13
ENDMDL
MODEL 5
REMARK VINA RESULT:    -4.254      1.165      2.966
REMARK INTER + INTRA:          -8.747
REMARK INTER:                  -7.561
REMARK INTRA:                  -1.186
REMARK UNBOUND:                -1.384
REMARK SMILES CCCCCCCCCCCCCCO
REMARK SMILES IDX 8 1 7 2 6 3 5 4 4 5 3 6 2 7 1 8 9 9 10 10 11 11 12 12 13 13
REMARK SMILES IDX 14 14 15 15
REMARK H PARENT 15 16
REMARK Flexibility Score: inf
ROOT
ATOM      1  C   UNL     1       6.644  11.243   4.486  1.00  0.00     0.000 C 
ENDROOT
BRANCH   1   2
ATOM      2  C   UNL     1       7.290  12.634   4.381  1.00  0.00    -0.000 C 
BRANCH   2   3
ATOM      3  C   UNL     1       8.704  12.587   3.776  1.00  0.00    -0.000 C 
BRANCH   3   4
ATOM      4  C   UNL     1       9.789  13.011   4.778  1.00  0.00    -0.000 C 
BRANCH   4   5
ATOM      5  C   UNL     1       9.995  11.984   5.902  1.00  0.00    -0.000 C 
BRANCH   5   6
ATOM      6  C   UNL     1       9.826  12.638   7.279  1.00  0.00    -0.000 C 
BRANCH   6   7
ATOM      7  C   UNL     1       8.449  12.319   7.873  1.00  0.00    -0.003 C 
ATOM      8  C   UNL     1       8.109  10.840   7.712  1.00  0.00     0.004 C 
ENDBRANCH   6   7
ENDBRANCH   5   6
ENDBRANCH   4   5
ENDBRANCH   3   4
ENDBRANCH   2   3
ENDBRANCH   1   2
BRANCH   1   9
ATOM      9  C   UNL     1       5.252  11.282   5.136  1.00  0.00     0.000 C 
BRANCH   9  10
ATOM     10  C   UNL     1       5.125  10.205   6.224  1.00  0.00     0.000 C 
BRANCH  10  11
ATOM     11  C   UNL     1       4.018  10.518   7.243  1.00  0.00     0.000 C 
BRANCH  11  12
ATOM     12  C   UNL     1       4.477  11.495   8.336  1.00  0.00     0.002 C 
BRANCH  12  13
ATOM     13  C   UNL     1       3.341  11.783   9.327  1.00  0.00     0.028 C 
BRANCH  13  14
ATOM     14  C   UNL     1       3.035  10.570  10.207  1.00  0.00     0.156 C 
BRANCH  14  15
ATOM     15  O   UNL     1       4.139  10.272  11.017  1.00  0.00    -0.396 OA
ATOM     16  H   UNL     1       4.080   9.302  11.216  1.00  0.00     0.210 HD
ENDBRANCH  14  15
ENDBRANCH  13  14
ENDBRANCH  12  13
ENDBRANCH  11  12
ENDBRANCH  10  11
ENDBRANCH   9  10
ENDBRANCH   1   9
TORSDOF 13
ENDMDL
MODEL 6
REMARK VINA RESULT:    -4.147     16.216     18.915
REMARK INTER + INTRA:          -8.561
REMARK INTER:                  -7.359
REMARK INTRA:                  -1.202
REMARK UNBOUND:                -1.384
REMARK SMILES CCCCCCCCCCCCCCO
REMARK SMILES IDX 8 1 7 2 6 3 5 4 4 5 3 6 2 7 1 8 9 9 10 10 11 11 12 12 13 13
REMARK SMILES IDX 14 14 15 15
REMARK H PARENT 15 16
REMARK Flexibility Score: inf
ROOT
ATOM      1  C   UNL     1      -5.620  10.487  -8.894  1.00  0.00     0.000 C 
ENDROOT
BRANCH   1   2
ATOM      2  C   UNL     1      -6.266   9.349  -8.087  1.00  0.00    -0.000 C 
BRANCH   2   3
ATOM      3  C   UNL     1      -6.493   9.723  -6.612  1.00  0.00    -0.000 C 
BRANCH   3   4
ATOM      4  C   UNL     1      -7.432  10.928  -6.446  1.00  0.00    -0.000 C 
BRANCH   4   5
ATOM      5  C   UNL     1      -8.851  10.521  -6.018  1.00  0.00    -0.000 C 
BRANCH   5   6
ATOM      6  C   UNL     1      -8.840   9.165  -5.301  1.00  0.00    -0.000 C 
BRANCH   6   7
ATOM      7  C   UNL     1      -9.995   8.279  -5.782  1.00  0.00    -0.003 C 
ATOM      8  C   UNL     1      -9.475   7.061  -6.541  1.00  0.00     0.004 C 
ENDBRANCH   6   7
ENDBRANCH   5   6
ENDBRANCH   4   5
ENDBRANCH   3   4
ENDBRANCH   2   3
ENDBRANCH   1   2
BRANCH   1   9
ATOM      9  C   UNL     1      -4.087  10.500  -8.780  1.00  0.00     0.000 C 
BRANCH   9  10
ATOM     10  C   UNL     1      -3.562  11.936  -8.628  1.00  0.00     0.000 C 
BRANCH  10  11
ATOM     11  C   UNL     1      -3.399  12.356  -7.158  1.00  0.00     0.000 C 
BRANCH  11  12
ATOM     12  C   UNL     1      -3.043  11.176  -6.241  1.00  0.00     0.002 C 
BRANCH  12  13
ATOM     13  C   UNL     1      -1.557  11.207  -5.859  1.00  0.00     0.028 C 
BRANCH  13  14
ATOM     14  C   UNL     1      -1.307  10.548  -4.502  1.00  0.00     0.156 C 
BRANCH  14  15
ATOM     15  O   UNL     1      -2.523  10.185  -3.909  1.00  0.00    -0.396 OA
ATOM     16  H   UNL     1      -2.891   9.450  -4.463  1.00  0.00     0.210 HD
ENDBRANCH  14  15
ENDBRANCH  13  14
ENDBRANCH  12  13
ENDBRANCH  11  12
ENDBRANCH  10  11
ENDBRANCH   9  10
ENDBRANCH   1   9
TORSDOF 13
ENDMDL
MODEL 7
REMARK VINA RESULT:    -3.983      2.667      6.278
REMARK INTER + INTRA:          -8.277
REMARK INTER:                  -7.081
REMARK INTRA:                  -1.196
REMARK UNBOUND:                -1.384
REMARK SMILES CCCCCCCCCCCCCCO
REMARK SMILES IDX 8 1 7 2 6 3 5 4 4 5 3 6 2 7 1 8 9 9 10 10 11 11 12 12 13 13
REMARK SMILES IDX 14 14 15 15
REMARK H PARENT 15 16
REMARK Flexibility Score: inf
ROOT
ATOM      1  C   UNL     1       5.906  11.964   6.896  1.00  0.00     0.000 C 
ENDROOT
BRANCH   1   2
ATOM      2  C   UNL     1       5.489  10.493   6.740  1.00  0.00    -0.000 C 
BRANCH   2   3
ATOM      3  C   UNL     1       3.981  10.279   6.951  1.00  0.00    -0.000 C 
BRANCH   3   4
ATOM      4  C   UNL     1       3.674   9.393   8.169  1.00  0.00    -0.000 C 
BRANCH   4   5
ATOM      5  C   UNL     1       4.006  10.081   9.503  1.00  0.00    -0.000 C 
BRANCH   5   6
ATOM      6  C   UNL     1       3.301  11.439   9.610  1.00  0.00    -0.000 C 
BRANCH   6   7
ATOM      7  C   UNL     1       1.816  11.262   9.948  1.00  0.00    -0.003 C 
ATOM      8  C   UNL     1       1.037  12.551   9.698  1.00  0.00     0.004 C 
ENDBRANCH   6   7
ENDBRANCH   5   6
ENDBRANCH   4   5
ENDBRANCH   3   4
ENDBRANCH   2   3
ENDBRANCH   1   2
BRANCH   1   9
ATOM      9  C   UNL     1       6.731  12.216   8.168  1.00  0.00     0.000 C 
BRANCH   9  10
ATOM     10  C   UNL     1       8.172  12.614   7.817  1.00  0.00     0.000 C 
BRANCH  10  11
ATOM     11  C   UNL     1       8.977  11.454   7.210  1.00  0.00     0.000 C 
BRANCH  11  12
ATOM     12  C   UNL     1       9.785  11.875   5.973  1.00  0.00     0.002 C 
BRANCH  12  13
ATOM     13  C   UNL     1       9.145  13.090   5.288  1.00  0.00     0.028 C 
BRANCH  13  14
ATOM     14  C   UNL     1       8.678  12.760   3.870  1.00  0.00     0.156 C 
BRANCH  14  15
ATOM     15  O   UNL     1       7.812  11.659   3.890  1.00  0.00    -0.396 OA
ATOM     16  H   UNL     1       7.252  11.764   4.702  1.00  0.00     0.210 HD
ENDBRANCH  14  15
ENDBRANCH  13  14
ENDBRANCH  12  13
ENDBRANCH  11  12
ENDBRANCH  10  11
ENDBRANCH   9  10
ENDBRANCH   1   9
TORSDOF 13
ENDMDL
