MODEL 1
REMARK VINA RESULT:    -5.860      0.000      0.000
REMARK INTER + INTRA:          -9.924
REMARK INTER:                  -8.943
REMARK INTRA:                  -0.981
REMARK UNBOUND:                -0.981
REMARK SMILES CC(=O)CCC=C(C)CCC=C(C)CCC=C(C)C
REMARK SMILES IDX 10 1 11 2 12 3 13 4 14 5 15 6 16 7 18 8 17 9 19 10 9 11 7 12
REMARK SMILES IDX 6 13 8 14 5 15 4 16 2 17 3 18 1 19
REMARK H PARENT
REMARK Flexibility Score: inf
ROOT
ATOM      1  C   UNL     1      13.110  14.738  14.051  1.00  0.00     0.032 C 
ENDROOT
BRANCH   1   2
ATOM      2  C   UNL     1      13.828  15.015  12.751  1.00  0.00    -0.028 C 
ATOM      3  C   UNL     1      13.235  15.230  11.555  1.00  0.00    -0.077 C 
ATOM      4  C   UNL     1      14.111  15.583  10.380  1.00  0.00     0.039 C 
BRANCH   3   5
ATOM      5  C   UNL     1      11.737  15.118  11.340  1.00  0.00     0.034 C 
BRANCH   5   6
ATOM      6  C   UNL     1      11.029  16.470  11.525  1.00  0.00     0.032 C 
BRANCH   6   7
ATOM      7  C   UNL     1      10.268  16.527  12.829  1.00  0.00    -0.028 C 
ATOM      8  C   UNL     1       8.811  18.426  12.092  1.00  0.00     0.039 C 
ATOM      9  C   UNL     1       9.251  17.377  13.085  1.00  0.00    -0.080 C 
ATOM     10  C   UNL     1       8.552  17.277  14.418  1.00  0.00     0.039 C 
ENDBRANCH   6   7
ENDBRANCH   5   6
ENDBRANCH   3   5
ENDBRANCH   1   2
BRANCH   1  11
ATOM     11  C   UNL     1      13.679  13.502  14.759  1.00  0.00     0.034 C 
BRANCH  11  12
ATOM     12  C   UNL     1      14.717  13.870  15.804  1.00  0.00    -0.077 C 
ATOM     13  C   UNL     1      15.812  13.122  16.071  1.00  0.00    -0.028 C 
ATOM     14  C   UNL     1      14.534  15.156  16.569  1.00  0.00     0.039 C 
BRANCH  13  15
ATOM     15  C   UNL     1      16.136  11.775  15.466  1.00  0.00     0.035 C 
BRANCH  15  16
ATOM     16  C   UNL     1      17.214  11.902  14.383  1.00  0.00     0.079 C 
BRANCH  16  17
ATOM     17  C   UNL     1      17.948  10.603  14.176  1.00  0.00     0.130 C 
ATOM     18  O   UNL     1      17.977   9.779  15.078  1.00  0.00    -0.300 OA
ATOM     19  C   UNL     1      18.648  10.302  12.885  1.00  0.00     0.087 C 
ENDBRANCH  16  17
ENDBRANCH  15  16
ENDBRANCH  13  15
ENDBRANCH  11  12
ENDBRANCH   1  11
TORSDOF 9
ENDMDL
MODEL 2
REMARK VINA RESULT:    -5.722      1.199      2.015
REMARK INTER + INTRA:          -9.714
REMARK INTER:                  -8.453
REMARK INTRA:                  -1.261
REMARK UNBOUND:                -0.981
REMARK SMILES CC(=O)CCC=C(C)CCC=C(C)CCC=C(C)C
REMARK SMILES IDX 10 1 11 2 12 3 13 4 14 5 15 6 16 7 18 8 17 9 19 10 9 11 7 12
REMARK SMILES IDX 6 13 8 14 5 15 4 16 2 17 3 18 1 19
REMARK H PARENT
REMARK Flexibility Score: inf
ROOT
ATOM      1  C   UNL     1      14.948  15.010  15.837  1.00  0.00     0.032 C 
ENDROOT
BRANCH   1   2
ATOM      2  C   UNL     1      14.846  15.030  14.330  1.00  0.00    -0.028 C 
ATOM      3  C   UNL     1      13.712  15.231  13.622  1.00  0.00    -0.077 C 
ATOM      4  C   UNL     1      13.816  15.310  12.120  1.00  0.00     0.039 C 
BRANCH   3   5
ATOM      5  C   UNL     1      12.344  15.364  14.266  1.00  0.00     0.034 C 
BRANCH   5   6
ATOM      6  C   UNL     1      11.210  15.219  13.238  1.00  0.00     0.032 C 
BRANCH   6   7
ATOM      7  C   UNL     1      10.315  16.436  13.222  1.00  0.00    -0.028 C 
ATOM      8  C   UNL     1      10.656  16.864  10.778  1.00  0.00     0.039 C 
ATOM      9  C   UNL     1      10.033  17.164  12.120  1.00  0.00    -0.080 C 
ATOM     10  C   UNL     1       9.076  18.322  12.252  1.00  0.00     0.039 C 
ENDBRANCH   6   7
ENDBRANCH   5   6
ENDBRANCH   3   5
ENDBRANCH   1   2
BRANCH   1  11
ATOM     11  C   UNL     1      15.817  13.845  16.329  1.00  0.00     0.034 C 
BRANCH  11  12
ATOM     12  C   UNL     1      15.250  12.497  15.918  1.00  0.00    -0.077 C 
ATOM     13  C   UNL     1      15.994  11.501  15.381  1.00  0.00    -0.028 C 
ATOM     14  C   UNL     1      13.783  12.241  16.145  1.00  0.00     0.039 C 
BRANCH  13  15
ATOM     15  C   UNL     1      17.457  11.586  15.013  1.00  0.00     0.035 C 
BRANCH  15  16
ATOM     16  C   UNL     1      17.687  11.160  13.559  1.00  0.00     0.079 C 
BRANCH  16  17
ATOM     17  C   UNL     1      18.760  10.108  13.452  1.00  0.00     0.130 C 
ATOM     18  O   UNL     1      19.376   9.774  14.453  1.00  0.00    -0.300 OA
ATOM     19  C   UNL     1      19.089   9.463  12.138  1.00  0.00     0.087 C 
ENDBRANCH  16  17
ENDBRANCH  15  16
ENDBRANCH  13  15
ENDBRANCH  11  12
ENDBRANCH   1  11
TORSDOF 9
ENDMDL
MODEL 3
REMARK VINA RESULT:    -5.558      2.946      8.330
REMARK INTER + INTRA:          -9.463
REMARK INTER:                  -8.338
REMARK INTRA:                  -1.126
REMARK UNBOUND:                -0.981
REMARK SMILES CC(=O)CCC=C(C)CCC=C(C)CCC=C(C)C
REMARK SMILES IDX 10 1 11 2 12 3 13 4 14 5 15 6 16 7 18 8 17 9 19 10 9 11 7 12
REMARK SMILES IDX 6 13 8 14 5 15 4 16 2 17 3 18 1 19
REMARK H PARENT
REMARK Flexibility Score: inf
ROOT
ATOM      1  C   UNL     1      13.697  15.140  13.392  1.00  0.00     0.032 C 
ENDROOT
BRANCH   1   2
ATOM      2  C   UNL     1      13.121  14.192  14.417  1.00  0.00    -0.028 C 
ATOM      3  C   UNL     1      13.765  13.735  15.515  1.00  0.00    -0.077 C 
ATOM      4  C   UNL     1      12.999  12.865  16.478  1.00  0.00     0.039 C 
BRANCH   3   5
ATOM      5  C   UNL     1      15.221  14.044  15.811  1.00  0.00     0.034 C 
BRANCH   5   6
ATOM      6  C   UNL     1      16.042  12.766  16.047  1.00  0.00     0.032 C 
BRANCH   6   7
ATOM      7  C   UNL     1      16.791  12.349  14.803  1.00  0.00    -0.028 C 
ATOM      8  C   UNL     1      17.177  10.011  15.616  1.00  0.00     0.039 C 
ATOM      9  C   UNL     1      17.278  11.108  14.583  1.00  0.00    -0.080 C 
ATOM     10  C   UNL     1      17.957  10.829  13.266  1.00  0.00     0.039 C 
ENDBRANCH   6   7
ENDBRANCH   5   6
ENDBRANCH   3   5
ENDBRANCH   1   2
BRANCH   1  11
ATOM     11  C   UNL     1      13.401  14.673  11.961  1.00  0.00     0.034 C 
BRANCH  11  12
ATOM     12  C   UNL     1      12.938  15.814  11.073  1.00  0.00    -0.077 C 
ATOM     13  C   UNL     1      11.689  16.336  11.109  1.00  0.00    -0.028 C 
ATOM     14  C   UNL     1      13.931  16.421  10.116  1.00  0.00     0.039 C 
BRANCH  13  15
ATOM     15  C   UNL     1      10.538  15.825  11.944  1.00  0.00     0.035 C 
BRANCH  15  16
ATOM     16  C   UNL     1      10.403  16.623  13.245  1.00  0.00     0.079 C 
BRANCH  16  17
ATOM     17  C   UNL     1       9.142  17.446  13.264  1.00  0.00     0.130 C 
ATOM     18  O   UNL     1       8.359  17.326  14.195  1.00  0.00    -0.300 OA
ATOM     19  C   UNL     1       8.824  18.409  12.158  1.00  0.00     0.087 C 
ENDBRANCH  16  17
ENDBRANCH  15  16
ENDBRANCH  13  15
ENDBRANCH  11  12
ENDBRANCH   1  11
TORSDOF 9
ENDMDL
MODEL 4
REMARK VINA RESULT:    -5.486      3.295      8.634
REMARK INTER + INTRA:          -9.354
REMARK INTER:                  -8.410
REMARK INTRA:                  -0.944
REMARK UNBOUND:                -0.981
REMARK SMILES CC(=O)CCC=C(C)CCC=C(C)CCC=C(C)C
REMARK SMILES IDX 10 1 11 2 12 3 13 4 14 5 15 6 16 7 18 8 17 9 19 10 9 11 7 12
REMARK SMILES IDX 6 13 8 14 5 15 4 16 2 17 3 18 1 19
REMARK H PARENT
REMARK Flexibility Score: inf
ROOT
ATOM      1  C   UNL     1      13.469  14.991  13.935  1.00  0.00     0.032 C 
ENDROOT
BRANCH   1   2
ATOM      2  C   UNL     1      12.947  13.885  14.822  1.00  0.00    -0.028 C 
ATOM      3  C   UNL     1      13.672  13.207  15.742  1.00  0.00    -0.077 C 
ATOM      4  C   UNL     1      12.959  12.197  16.604  1.00  0.00     0.039 C 
BRANCH   3   5
ATOM      5  C   UNL     1      15.164  13.406  15.934  1.00  0.00     0.034 C 
BRANCH   5   6
ATOM      6  C   UNL     1      15.927  12.073  15.909  1.00  0.00     0.032 C 
BRANCH   6   7
ATOM      7  C   UNL     1      16.761  11.931  14.657  1.00  0.00    -0.028 C 
ATOM      8  C   UNL     1      17.824   9.790  15.403  1.00  0.00     0.039 C 
ATOM      9  C   UNL     1      17.591  10.897  14.403  1.00  0.00    -0.080 C 
ATOM     10  C   UNL     1      18.316  10.869  13.081  1.00  0.00     0.039 C 
ENDBRANCH   6   7
ENDBRANCH   5   6
ENDBRANCH   3   5
ENDBRANCH   1   2
BRANCH   1  11
ATOM     11  C   UNL     1      12.341  15.652  13.133  1.00  0.00     0.034 C 
BRANCH  11  12
ATOM     12  C   UNL     1      12.519  15.463  11.637  1.00  0.00    -0.077 C 
ATOM     13  C   UNL     1      11.543  15.701  10.728  1.00  0.00    -0.028 C 
ATOM     14  C   UNL     1      13.864  15.014  11.129  1.00  0.00     0.039 C 
BRANCH  13  15
ATOM     15  C   UNL     1      10.116  16.089  11.040  1.00  0.00     0.035 C 
BRANCH  15  16
ATOM     16  C   UNL     1       9.995  17.597  11.284  1.00  0.00     0.079 C 
BRANCH  16  17
ATOM     17  C   UNL     1       8.950  17.908  12.323  1.00  0.00     0.130 C 
ATOM     18  O   UNL     1       7.902  18.437  11.983  1.00  0.00    -0.300 OA
ATOM     19  C   UNL     1       9.171  17.584  13.771  1.00  0.00     0.087 C 
ENDBRANCH  16  17
ENDBRANCH  15  16
ENDBRANCH  13  15
ENDBRANCH  11  12
ENDBRANCH   1  11
TORSDOF 9
ENDMDL
MODEL 5
REMARK VINA RESULT:    -5.284      3.113      7.966
REMARK INTER + INTRA:          -9.045
REMARK INTER:                  -7.627
REMARK INTRA:                  -1.418
REMARK UNBOUND:                -0.981
REMARK SMILES CC(=O)CCC=C(C)CCC=C(C)CCC=C(C)C
REMARK SMILES IDX 10 1 11 2 12 3 13 4 14 5 15 6 16 7 18 8 17 9 19 10 9 11 7 12
REMARK SMILES IDX 6 13 8 14 5 15 4 16 2 17 3 18 1 19
REMARK H PARENT
REMARK Flexibility Score: inf
ROOT
ATOM      1  C   UNL     1      13.821  14.996  11.793  1.00  0.00     0.032 C 
ENDROOT
BRANCH   1   2
ATOM      2  C   UNL     1      12.953  14.872  13.023  1.00  0.00    -0.028 C 
ATOM      3  C   UNL     1      13.356  15.099  14.294  1.00  0.00    -0.077 C 
ATOM      4  C   UNL     1      12.326  15.017  15.391  1.00  0.00     0.039 C 
BRANCH   3   5
ATOM      5  C   UNL     1      14.793  15.417  14.666  1.00  0.00     0.034 C 
BRANCH   5   6
ATOM      6  C   UNL     1      15.191  14.784  16.008  1.00  0.00     0.032 C 
BRANCH   6   7
ATOM      7  C   UNL     1      15.987  13.515  15.812  1.00  0.00    -0.028 C 
ATOM      8  C   UNL     1      13.986  12.025  16.034  1.00  0.00     0.039 C 
ATOM      9  C   UNL     1      15.456  12.274  15.789  1.00  0.00    -0.080 C 
ATOM     10  C   UNL     1      16.374  11.106  15.528  1.00  0.00     0.039 C 
ENDBRANCH   6   7
ENDBRANCH   5   6
ENDBRANCH   3   5
ENDBRANCH   1   2
BRANCH   1  11
ATOM     11  C   UNL     1      13.051  15.615  10.619  1.00  0.00     0.034 C 
BRANCH  11  12
ATOM     12  C   UNL     1      11.672  15.001  10.454  1.00  0.00    -0.077 C 
ATOM     13  C   UNL     1      10.522  15.640  10.773  1.00  0.00    -0.028 C 
ATOM     14  C   UNL     1      11.573  13.613   9.875  1.00  0.00     0.039 C 
BRANCH  13  15
ATOM     15  C   UNL     1      10.413  16.999  11.425  1.00  0.00     0.035 C 
BRANCH  15  16
ATOM     16  C   UNL     1      10.101  16.871  12.920  1.00  0.00     0.079 C 
BRANCH  16  17
ATOM     17  C   UNL     1       8.832  17.595  13.286  1.00  0.00     0.130 C 
ATOM     18  O   UNL     1       8.205  17.246  14.275  1.00  0.00    -0.300 OA
ATOM     19  C   UNL     1       8.320  18.735  12.457  1.00  0.00     0.087 C 
ENDBRANCH  16  17
ENDBRANCH  15  16
ENDBRANCH  13  15
ENDBRANCH  11  12
ENDBRANCH   1  11
TORSDOF 9
ENDMDL
MODEL 6
REMARK VINA RESULT:    -5.188      1.470      2.603
REMARK INTER + INTRA:          -8.898
REMARK INTER:                  -7.742
REMARK INTRA:                  -1.156
REMARK UNBOUND:                -0.981
REMARK SMILES CC(=O)CCC=C(C)CCC=C(C)CCC=C(C)C
REMARK SMILES IDX 10 1 11 2 12 3 13 4 14 5 15 6 16 7 18 8 17 9 19 10 9 11 7 12
REMARK SMILES IDX 6 13 8 14 5 15 4 16 2 17 3 18 1 19
REMARK H PARENT
REMARK Flexibility Score: inf
ROOT
ATOM      1  C   UNL     1      13.091  12.874  15.757  1.00  0.00     0.032 C 
ENDROOT
BRANCH   1   2
ATOM      2  C   UNL     1      12.268  14.124  15.551  1.00  0.00    -0.028 C 
ATOM      3  C   UNL     1      12.336  14.941  14.475  1.00  0.00    -0.077 C 
ATOM      4  C   UNL     1      11.370  16.095  14.397  1.00  0.00     0.039 C 
BRANCH   3   5
ATOM      5  C   UNL     1      13.345  14.757  13.356  1.00  0.00     0.034 C 
BRANCH   5   6
ATOM      6  C   UNL     1      12.899  15.454  12.061  1.00  0.00     0.032 C 
BRANCH   6   7
ATOM      7  C   UNL     1      11.794  14.690  11.370  1.00  0.00    -0.028 C 
ATOM      8  C   UNL     1      10.336  16.708  11.099  1.00  0.00     0.039 C 
ATOM      9  C   UNL     1      10.654  15.244  10.905  1.00  0.00    -0.080 C 
ATOM     10  C   UNL     1       9.667  14.359  10.187  1.00  0.00     0.039 C 
ENDBRANCH   6   7
ENDBRANCH   5   6
ENDBRANCH   3   5
ENDBRANCH   1   2
BRANCH   1  11
ATOM     11  C   UNL     1      14.245  13.113  16.739  1.00  0.00     0.034 C 
BRANCH  11  12
ATOM     12  C   UNL     1      15.420  13.814  16.079  1.00  0.00    -0.077 C 
ATOM     13  C   UNL     1      16.340  13.181  15.314  1.00  0.00    -0.028 C 
ATOM     14  C   UNL     1      15.556  15.304  16.262  1.00  0.00     0.039 C 
BRANCH  13  15
ATOM     15  C   UNL     1      16.416  11.691  15.070  1.00  0.00     0.035 C 
BRANCH  15  16
ATOM     16  C   UNL     1      17.761  11.303  14.445  1.00  0.00     0.079 C 
BRANCH  16  17
ATOM     17  C   UNL     1      18.197   9.928  14.877  1.00  0.00     0.130 C 
ATOM     18  O   UNL     1      17.547   9.328  15.720  1.00  0.00    -0.300 OA
ATOM     19  C   UNL     1      19.418   9.279  14.295  1.00  0.00     0.087 C 
ENDBRANCH  16  17
ENDBRANCH  15  16
ENDBRANCH  13  15
ENDBRANCH  11  12
ENDBRANCH   1  11
TORSDOF 9
ENDMDL
MODEL 7
REMARK VINA RESULT:    -5.025      2.697      8.554
REMARK INTER + INTRA:          -8.649
REMARK INTER:                  -7.919
REMARK INTRA:                  -0.731
REMARK UNBOUND:                -0.981
REMARK SMILES CC(=O)CCC=C(C)CCC=C(C)CCC=C(C)C
REMARK SMILES IDX 10 1 11 2 12 3 13 4 14 5 15 6 16 7 18 8 17 9 19 10 9 11 7 12
REMARK SMILES IDX 6 13 8 14 5 15 4 16 2 17 3 18 1 19
REMARK H PARENT
REMARK Flexibility Score: inf
ROOT
ATOM      1  C   UNL     1      15.815  13.726  15.311  1.00  0.00     0.032 C 
ENDROOT
BRANCH   1   2
ATOM      2  C   UNL     1      15.901  12.268  15.696  1.00  0.00    -0.028 C 
ATOM      3  C   UNL     1      16.762  11.366  15.171  1.00  0.00    -0.077 C 
ATOM      4  C   UNL     1      16.766   9.971  15.743  1.00  0.00     0.039 C 
BRANCH   3   5
ATOM      5  C   UNL     1      17.707  11.688  14.028  1.00  0.00     0.034 C 
BRANCH   5   6
ATOM      6  C   UNL     1      18.623  10.502  13.690  1.00  0.00     0.032 C 
BRANCH   6   7
ATOM      7  C   UNL     1      18.553  10.144  12.224  1.00  0.00    -0.028 C 
ATOM      8  C   UNL     1      20.127   8.209  12.448  1.00  0.00     0.039 C 
ATOM      9  C   UNL     1      19.197   9.100  11.659  1.00  0.00    -0.080 C 
ATOM     10  C   UNL     1      18.985   8.838  10.190  1.00  0.00     0.039 C 
ENDBRANCH   6   7
ENDBRANCH   5   6
ENDBRANCH   3   5
ENDBRANCH   1   2
BRANCH   1  11
ATOM     11  C   UNL     1      14.610  14.413  15.966  1.00  0.00     0.034 C 
BRANCH  11  12
ATOM     12  C   UNL     1      13.293  13.798  15.524  1.00  0.00    -0.077 C 
ATOM     13  C   UNL     1      12.616  14.186  14.418  1.00  0.00    -0.028 C 
ATOM     14  C   UNL     1      12.721  12.672  16.345  1.00  0.00     0.039 C 
BRANCH  13  15
ATOM     15  C   UNL     1      12.987  15.335  13.508  1.00  0.00     0.035 C 
BRANCH  15  16
ATOM     16  C   UNL     1      12.236  15.247  12.175  1.00  0.00     0.079 C 
BRANCH  16  17
ATOM     17  C   UNL     1      10.788  15.632  12.327  1.00  0.00     0.130 C 
ATOM     18  O   UNL     1       9.925  14.950  11.795  1.00  0.00    -0.300 OA
ATOM     19  C   UNL     1      10.383  16.841  13.118  1.00  0.00     0.087 C 
ENDBRANCH  16  17
ENDBRANCH  15  16
ENDBRANCH  13  15
ENDBRANCH  11  12
ENDBRANCH   1  11
TORSDOF 9
ENDMDL
MODEL 8
REMARK VINA RESULT:    -3.598      3.327      7.931
REMARK INTER + INTRA:          -6.472
REMARK INTER:                  -5.458
REMARK INTRA:                  -1.014
REMARK UNBOUND:                -0.981
REMARK SMILES CC(=O)CCC=C(C)CCC=C(C)CCC=C(C)C
REMARK SMILES IDX 10 1 11 2 12 3 13 4 14 5 15 6 16 7 18 8 17 9 19 10 9 11 7 12
REMARK SMILES IDX 6 13 8 14 5 15 4 16 2 17 3 18 1 19
REMARK H PARENT
REMARK Flexibility Score: inf
ROOT
ATOM      1  C   UNL     1      12.261  14.750  13.169  1.00  0.00     0.032 C 
ENDROOT
BRANCH   1   2
ATOM      2  C   UNL     1      12.296  15.289  14.580  1.00  0.00    -0.028 C 
ATOM      3  C   UNL     1      12.497  14.553  15.698  1.00  0.00    -0.077 C 
ATOM      4  C   UNL     1      12.592  15.276  17.017  1.00  0.00     0.039 C 
BRANCH   3   5
ATOM      5  C   UNL     1      12.616  13.041  15.685  1.00  0.00     0.034 C 
BRANCH   5   6
ATOM      6  C   UNL     1      13.739  12.546  16.610  1.00  0.00     0.032 C 
BRANCH   6   7
ATOM      7  C   UNL     1      14.914  12.013  15.824  1.00  0.00    -0.028 C 
ATOM      8  C   UNL     1      16.143  14.195  15.857  1.00  0.00     0.039 C 
ATOM      9  C   UNL     1      16.012  12.732  15.507  1.00  0.00    -0.080 C 
ATOM     10  C   UNL     1      17.129  12.044  14.763  1.00  0.00     0.039 C 
ENDBRANCH   6   7
ENDBRANCH   5   6
ENDBRANCH   3   5
ENDBRANCH   1   2
BRANCH   1  11
ATOM     11  C   UNL     1      13.325  15.414  12.285  1.00  0.00     0.034 C 
BRANCH  11  12
ATOM     12  C   UNL     1      13.009  15.270  10.807  1.00  0.00    -0.077 C 
ATOM     13  C   UNL     1      11.787  15.501  10.273  1.00  0.00    -0.028 C 
ATOM     14  C   UNL     1      14.125  14.875   9.875  1.00  0.00     0.039 C 
BRANCH  13  15
ATOM     15  C   UNL     1      10.531  15.837  11.044  1.00  0.00     0.035 C 
BRANCH  15  16
ATOM     16  C   UNL     1      10.271  17.348  11.043  1.00  0.00     0.079 C 
BRANCH  16  17
ATOM     17  C   UNL     1       9.285  17.741  12.112  1.00  0.00     0.130 C 
ATOM     18  O   UNL     1       8.345  18.468  11.825  1.00  0.00    -0.300 OA
ATOM     19  C   UNL     1       9.435  17.260  13.525  1.00  0.00     0.087 C 
ENDBRANCH  16  17
ENDBRANCH  15  16
ENDBRANCH  13  15
ENDBRANCH  11  12
ENDBRANCH   1  11
TORSDOF 9
ENDMDL
