MODEL 1
REMARK VINA RESULT:    -3.701      0.000      0.000
REMARK INTER + INTRA:          -5.183
REMARK INTER:                  -4.783
REMARK INTRA:                  -0.400
REMARK UNBOUND:                -0.400
REMARK SMILES CCCCCCC(=O)[O-]
REMARK SMILES IDX 5 1 6 2 7 3 8 4 9 5 4 6 3 7 2 8 1 9
REMARK H PARENT
REMARK Flexibility Score: inf
ROOT
ATOM      1  C   UNL     1      58.851  28.232  12.226  1.00  0.00     0.006 C 
ENDROOT
BRANCH   1   2
ATOM      2  C   UNL     1      59.383  29.237  11.197  1.00  0.00     0.053 C 
BRANCH   2   3
ATOM      3  C   UNL     1      59.770  28.537   9.933  1.00  0.00     0.041 C 
ATOM      4  O   UNL     1      58.947  28.442   8.984  1.00  0.00    -0.550 OA
ATOM      5  O   UNL     1      61.021  27.945   9.820  1.00  0.00    -0.550 OA
ENDBRANCH   2   3
ENDBRANCH   1   2
BRANCH   1   6
ATOM      6  C   UNL     1      59.916  27.797  13.248  1.00  0.00     0.000 C 
BRANCH   6   7
ATOM      7  C   UNL     1      60.957  28.874  13.599  1.00  0.00    -0.000 C 
BRANCH   7   8
ATOM      8  C   UNL     1      62.391  28.463  13.232  1.00  0.00    -0.003 C 
ATOM      9  C   UNL     1      63.031  29.482  12.293  1.00  0.00     0.004 C 
ENDBRANCH   7   8
ENDBRANCH   6   7
ENDBRANCH   1   6
TORSDOF 5
ENDMDL
MODEL 2
REMARK VINA RESULT:    -3.698      2.168      3.009
REMARK INTER + INTRA:          -5.179
REMARK INTER:                  -4.855
REMARK INTRA:                  -0.324
REMARK UNBOUND:                -0.400
REMARK SMILES CCCCCCC(=O)[O-]
REMARK SMILES IDX 5 1 6 2 7 3 8 4 9 5 4 6 3 7 2 8 1 9
REMARK H PARENT
REMARK Flexibility Score: inf
ROOT
ATOM      1  C   UNL     1      60.668  28.063  10.288  1.00  0.00     0.006 C 
ENDROOT
BRANCH   1   2
ATOM      2  C   UNL     1      61.540  28.992   9.434  1.00  0.00     0.053 C 
BRANCH   2   3
ATOM      3  C   UNL     1      62.963  28.941   9.893  1.00  0.00     0.041 C 
ATOM      4  O   UNL     1      63.246  29.146  11.104  1.00  0.00    -0.550 OA
ATOM      5  O   UNL     1      63.982  28.718   8.978  1.00  0.00    -0.550 OA
ENDBRANCH   2   3
ENDBRANCH   1   2
BRANCH   1   6
ATOM      6  C   UNL     1      59.422  28.765  10.857  1.00  0.00     0.000 C 
BRANCH   6   7
ATOM      7  C   UNL     1      59.188  28.554  12.363  1.00  0.00    -0.000 C 
BRANCH   7   8
ATOM      8  C   UNL     1      60.420  27.988  13.087  1.00  0.00    -0.003 C 
ATOM      9  C   UNL     1      61.067  29.044  13.978  1.00  0.00     0.004 C 
ENDBRANCH   7   8
ENDBRANCH   6   7
ENDBRANCH   1   6
TORSDOF 5
ENDMDL
MODEL 3
REMARK VINA RESULT:    -3.674      1.249      2.775
REMARK INTER + INTRA:          -5.147
REMARK INTER:                  -4.753
REMARK INTRA:                  -0.394
REMARK UNBOUND:                -0.400
REMARK SMILES CCCCCCC(=O)[O-]
REMARK SMILES IDX 5 1 6 2 7 3 8 4 9 5 4 6 3 7 2 8 1 9
REMARK H PARENT
REMARK Flexibility Score: inf
ROOT
ATOM      1  C   UNL     1      62.947  29.000  10.645  1.00  0.00     0.006 C 
ENDROOT
BRANCH   1   2
ATOM      2  C   UNL     1      62.030  29.467   9.508  1.00  0.00     0.053 C 
BRANCH   2   3
ATOM      3  C   UNL     1      60.683  28.827   9.626  1.00  0.00     0.041 C 
ATOM      4  O   UNL     1      60.529  27.614   9.324  1.00  0.00    -0.550 OA
ATOM      5  O   UNL     1      59.586  29.581  10.021  1.00  0.00    -0.550 OA
ENDBRANCH   2   3
ENDBRANCH   1   2
BRANCH   1   6
ATOM      6  C   UNL     1      62.527  29.551  12.019  1.00  0.00     0.000 C 
BRANCH   6   7
ATOM      7  C   UNL     1      62.192  28.482  13.074  1.00  0.00    -0.000 C 
BRANCH   7   8
ATOM      8  C   UNL     1      60.795  28.663  13.686  1.00  0.00    -0.003 C 
ATOM      9  C   UNL     1      59.793  27.694  13.066  1.00  0.00     0.004 C 
ENDBRANCH   7   8
ENDBRANCH   6   7
ENDBRANCH   1   6
TORSDOF 5
ENDMDL
MODEL 4
REMARK VINA RESULT:    -3.662      2.391      3.785
REMARK INTER + INTRA:          -5.132
REMARK INTER:                  -4.748
REMARK INTRA:                  -0.384
REMARK UNBOUND:                -0.400
REMARK SMILES CCCCCCC(=O)[O-]
REMARK SMILES IDX 5 1 6 2 7 3 8 4 9 5 4 6 3 7 2 8 1 9
REMARK H PARENT
REMARK Flexibility Score: inf
ROOT
ATOM      1  C   UNL     1      59.150  28.653  12.384  1.00  0.00     0.006 C 
ENDROOT
BRANCH   1   2
ATOM      2  C   UNL     1      60.197  27.774  13.080  1.00  0.00     0.053 C 
BRANCH   2   3
ATOM      3  C   UNL     1      61.310  28.615  13.620  1.00  0.00     0.041 C 
ATOM      4  O   UNL     1      62.480  28.480  13.174  1.00  0.00    -0.550 OA
ATOM      5  O   UNL     1      61.067  29.512  14.652  1.00  0.00    -0.550 OA
ENDBRANCH   2   3
ENDBRANCH   1   2
BRANCH   1   6
ATOM      6  C   UNL     1      59.725  29.446  11.197  1.00  0.00     0.000 C 
BRANCH   6   7
ATOM      7  C   UNL     1      59.495  28.808   9.816  1.00  0.00    -0.000 C 
BRANCH   7   8
ATOM      8  C   UNL     1      60.668  27.927   9.361  1.00  0.00    -0.003 C 
ATOM      9  C   UNL     1      62.006  28.605   9.641  1.00  0.00     0.004 C 
ENDBRANCH   7   8
ENDBRANCH   6   7
ENDBRANCH   1   6
TORSDOF 5
ENDMDL
MODEL 5
REMARK VINA RESULT:    -3.642     14.558     15.664
REMARK INTER + INTRA:          -5.106
REMARK INTER:                  -4.777
REMARK INTRA:                  -0.329
REMARK UNBOUND:                -0.400
REMARK SMILES CCCCCCC(=O)[O-]
REMARK SMILES IDX 5 1 6 2 7 3 8 4 9 5 4 6 3 7 2 8 1 9
REMARK H PARENT
REMARK Flexibility Score: inf
ROOT
ATOM      1  C   UNL     1      60.690  27.127  28.249  1.00  0.00     0.006 C 
ENDROOT
BRANCH   1   2
ATOM      2  C   UNL     1      61.357  26.817  26.904  1.00  0.00     0.053 C 
BRANCH   2   3
ATOM      3  C   UNL     1      60.402  27.059  25.778  1.00  0.00     0.041 C 
ATOM      4  O   UNL     1      59.370  26.347  25.659  1.00  0.00    -0.550 OA
ATOM      5  O   UNL     1      60.676  28.037  24.831  1.00  0.00    -0.550 OA
ENDBRANCH   2   3
ENDBRANCH   1   2
BRANCH   1   6
ATOM      6  C   UNL     1      60.705  28.626  28.596  1.00  0.00     0.000 C 
BRANCH   6   7
ATOM      7  C   UNL     1      62.049  29.157  29.125  1.00  0.00    -0.000 C 
BRANCH   7   8
ATOM      8  C   UNL     1      62.507  30.440  28.414  1.00  0.00    -0.003 C 
ATOM      9  C   UNL     1      62.812  30.174  26.943  1.00  0.00     0.004 C 
ENDBRANCH   7   8
ENDBRANCH   6   7
ENDBRANCH   1   6
TORSDOF 5
ENDMDL
MODEL 6
REMARK VINA RESULT:    -3.622     13.802     14.935
REMARK INTER + INTRA:          -5.080
REMARK INTER:                  -4.698
REMARK INTRA:                  -0.382
REMARK UNBOUND:                -0.400
REMARK SMILES CCCCCCC(=O)[O-]
REMARK SMILES IDX 5 1 6 2 7 3 8 4 9 5 4 6 3 7 2 8 1 9
REMARK H PARENT
REMARK Flexibility Score: inf
ROOT
ATOM      1  C   UNL     1      60.652  26.761  26.035  1.00  0.00     0.006 C 
ENDROOT
BRANCH   1   2
ATOM      2  C   UNL     1      60.268  28.016  25.241  1.00  0.00     0.053 C 
BRANCH   2   3
ATOM      3  C   UNL     1      61.477  28.617  24.597  1.00  0.00     0.041 C 
ATOM      4  O   UNL     1      61.840  29.785  24.897  1.00  0.00    -0.550 OA
ATOM      5  O   UNL     1      62.174  27.909  23.627  1.00  0.00    -0.550 OA
ENDBRANCH   2   3
ENDBRANCH   1   2
BRANCH   1   6
ATOM      6  C   UNL     1      61.525  27.073  27.264  1.00  0.00     0.000 C 
BRANCH   6   7
ATOM      7  C   UNL     1      60.750  27.266  28.579  1.00  0.00    -0.000 C 
BRANCH   7   8
ATOM      8  C   UNL     1      60.597  28.744  28.972  1.00  0.00    -0.003 C 
ATOM      9  C   UNL     1      61.730  29.586  28.393  1.00  0.00     0.004 C 
ENDBRANCH   7   8
ENDBRANCH   6   7
ENDBRANCH   1   6
TORSDOF 5
ENDMDL
MODEL 7
REMARK VINA RESULT:    -3.616     14.619     15.944
REMARK INTER + INTRA:          -5.072
REMARK INTER:                  -4.643
REMARK INTRA:                  -0.430
REMARK UNBOUND:                -0.400
REMARK SMILES CCCCCCC(=O)[O-]
REMARK SMILES IDX 5 1 6 2 7 3 8 4 9 5 4 6 3 7 2 8 1 9
REMARK H PARENT
REMARK Flexibility Score: inf
ROOT
ATOM      1  C   UNL     1      63.007  28.723  27.014  1.00  0.00     0.006 C 
ENDROOT
BRANCH   1   2
ATOM      2  C   UNL     1      62.618  28.779  28.496  1.00  0.00     0.053 C 
BRANCH   2   3
ATOM      3  C   UNL     1      61.284  28.137  28.711  1.00  0.00     0.041 C 
ATOM      4  O   UNL     1      60.281  28.841  29.000  1.00  0.00    -0.550 OA
ATOM      5  O   UNL     1      61.158  26.756  28.642  1.00  0.00    -0.550 OA
ENDBRANCH   2   3
ENDBRANCH   1   2
BRANCH   1   6
ATOM      6  C   UNL     1      62.380  29.858  26.184  1.00  0.00     0.000 C 
BRANCH   6   7
ATOM      7  C   UNL     1      61.556  29.396  24.970  1.00  0.00    -0.000 C 
BRANCH   7   8
ATOM      8  C   UNL     1      61.352  27.874  24.929  1.00  0.00    -0.003 C 
ATOM      9  C   UNL     1      59.919  27.501  25.295  1.00  0.00     0.004 C 
ENDBRANCH   7   8
ENDBRANCH   6   7
ENDBRANCH   1   6
TORSDOF 5
ENDMDL
MODEL 8
REMARK VINA RESULT:    -3.601      2.018      2.861
REMARK INTER + INTRA:          -5.054
REMARK INTER:                  -4.628
REMARK INTRA:                  -0.426
REMARK UNBOUND:                -0.400
REMARK SMILES CCCCCCC(=O)[O-]
REMARK SMILES IDX 5 1 6 2 7 3 8 4 9 5 4 6 3 7 2 8 1 9
REMARK H PARENT
REMARK Flexibility Score: inf
ROOT
ATOM      1  C   UNL     1      61.532  28.570  13.420  1.00  0.00     0.006 C 
ENDROOT
BRANCH   1   2
ATOM      2  C   UNL     1      60.236  28.011  12.821  1.00  0.00     0.053 C 
BRANCH   2   3
ATOM      3  C   UNL     1      60.058  28.494  11.416  1.00  0.00     0.041 C 
ATOM      4  O   UNL     1      59.217  29.395  11.157  1.00  0.00    -0.550 OA
ATOM      5  O   UNL     1      60.785  27.915  10.385  1.00  0.00    -0.550 OA
ENDBRANCH   2   3
ENDBRANCH   1   2
BRANCH   1   6
ATOM      6  C   UNL     1      61.325  29.900  14.166  1.00  0.00     0.000 C 
BRANCH   6   7
ATOM      7  C   UNL     1      61.664  31.161  13.352  1.00  0.00    -0.000 C 
BRANCH   7   8
ATOM      8  C   UNL     1      60.474  32.122  13.213  1.00  0.00    -0.003 C 
ATOM      9  C   UNL     1      59.262  31.610  13.986  1.00  0.00     0.004 C 
ENDBRANCH   7   8
ENDBRANCH   6   7
ENDBRANCH   1   6
TORSDOF 5
ENDMDL
MODEL 9
REMARK VINA RESULT:    -3.587      2.007      3.148
REMARK INTER + INTRA:          -5.036
REMARK INTER:                  -4.686
REMARK INTRA:                  -0.350
REMARK UNBOUND:                -0.400
REMARK SMILES CCCCCCC(=O)[O-]
REMARK SMILES IDX 5 1 6 2 7 3 8 4 9 5 4 6 3 7 2 8 1 9
REMARK H PARENT
REMARK Flexibility Score: inf
ROOT
ATOM      1  C   UNL     1      61.141  29.121  13.426  1.00  0.00     0.006 C 
ENDROOT
BRANCH   1   2
ATOM      2  C   UNL     1      60.259  27.872  13.315  1.00  0.00     0.053 C 
BRANCH   2   3
ATOM      3  C   UNL     1      58.996  28.187  12.579  1.00  0.00     0.041 C 
ATOM      4  O   UNL     1      58.981  29.096  11.706  1.00  0.00    -0.550 OA
ATOM      5  O   UNL     1      57.822  27.513  12.889  1.00  0.00    -0.550 OA
ENDBRANCH   2   3
ENDBRANCH   1   2
BRANCH   1   6
ATOM      6  C   UNL     1      62.451  29.005  12.626  1.00  0.00     0.000 C 
BRANCH   6   7
ATOM      7  C   UNL     1      62.430  29.679  11.243  1.00  0.00    -0.000 C 
BRANCH   7   8
ATOM      8  C   UNL     1      62.670  28.691  10.092  1.00  0.00    -0.003 C 
ATOM      9  C   UNL     1      61.364  28.347   9.381  1.00  0.00     0.004 C 
ENDBRANCH   7   8
ENDBRANCH   6   7
ENDBRANCH   1   6
TORSDOF 5
ENDMDL
