MODEL 1
REMARK VINA RESULT:    -3.861      0.000      0.000
REMARK INTER + INTRA:          -4.523
REMARK INTER:                  -4.426
REMARK INTRA:                  -0.098
REMARK UNBOUND:                -0.098
REMARK SMILES COc1cc(C(=O)[O-])ccc1O
REMARK SMILES IDX 5 1 9 2 4 3 10 4 3 5 11 6 6 7 7 8 8 9 2 10 1 11 12 12
REMARK H PARENT 12 13
REMARK Flexibility Score: inf
ROOT
ATOM      1  C   UNL     1       1.859   4.210  24.789  1.00  0.00     0.001 A 
ATOM      2  C   UNL     1       2.654   4.773  23.778  1.00  0.00     0.014 A 
ATOM      3  C   UNL     1       1.464   5.013  25.873  1.00  0.00     0.060 A 
ATOM      4  C   UNL     1       3.046   6.111  23.849  1.00  0.00     0.051 A 
ATOM      5  C   UNL     1       1.857   6.365  25.951  1.00  0.00     0.161 A 
ATOM      6  C   UNL     1       2.653   6.908  24.926  1.00  0.00     0.157 A 
ENDROOT
BRANCH   1   7
ATOM      7  C   UNL     1       1.442   2.792  24.716  1.00  0.00     0.072 C 
ATOM      8  O   UNL     1       1.757   1.983  25.629  1.00  0.00    -0.545 OA
ATOM      9  O   UNL     1       0.694   2.332  23.637  1.00  0.00    -0.545 OA
ENDBRANCH   1   7
BRANCH   5  10
ATOM     10  O   UNL     1       1.477   7.189  27.021  1.00  0.00    -0.493 OA
ATOM     11  C   UNL     1       0.222   7.856  27.124  1.00  0.00     0.278 C 
ENDBRANCH   5  10
BRANCH   6  12
ATOM     12  O   UNL     1       3.064   8.240  24.964  1.00  0.00    -0.504 OA
ATOM     13  H   UNL     1       3.250   8.773  24.122  1.00  0.00     0.293 HD
ENDBRANCH   6  12
TORSDOF 3
ENDMDL
MODEL 2
REMARK VINA RESULT:    -3.813      2.753      4.171
REMARK INTER + INTRA:          -4.468
REMARK INTER:                  -4.375
REMARK INTRA:                  -0.092
REMARK UNBOUND:                -0.098
REMARK SMILES COc1cc(C(=O)[O-])ccc1O
REMARK SMILES IDX 5 1 9 2 4 3 10 4 3 5 11 6 6 7 7 8 8 9 2 10 1 11 12 12
REMARK H PARENT 12 13
REMARK Flexibility Score: inf
ROOT
ATOM      1  C   UNL     1       0.757   6.288  22.650  1.00  0.00     0.001 A 
ATOM      2  C   UNL     1       1.296   7.342  23.406  1.00  0.00     0.014 A 
ATOM      3  C   UNL     1       1.073   4.964  23.002  1.00  0.00     0.060 A 
ATOM      4  C   UNL     1       2.133   7.078  24.491  1.00  0.00     0.051 A 
ATOM      5  C   UNL     1       1.919   4.691  24.098  1.00  0.00     0.161 A 
ATOM      6  C   UNL     1       2.446   5.763  24.840  1.00  0.00     0.157 A 
ENDROOT
BRANCH   1   7
ATOM      7  C   UNL     1      -0.131   6.565  21.499  1.00  0.00     0.072 C 
ATOM      8  O   UNL     1       0.002   7.623  20.827  1.00  0.00    -0.545 OA
ATOM      9  O   UNL     1      -1.125   5.661  21.142  1.00  0.00    -0.545 OA
ENDBRANCH   1   7
BRANCH   5  10
ATOM     10  O   UNL     1       2.250   3.380  24.472  1.00  0.00    -0.493 OA
ATOM     11  C   UNL     1       1.305   2.380  24.839  1.00  0.00     0.278 C 
ENDBRANCH   5  10
BRANCH   6  12
ATOM     12  O   UNL     1       3.286   5.537  25.931  1.00  0.00    -0.504 OA
ATOM     13  H   UNL     1       3.558   4.605  26.221  1.00  0.00     0.293 HD
ENDBRANCH   6  12
TORSDOF 3
ENDMDL
MODEL 3
REMARK VINA RESULT:    -3.725      2.395      5.042
REMARK INTER + INTRA:          -4.367
REMARK INTER:                  -4.279
REMARK INTRA:                  -0.088
REMARK UNBOUND:                -0.098
REMARK SMILES COc1cc(C(=O)[O-])ccc1O
REMARK SMILES IDX 5 1 9 2 4 3 10 4 3 5 11 6 6 7 7 8 8 9 2 10 1 11 12 12
REMARK H PARENT 12 13
REMARK Flexibility Score: inf
ROOT
ATOM      1  C   UNL     1       0.685   5.002  23.191  1.00  0.00     0.001 A 
ATOM      2  C   UNL     1       1.609   5.212  24.228  1.00  0.00     0.014 A 
ATOM      3  C   UNL     1       0.187   3.706  22.971  1.00  0.00     0.060 A 
ATOM      4  C   UNL     1       2.025   4.147  25.029  1.00  0.00     0.051 A 
ATOM      5  C   UNL     1       0.605   2.627  23.778  1.00  0.00     0.161 A 
ATOM      6  C   UNL     1       1.530   2.860  24.811  1.00  0.00     0.157 A 
ENDROOT
BRANCH   1   7
ATOM      7  C   UNL     1       0.242   6.129  22.340  1.00  0.00     0.072 C 
ATOM      8  O   UNL     1       0.735   7.279  22.490  1.00  0.00    -0.545 OA
ATOM      9  O   UNL     1      -0.726   5.934  21.361  1.00  0.00    -0.545 OA
ENDBRANCH   1   7
BRANCH   5  10
ATOM     10  O   UNL     1       0.124   1.323  23.581  1.00  0.00    -0.493 OA
ATOM     11  C   UNL     1       0.036   0.675  22.316  1.00  0.00     0.278 C 
ENDBRANCH   5  10
BRANCH   6  12
ATOM     12  O   UNL     1       1.969   1.821  25.632  1.00  0.00    -0.504 OA
ATOM     13  H   UNL     1       2.353   0.962  25.258  1.00  0.00     0.293 HD
ENDBRANCH   6  12
TORSDOF 3
ENDMDL
MODEL 4
REMARK VINA RESULT:    -3.670      2.254      2.682
REMARK INTER + INTRA:          -4.304
REMARK INTER:                  -4.231
REMARK INTRA:                  -0.074
REMARK UNBOUND:                -0.098
REMARK SMILES COc1cc(C(=O)[O-])ccc1O
REMARK SMILES IDX 5 1 9 2 4 3 10 4 3 5 11 6 6 7 7 8 8 9 2 10 1 11 12 12
REMARK H PARENT 12 13
REMARK Flexibility Score: inf
ROOT
ATOM      1  C   UNL     1       1.193   5.787  23.200  1.00  0.00     0.001 A 
ATOM      2  C   UNL     1       2.468   5.269  22.922  1.00  0.00     0.014 A 
ATOM      3  C   UNL     1       0.973   6.441  24.425  1.00  0.00     0.060 A 
ATOM      4  C   UNL     1       3.502   5.403  23.850  1.00  0.00     0.051 A 
ATOM      5  C   UNL     1       2.014   6.578  25.366  1.00  0.00     0.161 A 
ATOM      6  C   UNL     1       3.284   6.053  25.066  1.00  0.00     0.157 A 
ENDROOT
BRANCH   1   7
ATOM      7  C   UNL     1       0.094   5.647  22.218  1.00  0.00     0.072 C 
ATOM      8  O   UNL     1      -0.447   4.527  22.017  1.00  0.00    -0.545 OA
ATOM      9  O   UNL     1      -0.357   6.751  21.503  1.00  0.00    -0.545 OA
ENDBRANCH   1   7
BRANCH   5  10
ATOM     10  O   UNL     1       1.823   7.227  26.596  1.00  0.00    -0.493 OA
ATOM     11  C   UNL     1       0.557   7.625  27.113  1.00  0.00     0.278 C 
ENDBRANCH   5  10
BRANCH   6  12
ATOM     12  O   UNL     1       4.341   6.167  25.969  1.00  0.00    -0.504 OA
ATOM     13  H   UNL     1       4.241   6.630  26.864  1.00  0.00     0.293 HD
ENDBRANCH   6  12
TORSDOF 3
ENDMDL
MODEL 5
REMARK VINA RESULT:    -3.669      1.817      2.370
REMARK INTER + INTRA:          -4.303
REMARK INTER:                  -4.223
REMARK INTRA:                  -0.080
REMARK UNBOUND:                -0.098
REMARK SMILES COc1cc(C(=O)[O-])ccc1O
REMARK SMILES IDX 5 1 9 2 4 3 10 4 3 5 11 6 6 7 7 8 8 9 2 10 1 11 12 12
REMARK H PARENT 12 13
REMARK Flexibility Score: inf
ROOT
ATOM      1  C   UNL     1       1.151   3.726  23.944  1.00  0.00     0.001 A 
ATOM      2  C   UNL     1       0.196   4.180  23.020  1.00  0.00     0.014 A 
ATOM      3  C   UNL     1       2.104   4.631  24.441  1.00  0.00     0.060 A 
ATOM      4  C   UNL     1       0.194   5.512  22.603  1.00  0.00     0.051 A 
ATOM      5  C   UNL     1       2.107   5.978  24.023  1.00  0.00     0.161 A 
ATOM      6  C   UNL     1       1.141   6.411  23.098  1.00  0.00     0.157 A 
ENDROOT
BRANCH   1   7
ATOM      7  C   UNL     1       1.155   2.314  24.388  1.00  0.00     0.072 C 
ATOM      8  O   UNL     1       1.710   1.985  25.471  1.00  0.00    -0.545 OA
ATOM      9  O   UNL     1       0.546   1.330  23.617  1.00  0.00    -0.545 OA
ENDBRANCH   1   7
BRANCH   5  10
ATOM     10  O   UNL     1       3.047   6.903  24.503  1.00  0.00    -0.493 OA
ATOM     11  C   UNL     1       3.864   6.705  25.653  1.00  0.00     0.278 C 
ENDBRANCH   5  10
BRANCH   6  12
ATOM     12  O   UNL     1       1.108   7.734  22.657  1.00  0.00    -0.504 OA
ATOM     13  H   UNL     1       1.530   8.490  23.184  1.00  0.00     0.293 HD
ENDBRANCH   6  12
TORSDOF 3
ENDMDL
MODEL 6
REMARK VINA RESULT:    -3.664      1.659      4.342
REMARK INTER + INTRA:          -4.297
REMARK INTER:                  -4.196
REMARK INTRA:                  -0.101
REMARK UNBOUND:                -0.098
REMARK SMILES COc1cc(C(=O)[O-])ccc1O
REMARK SMILES IDX 5 1 9 2 4 3 10 4 3 5 11 6 6 7 7 8 8 9 2 10 1 11 12 12
REMARK H PARENT 12 13
REMARK Flexibility Score: inf
ROOT
ATOM      1  C   UNL     1       2.377   5.715  24.812  1.00  0.00     0.001 A 
ATOM      2  C   UNL     1       1.898   6.325  23.642  1.00  0.00     0.014 A 
ATOM      3  C   UNL     1       1.947   4.414  25.129  1.00  0.00     0.060 A 
ATOM      4  C   UNL     1       1.007   5.650  22.806  1.00  0.00     0.051 A 
ATOM      5  C   UNL     1       1.047   3.727  24.288  1.00  0.00     0.161 A 
ATOM      6  C   UNL     1       0.581   4.358  23.120  1.00  0.00     0.157 A 
ENDROOT
BRANCH   1   7
ATOM      7  C   UNL     1       3.321   6.428  25.700  1.00  0.00     0.072 C 
ATOM      8  O   UNL     1       4.126   7.277  25.232  1.00  0.00    -0.545 OA
ATOM      9  O   UNL     1       3.332   6.173  27.067  1.00  0.00    -0.545 OA
ENDBRANCH   1   7
BRANCH   5  10
ATOM     10  O   UNL     1       0.602   2.428  24.579  1.00  0.00    -0.493 OA
ATOM     11  C   UNL     1      -0.466   2.119  25.470  1.00  0.00     0.278 C 
ENDBRANCH   5  10
BRANCH   6  12
ATOM     12  O   UNL     1      -0.309   3.714  22.261  1.00  0.00    -0.504 OA
ATOM     13  H   UNL     1      -0.275   3.837  21.256  1.00  0.00     0.293 HD
ENDBRANCH   6  12
TORSDOF 3
ENDMDL
MODEL 7
REMARK VINA RESULT:    -3.604      2.220      4.645
REMARK INTER + INTRA:          -4.228
REMARK INTER:                  -4.148
REMARK INTRA:                  -0.080
REMARK UNBOUND:                -0.098
REMARK SMILES COc1cc(C(=O)[O-])ccc1O
REMARK SMILES IDX 5 1 9 2 4 3 10 4 3 5 11 6 6 7 7 8 8 9 2 10 1 11 12 12
REMARK H PARENT 12 13
REMARK Flexibility Score: inf
ROOT
ATOM      1  C   UNL     1       2.244   5.826  24.411  1.00  0.00     0.001 A 
ATOM      2  C   UNL     1       2.207   4.498  24.867  1.00  0.00     0.014 A 
ATOM      3  C   UNL     1       1.400   6.209  23.354  1.00  0.00     0.060 A 
ATOM      4  C   UNL     1       1.345   3.572  24.278  1.00  0.00     0.051 A 
ATOM      5  C   UNL     1       0.526   5.278  22.755  1.00  0.00     0.161 A 
ATOM      6  C   UNL     1       0.506   3.953  23.228  1.00  0.00     0.157 A 
ENDROOT
BRANCH   1   7
ATOM      7  C   UNL     1       3.158   6.810  25.034  1.00  0.00     0.072 C 
ATOM      8  O   UNL     1       3.020   8.043  24.812  1.00  0.00    -0.545 OA
ATOM      9  O   UNL     1       4.182   6.387  25.874  1.00  0.00    -0.545 OA
ENDBRANCH   1   7
BRANCH   5  10
ATOM     10  O   UNL     1      -0.327   5.632  21.699  1.00  0.00    -0.493 OA
ATOM     11  C   UNL     1      -0.364   6.916  21.084  1.00  0.00     0.278 C 
ENDBRANCH   5  10
BRANCH   6  12
ATOM     12  O   UNL     1      -0.343   3.001  22.665  1.00  0.00    -0.504 OA
ATOM     13  H   UNL     1      -0.434   2.882  21.663  1.00  0.00     0.293 HD
ENDBRANCH   6  12
TORSDOF 3
ENDMDL
MODEL 8
REMARK VINA RESULT:    -3.560      1.847      2.589
REMARK INTER + INTRA:          -4.178
REMARK INTER:                  -4.097
REMARK INTRA:                  -0.081
REMARK UNBOUND:                -0.098
REMARK SMILES COc1cc(C(=O)[O-])ccc1O
REMARK SMILES IDX 5 1 9 2 4 3 10 4 3 5 11 6 6 7 7 8 8 9 2 10 1 11 12 12
REMARK H PARENT 12 13
REMARK Flexibility Score: inf
ROOT
ATOM      1  C   UNL     1       1.580   4.586  24.774  1.00  0.00     0.001 A 
ATOM      2  C   UNL     1       2.121   5.338  25.829  1.00  0.00     0.014 A 
ATOM      3  C   UNL     1       1.132   5.251  23.619  1.00  0.00     0.060 A 
ATOM      4  C   UNL     1       2.212   6.728  25.732  1.00  0.00     0.051 A 
ATOM      5  C   UNL     1       1.222   6.655  23.516  1.00  0.00     0.161 A 
ATOM      6  C   UNL     1       1.767   7.389  24.585  1.00  0.00     0.157 A 
ENDROOT
BRANCH   1   7
ATOM      7  C   UNL     1       1.482   3.113  24.874  1.00  0.00     0.072 C 
ATOM      8  O   UNL     1       1.573   2.538  25.992  1.00  0.00    -0.545 OA
ATOM      9  O   UNL     1       1.286   2.340  23.734  1.00  0.00    -0.545 OA
ENDBRANCH   1   7
BRANCH   5  10
ATOM     10  O   UNL     1       0.783   7.346  22.376  1.00  0.00    -0.493 OA
ATOM     11  C   UNL     1      -0.216   6.873  21.477  1.00  0.00     0.278 C 
ENDBRANCH   5  10
BRANCH   6  12
ATOM     12  O   UNL     1       1.875   8.778  24.524  1.00  0.00    -0.504 OA
ATOM     13  H   UNL     1       2.722   9.267  24.787  1.00  0.00     0.293 HD
ENDBRANCH   6  12
TORSDOF 3
ENDMDL
MODEL 9
REMARK VINA RESULT:    -3.549      2.794      4.168
REMARK INTER + INTRA:          -4.165
REMARK INTER:                  -4.084
REMARK INTRA:                  -0.081
REMARK UNBOUND:                -0.098
REMARK SMILES COc1cc(C(=O)[O-])ccc1O
REMARK SMILES IDX 5 1 9 2 4 3 10 4 3 5 11 6 6 7 7 8 8 9 2 10 1 11 12 12
REMARK H PARENT 12 13
REMARK Flexibility Score: inf
ROOT
ATOM      1  C   UNL     1       0.419   5.677  22.586  1.00  0.00     0.001 A 
ATOM      2  C   UNL     1      -0.044   4.358  22.717  1.00  0.00     0.014 A 
ATOM      3  C   UNL     1       1.384   6.156  23.489  1.00  0.00     0.060 A 
ATOM      4  C   UNL     1       0.449   3.534  23.730  1.00  0.00     0.051 A 
ATOM      5  C   UNL     1       1.885   5.328  24.515  1.00  0.00     0.161 A 
ATOM      6  C   UNL     1       1.408   4.009  24.627  1.00  0.00     0.157 A 
ENDROOT
BRANCH   1   7
ATOM      7  C   UNL     1      -0.102   6.554  21.513  1.00  0.00     0.072 C 
ATOM      8  O   UNL     1       0.375   7.708  21.340  1.00  0.00    -0.545 OA
ATOM      9  O   UNL     1      -1.125   6.116  20.679  1.00  0.00    -0.545 OA
ENDBRANCH   1   7
BRANCH   5  10
ATOM     10  O   UNL     1       2.849   5.778  25.430  1.00  0.00    -0.493 OA
ATOM     11  C   UNL     1       3.725   6.880  25.207  1.00  0.00     0.278 C 
ENDBRANCH   5  10
BRANCH   6  12
ATOM     12  O   UNL     1       1.877   3.157  25.626  1.00  0.00    -0.504 OA
ATOM     13  H   UNL     1       1.619   2.178  25.667  1.00  0.00     0.293 HD
ENDBRANCH   6  12
TORSDOF 3
ENDMDL
