MODEL 1
REMARK VINA RESULT:    -3.431      0.000      0.000
REMARK INTER + INTRA:          -9.721
REMARK INTER:                  -7.843
REMARK INTRA:                  -1.878
REMARK UNBOUND:                -1.878
REMARK SMILES CCCCCCCCCCCCCCCCCCCCCCCC(=O)[O-]
REMARK SMILES IDX 13 1 14 2 15 3 16 4 17 5 18 6 19 7 20 8 21 9 22 10 23 11
REMARK SMILES IDX 24 12 25 13 26 14 12 15 11 16 10 17 9 18 8 19 7 20 6 21 5 22
REMARK SMILES IDX 4 23 3 24 2 25 1 26
REMARK H PARENT
REMARK Flexibility Score: inf
ROOT
ATOM      1  C   UNL     1      17.050  -5.350  17.701  1.00  0.00     0.000 C 
ENDROOT
BRANCH   1   2
ATOM      2  C   UNL     1      15.865  -5.019  18.625  1.00  0.00     0.000 C 
BRANCH   2   3
ATOM      3  C   UNL     1      14.609  -4.604  17.845  1.00  0.00     0.000 C 
BRANCH   3   4
ATOM      4  C   UNL     1      14.589  -5.154  16.409  1.00  0.00     0.000 C 
BRANCH   4   5
ATOM      5  C   UNL     1      13.469  -4.537  15.552  1.00  0.00     0.000 C 
BRANCH   5   6
ATOM      6  C   UNL     1      13.547  -4.866  14.048  1.00  0.00     0.000 C 
BRANCH   6   7
ATOM      7  C   UNL     1      13.577  -6.369  13.705  1.00  0.00     0.000 C 
BRANCH   7   8
ATOM      8  C   UNL     1      14.270  -6.723  12.376  1.00  0.00     0.000 C 
BRANCH   8   9
ATOM      9  C   UNL     1      14.471  -8.236  12.193  1.00  0.00     0.000 C 
BRANCH   9  10
ATOM     10  C   UNL     1      13.376  -9.070  12.886  1.00  0.00     0.006 C 
BRANCH  10  11
ATOM     11  C   UNL     1      12.314  -9.641  11.933  1.00  0.00     0.053 C 
BRANCH  11  12
ATOM     12  C   UNL     1      11.900 -11.026  12.320  1.00  0.00     0.041 C 
ATOM     13  O   UNL     1      12.629 -11.719  13.076  1.00  0.00    -0.550 OA
ATOM     14  O   UNL     1      10.688 -11.540  11.876  1.00  0.00    -0.550 OA
ENDBRANCH  11  12
ENDBRANCH  10  11
ENDBRANCH   9  10
ENDBRANCH   8   9
ENDBRANCH   7   8
ENDBRANCH   6   7
ENDBRANCH   5   6
ENDBRANCH   4   5
ENDBRANCH   3   4
ENDBRANCH   2   3
ENDBRANCH   1   2
BRANCH   1  15
ATOM     15  C   UNL     1      16.954  -6.755  17.079  1.00  0.00     0.000 C 
BRANCH  15  16
ATOM     16  C   UNL     1      17.387  -6.852  15.603  1.00  0.00     0.000 C 
BRANCH  16  17
ATOM     17  C   UNL     1      17.343  -5.502  14.872  1.00  0.00     0.000 C 
BRANCH  17  18
ATOM     18  C   UNL     1      17.194  -5.697  13.356  1.00  0.00    -0.000 C 
BRANCH  18  19
ATOM     19  C   UNL     1      18.528  -5.548  12.608  1.00  0.00    -0.000 C 
BRANCH  19  20
ATOM     20  C   UNL     1      19.112  -6.902  12.165  1.00  0.00    -0.000 C 
BRANCH  20  21
ATOM     21  C   UNL     1      18.069  -8.030  12.189  1.00  0.00    -0.000 C 
BRANCH  21  22
ATOM     22  C   UNL     1      18.326  -9.047  13.311  1.00  0.00    -0.000 C 
BRANCH  22  23
ATOM     23  C   UNL     1      17.179 -10.065  13.404  1.00  0.00    -0.000 C 
BRANCH  23  24
ATOM     24  C   UNL     1      17.046 -10.924  12.136  1.00  0.00    -0.000 C 
BRANCH  24  25
ATOM     25  C   UNL     1      15.726 -11.708  12.088  1.00  0.00    -0.003 C 
ATOM     26  C   UNL     1      15.932 -13.159  12.513  1.00  0.00     0.004 C 
ENDBRANCH  24  25
ENDBRANCH  23  24
ENDBRANCH  22  23
ENDBRANCH  21  22
ENDBRANCH  20  21
ENDBRANCH  19  20
ENDBRANCH  18  19
ENDBRANCH  17  18
ENDBRANCH  16  17
ENDBRANCH  15  16
ENDBRANCH   1  15
TORSDOF 22
ENDMDL
MODEL 2
REMARK VINA RESULT:    -2.965      1.369      5.464
REMARK INTER + INTRA:          -8.656
REMARK INTER:                  -6.749
REMARK INTRA:                  -1.907
REMARK UNBOUND:                -1.878
REMARK SMILES CCCCCCCCCCCCCCCCCCCCCCCC(=O)[O-]
REMARK SMILES IDX 13 1 14 2 15 3 16 4 17 5 18 6 19 7 20 8 21 9 22 10 23 11
REMARK SMILES IDX 24 12 25 13 26 14 12 15 11 16 10 17 9 18 8 19 7 20 6 21 5 22
REMARK SMILES IDX 4 23 3 24 2 25 1 26
REMARK H PARENT
REMARK Flexibility Score: inf
ROOT
ATOM      1  C   UNL     1      17.304  -8.008  16.005  1.00  0.00     0.000 C 
ENDROOT
BRANCH   1   2
ATOM      2  C   UNL     1      18.496  -8.690  15.311  1.00  0.00     0.000 C 
BRANCH   2   3
ATOM      3  C   UNL     1      18.273  -8.871  13.802  1.00  0.00     0.000 C 
BRANCH   3   4
ATOM      4  C   UNL     1      17.861 -10.305  13.428  1.00  0.00     0.000 C 
BRANCH   4   5
ATOM      5  C   UNL     1      16.609 -10.348  12.533  1.00  0.00     0.000 C 
BRANCH   5   6
ATOM      6  C   UNL     1      16.326 -11.715  11.879  1.00  0.00     0.000 C 
BRANCH   6   7
ATOM      7  C   UNL     1      15.825 -12.812  12.840  1.00  0.00     0.000 C 
BRANCH   7   8
ATOM      8  C   UNL     1      14.624 -13.631  12.328  1.00  0.00     0.000 C 
BRANCH   8   9
ATOM      9  C   UNL     1      13.333 -13.347  13.113  1.00  0.00     0.000 C 
BRANCH   9  10
ATOM     10  C   UNL     1      12.413 -12.336  12.402  1.00  0.00     0.006 C 
BRANCH  10  11
ATOM     11  C   UNL     1      12.034 -11.114  13.253  1.00  0.00     0.053 C 
BRANCH  11  12
ATOM     12  C   UNL     1      12.755  -9.879  12.812  1.00  0.00     0.041 C 
ATOM     13  O   UNL     1      13.594  -9.933  11.875  1.00  0.00    -0.550 OA
ATOM     14  O   UNL     1      12.472  -8.658  13.410  1.00  0.00    -0.550 OA
ENDBRANCH  11  12
ENDBRANCH  10  11
ENDBRANCH   9  10
ENDBRANCH   8   9
ENDBRANCH   7   8
ENDBRANCH   6   7
ENDBRANCH   5   6
ENDBRANCH   4   5
ENDBRANCH   3   4
ENDBRANCH   2   3
ENDBRANCH   1   2
BRANCH   1  15
ATOM     15  C   UNL     1      17.378  -6.470  15.955  1.00  0.00     0.000 C 
BRANCH  15  16
ATOM     16  C   UNL     1      17.253  -5.762  17.318  1.00  0.00     0.000 C 
BRANCH  16  17
ATOM     17  C   UNL     1      15.855  -5.891  17.939  1.00  0.00     0.000 C 
BRANCH  17  18
ATOM     18  C   UNL     1      14.904  -4.816  17.392  1.00  0.00    -0.000 C 
BRANCH  18  19
ATOM     19  C   UNL     1      14.422  -5.125  15.966  1.00  0.00    -0.000 C 
BRANCH  19  20
ATOM     20  C   UNL     1      13.275  -4.203  15.516  1.00  0.00    -0.000 C 
BRANCH  20  21
ATOM     21  C   UNL     1      12.965  -4.336  14.017  1.00  0.00    -0.000 C 
BRANCH  21  22
ATOM     22  C   UNL     1      13.773  -5.456  13.345  1.00  0.00    -0.000 C 
BRANCH  22  23
ATOM     23  C   UNL     1      14.448  -4.952  12.059  1.00  0.00    -0.000 C 
BRANCH  23  24
ATOM     24  C   UNL     1      15.952  -4.692  12.243  1.00  0.00    -0.000 C 
BRANCH  24  25
ATOM     25  C   UNL     1      16.775  -5.988  12.299  1.00  0.00    -0.003 C 
ATOM     26  C   UNL     1      18.261  -5.704  12.103  1.00  0.00     0.004 C 
ENDBRANCH  24  25
ENDBRANCH  23  24
ENDBRANCH  22  23
ENDBRANCH  21  22
ENDBRANCH  20  21
ENDBRANCH  19  20
ENDBRANCH  18  19
ENDBRANCH  17  18
ENDBRANCH  16  17
ENDBRANCH  15  16
ENDBRANCH   1  15
TORSDOF 22
ENDMDL
MODEL 3
REMARK VINA RESULT:    -2.563      2.902      6.164
REMARK INTER + INTRA:          -7.737
REMARK INTER:                  -5.495
REMARK INTRA:                  -2.241
REMARK UNBOUND:                -1.878
REMARK SMILES CCCCCCCCCCCCCCCCCCCCCCCC(=O)[O-]
REMARK SMILES IDX 13 1 14 2 15 3 16 4 17 5 18 6 19 7 20 8 21 9 22 10 23 11
REMARK SMILES IDX 24 12 25 13 26 14 12 15 11 16 10 17 9 18 8 19 7 20 6 21 5 22
REMARK SMILES IDX 4 23 3 24 2 25 1 26
REMARK H PARENT
REMARK Flexibility Score: inf
ROOT
ATOM      1  C   UNL     1      16.553  -7.528  13.486  1.00  0.00     0.000 C 
ENDROOT
BRANCH   1   2
ATOM      2  C   UNL     1      17.349  -6.330  14.032  1.00  0.00     0.000 C 
BRANCH   2   3
ATOM      3  C   UNL     1      17.812  -5.376  12.920  1.00  0.00     0.000 C 
BRANCH   3   4
ATOM      4  C   UNL     1      16.659  -4.549  12.325  1.00  0.00     0.000 C 
BRANCH   4   5
ATOM      5  C   UNL     1      15.460  -5.420  11.905  1.00  0.00     0.000 C 
BRANCH   5   6
ATOM      6  C   UNL     1      14.101  -4.691  11.897  1.00  0.00     0.000 C 
BRANCH   6   7
ATOM      7  C   UNL     1      13.575  -4.268  13.284  1.00  0.00     0.000 C 
BRANCH   7   8
ATOM      8  C   UNL     1      13.860  -5.265  14.423  1.00  0.00     0.000 C 
BRANCH   8   9
ATOM      9  C   UNL     1      13.934  -4.589  15.802  1.00  0.00     0.000 C 
BRANCH   9  10
ATOM     10  C   UNL     1      14.711  -5.427  16.835  1.00  0.00     0.006 C 
BRANCH  10  11
ATOM     11  C   UNL     1      16.129  -4.914  17.132  1.00  0.00     0.053 C 
BRANCH  11  12
ATOM     12  C   UNL     1      16.654  -5.438  18.432  1.00  0.00     0.041 C 
ATOM     13  O   UNL     1      17.510  -4.784  19.082  1.00  0.00    -0.550 OA
ATOM     14  O   UNL     1      16.169  -6.634  18.946  1.00  0.00    -0.550 OA
ENDBRANCH  11  12
ENDBRANCH  10  11
ENDBRANCH   9  10
ENDBRANCH   8   9
ENDBRANCH   7   8
ENDBRANCH   6   7
ENDBRANCH   5   6
ENDBRANCH   4   5
ENDBRANCH   3   4
ENDBRANCH   2   3
ENDBRANCH   1   2
BRANCH   1  15
ATOM     15  C   UNL     1      17.452  -8.624  12.885  1.00  0.00     0.000 C 
BRANCH  15  16
ATOM     16  C   UNL     1      17.648  -9.871  13.769  1.00  0.00     0.000 C 
BRANCH  16  17
ATOM     17  C   UNL     1      17.572 -11.187  12.982  1.00  0.00     0.000 C 
BRANCH  17  18
ATOM     18  C   UNL     1      16.212 -11.337  12.285  1.00  0.00    -0.000 C 
BRANCH  18  19
ATOM     19  C   UNL     1      15.653 -12.765  12.384  1.00  0.00    -0.000 C 
BRANCH  19  20
ATOM     20  C   UNL     1      14.283 -12.818  13.084  1.00  0.00    -0.000 C 
BRANCH  20  21
ATOM     21  C   UNL     1      13.170 -13.343  12.165  1.00  0.00    -0.000 C 
BRANCH  21  22
ATOM     22  C   UNL     1      11.942 -12.421  12.140  1.00  0.00    -0.000 C 
BRANCH  22  23
ATOM     23  C   UNL     1      12.354 -10.962  11.887  1.00  0.00    -0.000 C 
BRANCH  23  24
ATOM     24  C   UNL     1      12.043 -10.044  13.080  1.00  0.00    -0.000 C 
BRANCH  24  25
ATOM     25  C   UNL     1      12.811  -8.715  13.022  1.00  0.00    -0.003 C 
ATOM     26  C   UNL     1      13.817  -8.711  11.875  1.00  0.00     0.004 C 
ENDBRANCH  24  25
ENDBRANCH  23  24
ENDBRANCH  22  23
ENDBRANCH  21  22
ENDBRANCH  20  21
ENDBRANCH  19  20
ENDBRANCH  18  19
ENDBRANCH  17  18
ENDBRANCH  16  17
ENDBRANCH  15  16
ENDBRANCH   1  15
TORSDOF 22
ENDMDL
MODEL 4
REMARK VINA RESULT:    -2.507      1.275      2.598
REMARK INTER + INTRA:          -7.608
REMARK INTER:                  -5.449
REMARK INTRA:                  -2.160
REMARK UNBOUND:                -1.878
REMARK SMILES CCCCCCCCCCCCCCCCCCCCCCCC(=O)[O-]
REMARK SMILES IDX 13 1 14 2 15 3 16 4 17 5 18 6 19 7 20 8 21 9 22 10 23 11
REMARK SMILES IDX 24 12 25 13 26 14 12 15 11 16 10 17 9 18 8 19 7 20 6 21 5 22
REMARK SMILES IDX 4 23 3 24 2 25 1 26
REMARK H PARENT
REMARK Flexibility Score: inf
ROOT
ATOM      1  C   UNL     1      14.839  -4.606  16.463  1.00  0.00     0.000 C 
ENDROOT
BRANCH   1   2
ATOM      2  C   UNL     1      13.346  -4.811  16.153  1.00  0.00     0.000 C 
BRANCH   2   3
ATOM      3  C   UNL     1      12.992  -4.458  14.701  1.00  0.00     0.000 C 
BRANCH   3   4
ATOM      4  C   UNL     1      14.235  -4.285  13.810  1.00  0.00     0.000 C 
BRANCH   4   5
ATOM      5  C   UNL     1      13.943  -4.568  12.325  1.00  0.00     0.000 C 
BRANCH   5   6
ATOM      6  C   UNL     1      14.215  -6.018  11.876  1.00  0.00     0.000 C 
BRANCH   6   7
ATOM      7  C   UNL     1      14.392  -7.037  13.020  1.00  0.00     0.000 C 
BRANCH   7   8
ATOM      8  C   UNL     1      14.132  -8.506  12.633  1.00  0.00     0.000 C 
BRANCH   8   9
ATOM      9  C   UNL     1      12.656  -8.908  12.782  1.00  0.00     0.000 C 
BRANCH   9  10
ATOM     10  C   UNL     1      12.321 -10.224  12.054  1.00  0.00     0.006 C 
BRANCH  10  11
ATOM     11  C   UNL     1      13.308 -11.370  12.327  1.00  0.00     0.053 C 
BRANCH  11  12
ATOM     12  C   UNL     1      12.604 -12.649  12.655  1.00  0.00     0.041 C 
ATOM     13  O   UNL     1      11.418 -12.837  12.276  1.00  0.00    -0.550 OA
ATOM     14  O   UNL     1      13.270 -13.652  13.348  1.00  0.00    -0.550 OA
ENDBRANCH  11  12
ENDBRANCH  10  11
ENDBRANCH   9  10
ENDBRANCH   8   9
ENDBRANCH   7   8
ENDBRANCH   6   7
ENDBRANCH   5   6
ENDBRANCH   4   5
ENDBRANCH   3   4
ENDBRANCH   2   3
ENDBRANCH   1   2
BRANCH   1  15
ATOM     15  C   UNL     1      15.282  -5.289  17.770  1.00  0.00     0.000 C 
BRANCH  15  16
ATOM     16  C   UNL     1      16.273  -6.456  17.597  1.00  0.00     0.000 C 
BRANCH  16  17
ATOM     17  C   UNL     1      17.383  -6.160  16.577  1.00  0.00     0.000 C 
BRANCH  17  18
ATOM     18  C   UNL     1      16.807  -6.009  15.161  1.00  0.00    -0.000 C 
BRANCH  18  19
ATOM     19  C   UNL     1      17.845  -5.490  14.154  1.00  0.00    -0.000 C 
BRANCH  19  20
ATOM     20  C   UNL     1      17.556  -5.954  12.714  1.00  0.00    -0.000 C 
BRANCH  20  21
ATOM     21  C   UNL     1      18.518  -7.056  12.245  1.00  0.00    -0.000 C 
BRANCH  21  22
ATOM     22  C   UNL     1      17.790  -8.356  11.875  1.00  0.00    -0.000 C 
BRANCH  22  23
ATOM     23  C   UNL     1      17.668  -9.284  13.094  1.00  0.00    -0.000 C 
BRANCH  23  24
ATOM     24  C   UNL     1      18.855  -9.151  14.061  1.00  0.00    -0.000 C 
BRANCH  24  25
ATOM     25  C   UNL     1      18.487  -9.514  15.507  1.00  0.00    -0.003 C 
ATOM     26  C   UNL     1      18.150 -10.997  15.632  1.00  0.00     0.004 C 
ENDBRANCH  24  25
ENDBRANCH  23  24
ENDBRANCH  22  23
ENDBRANCH  21  22
ENDBRANCH  20  21
ENDBRANCH  19  20
ENDBRANCH  18  19
ENDBRANCH  17  18
ENDBRANCH  16  17
ENDBRANCH  15  16
ENDBRANCH   1  15
TORSDOF 22
ENDMDL
MODEL 5
REMARK VINA RESULT:    -2.314      2.839      6.107
REMARK INTER + INTRA:          -7.168
REMARK INTER:                  -6.589
REMARK INTRA:                  -0.579
REMARK UNBOUND:                -1.878
REMARK SMILES CCCCCCCCCCCCCCCCCCCCCCCC(=O)[O-]
REMARK SMILES IDX 13 1 14 2 15 3 16 4 17 5 18 6 19 7 20 8 21 9 22 10 23 11
REMARK SMILES IDX 24 12 25 13 26 14 12 15 11 16 10 17 9 18 8 19 7 20 6 21 5 22
REMARK SMILES IDX 4 23 3 24 2 25 1 26
REMARK H PARENT
REMARK Flexibility Score: inf
ROOT
ATOM      1  C   UNL     1      15.149  -8.666  11.906  1.00  0.00     0.000 C 
ENDROOT
BRANCH   1   2
ATOM      2  C   UNL     1      16.472  -7.880  11.905  1.00  0.00     0.000 C 
BRANCH   2   3
ATOM      3  C   UNL     1      16.254  -6.360  11.942  1.00  0.00     0.000 C 
BRANCH   3   4
ATOM      4  C   UNL     1      14.768  -5.973  12.048  1.00  0.00     0.000 C 
BRANCH   4   5
ATOM      5  C   UNL     1      14.535  -4.462  11.875  1.00  0.00     0.000 C 
BRANCH   5   6
ATOM      6  C   UNL     1      13.356  -3.890  12.689  1.00  0.00     0.000 C 
BRANCH   6   7
ATOM      7  C   UNL     1      12.908  -4.751  13.888  1.00  0.00     0.000 C 
BRANCH   7   8
ATOM      8  C   UNL     1      13.531  -4.362  15.242  1.00  0.00     0.000 C 
BRANCH   8   9
ATOM      9  C   UNL     1      14.348  -5.501  15.871  1.00  0.00     0.000 C 
BRANCH   9  10
ATOM     10  C   UNL     1      15.828  -5.480  15.442  1.00  0.00     0.006 C 
BRANCH  10  11
ATOM     11  C   UNL     1      16.827  -5.468  16.610  1.00  0.00     0.053 C 
BRANCH  11  12
ATOM     12  C   UNL     1      16.158  -5.737  17.922  1.00  0.00     0.041 C 
ATOM     13  O   UNL     1      16.328  -6.837  18.508  1.00  0.00    -0.550 OA
ATOM     14  O   UNL     1      15.375  -4.756  18.517  1.00  0.00    -0.550 OA
ENDBRANCH  11  12
ENDBRANCH  10  11
ENDBRANCH   9  10
ENDBRANCH   8   9
ENDBRANCH   7   8
ENDBRANCH   6   7
ENDBRANCH   5   6
ENDBRANCH   4   5
ENDBRANCH   3   4
ENDBRANCH   2   3
ENDBRANCH   1   2
BRANCH   1  15
ATOM     15  C   UNL     1      14.052  -7.996  12.753  1.00  0.00     0.000 C 
BRANCH  15  16
ATOM     16  C   UNL     1      12.927  -8.935  13.232  1.00  0.00     0.000 C 
BRANCH  16  17
ATOM     17  C   UNL     1      12.622 -10.066  12.239  1.00  0.00     0.000 C 
BRANCH  17  18
ATOM     18  C   UNL     1      12.362 -11.391  12.972  1.00  0.00    -0.000 C 
BRANCH  18  19
ATOM     19  C   UNL     1      12.906 -12.606  12.205  1.00  0.00    -0.000 C 
BRANCH  19  20
ATOM     20  C   UNL     1      14.258 -13.096  12.754  1.00  0.00    -0.000 C 
BRANCH  20  21
ATOM     21  C   UNL     1      15.442 -12.664  11.875  1.00  0.00    -0.000 C 
BRANCH  21  22
ATOM     22  C   UNL     1      16.751 -12.542  12.669  1.00  0.00    -0.000 C 
BRANCH  22  23
ATOM     23  C   UNL     1      17.260 -11.092  12.671  1.00  0.00    -0.000 C 
BRANCH  23  24
ATOM     24  C   UNL     1      17.464 -10.538  14.091  1.00  0.00    -0.000 C 
BRANCH  24  25
ATOM     25  C   UNL     1      18.410  -9.328  14.125  1.00  0.00    -0.003 C 
ATOM     26  C   UNL     1      18.323  -8.601  15.464  1.00  0.00     0.004 C 
ENDBRANCH  24  25
ENDBRANCH  23  24
ENDBRANCH  22  23
ENDBRANCH  21  22
ENDBRANCH  20  21
ENDBRANCH  19  20
ENDBRANCH  18  19
ENDBRANCH  17  18
ENDBRANCH  16  17
ENDBRANCH  15  16
ENDBRANCH   1  15
TORSDOF 22
ENDMDL
MODEL 6
REMARK VINA RESULT:    -2.246      5.110      9.566
REMARK INTER + INTRA:          -7.013
REMARK INTER:                  -6.183
REMARK INTRA:                  -0.830
REMARK UNBOUND:                -1.878
REMARK SMILES CCCCCCCCCCCCCCCCCCCCCCCC(=O)[O-]
REMARK SMILES IDX 13 1 14 2 15 3 16 4 17 5 18 6 19 7 20 8 21 9 22 10 23 11
REMARK SMILES IDX 24 12 25 13 26 14 12 15 11 16 10 17 9 18 8 19 7 20 6 21 5 22
REMARK SMILES IDX 4 23 3 24 2 25 1 26
REMARK H PARENT
REMARK Flexibility Score: inf
ROOT
ATOM      1  C   UNL     1      12.411 -10.312  13.141  1.00  0.00     0.000 C 
ENDROOT
BRANCH   1   2
ATOM      2  C   UNL     1      13.401  -9.691  12.141  1.00  0.00     0.000 C 
BRANCH   2   3
ATOM      3  C   UNL     1      13.567  -8.177  12.340  1.00  0.00     0.000 C 
BRANCH   3   4
ATOM      4  C   UNL     1      15.022  -7.771  12.636  1.00  0.00     0.000 C 
BRANCH   4   5
ATOM      5  C   UNL     1      16.027  -8.891  12.314  1.00  0.00     0.000 C 
BRANCH   5   6
ATOM      6  C   UNL     1      17.242  -8.963  13.261  1.00  0.00     0.000 C 
BRANCH   6   7
ATOM      7  C   UNL     1      18.307  -7.868  13.047  1.00  0.00     0.000 C 
BRANCH   7   8
ATOM      8  C   UNL     1      17.750  -6.472  12.711  1.00  0.00     0.000 C 
BRANCH   8   9
ATOM      9  C   UNL     1      17.637  -5.562  13.945  1.00  0.00     0.000 C 
BRANCH   9  10
ATOM     10  C   UNL     1      17.380  -6.351  15.244  1.00  0.00     0.006 C 
BRANCH  10  11
ATOM     11  C   UNL     1      16.054  -6.009  15.942  1.00  0.00     0.053 C 
BRANCH  11  12
ATOM     12  C   UNL     1      16.264  -5.566  17.356  1.00  0.00     0.041 C 
ATOM     13  O   UNL     1      15.327  -5.023  17.997  1.00  0.00    -0.550 OA
ATOM     14  O   UNL     1      17.485  -5.786  17.980  1.00  0.00    -0.550 OA
ENDBRANCH  11  12
ENDBRANCH  10  11
ENDBRANCH   9  10
ENDBRANCH   8   9
ENDBRANCH   7   8
ENDBRANCH   6   7
ENDBRANCH   5   6
ENDBRANCH   4   5
ENDBRANCH   3   4
ENDBRANCH   2   3
ENDBRANCH   1   2
BRANCH   1  15
ATOM     15  C   UNL     1      12.400 -11.851  13.102  1.00  0.00     0.000 C 
BRANCH  15  16
ATOM     16  C   UNL     1      11.581 -12.472  11.954  1.00  0.00     0.000 C 
BRANCH  16  17
ATOM     17  C   UNL     1      10.141 -11.943  11.885  1.00  0.00     0.000 C 
BRANCH  17  18
ATOM     18  C   UNL     1       9.126 -13.096  11.887  1.00  0.00    -0.000 C 
BRANCH  18  19
ATOM     19  C   UNL     1       7.671 -12.601  11.884  1.00  0.00    -0.000 C 
BRANCH  19  20
ATOM     20  C   UNL     1       7.073 -12.513  13.300  1.00  0.00    -0.000 C 
BRANCH  20  21
ATOM     21  C   UNL     1       6.463 -13.843  13.767  1.00  0.00    -0.000 C 
BRANCH  21  22
ATOM     22  C   UNL     1       5.455 -14.415  12.760  1.00  0.00    -0.000 C 
BRANCH  22  23
ATOM     23  C   UNL     1       5.125 -15.881  13.083  1.00  0.00    -0.000 C 
BRANCH  23  24
ATOM     24  C   UNL     1       5.728 -16.861  12.063  1.00  0.00    -0.000 C 
BRANCH  24  25
ATOM     25  C   UNL     1       5.031 -18.230  12.073  1.00  0.00    -0.003 C 
ATOM     26  C   UNL     1       6.047 -19.363  12.185  1.00  0.00     0.004 C 
ENDBRANCH  24  25
ENDBRANCH  23  24
ENDBRANCH  22  23
ENDBRANCH  21  22
ENDBRANCH  20  21
ENDBRANCH  19  20
ENDBRANCH  18  19
ENDBRANCH  17  18
ENDBRANCH  16  17
ENDBRANCH  15  16
ENDBRANCH   1  15
TORSDOF 22
ENDMDL
MODEL 7
REMARK VINA RESULT:    -2.133      1.622      4.036
REMARK INTER + INTRA:          -6.754
REMARK INTER:                  -7.456
REMARK INTRA:                   0.702
REMARK UNBOUND:                -1.878
REMARK SMILES CCCCCCCCCCCCCCCCCCCCCCCC(=O)[O-]
REMARK SMILES IDX 13 1 14 2 15 3 16 4 17 5 18 6 19 7 20 8 21 9 22 10 23 11
REMARK SMILES IDX 24 12 25 13 26 14 12 15 11 16 10 17 9 18 8 19 7 20 6 21 5 22
REMARK SMILES IDX 4 23 3 24 2 25 1 26
REMARK H PARENT
REMARK Flexibility Score: inf
ROOT
ATOM      1  C   UNL     1      16.886  -5.908  14.769  1.00  0.00     0.000 C 
ENDROOT
BRANCH   1   2
ATOM      2  C   UNL     1      17.336  -6.829  15.917  1.00  0.00     0.000 C 
BRANCH   2   3
ATOM      3  C   UNL     1      17.306  -6.125  17.282  1.00  0.00     0.000 C 
BRANCH   3   4
ATOM      4  C   UNL     1      15.956  -5.447  17.574  1.00  0.00     0.000 C 
BRANCH   4   5
ATOM      5  C   UNL     1      15.014  -5.456  16.356  1.00  0.00     0.000 C 
BRANCH   5   6
ATOM      6  C   UNL     1      14.194  -4.164  16.163  1.00  0.00     0.000 C 
BRANCH   6   7
ATOM      7  C   UNL     1      12.824  -4.352  15.479  1.00  0.00     0.000 C 
BRANCH   7   8
ATOM      8  C   UNL     1      12.793  -4.018  13.975  1.00  0.00     0.000 C 
BRANCH   8   9
ATOM      9  C   UNL     1      14.170  -4.158  13.306  1.00  0.00     0.000 C 
BRANCH   9  10
ATOM     10  C   UNL     1      14.100  -4.875  11.943  1.00  0.00     0.006 C 
BRANCH  10  11
ATOM     11  C   UNL     1      14.898  -6.187  11.875  1.00  0.00     0.053 C 
BRANCH  11  12
ATOM     12  C   UNL     1      14.282  -7.261  12.716  1.00  0.00     0.041 C 
ATOM     13  O   UNL     1      14.864  -8.368  12.858  1.00  0.00    -0.550 OA
ATOM     14  O   UNL     1      13.081  -7.027  13.373  1.00  0.00    -0.550 OA
ENDBRANCH  11  12
ENDBRANCH  10  11
ENDBRANCH   9  10
ENDBRANCH   8   9
ENDBRANCH   7   8
ENDBRANCH   6   7
ENDBRANCH   5   6
ENDBRANCH   4   5
ENDBRANCH   3   4
ENDBRANCH   2   3
ENDBRANCH   1   2
BRANCH   1  15
ATOM     15  C   UNL     1      18.000  -5.641  13.739  1.00  0.00     0.000 C 
BRANCH  15  16
ATOM     16  C   UNL     1      18.516  -6.886  12.993  1.00  0.00     0.000 C 
BRANCH  16  17
ATOM     17  C   UNL     1      18.127  -8.205  13.677  1.00  0.00     0.000 C 
BRANCH  17  18
ATOM     18  C   UNL     1      17.763  -9.279  12.641  1.00  0.00    -0.000 C 
BRANCH  18  19
ATOM     19  C   UNL     1      17.349 -10.609  13.291  1.00  0.00    -0.000 C 
BRANCH  19  20
ATOM     20  C   UNL     1      16.340 -11.397  12.437  1.00  0.00    -0.000 C 
BRANCH  20  21
ATOM     21  C   UNL     1      16.235 -12.871  12.858  1.00  0.00    -0.000 C 
BRANCH  21  22
ATOM     22  C   UNL     1      15.012 -13.572  12.249  1.00  0.00    -0.000 C 
BRANCH  22  23
ATOM     23  C   UNL     1      13.907 -12.558  11.914  1.00  0.00    -0.000 C 
BRANCH  23  24
ATOM     24  C   UNL     1      12.818 -12.491  12.997  1.00  0.00    -0.000 C 
BRANCH  24  25
ATOM     25  C   UNL     1      11.685 -11.516  12.639  1.00  0.00    -0.003 C 
ATOM     26  C   UNL     1      12.241 -10.206  12.090  1.00  0.00     0.004 C 
ENDBRANCH  24  25
ENDBRANCH  23  24
ENDBRANCH  22  23
ENDBRANCH  21  22
ENDBRANCH  20  21
ENDBRANCH  19  20
ENDBRANCH  18  19
ENDBRANCH  17  18
ENDBRANCH  16  17
ENDBRANCH  15  16
ENDBRANCH   1  15
TORSDOF 22
ENDMDL
MODEL 8
REMARK VINA RESULT:    -1.952      5.672      9.056
REMARK INTER + INTRA:          -6.341
REMARK INTER:                  -5.402
REMARK INTRA:                  -0.939
REMARK UNBOUND:                -1.878
REMARK SMILES CCCCCCCCCCCCCCCCCCCCCCCC(=O)[O-]
REMARK SMILES IDX 13 1 14 2 15 3 16 4 17 5 18 6 19 7 20 8 21 9 22 10 23 11
REMARK SMILES IDX 24 12 25 13 26 14 12 15 11 16 10 17 9 18 8 19 7 20 6 21 5 22
REMARK SMILES IDX 4 23 3 24 2 25 1 26
REMARK H PARENT
REMARK Flexibility Score: inf
ROOT
ATOM      1  C   UNL     1      12.894 -11.513  12.628  1.00  0.00     0.000 C 
ENDROOT
BRANCH   1   2
ATOM      2  C   UNL     1      11.788 -12.302  11.906  1.00  0.00     0.000 C 
BRANCH   2   3
ATOM      3  C   UNL     1      10.484 -12.363  12.716  1.00  0.00     0.000 C 
BRANCH   3   4
ATOM      4  C   UNL     1       9.282 -12.828  11.877  1.00  0.00     0.000 C 
BRANCH   4   5
ATOM      5  C   UNL     1       8.006 -13.009  12.719  1.00  0.00     0.000 C 
BRANCH   5   6
ATOM      6  C   UNL     1       6.709 -13.177  11.902  1.00  0.00     0.000 C 
BRANCH   6   7
ATOM      7  C   UNL     1       5.765 -14.295  12.391  1.00  0.00     0.000 C 
BRANCH   7   8
ATOM      8  C   UNL     1       6.192 -15.725  12.007  1.00  0.00     0.000 C 
BRANCH   8   9
ATOM      9  C   UNL     1       5.261 -16.801  12.589  1.00  0.00     0.000 C 
BRANCH   9  10
ATOM     10  C   UNL     1       5.923 -18.191  12.650  1.00  0.00     0.006 C 
BRANCH  10  11
ATOM     11  C   UNL     1       5.170 -19.287  11.878  1.00  0.00     0.053 C 
BRANCH  11  12
ATOM     12  C   UNL     1       5.688 -20.654  12.198  1.00  0.00     0.041 C 
ATOM     13  O   UNL     1       4.931 -21.656  12.115  1.00  0.00    -0.550 OA
ATOM     14  O   UNL     1       7.020 -20.827  12.553  1.00  0.00    -0.550 OA
ENDBRANCH  11  12
ENDBRANCH  10  11
ENDBRANCH   9  10
ENDBRANCH   8   9
ENDBRANCH   7   8
ENDBRANCH   6   7
ENDBRANCH   5   6
ENDBRANCH   4   5
ENDBRANCH   3   4
ENDBRANCH   2   3
ENDBRANCH   1   2
BRANCH   1  15
ATOM     15  C   UNL     1      14.267 -11.635  11.942  1.00  0.00     0.000 C 
BRANCH  15  16
ATOM     16  C   UNL     1      15.099 -10.339  11.902  1.00  0.00     0.000 C 
BRANCH  16  17
ATOM     17  C   UNL     1      16.411 -10.440  12.693  1.00  0.00     0.000 C 
BRANCH  17  18
ATOM     18  C   UNL     1      17.512  -9.581  12.052  1.00  0.00    -0.000 C 
BRANCH  18  19
ATOM     19  C   UNL     1      18.373  -8.851  13.095  1.00  0.00    -0.000 C 
BRANCH  19  20
ATOM     20  C   UNL     1      17.717  -7.554  13.601  1.00  0.00    -0.000 C 
BRANCH  20  21
ATOM     21  C   UNL     1      17.562  -6.500  12.494  1.00  0.00    -0.000 C 
BRANCH  21  22
ATOM     22  C   UNL     1      16.092  -6.212  12.156  1.00  0.00    -0.000 C 
BRANCH  22  23
ATOM     23  C   UNL     1      15.532  -5.092  13.047  1.00  0.00    -0.000 C 
BRANCH  23  24
ATOM     24  C   UNL     1      14.177  -5.457  13.674  1.00  0.00    -0.000 C 
BRANCH  24  25
ATOM     25  C   UNL     1      14.105  -5.117  15.170  1.00  0.00    -0.003 C 
ATOM     26  C   UNL     1      13.071  -4.027  15.437  1.00  0.00     0.004 C 
ENDBRANCH  24  25
ENDBRANCH  23  24
ENDBRANCH  22  23
ENDBRANCH  21  22
ENDBRANCH  20  21
ENDBRANCH  19  20
ENDBRANCH  18  19
ENDBRANCH  17  18
ENDBRANCH  16  17
ENDBRANCH  15  16
ENDBRANCH   1  15
TORSDOF 22
ENDMDL
MODEL 9
REMARK VINA RESULT:    -1.873      4.710      8.122
REMARK INTER + INTRA:          -6.160
REMARK INTER:                  -6.553
REMARK INTRA:                   0.393
REMARK UNBOUND:                -1.878
REMARK SMILES CCCCCCCCCCCCCCCCCCCCCCCC(=O)[O-]
REMARK SMILES IDX 13 1 14 2 15 3 16 4 17 5 18 6 19 7 20 8 21 9 22 10 23 11
REMARK SMILES IDX 24 12 25 13 26 14 12 15 11 16 10 17 9 18 8 19 7 20 6 21 5 22
REMARK SMILES IDX 4 23 3 24 2 25 1 26
REMARK H PARENT
REMARK Flexibility Score: inf
ROOT
ATOM      1  C   UNL     1      14.633 -12.239  12.716  1.00  0.00     0.000 C 
ENDROOT
BRANCH   1   2
ATOM      2  C   UNL     1      13.385 -12.557  11.875  1.00  0.00     0.000 C 
BRANCH   2   3
ATOM      3  C   UNL     1      12.108 -12.639  12.726  1.00  0.00     0.000 C 
BRANCH   3   4
ATOM      4  C   UNL     1      10.833 -12.779  11.876  1.00  0.00     0.000 C 
BRANCH   4   5
ATOM      5  C   UNL     1       9.572 -12.295  12.615  1.00  0.00     0.000 C 
BRANCH   5   6
ATOM      6  C   UNL     1       8.239 -12.722  11.970  1.00  0.00     0.000 C 
BRANCH   6   7
ATOM      7  C   UNL     1       7.119 -13.096  12.963  1.00  0.00     0.000 C 
BRANCH   7   8
ATOM      8  C   UNL     1       6.135 -14.172  12.463  1.00  0.00     0.000 C 
BRANCH   8   9
ATOM      9  C   UNL     1       5.311 -14.799  13.600  1.00  0.00     0.000 C 
BRANCH   9  10
ATOM     10  C   UNL     1       4.827 -16.223  13.268  1.00  0.00     0.006 C 
BRANCH  10  11
ATOM     11  C   UNL     1       5.392 -16.797  11.959  1.00  0.00     0.053 C 
BRANCH  11  12
ATOM     12  C   UNL     1       5.833 -18.218  12.115  1.00  0.00     0.041 C 
ATOM     13  O   UNL     1       7.059 -18.501  12.169  1.00  0.00    -0.550 OA
ATOM     14  O   UNL     1       4.890 -19.230  12.239  1.00  0.00    -0.550 OA
ENDBRANCH  11  12
ENDBRANCH  10  11
ENDBRANCH   9  10
ENDBRANCH   8   9
ENDBRANCH   7   8
ENDBRANCH   6   7
ENDBRANCH   5   6
ENDBRANCH   4   5
ENDBRANCH   3   4
ENDBRANCH   2   3
ENDBRANCH   1   2
BRANCH   1  15
ATOM     15  C   UNL     1      15.713 -11.478  11.926  1.00  0.00     0.000 C 
BRANCH  15  16
ATOM     16  C   UNL     1      15.541  -9.947  11.886  1.00  0.00     0.000 C 
BRANCH  16  17
ATOM     17  C   UNL     1      16.455  -9.211  12.876  1.00  0.00     0.000 C 
BRANCH  17  18
ATOM     18  C   UNL     1      16.739  -7.776  12.407  1.00  0.00    -0.000 C 
BRANCH  18  19
ATOM     19  C   UNL     1      18.197  -7.578  11.963  1.00  0.00    -0.000 C 
BRANCH  19  20
ATOM     20  C   UNL     1      18.619  -6.098  11.959  1.00  0.00    -0.000 C 
BRANCH  20  21
ATOM     21  C   UNL     1      18.747  -5.517  13.376  1.00  0.00    -0.000 C 
BRANCH  21  22
ATOM     22  C   UNL     1      17.384  -5.197  14.008  1.00  0.00    -0.000 C 
BRANCH  22  23
ATOM     23  C   UNL     1      16.867  -6.386  14.833  1.00  0.00    -0.000 C 
BRANCH  23  24
ATOM     24  C   UNL     1      17.335  -6.338  16.296  1.00  0.00    -0.000 C 
BRANCH  24  25
ATOM     25  C   UNL     1      16.464  -5.423  17.168  1.00  0.00    -0.003 C 
ATOM     26  C   UNL     1      16.308  -5.989  18.576  1.00  0.00     0.004 C 
ENDBRANCH  24  25
ENDBRANCH  23  24
ENDBRANCH  22  23
ENDBRANCH  21  22
ENDBRANCH  20  21
ENDBRANCH  19  20
ENDBRANCH  18  19
ENDBRANCH  17  18
ENDBRANCH  16  17
ENDBRANCH  15  16
ENDBRANCH   1  15
TORSDOF 22
ENDMDL
