MODEL 1
REMARK VINA RESULT:    -6.838      0.000      0.000
REMARK INTER + INTRA:          -8.106
REMARK INTER:                  -8.037
REMARK INTRA:                  -0.069
REMARK UNBOUND:                -0.069
REMARK SMILES O=c1c(O)c(-c2ccc(O)c(O)c2)oc2cc(O)ccc12
REMARK SMILES IDX 5 1 3 2 2 3 1 4 21 5 15 6 14 7 16 8 17 9 19 10 20 11 6 12
REMARK SMILES IDX 7 13 8 14 9 15 13 16 11 17 10 18 12 20 4 22 18 24
REMARK H PARENT 10 19 12 21 4 23 18 25
REMARK Flexibility Score: inf
ROOT
ATOM      1  C   UNL     1      -4.135 -12.064  31.706  1.00  0.00     0.180 A 
ATOM      2  C   UNL     1      -2.750 -11.844  31.548  1.00  0.00     0.208 A 
ATOM      3  C   UNL     1      -2.126 -12.282  30.370  1.00  0.00     0.235 A 
ATOM      4  O   UNL     1      -0.887 -12.107  30.209  1.00  0.00    -0.285 OA
ATOM      5  C   UNL     1      -2.892 -12.906  29.373  1.00  0.00     0.069 A 
ATOM      6  C   UNL     1      -4.277 -13.067  29.597  1.00  0.00     0.142 A 
ATOM      7  O   UNL     1      -4.828 -12.646  30.730  1.00  0.00    -0.452 OA
ATOM      8  C   UNL     1      -5.077 -13.676  28.623  1.00  0.00     0.094 A 
ATOM      9  C   UNL     1      -4.511 -14.128  27.426  1.00  0.00     0.119 A 
ATOM     10  C   UNL     1      -3.137 -13.971  27.202  1.00  0.00     0.047 A 
ATOM     11  C   UNL     1      -2.329 -13.363  28.167  1.00  0.00     0.020 A 
ENDROOT
BRANCH   1  12
ATOM     12  C   UNL     1      -4.862 -11.648  32.926  1.00  0.00     0.025 A 
ATOM     13  C   UNL     1      -4.870 -10.294  33.297  1.00  0.00     0.016 A 
ATOM     14  C   UNL     1      -5.567  -9.875  34.433  1.00  0.00     0.051 A 
ATOM     15  C   UNL     1      -6.279 -10.802  35.206  1.00  0.00     0.157 A 
ATOM     16  C   UNL     1      -5.595 -12.572  33.693  1.00  0.00     0.062 A 
ATOM     17  C   UNL     1      -6.296 -12.152  34.833  1.00  0.00     0.158 A 
BRANCH  15  18
ATOM     18  O   UNL     1      -6.974 -10.389  36.342  1.00  0.00    -0.504 OA
ATOM     19  H   UNL     1      -7.336 -11.056  37.014  1.00  0.00     0.293 HD
ENDBRANCH  15  18
BRANCH  17  20
ATOM     20  O   UNL     1      -7.017 -13.069  35.595  1.00  0.00    -0.504 OA
ATOM     21  H   UNL     1      -6.659 -13.998  35.785  1.00  0.00     0.293 HD
ENDBRANCH  17  20
ENDBRANCH   1  12
BRANCH   2  22
ATOM     22  O   UNL     1      -2.023 -11.177  32.536  1.00  0.00    -0.502 OA
ATOM     23  H   UNL     1      -1.030 -10.994  32.447  1.00  0.00     0.293 HD
ENDBRANCH   2  22
BRANCH   9  24
ATOM     24  O   UNL     1      -5.322 -14.732  26.468  1.00  0.00    -0.508 OA
ATOM     25  H   UNL     1      -4.928 -15.246  25.689  1.00  0.00     0.293 HD
ENDBRANCH   9  24
TORSDOF 5
ENDMDL
MODEL 2
REMARK VINA RESULT:    -5.749      1.857      2.569
REMARK INTER + INTRA:          -6.827
REMARK INTER:                  -6.711
REMARK INTRA:                  -0.115
REMARK UNBOUND:                -0.069
REMARK SMILES O=c1c(O)c(-c2ccc(O)c(O)c2)oc2cc(O)ccc12
REMARK SMILES IDX 5 1 3 2 2 3 1 4 21 5 15 6 14 7 16 8 17 9 19 10 20 11 6 12
REMARK SMILES IDX 7 13 8 14 9 15 13 16 11 17 10 18 12 20 4 22 18 24
REMARK H PARENT 10 19 12 21 4 23 18 25
REMARK Flexibility Score: inf
ROOT
ATOM      1  C   UNL     1      -4.435 -11.495  31.961  1.00  0.00     0.180 A 
ATOM      2  C   UNL     1      -4.829 -10.764  30.820  1.00  0.00     0.208 A 
ATOM      3  C   UNL     1      -4.139 -10.967  29.615  1.00  0.00     0.235 A 
ATOM      4  O   UNL     1      -4.465 -10.317  28.584  1.00  0.00    -0.285 OA
ATOM      5  C   UNL     1      -3.094 -11.903  29.567  1.00  0.00     0.069 A 
ATOM      6  C   UNL     1      -2.778 -12.613  30.746  1.00  0.00     0.142 A 
ATOM      7  O   UNL     1      -3.449 -12.385  31.869  1.00  0.00    -0.452 OA
ATOM      8  C   UNL     1      -1.748 -13.562  30.736  1.00  0.00     0.094 A 
ATOM      9  C   UNL     1      -1.029 -13.811  29.562  1.00  0.00     0.119 A 
ATOM     10  C   UNL     1      -1.340 -13.107  28.391  1.00  0.00     0.047 A 
ATOM     11  C   UNL     1      -2.367 -12.158  28.390  1.00  0.00     0.020 A 
ENDROOT
BRANCH   1  12
ATOM     12  C   UNL     1      -5.101 -11.324  33.272  1.00  0.00     0.025 A 
ATOM     13  C   UNL     1      -5.082 -10.066  33.896  1.00  0.00     0.016 A 
ATOM     14  C   UNL     1      -5.721  -9.875  35.123  1.00  0.00     0.051 A 
ATOM     15  C   UNL     1      -6.402 -10.935  35.736  1.00  0.00     0.157 A 
ATOM     16  C   UNL     1      -5.804 -12.379  33.881  1.00  0.00     0.062 A 
ATOM     17  C   UNL     1      -6.447 -12.187  35.112  1.00  0.00     0.158 A 
BRANCH  15  18
ATOM     18  O   UNL     1      -7.040 -10.749  36.962  1.00  0.00    -0.504 OA
ATOM     19  H   UNL     1      -7.701  -9.995  37.107  1.00  0.00     0.293 HD
ENDBRANCH  15  18
BRANCH  17  20
ATOM     20  O   UNL     1      -7.137 -13.236  35.718  1.00  0.00    -0.504 OA
ATOM     21  H   UNL     1      -7.123 -14.173  35.333  1.00  0.00     0.293 HD
ENDBRANCH  17  20
ENDBRANCH   1  12
BRANCH   2  22
ATOM     22  O   UNL     1      -5.904  -9.875  30.886  1.00  0.00    -0.502 OA
ATOM     23  H   UNL     1      -6.237  -9.366  30.076  1.00  0.00     0.293 HD
ENDBRANCH   2  22
BRANCH   9  24
ATOM     24  O   UNL     1      -0.008 -14.758  29.571  1.00  0.00    -0.508 OA
ATOM     25  H   UNL     1       0.163 -15.345  30.379  1.00  0.00     0.293 HD
ENDBRANCH   9  24
TORSDOF 5
ENDMDL
MODEL 3
REMARK VINA RESULT:    -5.571      1.922      6.880
REMARK INTER + INTRA:          -6.617
REMARK INTER:                  -6.478
REMARK INTRA:                  -0.139
REMARK UNBOUND:                -0.069
REMARK SMILES O=c1c(O)c(-c2ccc(O)c(O)c2)oc2cc(O)ccc12
REMARK SMILES IDX 5 1 3 2 2 3 1 4 21 5 15 6 14 7 16 8 17 9 19 10 20 11 6 12
REMARK SMILES IDX 7 13 8 14 9 15 13 16 11 17 10 18 12 20 4 22 18 24
REMARK H PARENT 10 19 12 21 4 23 18 25
REMARK Flexibility Score: inf
ROOT
ATOM      1  C   UNL     1      -4.731 -12.756  31.278  1.00  0.00     0.180 A 
ATOM      2  C   UNL     1      -5.108 -14.069  31.629  1.00  0.00     0.208 A 
ATOM      3  C   UNL     1      -5.673 -14.296  32.893  1.00  0.00     0.235 A 
ATOM      4  O   UNL     1      -6.009 -15.463  33.235  1.00  0.00    -0.285 OA
ATOM      5  C   UNL     1      -5.866 -13.215  33.767  1.00  0.00     0.069 A 
ATOM      6  C   UNL     1      -5.485 -11.927  33.332  1.00  0.00     0.142 A 
ATOM      7  O   UNL     1      -4.946 -11.755  32.130  1.00  0.00    -0.452 OA
ATOM      8  C   UNL     1      -5.671 -10.822  34.171  1.00  0.00     0.094 A 
ATOM      9  C   UNL     1      -6.234 -10.986  35.441  1.00  0.00     0.119 A 
ATOM     10  C   UNL     1      -6.612 -12.263  35.876  1.00  0.00     0.047 A 
ATOM     11  C   UNL     1      -6.432 -13.373  35.046  1.00  0.00     0.020 A 
ENDROOT
BRANCH   1  12
ATOM     12  C   UNL     1      -4.113 -12.439  29.971  1.00  0.00     0.025 A 
ATOM     13  C   UNL     1      -4.724 -11.495  29.129  1.00  0.00     0.016 A 
ATOM     14  C   UNL     1      -4.148 -11.165  27.901  1.00  0.00     0.051 A 
ATOM     15  C   UNL     1      -2.943 -11.760  27.503  1.00  0.00     0.157 A 
ATOM     16  C   UNL     1      -2.893 -13.018  29.578  1.00  0.00     0.062 A 
ATOM     17  C   UNL     1      -2.313 -12.685  28.345  1.00  0.00     0.158 A 
BRANCH  15  18
ATOM     18  O   UNL     1      -2.365 -11.434  26.277  1.00  0.00    -0.504 OA
ATOM     19  H   UNL     1      -1.935 -10.530  26.117  1.00  0.00     0.293 HD
ENDBRANCH  15  18
BRANCH  17  20
ATOM     20  O   UNL     1      -1.107 -13.265  27.953  1.00  0.00    -0.504 OA
ATOM     21  H   UNL     1      -0.664 -13.023  27.075  1.00  0.00     0.293 HD
ENDBRANCH  17  20
ENDBRANCH   1  12
BRANCH   2  22
ATOM     22  O   UNL     1      -4.948 -15.117  30.720  1.00  0.00    -0.502 OA
ATOM     23  H   UNL     1      -5.337 -15.088  29.784  1.00  0.00     0.293 HD
ENDBRANCH   2  22
BRANCH   9  24
ATOM     24  O   UNL     1      -6.411  -9.875  36.262  1.00  0.00    -0.508 OA
ATOM     25  H   UNL     1      -5.622  -9.365  36.640  1.00  0.00     0.293 HD
ENDBRANCH   9  24
TORSDOF 5
ENDMDL
MODEL 4
REMARK VINA RESULT:    -5.442      1.611      3.375
REMARK INTER + INTRA:          -6.466
REMARK INTER:                  -6.222
REMARK INTRA:                  -0.243
REMARK UNBOUND:                -0.069
REMARK SMILES O=c1c(O)c(-c2ccc(O)c(O)c2)oc2cc(O)ccc12
REMARK SMILES IDX 5 1 3 2 2 3 1 4 21 5 15 6 14 7 16 8 17 9 19 10 20 11 6 12
REMARK SMILES IDX 7 13 8 14 9 15 13 16 11 17 10 18 12 20 4 22 18 24
REMARK H PARENT 10 19 12 21 4 23 18 25
REMARK Flexibility Score: inf
ROOT
ATOM      1  C   UNL     1      -4.245 -12.400  32.277  1.00  0.00     0.180 A 
ATOM      2  C   UNL     1      -4.674 -13.061  31.106  1.00  0.00     0.208 A 
ATOM      3  C   UNL     1      -3.713 -13.471  30.170  1.00  0.00     0.235 A 
ATOM      4  O   UNL     1      -4.072 -14.054  29.110  1.00  0.00    -0.285 OA
ATOM      5  C   UNL     1      -2.353 -13.232  30.426  1.00  0.00     0.069 A 
ATOM      6  C   UNL     1      -2.004 -12.587  31.632  1.00  0.00     0.142 A 
ATOM      7  O   UNL     1      -2.945 -12.207  32.489  1.00  0.00    -0.452 OA
ATOM      8  C   UNL     1      -0.658 -12.340  31.929  1.00  0.00     0.094 A 
ATOM      9  C   UNL     1       0.345 -12.730  31.035  1.00  0.00     0.119 A 
ATOM     10  C   UNL     1       0.000 -13.370  29.837  1.00  0.00     0.047 A 
ATOM     11  C   UNL     1      -1.340 -13.622  29.532  1.00  0.00     0.020 A 
ENDROOT
BRANCH   1  12
ATOM     12  C   UNL     1      -5.199 -11.921  33.303  1.00  0.00     0.025 A 
ATOM     13  C   UNL     1      -5.503 -10.552  33.377  1.00  0.00     0.016 A 
ATOM     14  C   UNL     1      -6.416 -10.081  34.323  1.00  0.00     0.051 A 
ATOM     15  C   UNL     1      -7.050 -10.973  35.198  1.00  0.00     0.157 A 
ATOM     16  C   UNL     1      -5.854 -12.816  34.168  1.00  0.00     0.062 A 
ATOM     17  C   UNL     1      -6.771 -12.343  35.118  1.00  0.00     0.158 A 
BRANCH  15  18
ATOM     18  O   UNL     1      -7.961 -10.506  36.145  1.00  0.00    -0.504 OA
ATOM     19  H   UNL     1      -8.684 -11.105  36.526  1.00  0.00     0.293 HD
ENDBRANCH  15  18
BRANCH  17  20
ATOM     20  O   UNL     1      -7.415 -13.229  35.980  1.00  0.00    -0.504 OA
ATOM     21  H   UNL     1      -7.094 -14.183  36.095  1.00  0.00     0.293 HD
ENDBRANCH  17  20
ENDBRANCH   1  12
BRANCH   2  22
ATOM     22  O   UNL     1      -6.030 -13.327  30.901  1.00  0.00    -0.502 OA
ATOM     23  H   UNL     1      -6.446 -14.224  31.126  1.00  0.00     0.293 HD
ENDBRANCH   2  22
BRANCH   9  24
ATOM     24  O   UNL     1       1.678 -12.477  31.347  1.00  0.00    -0.508 OA
ATOM     25  H   UNL     1       2.163 -11.665  30.981  1.00  0.00     0.293 HD
ENDBRANCH   9  24
TORSDOF 5
ENDMDL
MODEL 5
REMARK VINA RESULT:    -5.219      1.628      3.635
REMARK INTER + INTRA:          -6.203
REMARK INTER:                  -6.038
REMARK INTRA:                  -0.165
REMARK UNBOUND:                -0.069
REMARK SMILES O=c1c(O)c(-c2ccc(O)c(O)c2)oc2cc(O)ccc12
REMARK SMILES IDX 5 1 3 2 2 3 1 4 21 5 15 6 14 7 16 8 17 9 19 10 20 11 6 12
REMARK SMILES IDX 7 13 8 14 9 15 13 16 11 17 10 18 12 20 4 22 18 24
REMARK H PARENT 10 19 12 21 4 23 18 25
REMARK Flexibility Score: inf
ROOT
ATOM      1  C   UNL     1      -4.284 -12.914  32.100  1.00  0.00     0.180 A 
ATOM      2  C   UNL     1      -4.694 -13.397  30.839  1.00  0.00     0.208 A 
ATOM      3  C   UNL     1      -3.726 -13.592  29.842  1.00  0.00     0.235 A 
ATOM      4  O   UNL     1      -4.068 -14.012  28.703  1.00  0.00    -0.285 OA
ATOM      5  C   UNL     1      -2.377 -13.324  30.127  1.00  0.00     0.069 A 
ATOM      6  C   UNL     1      -2.046 -12.867  31.421  1.00  0.00     0.142 A 
ATOM      7  O   UNL     1      -2.993 -12.687  32.335  1.00  0.00    -0.452 OA
ATOM      8  C   UNL     1      -0.711 -12.598  31.747  1.00  0.00     0.094 A 
ATOM      9  C   UNL     1       0.298 -12.779  30.796  1.00  0.00     0.119 A 
ATOM     10  C   UNL     1      -0.028 -13.231  29.510  1.00  0.00     0.047 A 
ATOM     11  C   UNL     1      -1.357 -13.503  29.175  1.00  0.00     0.020 A 
ENDROOT
BRANCH   1  12
ATOM     12  C   UNL     1      -5.247 -12.666  33.196  1.00  0.00     0.025 A 
ATOM     13  C   UNL     1      -5.912 -13.751  33.791  1.00  0.00     0.016 A 
ATOM     14  C   UNL     1      -6.809 -13.542  34.841  1.00  0.00     0.051 A 
ATOM     15  C   UNL     1      -7.042 -12.247  35.323  1.00  0.00     0.157 A 
ATOM     16  C   UNL     1      -5.468 -11.370  33.698  1.00  0.00     0.062 A 
ATOM     17  C   UNL     1      -6.368 -11.160  34.753  1.00  0.00     0.158 A 
BRANCH  15  18
ATOM     18  O   UNL     1      -7.938 -12.034  36.370  1.00  0.00    -0.504 OA
ATOM     19  H   UNL     1      -8.782 -12.587  36.466  1.00  0.00     0.293 HD
ENDBRANCH  15  18
BRANCH  17  20
ATOM     20  O   UNL     1      -6.591  -9.875  35.244  1.00  0.00    -0.504 OA
ATOM     21  H   UNL     1      -6.965  -9.140  34.656  1.00  0.00     0.293 HD
ENDBRANCH  17  20
ENDBRANCH   1  12
BRANCH   2  22
ATOM     22  O   UNL     1      -6.036 -13.701  30.600  1.00  0.00    -0.502 OA
ATOM     23  H   UNL     1      -6.326 -14.573  30.174  1.00  0.00     0.293 HD
ENDBRANCH   2  22
BRANCH   9  24
ATOM     24  O   UNL     1       1.621 -12.506  31.138  1.00  0.00    -0.508 OA
ATOM     25  H   UNL     1       1.871 -12.175  32.062  1.00  0.00     0.293 HD
ENDBRANCH   9  24
TORSDOF 5
ENDMDL
MODEL 6
REMARK VINA RESULT:    -4.780      1.923      2.810
REMARK INTER + INTRA:          -5.687
REMARK INTER:                  -6.142
REMARK INTRA:                   0.455
REMARK UNBOUND:                -0.069
REMARK SMILES O=c1c(O)c(-c2ccc(O)c(O)c2)oc2cc(O)ccc12
REMARK SMILES IDX 5 1 3 2 2 3 1 4 21 5 15 6 14 7 16 8 17 9 19 10 20 11 6 12
REMARK SMILES IDX 7 13 8 14 9 15 13 16 11 17 10 18 12 20 4 22 18 24
REMARK H PARENT 10 19 12 21 4 23 18 25
REMARK Flexibility Score: inf
ROOT
ATOM      1  C   UNL     1      -5.343 -12.190  32.660  1.00  0.00     0.180 A 
ATOM      2  C   UNL     1      -5.503 -13.539  32.281  1.00  0.00     0.208 A 
ATOM      3  C   UNL     1      -5.137 -13.925  30.983  1.00  0.00     0.235 A 
ATOM      4  O   UNL     1      -5.280 -15.124  30.616  1.00  0.00    -0.285 OA
ATOM      5  C   UNL     1      -4.605 -12.970  30.102  1.00  0.00     0.069 A 
ATOM      6  C   UNL     1      -4.454 -11.645  30.565  1.00  0.00     0.142 A 
ATOM      7  O   UNL     1      -4.821 -11.318  31.799  1.00  0.00    -0.452 OA
ATOM      8  C   UNL     1      -3.918 -10.666  29.721  1.00  0.00     0.094 A 
ATOM      9  C   UNL     1      -3.531 -10.993  28.417  1.00  0.00     0.119 A 
ATOM     10  C   UNL     1      -3.681 -12.307  27.954  1.00  0.00     0.047 A 
ATOM     11  C   UNL     1      -4.214 -13.293  28.789  1.00  0.00     0.020 A 
ENDROOT
BRANCH   1  12
ATOM     12  C   UNL     1      -5.722 -11.701  34.004  1.00  0.00     0.025 A 
ATOM     13  C   UNL     1      -5.469 -10.363  34.350  1.00  0.00     0.016 A 
ATOM     14  C   UNL     1      -5.838  -9.875  35.605  1.00  0.00     0.051 A 
ATOM     15  C   UNL     1      -6.480 -10.712  36.528  1.00  0.00     0.157 A 
ATOM     16  C   UNL     1      -6.386 -12.532  34.926  1.00  0.00     0.062 A 
ATOM     17  C   UNL     1      -6.757 -12.041  36.186  1.00  0.00     0.158 A 
BRANCH  15  18
ATOM     18  O   UNL     1      -6.847 -10.228  37.783  1.00  0.00    -0.504 OA
ATOM     19  H   UNL     1      -6.161  -9.858  38.431  1.00  0.00     0.293 HD
ENDBRANCH  15  18
BRANCH  17  20
ATOM     20  O   UNL     1      -7.409 -12.867  37.100  1.00  0.00    -0.504 OA
ATOM     21  H   UNL     1      -7.091 -12.950  38.059  1.00  0.00     0.293 HD
ENDBRANCH  17  20
ENDBRANCH   1  12
BRANCH   2  22
ATOM     22  O   UNL     1      -5.989 -14.477  33.195  1.00  0.00    -0.502 OA
ATOM     23  H   UNL     1      -6.769 -14.280  33.811  1.00  0.00     0.293 HD
ENDBRANCH   2  22
BRANCH   9  24
ATOM     24  O   UNL     1      -3.000 -10.006  27.590  1.00  0.00    -0.508 OA
ATOM     25  H   UNL     1      -3.573  -9.520  26.910  1.00  0.00     0.293 HD
ENDBRANCH   9  24
TORSDOF 5
ENDMDL
MODEL 7
REMARK VINA RESULT:    -3.885      1.874      3.297
REMARK INTER + INTRA:          -4.635
REMARK INTER:                  -5.099
REMARK INTRA:                   0.464
REMARK UNBOUND:                -0.069
REMARK SMILES O=c1c(O)c(-c2ccc(O)c(O)c2)oc2cc(O)ccc12
REMARK SMILES IDX 5 1 3 2 2 3 1 4 21 5 15 6 14 7 16 8 17 9 19 10 20 11 6 12
REMARK SMILES IDX 7 13 8 14 9 15 13 16 11 17 10 18 12 20 4 22 18 24
REMARK H PARENT 10 19 12 21 4 23 18 25
REMARK Flexibility Score: inf
ROOT
ATOM      1  C   UNL     1      -5.177 -13.032  30.732  1.00  0.00     0.180 A 
ATOM      2  C   UNL     1      -5.595 -14.214  30.084  1.00  0.00     0.208 A 
ATOM      3  C   UNL     1      -5.297 -14.381  28.723  1.00  0.00     0.235 A 
ATOM      4  O   UNL     1      -5.669 -15.425  28.119  1.00  0.00    -0.285 OA
ATOM      5  C   UNL     1      -4.579 -13.383  28.046  1.00  0.00     0.069 A 
ATOM      6  C   UNL     1      -4.175 -12.241  28.771  1.00  0.00     0.142 A 
ATOM      7  O   UNL     1      -4.485 -12.117  30.057  1.00  0.00    -0.452 OA
ATOM      8  C   UNL     1      -3.449 -11.229  28.134  1.00  0.00     0.094 A 
ATOM      9  C   UNL     1      -3.119 -11.341  26.779  1.00  0.00     0.119 A 
ATOM     10  C   UNL     1      -3.519 -12.474  26.056  1.00  0.00     0.047 A 
ATOM     11  C   UNL     1      -4.244 -13.491  26.683  1.00  0.00     0.020 A 
ENDROOT
BRANCH   1  12
ATOM     12  C   UNL     1      -5.468 -12.775  32.160  1.00  0.00     0.025 A 
ATOM     13  C   UNL     1      -5.801 -13.849  33.001  1.00  0.00     0.016 A 
ATOM     14  C   UNL     1      -6.059 -13.632  34.357  1.00  0.00     0.051 A 
ATOM     15  C   UNL     1      -5.971 -12.341  34.895  1.00  0.00     0.157 A 
ATOM     16  C   UNL     1      -5.361 -11.484  32.708  1.00  0.00     0.062 A 
ATOM     17  C   UNL     1      -5.618 -11.266  34.070  1.00  0.00     0.158 A 
BRANCH  15  18
ATOM     18  O   UNL     1      -6.230 -12.121  36.247  1.00  0.00    -0.504 OA
ATOM     19  H   UNL     1      -6.368 -12.890  36.892  1.00  0.00     0.293 HD
ENDBRANCH  15  18
BRANCH  17  20
ATOM     20  O   UNL     1      -5.518  -9.986  34.611  1.00  0.00    -0.504 OA
ATOM     21  H   UNL     1      -4.735  -9.716  35.193  1.00  0.00     0.293 HD
ENDBRANCH  17  20
ENDBRANCH   1  12
BRANCH   2  22
ATOM     22  O   UNL     1      -6.265 -15.211  30.796  1.00  0.00    -0.502 OA
ATOM     23  H   UNL     1      -5.829 -16.094  31.035  1.00  0.00     0.293 HD
ENDBRANCH   2  22
BRANCH   9  24
ATOM     24  O   UNL     1      -2.396 -10.324  26.161  1.00  0.00    -0.508 OA
ATOM     25  H   UNL     1      -1.583 -10.524  25.590  1.00  0.00     0.293 HD
ENDBRANCH   9  24
TORSDOF 5
ENDMDL
