MODEL 1
REMARK VINA RESULT:    -4.333      0.000      0.000
REMARK INTER + INTRA:          -4.964
REMARK INTER:                  -4.713
REMARK INTRA:                  -0.250
REMARK UNBOUND:                -0.250
REMARK SMILES O=C([O-])c1ccccc1O
REMARK SMILES IDX 4 1 9 2 5 3 8 4 6 5 7 6 2 7 1 8 3 9 10 10
REMARK H PARENT 10 11
REMARK Flexibility Score: inf
ROOT
ATOM      1  C   UNL     1       8.665  -6.680  -7.624  1.00  0.00     0.039 A 
ATOM      2  C   UNL     1      10.041  -6.466  -7.373  1.00  0.00     0.124 A 
ATOM      3  C   UNL     1       8.277  -7.815  -8.362  1.00  0.00     0.014 A 
ATOM      4  C   UNL     1      10.990  -7.379  -7.859  1.00  0.00     0.047 A 
ATOM      5  C   UNL     1       9.233  -8.715  -8.839  1.00  0.00     0.001 A 
ATOM      6  C   UNL     1      10.586  -8.498  -8.588  1.00  0.00     0.004 A 
ENDROOT
BRANCH   1   7
ATOM      7  C   UNL     1       7.626  -5.739  -7.129  1.00  0.00     0.075 C 
ATOM      8  O   UNL     1       7.586  -5.418  -5.911  1.00  0.00    -0.545 OA
ATOM      9  O   UNL     1       6.680  -5.196  -7.990  1.00  0.00    -0.545 OA
ENDBRANCH   1   7
BRANCH   2  10
ATOM     10  O   UNL     1      10.471  -5.356  -6.646  1.00  0.00    -0.507 OA
ATOM     11  H   UNL     1      10.735  -5.429  -5.670  1.00  0.00     0.293 HD
ENDBRANCH   2  10
TORSDOF 2
ENDMDL
MODEL 2
REMARK VINA RESULT:    -4.332      0.098      1.022
REMARK INTER + INTRA:          -4.962
REMARK INTER:                  -4.708
REMARK INTRA:                  -0.254
REMARK UNBOUND:                -0.250
REMARK SMILES O=C([O-])c1ccccc1O
REMARK SMILES IDX 4 1 9 2 5 3 8 4 6 5 7 6 2 7 1 8 3 9 10 10
REMARK H PARENT 10 11
REMARK Flexibility Score: inf
ROOT
ATOM      1  C   UNL     1       8.646  -6.700  -7.617  1.00  0.00     0.039 A 
ATOM      2  C   UNL     1      10.030  -6.502  -7.398  1.00  0.00     0.124 A 
ATOM      3  C   UNL     1       8.229  -7.828  -8.353  1.00  0.00     0.014 A 
ATOM      4  C   UNL     1      10.958  -7.422  -7.911  1.00  0.00     0.047 A 
ATOM      5  C   UNL     1       9.164  -8.735  -8.857  1.00  0.00     0.001 A 
ATOM      6  C   UNL     1      10.525  -8.533  -8.636  1.00  0.00     0.004 A 
ENDROOT
BRANCH   1   7
ATOM      7  C   UNL     1       7.628  -5.751  -7.093  1.00  0.00     0.075 C 
ATOM      8  O   UNL     1       6.721  -5.311  -7.848  1.00  0.00    -0.545 OA
ATOM      9  O   UNL     1       7.654  -5.331  -5.769  1.00  0.00    -0.545 OA
ENDBRANCH   1   7
BRANCH   2  10
ATOM     10  O   UNL     1      10.488  -5.401  -6.676  1.00  0.00    -0.507 OA
ATOM     11  H   UNL     1      11.117  -5.506  -5.887  1.00  0.00     0.293 HD
ENDBRANCH   2  10
TORSDOF 2
ENDMDL
MODEL 3
REMARK VINA RESULT:    -4.269     17.552     18.580
REMARK INTER + INTRA:          -4.893
REMARK INTER:                  -4.650
REMARK INTRA:                  -0.243
REMARK UNBOUND:                -0.250
REMARK SMILES O=C([O-])c1ccccc1O
REMARK SMILES IDX 4 1 9 2 5 3 8 4 6 5 7 6 2 7 1 8 3 9 10 10
REMARK H PARENT 10 11
REMARK Flexibility Score: inf
ROOT
ATOM      1  C   UNL     1      20.525  -0.571 -20.703  1.00  0.00     0.039 A 
ATOM      2  C   UNL     1      21.059   0.339 -19.760  1.00  0.00     0.124 A 
ATOM      3  C   UNL     1      19.650  -1.580 -20.253  1.00  0.00     0.014 A 
ATOM      4  C   UNL     1      20.712   0.226 -18.405  1.00  0.00     0.047 A 
ATOM      5  C   UNL     1      19.314  -1.680 -18.900  1.00  0.00     0.001 A 
ATOM      6  C   UNL     1      19.843  -0.779 -17.979  1.00  0.00     0.004 A 
ENDROOT
BRANCH   1   7
ATOM      7  C   UNL     1      20.865  -0.489 -22.148  1.00  0.00     0.075 C 
ATOM      8  O   UNL     1      22.045  -0.236 -22.510  1.00  0.00    -0.545 OA
ATOM      9  O   UNL     1      19.897  -0.686 -23.125  1.00  0.00    -0.545 OA
ENDBRANCH   1   7
BRANCH   2  10
ATOM     10  O   UNL     1      21.928   1.353 -20.160  1.00  0.00    -0.507 OA
ATOM     11  H   UNL     1      22.343   1.994 -19.492  1.00  0.00     0.293 HD
ENDBRANCH   2  10
TORSDOF 2
ENDMDL
MODEL 4
REMARK VINA RESULT:    -4.227     16.064     16.533
REMARK INTER + INTRA:          -4.848
REMARK INTER:                  -4.687
REMARK INTRA:                  -0.161
REMARK UNBOUND:                -0.250
REMARK SMILES O=C([O-])c1ccccc1O
REMARK SMILES IDX 4 1 9 2 5 3 8 4 6 5 7 6 2 7 1 8 3 9 10 10
REMARK H PARENT 10 11
REMARK Flexibility Score: inf
ROOT
ATOM      1  C   UNL     1      11.416   4.098 -19.761  1.00  0.00     0.039 A 
ATOM      2  C   UNL     1      12.094   3.507 -18.670  1.00  0.00     0.124 A 
ATOM      3  C   UNL     1      11.473   5.498 -19.919  1.00  0.00     0.014 A 
ATOM      4  C   UNL     1      12.808   4.313 -17.769  1.00  0.00     0.047 A 
ATOM      5  C   UNL     1      12.187   6.287 -19.014  1.00  0.00     0.001 A 
ATOM      6  C   UNL     1      12.853   5.697 -17.942  1.00  0.00     0.004 A 
ENDROOT
BRANCH   1   7
ATOM      7  C   UNL     1      10.649   3.283 -20.739  1.00  0.00     0.075 C 
ATOM      8  O   UNL     1       9.521   2.812 -20.429  1.00  0.00    -0.545 OA
ATOM      9  O   UNL     1      11.152   3.021 -22.007  1.00  0.00    -0.545 OA
ENDBRANCH   1   7
BRANCH   2  10
ATOM     10  O   UNL     1      12.066   2.126 -18.475  1.00  0.00    -0.507 OA
ATOM     11  H   UNL     1      12.893   1.553 -18.603  1.00  0.00     0.293 HD
ENDBRANCH   2  10
TORSDOF 2
ENDMDL
MODEL 5
REMARK VINA RESULT:    -4.149      1.783      2.804
REMARK INTER + INTRA:          -4.763
REMARK INTER:                  -4.597
REMARK INTRA:                  -0.166
REMARK UNBOUND:                -0.250
REMARK SMILES O=C([O-])c1ccccc1O
REMARK SMILES IDX 4 1 9 2 5 3 8 4 6 5 7 6 2 7 1 8 3 9 10 10
REMARK H PARENT 10 11
REMARK Flexibility Score: inf
ROOT
ATOM      1  C   UNL     1       8.638  -5.856  -7.091  1.00  0.00     0.039 A 
ATOM      2  C   UNL     1       7.810  -5.358  -8.124  1.00  0.00     0.124 A 
ATOM      3  C   UNL     1       9.921  -6.337  -7.422  1.00  0.00     0.014 A 
ATOM      4  C   UNL     1       8.272  -5.349  -9.449  1.00  0.00     0.047 A 
ATOM      5  C   UNL     1      10.368  -6.322  -8.746  1.00  0.00     0.001 A 
ATOM      6  C   UNL     1       9.545  -5.829  -9.757  1.00  0.00     0.004 A 
ENDROOT
BRANCH   1   7
ATOM      7  C   UNL     1       8.189  -5.884  -5.674  1.00  0.00     0.075 C 
ATOM      8  O   UNL     1       8.147  -4.821  -4.999  1.00  0.00    -0.545 OA
ATOM      9  O   UNL     1       7.810  -7.074  -5.065  1.00  0.00    -0.545 OA
ENDBRANCH   1   7
BRANCH   2  10
ATOM     10  O   UNL     1       6.533  -4.871  -7.843  1.00  0.00    -0.507 OA
ATOM     11  H   UNL     1       5.707  -5.449  -7.953  1.00  0.00     0.293 HD
ENDBRANCH   2  10
TORSDOF 2
ENDMDL
MODEL 6
REMARK VINA RESULT:    -4.105     15.445     16.005
REMARK INTER + INTRA:          -4.715
REMARK INTER:                  -4.466
REMARK INTRA:                  -0.249
REMARK UNBOUND:                -0.250
REMARK SMILES O=C([O-])c1ccccc1O
REMARK SMILES IDX 4 1 9 2 5 3 8 4 6 5 7 6 2 7 1 8 3 9 10 10
REMARK H PARENT 10 11
REMARK Flexibility Score: inf
ROOT
ATOM      1  C   UNL     1      12.851   4.070 -18.186  1.00  0.00     0.039 A 
ATOM      2  C   UNL     1      11.995   3.219 -18.925  1.00  0.00     0.124 A 
ATOM      3  C   UNL     1      12.822   5.455 -18.447  1.00  0.00     0.014 A 
ATOM      4  C   UNL     1      11.139   3.760 -19.896  1.00  0.00     0.047 A 
ATOM      5  C   UNL     1      11.965   5.979 -19.418  1.00  0.00     0.001 A 
ATOM      6  C   UNL     1      11.125   5.134 -20.140  1.00  0.00     0.004 A 
ENDROOT
BRANCH   1   7
ATOM      7  C   UNL     1      13.773   3.540 -17.148  1.00  0.00     0.075 C 
ATOM      8  O   UNL     1      14.935   4.014 -17.028  1.00  0.00    -0.545 OA
ATOM      9  O   UNL     1      13.380   2.519 -16.292  1.00  0.00    -0.545 OA
ENDBRANCH   1   7
BRANCH   2  10
ATOM     10  O   UNL     1      11.989   1.843 -18.699  1.00  0.00    -0.507 OA
ATOM     11  H   UNL     1      11.186   1.269 -18.931  1.00  0.00     0.293 HD
ENDBRANCH   2  10
TORSDOF 2
ENDMDL
MODEL 7
REMARK VINA RESULT:    -4.105      2.748      3.677
REMARK INTER + INTRA:          -4.715
REMARK INTER:                  -4.460
REMARK INTRA:                  -0.255
REMARK UNBOUND:                -0.250
REMARK SMILES O=C([O-])c1ccccc1O
REMARK SMILES IDX 4 1 9 2 5 3 8 4 6 5 7 6 2 7 1 8 3 9 10 10
REMARK H PARENT 10 11
REMARK Flexibility Score: inf
ROOT
ATOM      1  C   UNL     1       9.350  -5.812  -9.429  1.00  0.00     0.039 A 
ATOM      2  C   UNL     1      10.146  -6.010  -8.276  1.00  0.00     0.124 A 
ATOM      3  C   UNL     1       7.958  -5.658  -9.274  1.00  0.00     0.014 A 
ATOM      4  C   UNL     1       9.545  -6.048  -7.008  1.00  0.00     0.047 A 
ATOM      5  C   UNL     1       7.373  -5.698  -8.006  1.00  0.00     0.001 A 
ATOM      6  C   UNL     1       8.165  -5.893  -6.876  1.00  0.00     0.004 A 
ENDROOT
BRANCH   1   7
ATOM      7  C   UNL     1       9.946  -5.764 -10.790  1.00  0.00     0.075 C 
ATOM      8  O   UNL     1       9.419  -6.407 -11.738  1.00  0.00    -0.545 OA
ATOM      9  O   UNL     1      11.088  -5.016 -11.048  1.00  0.00    -0.545 OA
ENDBRANCH   1   7
BRANCH   2  10
ATOM     10  O   UNL     1      11.529  -6.166  -8.381  1.00  0.00    -0.507 OA
ATOM     11  H   UNL     1      12.011  -6.063  -9.267  1.00  0.00     0.293 HD
ENDBRANCH   2  10
TORSDOF 2
ENDMDL
MODEL 8
REMARK VINA RESULT:    -4.021     23.443     24.141
REMARK INTER + INTRA:          -4.623
REMARK INTER:                  -4.440
REMARK INTRA:                  -0.184
REMARK UNBOUND:                -0.250
REMARK SMILES O=C([O-])c1ccccc1O
REMARK SMILES IDX 4 1 9 2 5 3 8 4 6 5 7 6 2 7 1 8 3 9 10 10
REMARK H PARENT 10 11
REMARK Flexibility Score: inf
ROOT
ATOM      1  C   UNL     1      23.989   7.635 -19.397  1.00  0.00     0.039 A 
ATOM      2  C   UNL     1      22.829   8.445 -19.448  1.00  0.00     0.124 A 
ATOM      3  C   UNL     1      25.097   8.082 -18.651  1.00  0.00     0.014 A 
ATOM      4  C   UNL     1      22.799   9.668 -18.760  1.00  0.00     0.047 A 
ATOM      5  C   UNL     1      25.053   9.302 -17.972  1.00  0.00     0.001 A 
ATOM      6  C   UNL     1      23.907  10.093 -18.026  1.00  0.00     0.004 A 
ENDROOT
BRANCH   1   7
ATOM      7  C   UNL     1      24.064   6.333 -20.110  1.00  0.00     0.075 C 
ATOM      8  O   UNL     1      24.934   5.480 -19.787  1.00  0.00    -0.545 OA
ATOM      9  O   UNL     1      23.184   6.027 -21.141  1.00  0.00    -0.545 OA
ENDBRANCH   1   7
BRANCH   2  10
ATOM     10  O   UNL     1      21.708   8.042 -20.174  1.00  0.00    -0.507 OA
ATOM     11  H   UNL     1      20.894   8.639 -20.272  1.00  0.00     0.293 HD
ENDBRANCH   2  10
TORSDOF 2
ENDMDL
MODEL 9
REMARK VINA RESULT:    -4.020     10.354     11.298
REMARK INTER + INTRA:          -4.622
REMARK INTER:                  -4.368
REMARK INTRA:                  -0.255
REMARK UNBOUND:                -0.250
REMARK SMILES O=C([O-])c1ccccc1O
REMARK SMILES IDX 4 1 9 2 5 3 8 4 6 5 7 6 2 7 1 8 3 9 10 10
REMARK H PARENT 10 11
REMARK Flexibility Score: inf
ROOT
ATOM      1  C   UNL     1      13.017   2.969  -4.654  1.00  0.00     0.039 A 
ATOM      2  C   UNL     1      12.386   3.093  -5.914  1.00  0.00     0.124 A 
ATOM      3  C   UNL     1      14.249   3.622  -4.444  1.00  0.00     0.014 A 
ATOM      4  C   UNL     1      12.989   3.855  -6.927  1.00  0.00     0.047 A 
ATOM      5  C   UNL     1      14.837   4.377  -5.461  1.00  0.00     0.001 A 
ATOM      6  C   UNL     1      14.208   4.494  -6.700  1.00  0.00     0.004 A 
ENDROOT
BRANCH   1   7
ATOM      7  C   UNL     1      12.415   2.172  -3.553  1.00  0.00     0.075 C 
ATOM      8  O   UNL     1      13.127   1.384  -2.875  1.00  0.00    -0.545 OA
ATOM      9  O   UNL     1      11.063   2.275  -3.249  1.00  0.00    -0.545 OA
ENDBRANCH   1   7
BRANCH   2  10
ATOM     10  O   UNL     1      11.166   2.465  -6.167  1.00  0.00    -0.507 OA
ATOM     11  H   UNL     1      11.023   1.481  -5.969  1.00  0.00     0.293 HD
ENDBRANCH   2  10
TORSDOF 2
ENDMDL
