MODEL 1
REMARK VINA RESULT:    -6.944      0.000      0.000
REMARK INTER + INTRA:          -8.955
REMARK INTER:                  -8.568
REMARK INTRA:                  -0.386
REMARK UNBOUND:                -0.386
REMARK SMILES COc1cc(-c2[o+]c3cc(O)cc(O)c3cc2O)ccc1O
REMARK SMILES IDX 6 1 7 2 8 3 9 4 10 5 12 6 13 7 15 8 16 9 17 10 5 11 3 12
REMARK SMILES IDX 21 13 4 14 20 15 19 16 2 17 1 18 22 19 18 21 11 23 14 25
REMARK H PARENT 22 20 18 22 11 24 14 26
REMARK Flexibility Score: inf
ROOT
ATOM      1  C   UNL     1     -21.907  14.712 -39.601  1.00  0.00     0.402 A 
ATOM      2  O   UNL     1     -22.973  14.854 -38.815  1.00  0.00    -0.202 OA
ATOM      3  C   UNL     1     -23.872  15.819 -38.976  1.00  0.00     0.368 A 
ATOM      4  C   UNL     1     -24.967  15.898 -38.110  1.00  0.00     0.162 A 
ATOM      5  C   UNL     1     -25.921  16.907 -38.271  1.00  0.00     0.128 A 
ATOM      6  C   UNL     1     -25.781  17.845 -39.302  1.00  0.00     0.093 A 
ATOM      7  C   UNL     1     -24.687  17.780 -40.178  1.00  0.00     0.136 A 
ATOM      8  C   UNL     1     -23.726  16.764 -40.016  1.00  0.00     0.125 A 
ATOM      9  C   UNL     1     -22.611  16.656 -40.853  1.00  0.00     0.078 A 
ATOM     10  C   UNL     1     -21.682  15.631 -40.646  1.00  0.00     0.223 A 
ENDROOT
BRANCH   1  11
ATOM     11  C   UNL     1     -20.980  13.590 -39.327  1.00  0.00     0.087 A 
ATOM     12  C   UNL     1     -19.127  12.601 -38.074  1.00  0.00     0.161 A 
ATOM     13  C   UNL     1     -19.205  11.455 -38.878  1.00  0.00     0.157 A 
ATOM     14  C   UNL     1     -20.013  13.671 -38.308  1.00  0.00     0.068 A 
ATOM     15  C   UNL     1     -20.152  11.382 -39.907  1.00  0.00     0.051 A 
ATOM     16  C   UNL     1     -21.027  12.444 -40.135  1.00  0.00     0.022 A 
BRANCH  12  17
ATOM     17  O   UNL     1     -18.156  12.642 -37.060  1.00  0.00    -0.493 OA
ATOM     18  C   UNL     1     -17.208  13.691 -36.892  1.00  0.00     0.278 C 
ENDBRANCH  12  17
BRANCH  13  19
ATOM     19  O   UNL     1     -18.332  10.392 -38.650  1.00  0.00    -0.504 OA
ATOM     20  H   UNL     1     -17.339  10.471 -38.836  1.00  0.00     0.293 HD
ENDBRANCH  13  19
ENDBRANCH   1  11
BRANCH  10  21
ATOM     21  O   UNL     1     -20.543  15.547 -41.445  1.00  0.00    -0.500 OA
ATOM     22  H   UNL     1     -19.638  15.307 -41.057  1.00  0.00     0.294 HD
ENDBRANCH  10  21
BRANCH   5  23
ATOM     23  O   UNL     1     -27.007  16.968 -37.400  1.00  0.00    -0.507 OA
ATOM     24  H   UNL     1     -27.412  17.854 -37.120  1.00  0.00     0.293 HD
ENDBRANCH   5  23
BRANCH   7  25
ATOM     25  O   UNL     1     -24.556  18.721 -41.201  1.00  0.00    -0.507 OA
ATOM     26  H   UNL     1     -24.463  18.441 -42.171  1.00  0.00     0.293 HD
ENDBRANCH   7  25
TORSDOF 6
ENDMDL
MODEL 2
REMARK VINA RESULT:    -6.819      4.496      8.169
REMARK INTER + INTRA:          -8.800
REMARK INTER:                  -8.463
REMARK INTRA:                  -0.337
REMARK UNBOUND:                -0.386
REMARK SMILES COc1cc(-c2[o+]c3cc(O)cc(O)c3cc2O)ccc1O
REMARK SMILES IDX 6 1 7 2 8 3 9 4 10 5 12 6 13 7 15 8 16 9 17 10 5 11 3 12
REMARK SMILES IDX 21 13 4 14 20 15 19 16 2 17 1 18 22 19 18 21 11 23 14 25
REMARK H PARENT 22 20 18 22 11 24 14 26
REMARK Flexibility Score: inf
ROOT
ATOM      1  C   UNL     1     -21.906  11.609 -35.029  1.00  0.00     0.402 A 
ATOM      2  O   UNL     1     -21.970  11.451 -36.350  1.00  0.00    -0.202 OA
ATOM      3  C   UNL     1     -20.894  11.331 -37.121  1.00  0.00     0.368 A 
ATOM      4  C   UNL     1     -21.046  11.164 -38.501  1.00  0.00     0.162 A 
ATOM      5  C   UNL     1     -19.923  11.034 -39.323  1.00  0.00     0.128 A 
ATOM      6  C   UNL     1     -18.638  11.072 -38.763  1.00  0.00     0.093 A 
ATOM      7  C   UNL     1     -18.470  11.241 -37.381  1.00  0.00     0.136 A 
ATOM      8  C   UNL     1     -19.602  11.372 -36.553  1.00  0.00     0.125 A 
ATOM      9  C   UNL     1     -19.494  11.551 -35.170  1.00  0.00     0.078 A 
ATOM     10  C   UNL     1     -20.649  11.682 -34.394  1.00  0.00     0.223 A 
ENDROOT
BRANCH   1  11
ATOM     11  C   UNL     1     -23.175  11.721 -34.275  1.00  0.00     0.087 A 
ATOM     12  C   UNL     1     -25.149  12.990 -33.582  1.00  0.00     0.161 A 
ATOM     13  C   UNL     1     -25.554  11.911 -32.784  1.00  0.00     0.157 A 
ATOM     14  C   UNL     1     -23.953  12.894 -34.321  1.00  0.00     0.068 A 
ATOM     15  C   UNL     1     -24.770  10.753 -32.720  1.00  0.00     0.051 A 
ATOM     16  C   UNL     1     -23.586  10.661 -33.453  1.00  0.00     0.022 A 
BRANCH  12  17
ATOM     17  O   UNL     1     -25.955  14.140 -33.612  1.00  0.00    -0.493 OA
ATOM     18  C   UNL     1     -25.508  15.429 -34.017  1.00  0.00     0.278 C 
ENDBRANCH  12  17
BRANCH  13  19
ATOM     19  O   UNL     1     -26.737  12.000 -32.053  1.00  0.00    -0.504 OA
ATOM     20  H   UNL     1     -27.621  11.680 -32.432  1.00  0.00     0.293 HD
ENDBRANCH  13  19
ENDBRANCH   1  11
BRANCH  10  21
ATOM     21  O   UNL     1     -20.548  11.911 -33.023  1.00  0.00    -0.500 OA
ATOM     22  H   UNL     1     -20.914  11.251 -32.345  1.00  0.00     0.294 HD
ENDBRANCH  10  21
BRANCH   5  23
ATOM     23  O   UNL     1     -20.093  10.866 -40.695  1.00  0.00    -0.507 OA
ATOM     24  H   UNL     1     -19.304  10.870 -41.332  1.00  0.00     0.293 HD
ENDBRANCH   5  23
BRANCH   7  25
ATOM     25  O   UNL     1     -17.186  11.279 -36.834  1.00  0.00    -0.507 OA
ATOM     26  H   UNL     1     -16.837  12.102 -36.356  1.00  0.00     0.293 HD
ENDBRANCH   7  25
TORSDOF 6
ENDMDL
MODEL 3
REMARK VINA RESULT:    -6.667      1.592      2.534
REMARK INTER + INTRA:          -8.612
REMARK INTER:                  -8.365
REMARK INTRA:                  -0.246
REMARK UNBOUND:                -0.386
REMARK SMILES COc1cc(-c2[o+]c3cc(O)cc(O)c3cc2O)ccc1O
REMARK SMILES IDX 6 1 7 2 8 3 9 4 10 5 12 6 13 7 15 8 16 9 17 10 5 11 3 12
REMARK SMILES IDX 21 13 4 14 20 15 19 16 2 17 1 18 22 19 18 21 11 23 14 25
REMARK H PARENT 22 20 18 22 11 24 14 26
REMARK Flexibility Score: inf
ROOT
ATOM      1  C   UNL     1     -21.899  15.342 -39.770  1.00  0.00     0.402 A 
ATOM      2  O   UNL     1     -22.502  15.982 -38.769  1.00  0.00    -0.202 OA
ATOM      3  C   UNL     1     -23.166  17.122 -38.931  1.00  0.00     0.368 A 
ATOM      4  C   UNL     1     -23.777  17.730 -37.829  1.00  0.00     0.162 A 
ATOM      5  C   UNL     1     -24.480  18.927 -37.986  1.00  0.00     0.128 A 
ATOM      6  C   UNL     1     -24.575  19.523 -39.251  1.00  0.00     0.093 A 
ATOM      7  C   UNL     1     -23.966  18.926 -40.366  1.00  0.00     0.136 A 
ATOM      8  C   UNL     1     -23.257  17.720 -40.207  1.00  0.00     0.125 A 
ATOM      9  C   UNL     1     -22.624  17.085 -41.280  1.00  0.00     0.078 A 
ATOM     10  C   UNL     1     -21.927  15.891 -41.068  1.00  0.00     0.223 A 
ENDROOT
BRANCH   1  11
ATOM     11  C   UNL     1     -21.197  14.074 -39.467  1.00  0.00     0.087 A 
ATOM     12  C   UNL     1     -20.896  11.666 -39.780  1.00  0.00     0.161 A 
ATOM     13  C   UNL     1     -19.872  11.677 -38.822  1.00  0.00     0.157 A 
ATOM     14  C   UNL     1     -21.562  12.867 -40.094  1.00  0.00     0.068 A 
ATOM     15  C   UNL     1     -19.524  12.872 -38.182  1.00  0.00     0.051 A 
ATOM     16  C   UNL     1     -20.186  14.060 -38.495  1.00  0.00     0.022 A 
BRANCH  12  17
ATOM     17  O   UNL     1     -21.225  10.446 -40.393  1.00  0.00    -0.493 OA
ATOM     18  C   UNL     1     -22.445   9.742 -40.184  1.00  0.00     0.278 C 
ENDBRANCH  12  17
BRANCH  13  19
ATOM     19  O   UNL     1     -19.208  10.492 -38.509  1.00  0.00    -0.504 OA
ATOM     20  H   UNL     1     -18.202  10.409 -38.594  1.00  0.00     0.293 HD
ENDBRANCH  13  19
ENDBRANCH   1  11
BRANCH  10  21
ATOM     21  O   UNL     1     -21.251  15.279 -42.123  1.00  0.00    -0.500 OA
ATOM     22  H   UNL     1     -20.466  15.726 -42.582  1.00  0.00     0.294 HD
ENDBRANCH  10  21
BRANCH   5  23
ATOM     23  O   UNL     1     -25.084  19.518 -36.878  1.00  0.00    -0.507 OA
ATOM     24  H   UNL     1     -25.982  19.983 -36.949  1.00  0.00     0.293 HD
ENDBRANCH   5  23
BRANCH   7  25
ATOM     25  O   UNL     1     -24.065  19.529 -41.620  1.00  0.00    -0.507 OA
ATOM     26  H   UNL     1     -23.260  19.946 -42.073  1.00  0.00     0.293 HD
ENDBRANCH   7  25
TORSDOF 6
ENDMDL
MODEL 4
REMARK VINA RESULT:    -6.581      1.143      2.671
REMARK INTER + INTRA:          -8.506
REMARK INTER:                  -8.076
REMARK INTRA:                  -0.430
REMARK UNBOUND:                -0.386
REMARK SMILES COc1cc(-c2[o+]c3cc(O)cc(O)c3cc2O)ccc1O
REMARK SMILES IDX 6 1 7 2 8 3 9 4 10 5 12 6 13 7 15 8 16 9 17 10 5 11 3 12
REMARK SMILES IDX 21 13 4 14 20 15 19 16 2 17 1 18 22 19 18 21 11 23 14 25
REMARK H PARENT 22 20 18 22 11 24 14 26
REMARK Flexibility Score: inf
ROOT
ATOM      1  C   UNL     1     -22.129  14.669 -39.410  1.00  0.00     0.402 A 
ATOM      2  O   UNL     1     -21.857  15.651 -40.267  1.00  0.00    -0.202 OA
ATOM      3  C   UNL     1     -22.680  16.670 -40.490  1.00  0.00     0.368 A 
ATOM      4  C   UNL     1     -22.320  17.665 -41.404  1.00  0.00     0.162 A 
ATOM      5  C   UNL     1     -23.176  18.744 -41.645  1.00  0.00     0.128 A 
ATOM      6  C   UNL     1     -24.401  18.830 -40.970  1.00  0.00     0.093 A 
ATOM      7  C   UNL     1     -24.777  17.838 -40.051  1.00  0.00     0.136 A 
ATOM      8  C   UNL     1     -23.915  16.752 -39.809  1.00  0.00     0.125 A 
ATOM      9  C   UNL     1     -24.242  15.731 -38.910  1.00  0.00     0.078 A 
ATOM     10  C   UNL     1     -23.352  14.670 -38.710  1.00  0.00     0.223 A 
ENDROOT
BRANCH   1  11
ATOM     11  C   UNL     1     -21.127  13.591 -39.240  1.00  0.00     0.087 A 
ATOM     12  C   UNL     1     -19.197  12.624 -38.091  1.00  0.00     0.161 A 
ATOM     13  C   UNL     1     -19.210  11.547 -38.989  1.00  0.00     0.157 A 
ATOM     14  C   UNL     1     -20.154  13.649 -38.225  1.00  0.00     0.068 A 
ATOM     15  C   UNL     1     -20.164  11.500 -40.013  1.00  0.00     0.051 A 
ATOM     16  C   UNL     1     -21.110  12.517 -40.143  1.00  0.00     0.022 A 
BRANCH  12  17
ATOM     17  O   UNL     1     -18.218  12.642 -37.084  1.00  0.00    -0.493 OA
ATOM     18  C   UNL     1     -17.213  13.642 -36.954  1.00  0.00     0.278 C 
ENDBRANCH  12  17
BRANCH  13  19
ATOM     19  O   UNL     1     -18.268  10.529 -38.859  1.00  0.00    -0.504 OA
ATOM     20  H   UNL     1     -17.323  10.632 -39.210  1.00  0.00     0.293 HD
ENDBRANCH  13  19
ENDBRANCH   1  11
BRANCH  10  21
ATOM     21  O   UNL     1     -23.693  13.624 -37.855  1.00  0.00    -0.500 OA
ATOM     22  H   UNL     1     -23.715  12.662 -38.174  1.00  0.00     0.294 HD
ENDBRANCH  10  21
BRANCH   5  23
ATOM     23  O   UNL     1     -22.799  19.727 -42.557  1.00  0.00    -0.507 OA
ATOM     24  H   UNL     1     -22.160  19.528 -43.318  1.00  0.00     0.293 HD
ENDBRANCH   5  23
BRANCH   7  25
ATOM     25  O   UNL     1     -26.000  17.933 -39.385  1.00  0.00    -0.507 OA
ATOM     26  H   UNL     1     -26.872  18.040 -39.890  1.00  0.00     0.293 HD
ENDBRANCH   7  25
TORSDOF 6
ENDMDL
MODEL 5
REMARK VINA RESULT:    -6.567      4.860      6.982
REMARK INTER + INTRA:          -8.489
REMARK INTER:                  -8.216
REMARK INTRA:                  -0.272
REMARK UNBOUND:                -0.386
REMARK SMILES COc1cc(-c2[o+]c3cc(O)cc(O)c3cc2O)ccc1O
REMARK SMILES IDX 6 1 7 2 8 3 9 4 10 5 12 6 13 7 15 8 16 9 17 10 5 11 3 12
REMARK SMILES IDX 21 13 4 14 20 15 19 16 2 17 1 18 22 19 18 21 11 23 14 25
REMARK H PARENT 22 20 18 22 11 24 14 26
REMARK Flexibility Score: inf
ROOT
ATOM      1  C   UNL     1     -23.750  17.829 -38.018  1.00  0.00     0.402 A 
ATOM      2  O   UNL     1     -24.794  17.004 -37.957  1.00  0.00    -0.202 OA
ATOM      3  C   UNL     1     -25.061  16.248 -36.897  1.00  0.00     0.368 A 
ATOM      4  C   UNL     1     -26.181  15.410 -36.908  1.00  0.00     0.162 A 
ATOM      5  C   UNL     1     -26.476  14.613 -35.799  1.00  0.00     0.128 A 
ATOM      6  C   UNL     1     -25.646  14.650 -34.670  1.00  0.00     0.093 A 
ATOM      7  C   UNL     1     -24.518  15.484 -34.644  1.00  0.00     0.136 A 
ATOM      8  C   UNL     1     -24.222  16.287 -35.762  1.00  0.00     0.125 A 
ATOM      9  C   UNL     1     -23.107  17.131 -35.795  1.00  0.00     0.078 A 
ATOM     10  C   UNL     1     -22.854  17.904 -36.932  1.00  0.00     0.223 A 
ENDROOT
BRANCH   1  11
ATOM     11  C   UNL     1     -23.561  18.628 -39.251  1.00  0.00     0.087 A 
ATOM     12  C   UNL     1     -23.433  20.778 -40.409  1.00  0.00     0.161 A 
ATOM     13  C   UNL     1     -23.251  20.104 -41.625  1.00  0.00     0.157 A 
ATOM     14  C   UNL     1     -23.595  20.035 -39.224  1.00  0.00     0.068 A 
ATOM     15  C   UNL     1     -23.239  18.705 -41.656  1.00  0.00     0.051 A 
ATOM     16  C   UNL     1     -23.401  17.971 -40.480  1.00  0.00     0.022 A 
BRANCH  12  17
ATOM     17  O   UNL     1     -23.451  22.182 -40.420  1.00  0.00    -0.493 OA
ATOM     18  C   UNL     1     -22.460  23.007 -39.816  1.00  0.00     0.278 C 
ENDBRANCH  12  17
BRANCH  13  19
ATOM     19  O   UNL     1     -23.087  20.835 -42.801  1.00  0.00    -0.504 OA
ATOM     20  H   UNL     1     -23.803  20.854 -43.518  1.00  0.00     0.293 HD
ENDBRANCH  13  19
ENDBRANCH   1  11
BRANCH  10  21
ATOM     21  O   UNL     1     -21.717  18.709 -36.992  1.00  0.00    -0.500 OA
ATOM     22  H   UNL     1     -21.664  19.509 -37.613  1.00  0.00     0.294 HD
ENDBRANCH  10  21
BRANCH   5  23
ATOM     23  O   UNL     1     -27.597  13.786 -35.828  1.00  0.00    -0.507 OA
ATOM     24  H   UNL     1     -28.454  14.070 -36.287  1.00  0.00     0.293 HD
ENDBRANCH   5  23
BRANCH   7  25
ATOM     25  O   UNL     1     -23.698  15.512 -33.516  1.00  0.00    -0.507 OA
ATOM     26  H   UNL     1     -23.950  16.042 -32.689  1.00  0.00     0.293 HD
ENDBRANCH   7  25
TORSDOF 6
ENDMDL
MODEL 6
REMARK VINA RESULT:    -6.548      4.609      7.255
REMARK INTER + INTRA:          -8.466
REMARK INTER:                  -8.240
REMARK INTRA:                  -0.226
REMARK UNBOUND:                -0.386
REMARK SMILES COc1cc(-c2[o+]c3cc(O)cc(O)c3cc2O)ccc1O
REMARK SMILES IDX 6 1 7 2 8 3 9 4 10 5 12 6 13 7 15 8 16 9 17 10 5 11 3 12
REMARK SMILES IDX 21 13 4 14 20 15 19 16 2 17 1 18 22 19 18 21 11 23 14 25
REMARK H PARENT 22 20 18 22 11 24 14 26
REMARK Flexibility Score: inf
ROOT
ATOM      1  C   UNL     1     -24.224  18.303 -38.710  1.00  0.00     0.402 A 
ATOM      2  O   UNL     1     -23.432  17.888 -37.722  1.00  0.00    -0.202 OA
ATOM      3  C   UNL     1     -23.803  16.978 -36.828  1.00  0.00     0.368 A 
ATOM      4  C   UNL     1     -22.911  16.592 -35.822  1.00  0.00     0.162 A 
ATOM      5  C   UNL     1     -23.287  15.633 -34.877  1.00  0.00     0.128 A 
ATOM      6  C   UNL     1     -24.563  15.055 -34.935  1.00  0.00     0.093 A 
ATOM      7  C   UNL     1     -25.469  15.433 -35.938  1.00  0.00     0.136 A 
ATOM      8  C   UNL     1     -25.090  16.400 -36.889  1.00  0.00     0.125 A 
ATOM      9  C   UNL     1     -25.955  16.821 -37.905  1.00  0.00     0.078 A 
ATOM     10  C   UNL     1     -25.531  17.788 -38.821  1.00  0.00     0.223 A 
ENDROOT
BRANCH   1  11
ATOM     11  C   UNL     1     -23.695  19.317 -39.651  1.00  0.00     0.087 A 
ATOM     12  C   UNL     1     -22.826  21.555 -40.121  1.00  0.00     0.161 A 
ATOM     13  C   UNL     1     -22.746  21.230 -41.483  1.00  0.00     0.157 A 
ATOM     14  C   UNL     1     -23.309  20.596 -39.209  1.00  0.00     0.068 A 
ATOM     15  C   UNL     1     -23.150  19.965 -41.927  1.00  0.00     0.051 A 
ATOM     16  C   UNL     1     -23.629  19.019 -41.020  1.00  0.00     0.022 A 
BRANCH  12  17
ATOM     17  O   UNL     1     -22.422  22.837 -39.715  1.00  0.00    -0.493 OA
ATOM     18  C   UNL     1     -21.197  23.124 -39.050  1.00  0.00     0.278 C 
ENDBRANCH  12  17
BRANCH  13  19
ATOM     19  O   UNL     1     -22.266  22.173 -42.390  1.00  0.00    -0.504 OA
ATOM     20  H   UNL     1     -21.363  22.068 -42.837  1.00  0.00     0.293 HD
ENDBRANCH  13  19
ENDBRANCH   1  11
BRANCH  10  21
ATOM     21  O   UNL     1     -26.404  18.249 -39.805  1.00  0.00    -0.500 OA
ATOM     22  H   UNL     1     -27.394  18.370 -39.623  1.00  0.00     0.294 HD
ENDBRANCH  10  21
BRANCH   5  23
ATOM     23  O   UNL     1     -22.385  15.259 -33.883  1.00  0.00    -0.507 OA
ATOM     24  H   UNL     1     -22.107  14.292 -33.757  1.00  0.00     0.293 HD
ENDBRANCH   5  23
BRANCH   7  25
ATOM     25  O   UNL     1     -26.738  14.853 -35.986  1.00  0.00    -0.507 OA
ATOM     26  H   UNL     1     -27.266  14.662 -35.142  1.00  0.00     0.293 HD
ENDBRANCH   7  25
TORSDOF 6
ENDMDL
MODEL 7
REMARK VINA RESULT:    -6.519      2.075      3.577
REMARK INTER + INTRA:          -8.429
REMARK INTER:                  -8.254
REMARK INTRA:                  -0.175
REMARK UNBOUND:                -0.386
REMARK SMILES COc1cc(-c2[o+]c3cc(O)cc(O)c3cc2O)ccc1O
REMARK SMILES IDX 6 1 7 2 8 3 9 4 10 5 12 6 13 7 15 8 16 9 17 10 5 11 3 12
REMARK SMILES IDX 21 13 4 14 20 15 19 16 2 17 1 18 22 19 18 21 11 23 14 25
REMARK H PARENT 22 20 18 22 11 24 14 26
REMARK Flexibility Score: inf
ROOT
ATOM      1  C   UNL     1     -23.293  15.449 -39.416  1.00  0.00     0.402 A 
ATOM      2  O   UNL     1     -23.058  16.252 -40.453  1.00  0.00    -0.202 OA
ATOM      3  C   UNL     1     -23.362  17.546 -40.454  1.00  0.00     0.368 A 
ATOM      4  C   UNL     1     -23.079  18.323 -41.582  1.00  0.00     0.162 A 
ATOM      5  C   UNL     1     -23.392  19.686 -41.594  1.00  0.00     0.128 A 
ATOM      6  C   UNL     1     -23.992  20.277 -40.474  1.00  0.00     0.093 A 
ATOM      7  C   UNL     1     -24.283  19.510 -39.336  1.00  0.00     0.136 A 
ATOM      8  C   UNL     1     -23.968  18.137 -39.324  1.00  0.00     0.125 A 
ATOM      9  C   UNL     1     -24.244  17.323 -38.221  1.00  0.00     0.078 A 
ATOM     10  C   UNL     1     -23.917  15.964 -38.262  1.00  0.00     0.223 A 
ENDROOT
BRANCH   1  11
ATOM     11  C   UNL     1     -22.900  14.026 -39.531  1.00  0.00     0.087 A 
ATOM     12  C   UNL     1     -21.209  12.293 -39.874  1.00  0.00     0.161 A 
ATOM     13  C   UNL     1     -22.208  11.312 -39.795  1.00  0.00     0.157 A 
ATOM     14  C   UNL     1     -21.561  13.651 -39.749  1.00  0.00     0.068 A 
ATOM     15  C   UNL     1     -23.543  11.686 -39.601  1.00  0.00     0.051 A 
ATOM     16  C   UNL     1     -23.888  13.032 -39.478  1.00  0.00     0.022 A 
BRANCH  12  17
ATOM     17  O   UNL     1     -19.883  11.880 -40.082  1.00  0.00    -0.493 OA
ATOM     18  C   UNL     1     -18.983  11.505 -39.045  1.00  0.00     0.278 C 
ENDBRANCH  12  17
BRANCH  13  19
ATOM     19  O   UNL     1     -21.865   9.967 -39.916  1.00  0.00    -0.504 OA
ATOM     20  H   UNL     1     -22.505   9.290 -40.314  1.00  0.00     0.293 HD
ENDBRANCH  13  19
ENDBRANCH   1  11
BRANCH  10  21
ATOM     21  O   UNL     1     -24.234  15.135 -37.186  1.00  0.00    -0.500 OA
ATOM     22  H   UNL     1     -25.120  14.646 -37.135  1.00  0.00     0.294 HD
ENDBRANCH  10  21
BRANCH   5  23
ATOM     23  O   UNL     1     -23.101  20.445 -42.726  1.00  0.00    -0.507 OA
ATOM     24  H   UNL     1     -23.779  20.572 -43.468  1.00  0.00     0.293 HD
ENDBRANCH   5  23
BRANCH   7  25
ATOM     25  O   UNL     1     -24.882  20.108 -38.227  1.00  0.00    -0.507 OA
ATOM     26  H   UNL     1     -25.665  19.676 -37.749  1.00  0.00     0.293 HD
ENDBRANCH   7  25
TORSDOF 6
ENDMDL
MODEL 8
REMARK VINA RESULT:    -6.466      2.319      7.078
REMARK INTER + INTRA:          -8.365
REMARK INTER:                  -7.941
REMARK INTRA:                  -0.423
REMARK UNBOUND:                -0.386
REMARK SMILES COc1cc(-c2[o+]c3cc(O)cc(O)c3cc2O)ccc1O
REMARK SMILES IDX 6 1 7 2 8 3 9 4 10 5 12 6 13 7 15 8 16 9 17 10 5 11 3 12
REMARK SMILES IDX 21 13 4 14 20 15 19 16 2 17 1 18 22 19 18 21 11 23 14 25
REMARK H PARENT 22 20 18 22 11 24 14 26
REMARK Flexibility Score: inf
ROOT
ATOM      1  C   UNL     1     -22.783  13.730 -38.288  1.00  0.00     0.402 A 
ATOM      2  O   UNL     1     -22.010  12.989 -37.495  1.00  0.00    -0.202 OA
ATOM      3  C   UNL     1     -20.984  12.274 -37.942  1.00  0.00     0.368 A 
ATOM      4  C   UNL     1     -20.218  11.524 -37.043  1.00  0.00     0.162 A 
ATOM      5  C   UNL     1     -19.133  10.770 -37.500  1.00  0.00     0.128 A 
ATOM      6  C   UNL     1     -18.810  10.764 -38.864  1.00  0.00     0.093 A 
ATOM      7  C   UNL     1     -19.570  11.510 -39.778  1.00  0.00     0.136 A 
ATOM      8  C   UNL     1     -20.662  12.269 -39.317  1.00  0.00     0.125 A 
ATOM      9  C   UNL     1     -21.459  13.024 -40.184  1.00  0.00     0.078 A 
ATOM     10  C   UNL     1     -22.537  13.756 -39.676  1.00  0.00     0.223 A 
ENDROOT
BRANCH   1  11
ATOM     11  C   UNL     1     -23.893  14.491 -37.671  1.00  0.00     0.087 A 
ATOM     12  C   UNL     1     -24.807  16.550 -36.717  1.00  0.00     0.161 A 
ATOM     13  C   UNL     1     -26.012  15.883 -36.452  1.00  0.00     0.157 A 
ATOM     14  C   UNL     1     -23.747  15.846 -37.321  1.00  0.00     0.068 A 
ATOM     15  C   UNL     1     -26.152  14.529 -36.780  1.00  0.00     0.051 A 
ATOM     16  C   UNL     1     -25.098  13.836 -37.377  1.00  0.00     0.022 A 
BRANCH  12  17
ATOM     17  O   UNL     1     -24.702  17.904 -36.363  1.00  0.00    -0.493 OA
ATOM     18  C   UNL     1     -24.845  18.990 -37.273  1.00  0.00     0.278 C 
ENDBRANCH  12  17
BRANCH  13  19
ATOM     19  O   UNL     1     -27.066  16.574 -35.858  1.00  0.00    -0.504 OA
ATOM     20  H   UNL     1     -27.581  17.290 -36.357  1.00  0.00     0.293 HD
ENDBRANCH  13  19
ENDBRANCH   1  11
BRANCH  10  21
ATOM     21  O   UNL     1     -23.366  14.470 -40.540  1.00  0.00    -0.500 OA
ATOM     22  H   UNL     1     -24.293  14.771 -40.260  1.00  0.00     0.294 HD
ENDBRANCH  10  21
BRANCH   5  23
ATOM     23  O   UNL     1     -18.380  10.031 -36.590  1.00  0.00    -0.507 OA
ATOM     24  H   UNL     1     -18.170  10.386 -35.664  1.00  0.00     0.293 HD
ENDBRANCH   5  23
BRANCH   7  25
ATOM     25  O   UNL     1     -19.241  11.495 -41.134  1.00  0.00    -0.507 OA
ATOM     26  H   UNL     1     -19.955  11.474 -41.853  1.00  0.00     0.293 HD
ENDBRANCH   7  25
TORSDOF 6
ENDMDL
MODEL 9
REMARK VINA RESULT:    -6.464      4.193      6.948
REMARK INTER + INTRA:          -8.362
REMARK INTER:                  -7.949
REMARK INTRA:                  -0.413
REMARK UNBOUND:                -0.386
REMARK SMILES COc1cc(-c2[o+]c3cc(O)cc(O)c3cc2O)ccc1O
REMARK SMILES IDX 6 1 7 2 8 3 9 4 10 5 12 6 13 7 15 8 16 9 17 10 5 11 3 12
REMARK SMILES IDX 21 13 4 14 20 15 19 16 2 17 1 18 22 19 18 21 11 23 14 25
REMARK H PARENT 22 20 18 22 11 24 14 26
REMARK Flexibility Score: inf
ROOT
ATOM      1  C   UNL     1     -18.200  12.367 -35.307  1.00  0.00     0.402 A 
ATOM      2  O   UNL     1     -19.502  12.642 -35.369  1.00  0.00    -0.202 OA
ATOM      3  C   UNL     1     -20.260  12.341 -36.418  1.00  0.00     0.368 A 
ATOM      4  C   UNL     1     -21.622  12.659 -36.404  1.00  0.00     0.162 A 
ATOM      5  C   UNL     1     -22.430  12.345 -37.500  1.00  0.00     0.128 A 
ATOM      6  C   UNL     1     -21.875  11.710 -38.620  1.00  0.00     0.093 A 
ATOM      7  C   UNL     1     -20.510  11.386 -38.650  1.00  0.00     0.136 A 
ATOM      8  C   UNL     1     -19.696  11.702 -37.545  1.00  0.00     0.125 A 
ATOM      9  C   UNL     1     -18.329  11.411 -37.523  1.00  0.00     0.078 A 
ATOM     10  C   UNL     1     -17.563  11.751 -36.404  1.00  0.00     0.223 A 
ENDROOT
BRANCH   1  11
ATOM     11  C   UNL     1     -17.463  12.743 -34.079  1.00  0.00     0.087 A 
ATOM     12  C   UNL     1     -16.144  14.340 -32.778  1.00  0.00     0.161 A 
ATOM     13  C   UNL     1     -16.027  13.395 -31.749  1.00  0.00     0.157 A 
ATOM     14  C   UNL     1     -16.858  14.007 -33.946  1.00  0.00     0.068 A 
ATOM     15  C   UNL     1     -16.610  12.130 -31.889  1.00  0.00     0.051 A 
ATOM     16  C   UNL     1     -17.316  11.803 -33.048  1.00  0.00     0.022 A 
BRANCH  12  17
ATOM     17  O   UNL     1     -15.535  15.594 -32.606  1.00  0.00    -0.493 OA
ATOM     18  C   UNL     1     -15.877  16.764 -33.341  1.00  0.00     0.278 C 
ENDBRANCH  12  17
BRANCH  13  19
ATOM     19  O   UNL     1     -15.325  13.720 -30.590  1.00  0.00    -0.504 OA
ATOM     20  H   UNL     1     -15.687  14.388 -29.920  1.00  0.00     0.293 HD
ENDBRANCH  13  19
ENDBRANCH   1  11
BRANCH  10  21
ATOM     21  O   UNL     1     -16.190  11.510 -36.395  1.00  0.00    -0.500 OA
ATOM     22  H   UNL     1     -15.565  11.971 -37.045  1.00  0.00     0.294 HD
ENDBRANCH  10  21
BRANCH   5  23
ATOM     23  O   UNL     1     -23.785  12.668 -37.468  1.00  0.00    -0.507 OA
ATOM     24  H   UNL     1     -24.126  13.473 -36.955  1.00  0.00     0.293 HD
ENDBRANCH   5  23
BRANCH   7  25
ATOM     25  O   UNL     1     -19.968  10.755 -39.770  1.00  0.00    -0.507 OA
ATOM     26  H   UNL     1     -20.244  11.014 -40.711  1.00  0.00     0.293 HD
ENDBRANCH   7  25
TORSDOF 6
ENDMDL
