MODEL 1
REMARK VINA RESULT:    -2.862      0.000      0.000
REMARK INTER + INTRA:          -3.240
REMARK INTER:                  -3.197
REMARK INTRA:                  -0.043
REMARK UNBOUND:                -0.043
REMARK SMILES CCCC(=O)[O-]
REMARK SMILES IDX 3 1 4 2 5 3 6 4 2 5 1 6
REMARK H PARENT
REMARK Flexibility Score: inf
ROOT
ATOM      1  C   UNL     1      -0.045   5.008   4.445  1.00  0.00     0.052 C 
ENDROOT
BRANCH   1   2
ATOM      2  C   UNL     1       0.925   4.323   5.359  1.00  0.00     0.041 C 
ATOM      3  O   UNL     1       2.163   4.515   5.226  1.00  0.00    -0.550 OA
ATOM      4  O   UNL     1       0.464   3.449   6.334  1.00  0.00    -0.550 OA
ENDBRANCH   1   2
BRANCH   1   5
ATOM      5  C   UNL     1       0.071   4.495   3.004  1.00  0.00     0.003 C 
ATOM      6  C   UNL     1      -0.865   3.318   2.728  1.00  0.00     0.004 C 
ENDBRANCH   1   5
TORSDOF 2
ENDMDL
MODEL 2
REMARK VINA RESULT:    -2.858      2.525      3.190
REMARK INTER + INTRA:          -3.235
REMARK INTER:                  -3.228
REMARK INTRA:                  -0.008
REMARK UNBOUND:                -0.043
REMARK SMILES CCCC(=O)[O-]
REMARK SMILES IDX 3 1 4 2 5 3 6 4 2 5 1 6
REMARK H PARENT
REMARK Flexibility Score: inf
ROOT
ATOM      1  C   UNL     1      -0.178   4.305   4.403  1.00  0.00     0.052 C 
ENDROOT
BRANCH   1   2
ATOM      2  C   UNL     1      -0.177   4.090   2.921  1.00  0.00     0.041 C 
ATOM      3  O   UNL     1       0.416   4.903   2.163  1.00  0.00    -0.550 OA
ATOM      4  O   UNL     1      -0.858   3.010   2.373  1.00  0.00    -0.550 OA
ENDBRANCH   1   2
BRANCH   1   5
ATOM      5  C   UNL     1      -0.115   2.979   5.171  1.00  0.00     0.003 C 
ATOM      6  C   UNL     1      -0.220   3.176   6.683  1.00  0.00     0.004 C 
ENDBRANCH   1   5
TORSDOF 2
ENDMDL
MODEL 3
REMARK VINA RESULT:    -2.840      7.271      8.090
REMARK INTER + INTRA:          -3.215
REMARK INTER:                  -3.184
REMARK INTRA:                  -0.031
REMARK UNBOUND:                -0.043
REMARK SMILES CCCC(=O)[O-]
REMARK SMILES IDX 3 1 4 2 5 3 6 4 2 5 1 6
REMARK H PARENT
REMARK Flexibility Score: inf
ROOT
ATOM      1  C   UNL     1       0.367   8.692  -2.321  1.00  0.00     0.052 C 
ENDROOT
BRANCH   1   2
ATOM      2  C   UNL     1       0.938   7.344  -2.639  1.00  0.00     0.041 C 
ATOM      3  O   UNL     1       0.739   6.373  -1.862  1.00  0.00    -0.550 OA
ATOM      4  O   UNL     1       1.715   7.168  -3.776  1.00  0.00    -0.550 OA
ENDBRANCH   1   2
BRANCH   1   5
ATOM      5  C   UNL     1      -0.608   8.632  -1.138  1.00  0.00     0.003 C 
ATOM      6  C   UNL     1      -2.034   9.013  -1.538  1.00  0.00     0.004 C 
ENDBRANCH   1   5
TORSDOF 2
ENDMDL
MODEL 4
REMARK VINA RESULT:    -2.801      7.605      8.471
REMARK INTER + INTRA:          -3.171
REMARK INTER:                  -3.132
REMARK INTRA:                  -0.038
REMARK UNBOUND:                -0.043
REMARK SMILES CCCC(=O)[O-]
REMARK SMILES IDX 3 1 4 2 5 3 6 4 2 5 1 6
REMARK H PARENT
REMARK Flexibility Score: inf
ROOT
ATOM      1  C   UNL     1       1.795   7.649  -3.620  1.00  0.00     0.052 C 
ENDROOT
BRANCH   1   2
ATOM      2  C   UNL     1       0.817   7.420  -2.508  1.00  0.00     0.041 C 
ATOM      3  O   UNL     1       0.797   6.318  -1.900  1.00  0.00    -0.550 OA
ATOM      4  O   UNL     1      -0.093   8.412  -2.167  1.00  0.00    -0.550 OA
ENDBRANCH   1   2
BRANCH   1   5
ATOM      5  C   UNL     1       2.568   6.371  -3.970  1.00  0.00     0.003 C 
ATOM      6  C   UNL     1       4.020   6.418  -3.494  1.00  0.00     0.004 C 
ENDBRANCH   1   5
TORSDOF 2
ENDMDL
MODEL 5
REMARK VINA RESULT:    -2.775      7.517      8.359
REMARK INTER + INTRA:          -3.143
REMARK INTER:                  -3.104
REMARK INTRA:                  -0.038
REMARK UNBOUND:                -0.043
REMARK SMILES CCCC(=O)[O-]
REMARK SMILES IDX 3 1 4 2 5 3 6 4 2 5 1 6
REMARK H PARENT
REMARK Flexibility Score: inf
ROOT
ATOM      1  C   UNL     1       1.725   7.721  -3.513  1.00  0.00     0.052 C 
ENDROOT
BRANCH   1   2
ATOM      2  C   UNL     1       0.739   7.499  -2.408  1.00  0.00     0.041 C 
ATOM      3  O   UNL     1      -0.141   8.366  -2.161  1.00  0.00    -0.550 OA
ATOM      4  O   UNL     1       0.813   6.352  -1.629  1.00  0.00    -0.550 OA
ENDBRANCH   1   2
BRANCH   1   5
ATOM      5  C   UNL     1       2.452   6.425  -3.897  1.00  0.00     0.003 C 
ATOM      6  C   UNL     1       3.924   6.440  -3.485  1.00  0.00     0.004 C 
ENDBRANCH   1   5
TORSDOF 2
ENDMDL
MODEL 6
REMARK VINA RESULT:    -2.555      7.731      8.582
REMARK INTER + INTRA:          -2.896
REMARK INTER:                  -2.869
REMARK INTRA:                  -0.027
REMARK UNBOUND:                -0.043
REMARK SMILES CCCC(=O)[O-]
REMARK SMILES IDX 3 1 4 2 5 3 6 4 2 5 1 6
REMARK H PARENT
REMARK Flexibility Score: inf
ROOT
ATOM      1  C   UNL     1       3.582   7.267  -2.910  1.00  0.00     0.052 C 
ENDROOT
BRANCH   1   2
ATOM      2  C   UNL     1       4.640   6.209  -2.975  1.00  0.00     0.041 C 
ATOM      3  O   UNL     1       5.210   5.949  -4.068  1.00  0.00    -0.550 OA
ATOM      4  O   UNL     1       4.974   5.487  -1.836  1.00  0.00    -0.550 OA
ENDBRANCH   1   2
BRANCH   1   5
ATOM      5  C   UNL     1       2.258   6.786  -3.517  1.00  0.00     0.003 C 
ATOM      6  C   UNL     1       1.197   6.507  -2.452  1.00  0.00     0.004 C 
ENDBRANCH   1   5
TORSDOF 2
ENDMDL
MODEL 7
REMARK VINA RESULT:    -2.505      2.431      3.066
REMARK INTER + INTRA:          -2.840
REMARK INTER:                  -2.822
REMARK INTRA:                  -0.018
REMARK UNBOUND:                -0.043
REMARK SMILES CCCC(=O)[O-]
REMARK SMILES IDX 3 1 4 2 5 3 6 4 2 5 1 6
REMARK H PARENT
REMARK Flexibility Score: inf
ROOT
ATOM      1  C   UNL     1       0.203   5.226   2.607  1.00  0.00     0.052 C 
ENDROOT
BRANCH   1   2
ATOM      2  C   UNL     1      -0.413   3.956   3.108  1.00  0.00     0.041 C 
ATOM      3  O   UNL     1      -0.903   3.127   2.295  1.00  0.00    -0.550 OA
ATOM      4  O   UNL     1      -0.476   3.702   4.471  1.00  0.00    -0.550 OA
ENDBRANCH   1   2
BRANCH   1   5
ATOM      5  C   UNL     1       0.016   6.380   3.601  1.00  0.00     0.003 C 
ATOM      6  C   UNL     1      -0.831   7.514   3.024  1.00  0.00     0.004 C 
ENDBRANCH   1   5
TORSDOF 2
ENDMDL
MODEL 8
REMARK VINA RESULT:    -2.504      7.715      8.554
REMARK INTER + INTRA:          -2.840
REMARK INTER:                  -2.816
REMARK INTRA:                  -0.024
REMARK UNBOUND:                -0.043
REMARK SMILES CCCC(=O)[O-]
REMARK SMILES IDX 3 1 4 2 5 3 6 4 2 5 1 6
REMARK H PARENT
REMARK Flexibility Score: inf
ROOT
ATOM      1  C   UNL     1       1.054   6.756  -2.404  1.00  0.00     0.052 C 
ENDROOT
BRANCH   1   2
ATOM      2  C   UNL     1       1.801   7.196  -3.625  1.00  0.00     0.041 C 
ATOM      3  O   UNL     1       2.640   6.427  -4.164  1.00  0.00    -0.550 OA
ATOM      4  O   UNL     1       1.595   8.466  -4.148  1.00  0.00    -0.550 OA
ENDBRANCH   1   2
BRANCH   1   5
ATOM      5  C   UNL     1       0.101   7.846  -1.896  1.00  0.00     0.003 C 
ATOM      6  C   UNL     1       0.297   8.144  -0.409  1.00  0.00     0.004 C 
ENDBRANCH   1   5
TORSDOF 2
ENDMDL
MODEL 9
REMARK VINA RESULT:    -2.455      7.756      8.223
REMARK INTER + INTRA:          -2.785
REMARK INTER:                  -2.777
REMARK INTRA:                  -0.008
REMARK UNBOUND:                -0.043
REMARK SMILES CCCC(=O)[O-]
REMARK SMILES IDX 3 1 4 2 5 3 6 4 2 5 1 6
REMARK H PARENT
REMARK Flexibility Score: inf
ROOT
ATOM      1  C   UNL     1       0.230   7.524  -1.889  1.00  0.00     0.052 C 
ENDROOT
BRANCH   1   2
ATOM      2  C   UNL     1      -0.638   8.745  -1.930  1.00  0.00     0.041 C 
ATOM      3  O   UNL     1      -0.139   9.867  -2.208  1.00  0.00    -0.550 OA
ATOM      4  O   UNL     1      -1.990   8.648  -1.629  1.00  0.00    -0.550 OA
ENDBRANCH   1   2
BRANCH   1   5
ATOM      5  C   UNL     1       1.327   7.570  -2.960  1.00  0.00     0.003 C 
ATOM      6  C   UNL     1       1.894   6.185  -3.272  1.00  0.00     0.004 C 
ENDBRANCH   1   5
TORSDOF 2
ENDMDL
