MODEL 1
REMARK VINA RESULT:    -5.063      0.000      0.000
REMARK INTER + INTRA:          -5.063
REMARK INTER:                  -5.063
REMARK INTRA:                   0.000
REMARK UNBOUND:                 0.000
REMARK SMILES CC1=CC(=O)[C@@H]2C[C@H]1C2(C)C
REMARK SMILES IDX 1 1 2 2 3 3 4 4 5 5 6 6 7 7 8 8 9 9 10 10 11 11
REMARK H PARENT
REMARK Flexibility Score: inf
ROOT
ATOM      1  C   UNL     1     -27.132   9.882 -32.388  1.00  0.00     0.040 C 
ATOM      2  C   UNL     1     -26.710  10.953 -31.432  1.00  0.00    -0.066 C 
ATOM      3  C   UNL     1     -26.667  12.261 -31.808  1.00  0.00     0.047 C 
ATOM      4  C   UNL     1     -26.258  13.242 -30.750  1.00  0.00     0.159 C 
ATOM      5  O   UNL     1     -26.218  14.482 -30.962  1.00  0.00    -0.295 OA
ATOM      6  C   UNL     1     -25.895  12.631 -29.396  1.00  0.00     0.067 C 
ATOM      7  C   UNL     1     -24.988  11.433 -29.753  1.00  0.00     0.021 C 
ATOM      8  C   UNL     1     -26.287  10.628 -29.983  1.00  0.00     0.022 C 
ATOM      9  C   UNL     1     -26.999  11.607 -29.004  1.00  0.00    -0.019 C 
ATOM     10  C   UNL     1     -26.883  11.150 -27.527  1.00  0.00     0.012 C 
ATOM     11  C   UNL     1     -28.483  11.976 -29.284  1.00  0.00     0.012 C 
ENDROOT
TORSDOF 0
ENDMDL
MODEL 2
REMARK VINA RESULT:    -5.048     10.661     12.179
REMARK INTER + INTRA:          -5.048
REMARK INTER:                  -5.048
REMARK INTRA:                   0.000
REMARK UNBOUND:                 0.000
REMARK SMILES CC1=CC(=O)[C@@H]2C[C@H]1C2(C)C
REMARK SMILES IDX 1 1 2 2 3 3 4 4 5 5 6 6 7 7 8 8 9 9 10 10 11 11
REMARK H PARENT
REMARK Flexibility Score: inf
ROOT
ATOM      1  C   UNL     1     -17.379  13.628 -29.348  1.00  0.00     0.040 C 
ATOM      2  C   UNL     1     -16.219  13.411 -30.268  1.00  0.00    -0.066 C 
ATOM      3  C   UNL     1     -16.374  13.430 -31.620  1.00  0.00     0.047 C 
ATOM      4  C   UNL     1     -15.130  13.231 -32.433  1.00  0.00     0.159 C 
ATOM      5  O   UNL     1     -15.136  13.267 -33.691  1.00  0.00    -0.295 OA
ATOM      6  C   UNL     1     -13.854  12.986 -31.628  1.00  0.00     0.067 C 
ATOM      7  C   UNL     1     -14.274  11.948 -30.563  1.00  0.00     0.021 C 
ATOM      8  C   UNL     1     -14.797  13.140 -29.731  1.00  0.00     0.022 C 
ATOM      9  C   UNL     1     -13.778  14.041 -30.488  1.00  0.00    -0.019 C 
ATOM     10  C   UNL     1     -12.390  14.066 -29.799  1.00  0.00     0.012 C 
ATOM     11  C   UNL     1     -14.189  15.506 -30.808  1.00  0.00     0.012 C 
ENDROOT
TORSDOF 0
ENDMDL
MODEL 3
REMARK VINA RESULT:    -5.010      1.178      2.802
REMARK INTER + INTRA:          -5.010
REMARK INTER:                  -5.010
REMARK INTRA:                   0.000
REMARK UNBOUND:                 0.000
REMARK SMILES CC1=CC(=O)[C@@H]2C[C@H]1C2(C)C
REMARK SMILES IDX 1 1 2 2 3 3 4 4 5 5 6 6 7 7 8 8 9 9 10 10 11 11
REMARK H PARENT
REMARK Flexibility Score: inf
ROOT
ATOM      1  C   UNL     1     -24.483  10.889 -27.876  1.00  0.00     0.040 C 
ATOM      2  C   UNL     1     -25.581  11.597 -28.605  1.00  0.00    -0.066 C 
ATOM      3  C   UNL     1     -25.333  12.705 -29.356  1.00  0.00     0.047 C 
ATOM      4  C   UNL     1     -26.512  13.305 -30.063  1.00  0.00     0.159 C 
ATOM      5  O   UNL     1     -26.405  14.306 -30.818  1.00  0.00    -0.295 OA
ATOM      6  C   UNL     1     -27.851  12.613 -29.805  1.00  0.00     0.067 C 
ATOM      7  C   UNL     1     -27.875  12.398 -28.275  1.00  0.00     0.021 C 
ATOM      8  C   UNL     1     -27.047  11.118 -28.529  1.00  0.00     0.022 C 
ATOM      9  C   UNL     1     -27.654  11.078 -29.962  1.00  0.00    -0.019 C 
ATOM     10  C   UNL     1     -29.001  10.313 -30.010  1.00  0.00     0.012 C 
ATOM     11  C   UNL     1     -26.760  10.563 -31.125  1.00  0.00     0.012 C 
ENDROOT
TORSDOF 0
ENDMDL
MODEL 4
REMARK VINA RESULT:    -5.004      2.204      3.467
REMARK INTER + INTRA:          -5.004
REMARK INTER:                  -5.004
REMARK INTRA:                   0.000
REMARK UNBOUND:                 0.000
REMARK SMILES CC1=CC(=O)[C@@H]2C[C@H]1C2(C)C
REMARK SMILES IDX 1 1 2 2 3 3 4 4 5 5 6 6 7 7 8 8 9 9 10 10 11 11
REMARK H PARENT
REMARK Flexibility Score: inf
ROOT
ATOM      1  C   UNL     1     -26.001  13.771 -30.037  1.00  0.00     0.040 C 
ATOM      2  C   UNL     1     -26.554  12.467 -29.553  1.00  0.00    -0.066 C 
ATOM      3  C   UNL     1     -26.317  12.023 -28.288  1.00  0.00     0.047 C 
ATOM      4  C   UNL     1     -26.952  10.717 -27.914  1.00  0.00     0.159 C 
ATOM      5  O   UNL     1     -26.841  10.221 -26.763  1.00  0.00    -0.295 OA
ATOM      6  C   UNL     1     -27.746  10.033 -29.028  1.00  0.00     0.067 C 
ATOM      7  C   UNL     1     -26.827  10.137 -30.265  1.00  0.00     0.021 C 
ATOM      8  C   UNL     1     -27.402  11.556 -30.466  1.00  0.00     0.022 C 
ATOM      9  C   UNL     1     -28.671  11.089 -29.696  1.00  0.00    -0.019 C 
ATOM     10  C   UNL     1     -29.724  10.443 -30.633  1.00  0.00     0.012 C 
ATOM     11  C   UNL     1     -29.398  12.118 -28.785  1.00  0.00     0.012 C 
ENDROOT
TORSDOF 0
ENDMDL
MODEL 5
REMARK VINA RESULT:    -4.973      2.188      3.315
REMARK INTER + INTRA:          -4.973
REMARK INTER:                  -4.973
REMARK INTRA:                   0.000
REMARK UNBOUND:                 0.000
REMARK SMILES CC1=CC(=O)[C@@H]2C[C@H]1C2(C)C
REMARK SMILES IDX 1 1 2 2 3 3 4 4 5 5 6 6 7 7 8 8 9 9 10 10 11 11
REMARK H PARENT
REMARK Flexibility Score: inf
ROOT
ATOM      1  C   UNL     1     -28.516   9.875 -31.446  1.00  0.00     0.040 C 
ATOM      2  C   UNL     1     -28.069  10.592 -30.211  1.00  0.00    -0.066 C 
ATOM      3  C   UNL     1     -27.871   9.929 -29.039  1.00  0.00     0.047 C 
ATOM      4  C   UNL     1     -27.394  10.754 -27.882  1.00  0.00     0.159 C 
ATOM      5  O   UNL     1     -27.136  10.251 -26.758  1.00  0.00    -0.295 OA
ATOM      6  C   UNL     1     -27.238  12.249 -28.164  1.00  0.00     0.067 C 
ATOM      7  C   UNL     1     -28.531  12.626 -28.921  1.00  0.00     0.021 C 
ATOM      8  C   UNL     1     -27.828  12.117 -30.200  1.00  0.00     0.022 C 
ATOM      9  C   UNL     1     -26.469  12.421 -29.505  1.00  0.00    -0.019 C 
ATOM     10  C   UNL     1     -26.004  13.882 -29.735  1.00  0.00     0.012 C 
ATOM     11  C   UNL     1     -25.268  11.478 -29.795  1.00  0.00     0.012 C 
ENDROOT
TORSDOF 0
ENDMDL
MODEL 6
REMARK VINA RESULT:    -4.818      1.852      2.638
REMARK INTER + INTRA:          -4.818
REMARK INTER:                  -4.818
REMARK INTRA:                   0.000
REMARK UNBOUND:                 0.000
REMARK SMILES CC1=CC(=O)[C@@H]2C[C@H]1C2(C)C
REMARK SMILES IDX 1 1 2 2 3 3 4 4 5 5 6 6 7 7 8 8 9 9 10 10 11 11
REMARK H PARENT
REMARK Flexibility Score: inf
ROOT
ATOM      1  C   UNL     1     -26.482  10.090 -32.000  1.00  0.00     0.040 C 
ATOM      2  C   UNL     1     -26.436  10.460 -30.550  1.00  0.00    -0.066 C 
ATOM      3  C   UNL     1     -25.255  10.549 -29.879  1.00  0.00     0.047 C 
ATOM      4  C   UNL     1     -25.339  10.958 -28.439  1.00  0.00     0.159 C 
ATOM      5  O   UNL     1     -24.316  11.115 -27.724  1.00  0.00    -0.295 OA
ATOM      6  C   UNL     1     -26.755  11.174 -27.902  1.00  0.00     0.067 C 
ATOM      7  C   UNL     1     -27.546   9.954 -28.423  1.00  0.00     0.021 C 
ATOM      8  C   UNL     1     -27.722  10.739 -29.742  1.00  0.00     0.022 C 
ATOM      9  C   UNL     1     -27.542  12.049 -28.920  1.00  0.00    -0.019 C 
ATOM     10  C   UNL     1     -28.882  12.568 -28.339  1.00  0.00     0.012 C 
ATOM     11  C   UNL     1     -26.808  13.243 -29.592  1.00  0.00     0.012 C 
ENDROOT
TORSDOF 0
ENDMDL
MODEL 7
REMARK VINA RESULT:    -4.809      1.819      3.092
REMARK INTER + INTRA:          -4.809
REMARK INTER:                  -4.809
REMARK INTRA:                   0.000
REMARK UNBOUND:                 0.000
REMARK SMILES CC1=CC(=O)[C@@H]2C[C@H]1C2(C)C
REMARK SMILES IDX 1 1 2 2 3 3 4 4 5 5 6 6 7 7 8 8 9 9 10 10 11 11
REMARK H PARENT
REMARK Flexibility Score: inf
ROOT
ATOM      1  C   UNL     1     -25.610  14.022 -29.795  1.00  0.00     0.040 C 
ATOM      2  C   UNL     1     -26.557  12.864 -29.800  1.00  0.00    -0.066 C 
ATOM      3  C   UNL     1     -26.953  12.278 -30.963  1.00  0.00     0.047 C 
ATOM      4  C   UNL     1     -27.880  11.106 -30.833  1.00  0.00     0.159 C 
ATOM      5  O   UNL     1     -28.285  10.455 -31.831  1.00  0.00    -0.295 OA
ATOM      6  C   UNL     1     -28.296  10.756 -29.404  1.00  0.00     0.067 C 
ATOM      7  C   UNL     1     -28.654  12.118 -28.771  1.00  0.00     0.021 C 
ATOM      8  C   UNL     1     -27.144  12.290 -28.493  1.00  0.00     0.022 C 
ATOM      9  C   UNL     1     -27.023  10.738 -28.509  1.00  0.00    -0.019 C 
ATOM     10  C   UNL     1     -27.291  10.112 -27.117  1.00  0.00     0.012 C 
ATOM     11  C   UNL     1     -25.724  10.108 -29.085  1.00  0.00     0.012 C 
ENDROOT
TORSDOF 0
ENDMDL
MODEL 8
REMARK VINA RESULT:    -4.715      1.854      2.486
REMARK INTER + INTRA:          -4.715
REMARK INTER:                  -4.715
REMARK INTRA:                   0.000
REMARK UNBOUND:                 0.000
REMARK SMILES CC1=CC(=O)[C@@H]2C[C@H]1C2(C)C
REMARK SMILES IDX 1 1 2 2 3 3 4 4 5 5 6 6 7 7 8 8 9 9 10 10 11 11
REMARK H PARENT
REMARK Flexibility Score: inf
ROOT
ATOM      1  C   UNL     1     -27.112  10.988 -32.759  1.00  0.00     0.040 C 
ATOM      2  C   UNL     1     -27.334  11.449 -31.353  1.00  0.00    -0.066 C 
ATOM      3  C   UNL     1     -28.559  11.361 -30.764  1.00  0.00     0.047 C 
ATOM      4  C   UNL     1     -28.645  11.826 -29.342  1.00  0.00     0.159 C 
ATOM      5  O   UNL     1     -29.711  11.759 -28.676  1.00  0.00    -0.295 OA
ATOM      6  C   UNL     1     -27.348  12.385 -28.756  1.00  0.00     0.067 C 
ATOM      7  C   UNL     1     -26.808  13.321 -29.860  1.00  0.00     0.021 C 
ATOM      8  C   UNL     1     -26.195  12.060 -30.509  1.00  0.00     0.022 C 
ATOM      9  C   UNL     1     -26.189  11.405 -29.097  1.00  0.00    -0.019 C 
ATOM     10  C   UNL     1     -24.895  11.724 -28.306  1.00  0.00     0.012 C 
ATOM     11  C   UNL     1     -26.458   9.878 -28.994  1.00  0.00     0.012 C 
ENDROOT
TORSDOF 0
ENDMDL
