MODEL 1
REMARK VINA RESULT:    -3.189      0.000      0.000
REMARK INTER + INTRA:          -4.593
REMARK INTER:                  -4.214
REMARK INTRA:                  -0.378
REMARK UNBOUND:                -0.378
REMARK SMILES C=C[C@H](O)CCCCC
REMARK SMILES IDX 6 1 7 2 8 3 9 4 5 5 3 6 2 7 1 8 4 9
REMARK H PARENT 4 10
REMARK Flexibility Score: inf
ROOT
ATOM      1  C   UNL     1     -16.289 -14.971  10.510  1.00  0.00     0.003 C 
ENDROOT
BRANCH   1   2
ATOM      2  C   UNL     1     -15.803 -15.956   9.442  1.00  0.00    -0.000 C 
BRANCH   2   3
ATOM      3  C   UNL     1     -16.161 -15.463   8.034  1.00  0.00    -0.003 C 
ATOM      4  C   UNL     1     -16.567 -13.993   8.052  1.00  0.00     0.004 C 
ENDBRANCH   2   3
ENDBRANCH   1   2
BRANCH   1   5
ATOM      5  C   UNL     1     -17.134 -15.685  11.575  1.00  0.00     0.036 C 
BRANCH   5   6
ATOM      6  C   UNL     1     -18.538 -15.063  11.723  1.00  0.00     0.136 C 
BRANCH   6   7
ATOM      7  C   UNL     1     -18.585 -13.649  11.198  1.00  0.00    -0.004 C 
ATOM      8  C   UNL     1     -19.006 -12.623  11.946  1.00  0.00     0.007 C 
ENDBRANCH   6   7
BRANCH   6   9
ATOM      9  O   UNL     1     -18.926 -15.067  13.072  1.00  0.00    -0.389 OA
ATOM     10  H   UNL     1     -19.178 -14.134  13.302  1.00  0.00     0.211 HD
ENDBRANCH   6   9
ENDBRANCH   5   6
ENDBRANCH   1   5
TORSDOF 6
ENDMDL
MODEL 2
REMARK VINA RESULT:    -3.128      1.540      2.267
REMARK INTER + INTRA:          -4.512
REMARK INTER:                  -4.095
REMARK INTRA:                  -0.417
REMARK UNBOUND:                -0.378
REMARK SMILES C=C[C@H](O)CCCCC
REMARK SMILES IDX 6 1 7 2 8 3 9 4 5 5 3 6 2 7 1 8 4 9
REMARK H PARENT 4 10
REMARK Flexibility Score: inf
ROOT
ATOM      1  C   UNL     1     -17.704 -15.451  11.301  1.00  0.00     0.003 C 
ENDROOT
BRANCH   1   2
ATOM      2  C   UNL     1     -18.188 -16.360  10.166  1.00  0.00    -0.000 C 
BRANCH   2   3
ATOM      3  C   UNL     1     -17.097 -16.545   9.104  1.00  0.00    -0.003 C 
ATOM      4  C   UNL     1     -15.761 -15.988   9.585  1.00  0.00     0.004 C 
ENDBRANCH   2   3
ENDBRANCH   1   2
BRANCH   1   5
ATOM      5  C   UNL     1     -18.864 -14.630  11.884  1.00  0.00     0.036 C 
BRANCH   5   6
ATOM      6  C   UNL     1     -18.832 -13.160  11.417  1.00  0.00     0.136 C 
BRANCH   6   7
ATOM      7  C   UNL     1     -17.649 -12.877  10.524  1.00  0.00    -0.004 C 
ATOM      8  C   UNL     1     -17.781 -12.649   9.213  1.00  0.00     0.007 C 
ENDBRANCH   6   7
BRANCH   6   9
ATOM      9  O   UNL     1     -18.785 -12.304  12.529  1.00  0.00    -0.389 OA
ATOM     10  H   UNL     1     -19.394 -12.687  13.214  1.00  0.00     0.211 HD
ENDBRANCH   6   9
ENDBRANCH   5   6
ENDBRANCH   1   5
TORSDOF 6
ENDMDL
MODEL 3
REMARK VINA RESULT:    -3.122      2.137      4.122
REMARK INTER + INTRA:          -4.504
REMARK INTER:                  -3.850
REMARK INTRA:                  -0.654
REMARK UNBOUND:                -0.378
REMARK SMILES C=C[C@H](O)CCCCC
REMARK SMILES IDX 6 1 7 2 8 3 9 4 5 5 3 6 2 7 1 8 4 9
REMARK H PARENT 4 10
REMARK Flexibility Score: inf
ROOT
ATOM      1  C   UNL     1     -16.405 -14.162  10.214  1.00  0.00     0.003 C 
ENDROOT
BRANCH   1   2
ATOM      2  C   UNL     1     -17.739 -13.519  10.612  1.00  0.00    -0.000 C 
BRANCH   2   3
ATOM      3  C   UNL     1     -18.702 -14.563  11.191  1.00  0.00    -0.003 C 
ATOM      4  C   UNL     1     -17.944 -15.661  11.932  1.00  0.00     0.004 C 
ENDBRANCH   2   3
ENDBRANCH   1   2
BRANCH   1   5
ATOM      5  C   UNL     1     -16.425 -14.607   8.744  1.00  0.00     0.036 C 
BRANCH   5   6
ATOM      6  C   UNL     1     -16.061 -16.097   8.580  1.00  0.00     0.136 C 
BRANCH   6   7
ATOM      7  C   UNL     1     -17.285 -16.961   8.408  1.00  0.00    -0.004 C 
ATOM      8  C   UNL     1     -18.464 -16.463   8.019  1.00  0.00     0.007 C 
ENDBRANCH   6   7
BRANCH   6   9
ATOM      9  O   UNL     1     -15.337 -16.541   9.698  1.00  0.00    -0.389 OA
ATOM     10  H   UNL     1     -15.900 -16.360  10.497  1.00  0.00     0.211 HD
ENDBRANCH   6   9
ENDBRANCH   5   6
ENDBRANCH   1   5
TORSDOF 6
ENDMDL
MODEL 4
REMARK VINA RESULT:    -2.853      2.248      4.473
REMARK INTER + INTRA:          -4.149
REMARK INTER:                  -3.735
REMARK INTRA:                  -0.414
REMARK UNBOUND:                -0.378
REMARK SMILES C=C[C@H](O)CCCCC
REMARK SMILES IDX 6 1 7 2 8 3 9 4 5 5 3 6 2 7 1 8 4 9
REMARK H PARENT 4 10
REMARK Flexibility Score: inf
ROOT
ATOM      1  C   UNL     1     -18.334 -13.656   9.900  1.00  0.00     0.003 C 
ENDROOT
BRANCH   1   2
ATOM      2  C   UNL     1     -18.582 -13.944  11.385  1.00  0.00    -0.000 C 
BRANCH   2   3
ATOM      3  C   UNL     1     -18.107 -15.354  11.758  1.00  0.00    -0.003 C 
ATOM      4  C   UNL     1     -18.966 -15.948  12.871  1.00  0.00     0.004 C 
ENDBRANCH   2   3
ENDBRANCH   1   2
BRANCH   1   5
ATOM      5  C   UNL     1     -18.467 -14.935   9.060  1.00  0.00     0.036 C 
BRANCH   5   6
ATOM      6  C   UNL     1     -17.353 -15.056   8.000  1.00  0.00     0.136 C 
BRANCH   6   7
ATOM      7  C   UNL     1     -16.410 -16.195   8.301  1.00  0.00    -0.004 C 
ATOM      8  C   UNL     1     -15.592 -16.186   9.358  1.00  0.00     0.007 C 
ENDBRANCH   6   7
BRANCH   6   9
ATOM      9  O   UNL     1     -16.622 -13.860   7.931  1.00  0.00    -0.389 OA
ATOM     10  H   UNL     1     -15.677 -14.086   8.138  1.00  0.00     0.211 HD
ENDBRANCH   6   9
ENDBRANCH   5   6
ENDBRANCH   1   5
TORSDOF 6
ENDMDL
MODEL 5
REMARK VINA RESULT:    -2.731      2.112      3.851
REMARK INTER + INTRA:          -3.988
REMARK INTER:                  -3.431
REMARK INTRA:                  -0.557
REMARK UNBOUND:                -0.378
REMARK SMILES C=C[C@H](O)CCCCC
REMARK SMILES IDX 6 1 7 2 8 3 9 4 5 5 3 6 2 7 1 8 4 9
REMARK H PARENT 4 10
REMARK Flexibility Score: inf
ROOT
ATOM      1  C   UNL     1     -17.767 -14.943  11.239  1.00  0.00     0.003 C 
ENDROOT
BRANCH   1   2
ATOM      2  C   UNL     1     -18.734 -13.768  11.428  1.00  0.00    -0.000 C 
BRANCH   2   3
ATOM      3  C   UNL     1     -18.996 -13.051  10.098  1.00  0.00    -0.003 C 
ATOM      4  C   UNL     1     -17.691 -12.744   9.371  1.00  0.00     0.004 C 
ENDBRANCH   2   3
ENDBRANCH   1   2
BRANCH   1   5
ATOM      5  C   UNL     1     -18.488 -16.158  10.637  1.00  0.00     0.036 C 
BRANCH   5   6
ATOM      6  C   UNL     1     -17.845 -16.624   9.315  1.00  0.00     0.136 C 
BRANCH   6   7
ATOM      7  C   UNL     1     -16.379 -16.274   9.247  1.00  0.00    -0.004 C 
ATOM      8  C   UNL     1     -15.702 -16.252   8.094  1.00  0.00     0.007 C 
ENDBRANCH   6   7
BRANCH   6   9
ATOM      9  O   UNL     1     -18.509 -16.040   8.226  1.00  0.00    -0.389 OA
ATOM     10  H   UNL     1     -18.859 -16.784   7.668  1.00  0.00     0.211 HD
ENDBRANCH   6   9
ENDBRANCH   5   6
ENDBRANCH   1   5
TORSDOF 6
ENDMDL
MODEL 6
REMARK VINA RESULT:    -2.503      1.676      2.183
REMARK INTER + INTRA:          -3.686
REMARK INTER:                  -3.291
REMARK INTRA:                  -0.395
REMARK UNBOUND:                -0.378
REMARK SMILES C=C[C@H](O)CCCCC
REMARK SMILES IDX 6 1 7 2 8 3 9 4 5 5 3 6 2 7 1 8 4 9
REMARK H PARENT 4 10
REMARK Flexibility Score: inf
ROOT
ATOM      1  C   UNL     1     -16.662 -14.217  10.578  1.00  0.00     0.003 C 
ENDROOT
BRANCH   1   2
ATOM      2  C   UNL     1     -15.752 -15.245   9.897  1.00  0.00    -0.000 C 
BRANCH   2   3
ATOM      3  C   UNL     1     -16.120 -15.412   8.418  1.00  0.00    -0.003 C 
ATOM      4  C   UNL     1     -16.237 -16.886   8.042  1.00  0.00     0.004 C 
ENDBRANCH   2   3
ENDBRANCH   1   2
BRANCH   1   5
ATOM      5  C   UNL     1     -18.011 -14.109   9.852  1.00  0.00     0.036 C 
BRANCH   5   6
ATOM      6  C   UNL     1     -19.123 -14.908  10.562  1.00  0.00     0.136 C 
BRANCH   6   7
ATOM      7  C   UNL     1     -18.955 -14.897  12.062  1.00  0.00    -0.004 C 
ATOM      8  C   UNL     1     -18.818 -16.021  12.774  1.00  0.00     0.007 C 
ENDBRANCH   6   7
BRANCH   6   9
ATOM      9  O   UNL     1     -19.125 -16.236  10.109  1.00  0.00    -0.389 OA
ATOM     10  H   UNL     1     -19.326 -16.209   9.136  1.00  0.00     0.211 HD
ENDBRANCH   6   9
ENDBRANCH   5   6
ENDBRANCH   1   5
TORSDOF 6
ENDMDL
MODEL 7
REMARK VINA RESULT:    -2.489      2.125      3.736
REMARK INTER + INTRA:          -3.668
REMARK INTER:                  -3.113
REMARK INTRA:                  -0.555
REMARK UNBOUND:                -0.378
REMARK SMILES C=C[C@H](O)CCCCC
REMARK SMILES IDX 6 1 7 2 8 3 9 4 5 5 3 6 2 7 1 8 4 9
REMARK H PARENT 4 10
REMARK Flexibility Score: inf
ROOT
ATOM      1  C   UNL     1     -16.705 -13.983   8.607  1.00  0.00     0.003 C 
ENDROOT
BRANCH   1   2
ATOM      2  C   UNL     1     -17.643 -12.910   9.173  1.00  0.00    -0.000 C 
BRANCH   2   3
ATOM      3  C   UNL     1     -17.695 -12.976  10.704  1.00  0.00    -0.003 C 
ATOM      4  C   UNL     1     -19.125 -12.827  11.214  1.00  0.00     0.004 C 
ENDBRANCH   2   3
ENDBRANCH   1   2
BRANCH   1   5
ATOM      5  C   UNL     1     -17.501 -15.177   8.061  1.00  0.00     0.036 C 
BRANCH   5   6
ATOM      6  C   UNL     1     -17.225 -16.473   8.850  1.00  0.00     0.136 C 
BRANCH   6   7
ATOM      7  C   UNL     1     -18.425 -16.912   9.652  1.00  0.00    -0.004 C 
ATOM      8  C   UNL     1     -18.638 -16.497  10.906  1.00  0.00     0.007 C 
ENDBRANCH   6   7
BRANCH   6   9
ATOM      9  O   UNL     1     -16.136 -16.286   9.716  1.00  0.00    -0.389 OA
ATOM     10  H   UNL     1     -16.501 -16.271  10.640  1.00  0.00     0.211 HD
ENDBRANCH   6   9
ENDBRANCH   5   6
ENDBRANCH   1   5
TORSDOF 6
ENDMDL
MODEL 8
REMARK VINA RESULT:    -2.171      2.272      3.347
REMARK INTER + INTRA:          -3.247
REMARK INTER:                  -3.055
REMARK INTRA:                  -0.193
REMARK UNBOUND:                -0.378
REMARK SMILES C=C[C@H](O)CCCCC
REMARK SMILES IDX 6 1 7 2 8 3 9 4 5 5 3 6 2 7 1 8 4 9
REMARK H PARENT 4 10
REMARK Flexibility Score: inf
ROOT
ATOM      1  C   UNL     1     -18.694 -15.537  10.941  1.00  0.00     0.003 C 
ENDROOT
BRANCH   1   2
ATOM      2  C   UNL     1     -19.125 -15.719   9.481  1.00  0.00    -0.000 C 
BRANCH   2   3
ATOM      3  C   UNL     1     -18.769 -17.122   8.972  1.00  0.00    -0.003 C 
ATOM      4  C   UNL     1     -17.648 -17.065   7.940  1.00  0.00     0.004 C 
ENDBRANCH   2   3
ENDBRANCH   1   2
BRANCH   1   5
ATOM      5  C   UNL     1     -18.214 -14.101  11.199  1.00  0.00     0.036 C 
BRANCH   5   6
ATOM      6  C   UNL     1     -17.193 -13.627  10.145  1.00  0.00     0.136 C 
BRANCH   6   7
ATOM      7  C   UNL     1     -15.818 -14.196  10.396  1.00  0.00    -0.004 C 
ATOM      8  C   UNL     1     -15.508 -15.467  10.116  1.00  0.00     0.007 C 
ENDBRANCH   6   7
BRANCH   6   9
ATOM      9  O   UNL     1     -17.118 -12.226  10.144  1.00  0.00    -0.389 OA
ATOM     10  H   UNL     1     -16.168 -11.987   9.976  1.00  0.00     0.211 HD
ENDBRANCH   6   9
ENDBRANCH   5   6
ENDBRANCH   1   5
TORSDOF 6
ENDMDL
