MODEL 1
REMARK VINA RESULT:    -4.985      0.000      0.000
REMARK INTER + INTRA:          -6.048
REMARK INTER:                  -5.859
REMARK INTRA:                  -0.189
REMARK UNBOUND:                -0.189
REMARK SMILES O=C([O-])C=Cc1ccc(O)c(O)c1
REMARK SMILES IDX 6 1 13 2 7 3 11 4 8 5 9 6 5 7 4 8 2 9 1 10 3 11 12 12 10 14
REMARK H PARENT 12 13 10 15
REMARK Flexibility Score: inf
ROOT
ATOM      1  C   UNL     1     181.327 -22.369  24.700  1.00  0.00    -0.022 A 
ATOM      2  C   UNL     1     182.036 -22.414  25.912  1.00  0.00     0.058 A 
ATOM      3  C   UNL     1     181.968 -21.899  23.546  1.00  0.00     0.012 A 
ATOM      4  C   UNL     1     183.388 -22.043  25.957  1.00  0.00     0.157 A 
ATOM      5  C   UNL     1     183.316 -21.531  23.587  1.00  0.00     0.051 A 
ATOM      6  C   UNL     1     184.030 -21.606  24.792  1.00  0.00     0.157 A 
ENDROOT
BRANCH   1   7
ATOM      7  C   UNL     1     179.888 -22.704  24.641  1.00  0.00     0.010 C 
ATOM      8  C   UNL     1     178.889 -21.903  25.040  1.00  0.00     0.025 C 
BRANCH   8   9
ATOM      9  C   UNL     1     179.049 -20.637  25.780  1.00  0.00     0.064 C 
ATOM     10  O   UNL     1     179.216 -20.668  27.026  1.00  0.00    -0.545 OA
ATOM     11  O   UNL     1     179.089 -19.413  25.122  1.00  0.00    -0.545 OA
ENDBRANCH   8   9
ENDBRANCH   1   7
BRANCH   4  12
ATOM     12  O   UNL     1     184.097 -22.104  27.155  1.00  0.00    -0.504 OA
ATOM     13  H   UNL     1     184.902 -22.709  27.265  1.00  0.00     0.293 HD
ENDBRANCH   4  12
BRANCH   6  14
ATOM     14  O   UNL     1     185.375 -21.242  24.838  1.00  0.00    -0.504 OA
ATOM     15  H   UNL     1     185.682 -20.407  25.326  1.00  0.00     0.293 HD
ENDBRANCH   6  14
TORSDOF 4
ENDMDL
MODEL 2
REMARK VINA RESULT:    -4.845      8.829     10.469
REMARK INTER + INTRA:          -5.883
REMARK INTER:                  -5.596
REMARK INTRA:                  -0.287
REMARK UNBOUND:                -0.189
REMARK SMILES O=C([O-])C=Cc1ccc(O)c(O)c1
REMARK SMILES IDX 6 1 13 2 7 3 11 4 8 5 9 6 5 7 4 8 2 9 1 10 3 11 12 12 10 14
REMARK H PARENT 12 13 10 15
REMARK Flexibility Score: inf
ROOT
ATOM      1  C   UNL     1     183.291 -26.088  34.746  1.00  0.00    -0.022 A 
ATOM      2  C   UNL     1     184.310 -26.354  33.816  1.00  0.00     0.058 A 
ATOM      3  C   UNL     1     181.994 -25.821  34.286  1.00  0.00     0.012 A 
ATOM      4  C   UNL     1     184.022 -26.405  32.443  1.00  0.00     0.157 A 
ATOM      5  C   UNL     1     181.705 -25.873  32.920  1.00  0.00     0.051 A 
ATOM      6  C   UNL     1     182.716 -26.169  31.996  1.00  0.00     0.157 A 
ENDROOT
BRANCH   1   7
ATOM      7  C   UNL     1     183.583 -25.977  36.190  1.00  0.00     0.010 C 
ATOM      8  C   UNL     1     183.903 -24.843  36.833  1.00  0.00     0.025 C 
BRANCH   8   9
ATOM      9  C   UNL     1     184.206 -23.551  36.189  1.00  0.00     0.064 C 
ATOM     10  O   UNL     1     185.398 -23.271  35.901  1.00  0.00    -0.545 OA
ATOM     11  O   UNL     1     183.197 -22.665  35.830  1.00  0.00    -0.545 OA
ENDBRANCH   8   9
ENDBRANCH   1   7
BRANCH   4  12
ATOM     12  O   UNL     1     185.029 -26.686  31.521  1.00  0.00    -0.504 OA
ATOM     13  H   UNL     1     185.982 -26.372  31.665  1.00  0.00     0.293 HD
ENDBRANCH   4  12
BRANCH   6  14
ATOM     14  O   UNL     1     182.433 -26.224  30.632  1.00  0.00    -0.504 OA
ATOM     15  H   UNL     1     183.074 -26.654  29.974  1.00  0.00     0.293 HD
ENDBRANCH   6  14
TORSDOF 4
ENDMDL
MODEL 3
REMARK VINA RESULT:    -4.805      2.472      3.795
REMARK INTER + INTRA:          -5.837
REMARK INTER:                  -5.543
REMARK INTRA:                  -0.294
REMARK UNBOUND:                -0.189
REMARK SMILES O=C([O-])C=Cc1ccc(O)c(O)c1
REMARK SMILES IDX 6 1 13 2 7 3 11 4 8 5 9 6 5 7 4 8 2 9 1 10 3 11 12 12 10 14
REMARK H PARENT 12 13 10 15
REMARK Flexibility Score: inf
ROOT
ATOM      1  C   UNL     1     180.560 -21.441  25.496  1.00  0.00    -0.022 A 
ATOM      2  C   UNL     1     180.795 -20.443  24.536  1.00  0.00     0.058 A 
ATOM      3  C   UNL     1     180.650 -22.788  25.123  1.00  0.00     0.012 A 
ATOM      4  C   UNL     1     181.169 -20.790  23.229  1.00  0.00     0.157 A 
ATOM      5  C   UNL     1     181.023 -23.137  23.822  1.00  0.00     0.051 A 
ATOM      6  C   UNL     1     181.288 -22.139  22.873  1.00  0.00     0.157 A 
ENDROOT
BRANCH   1   7
ATOM      7  C   UNL     1     180.113 -21.098  26.863  1.00  0.00     0.010 C 
ATOM      8  C   UNL     1     180.922 -20.851  27.904  1.00  0.00     0.025 C 
BRANCH   8   9
ATOM      9  C   UNL     1     182.382 -21.062  27.924  1.00  0.00     0.064 C 
ATOM     10  O   UNL     1     182.838 -22.176  28.290  1.00  0.00    -0.545 OA
ATOM     11  O   UNL     1     183.263 -20.083  27.481  1.00  0.00    -0.545 OA
ENDBRANCH   8   9
ENDBRANCH   1   7
BRANCH   4  12
ATOM     12  O   UNL     1     181.420 -19.800  22.280  1.00  0.00    -0.504 OA
ATOM     13  H   UNL     1     181.875 -18.931  22.530  1.00  0.00     0.293 HD
ENDBRANCH   4  12
BRANCH   6  14
ATOM     14  O   UNL     1     181.663 -22.482  21.575  1.00  0.00    -0.504 OA
ATOM     15  H   UNL     1     181.034 -22.354  20.790  1.00  0.00     0.293 HD
ENDBRANCH   6  14
TORSDOF 4
ENDMDL
MODEL 4
REMARK VINA RESULT:    -4.804      9.488     10.867
REMARK INTER + INTRA:          -5.835
REMARK INTER:                  -5.589
REMARK INTRA:                  -0.246
REMARK UNBOUND:                -0.189
REMARK SMILES O=C([O-])C=Cc1ccc(O)c(O)c1
REMARK SMILES IDX 6 1 13 2 7 3 11 4 8 5 9 6 5 7 4 8 2 9 1 10 3 11 12 12 10 14
REMARK H PARENT 12 13 10 15
REMARK Flexibility Score: inf
ROOT
ATOM      1  C   UNL     1     184.223 -25.657  35.234  1.00  0.00    -0.022 A 
ATOM      2  C   UNL     1     184.314 -26.545  34.149  1.00  0.00     0.058 A 
ATOM      3  C   UNL     1     184.240 -24.277  34.995  1.00  0.00     0.012 A 
ATOM      4  C   UNL     1     184.366 -26.056  32.835  1.00  0.00     0.157 A 
ATOM      5  C   UNL     1     184.291 -23.787  33.687  1.00  0.00     0.051 A 
ATOM      6  C   UNL     1     184.350 -24.675  32.604  1.00  0.00     0.157 A 
ENDROOT
BRANCH   1   7
ATOM      7  C   UNL     1     184.220 -26.149  36.628  1.00  0.00     0.010 C 
ATOM      8  C   UNL     1     183.132 -26.289  37.400  1.00  0.00     0.025 C 
BRANCH   8   9
ATOM      9  C   UNL     1     181.780 -25.801  37.069  1.00  0.00     0.064 C 
ATOM     10  O   UNL     1     181.415 -24.670  37.482  1.00  0.00    -0.545 OA
ATOM     11  O   UNL     1     180.924 -26.531  36.253  1.00  0.00    -0.545 OA
ENDBRANCH   8   9
ENDBRANCH   1   7
BRANCH   4  12
ATOM     12  O   UNL     1     184.439 -26.937  31.757  1.00  0.00    -0.504 OA
ATOM     13  H   UNL     1     185.017 -27.769  31.791  1.00  0.00     0.293 HD
ENDBRANCH   4  12
BRANCH   6  14
ATOM     14  O   UNL     1     184.398 -24.193  31.297  1.00  0.00    -0.504 OA
ATOM     15  H   UNL     1     183.745 -24.511  30.590  1.00  0.00     0.293 HD
ENDBRANCH   6  14
TORSDOF 4
ENDMDL
MODEL 5
REMARK VINA RESULT:    -4.783     12.133     13.882
REMARK INTER + INTRA:          -5.810
REMARK INTER:                  -5.535
REMARK INTRA:                  -0.276
REMARK UNBOUND:                -0.189
REMARK SMILES O=C([O-])C=Cc1ccc(O)c(O)c1
REMARK SMILES IDX 6 1 13 2 7 3 11 4 8 5 9 6 5 7 4 8 2 9 1 10 3 11 12 12 10 14
REMARK H PARENT 12 13 10 15
REMARK Flexibility Score: inf
ROOT
ATOM      1  C   UNL     1     182.482 -25.653  37.417  1.00  0.00    -0.022 A 
ATOM      2  C   UNL     1     182.822 -26.338  38.596  1.00  0.00     0.058 A 
ATOM      3  C   UNL     1     181.312 -26.005  36.732  1.00  0.00     0.012 A 
ATOM      4  C   UNL     1     181.972 -27.327  39.112  1.00  0.00     0.157 A 
ATOM      5  C   UNL     1     180.462 -26.989  37.245  1.00  0.00     0.051 A 
ATOM      6  C   UNL     1     180.788 -27.650  38.437  1.00  0.00     0.157 A 
ENDROOT
BRANCH   1   7
ATOM      7  C   UNL     1     183.389 -24.645  36.829  1.00  0.00     0.010 C 
ATOM      8  C   UNL     1     184.304 -24.886  35.877  1.00  0.00     0.025 C 
BRANCH   8   9
ATOM      9  C   UNL     1     184.699 -26.220  35.387  1.00  0.00     0.064 C 
ATOM     10  O   UNL     1     184.131 -26.697  34.372  1.00  0.00    -0.545 OA
ATOM     11  O   UNL     1     185.735 -26.933  35.980  1.00  0.00    -0.545 OA
ENDBRANCH   8   9
ENDBRANCH   1   7
BRANCH   4  12
ATOM     12  O   UNL     1     182.299 -27.995  40.291  1.00  0.00    -0.504 OA
ATOM     13  H   UNL     1     183.146 -28.546  40.369  1.00  0.00     0.293 HD
ENDBRANCH   4  12
BRANCH   6  14
ATOM     14  O   UNL     1     179.943 -28.630  38.954  1.00  0.00    -0.504 OA
ATOM     15  H   UNL     1     179.470 -28.508  39.844  1.00  0.00     0.293 HD
ENDBRANCH   6  14
TORSDOF 4
ENDMDL
MODEL 6
REMARK VINA RESULT:    -4.774     13.424     14.670
REMARK INTER + INTRA:          -5.801
REMARK INTER:                  -5.551
REMARK INTRA:                  -0.250
REMARK UNBOUND:                -0.189
REMARK SMILES O=C([O-])C=Cc1ccc(O)c(O)c1
REMARK SMILES IDX 6 1 13 2 7 3 11 4 8 5 9 6 5 7 4 8 2 9 1 10 3 11 12 12 10 14
REMARK H PARENT 12 13 10 15
REMARK Flexibility Score: inf
ROOT
ATOM      1  C   UNL     1     183.113 -23.582  39.710  1.00  0.00    -0.022 A 
ATOM      2  C   UNL     1     182.402 -24.410  40.596  1.00  0.00     0.058 A 
ATOM      3  C   UNL     1     183.481 -24.079  38.453  1.00  0.00     0.012 A 
ATOM      4  C   UNL     1     182.018 -25.702  40.206  1.00  0.00     0.157 A 
ATOM      5  C   UNL     1     183.098 -25.365  38.061  1.00  0.00     0.051 A 
ATOM      6  C   UNL     1     182.363 -26.178  38.935  1.00  0.00     0.157 A 
ENDROOT
BRANCH   1   7
ATOM      7  C   UNL     1     183.572 -22.239  40.120  1.00  0.00     0.010 C 
ATOM      8  C   UNL     1     182.966 -21.083  39.810  1.00  0.00     0.025 C 
BRANCH   8   9
ATOM      9  C   UNL     1     181.853 -20.929  38.854  1.00  0.00     0.064 C 
ATOM     10  O   UNL     1     182.107 -20.742  37.637  1.00  0.00    -0.545 OA
ATOM     11  O   UNL     1     180.528 -21.057  39.257  1.00  0.00    -0.545 OA
ENDBRANCH   8   9
ENDBRANCH   1   7
BRANCH   4  12
ATOM     12  O   UNL     1     181.298 -26.517  41.078  1.00  0.00    -0.504 OA
ATOM     13  H   UNL     1     180.355 -26.819  40.864  1.00  0.00     0.293 HD
ENDBRANCH   4  12
BRANCH   6  14
ATOM     14  O   UNL     1     181.977 -27.460  38.549  1.00  0.00    -0.504 OA
ATOM     15  H   UNL     1     181.974 -27.743  37.575  1.00  0.00     0.293 HD
ENDBRANCH   6  14
TORSDOF 4
ENDMDL
MODEL 7
REMARK VINA RESULT:    -4.749      2.538      3.318
REMARK INTER + INTRA:          -5.771
REMARK INTER:                  -5.843
REMARK INTRA:                   0.073
REMARK UNBOUND:                -0.189
REMARK SMILES O=C([O-])C=Cc1ccc(O)c(O)c1
REMARK SMILES IDX 6 1 13 2 7 3 11 4 8 5 9 6 5 7 4 8 2 9 1 10 3 11 12 12 10 14
REMARK H PARENT 12 13 10 15
REMARK Flexibility Score: inf
ROOT
ATOM      1  C   UNL     1     181.220 -21.386  25.432  1.00  0.00    -0.022 A 
ATOM      2  C   UNL     1     181.705 -20.681  24.317  1.00  0.00     0.058 A 
ATOM      3  C   UNL     1     180.759 -22.698  25.267  1.00  0.00     0.012 A 
ATOM      4  C   UNL     1     181.777 -21.303  23.062  1.00  0.00     0.157 A 
ATOM      5  C   UNL     1     180.831 -23.321  24.018  1.00  0.00     0.051 A 
ATOM      6  C   UNL     1     181.344 -22.626  22.913  1.00  0.00     0.157 A 
ENDROOT
BRANCH   1   7
ATOM      7  C   UNL     1     181.086 -20.733  26.751  1.00  0.00     0.010 C 
ATOM      8  C   UNL     1     180.372 -19.624  27.000  1.00  0.00     0.025 C 
BRANCH   8   9
ATOM      9  C   UNL     1     179.756 -18.756  25.979  1.00  0.00     0.064 C 
ATOM     10  O   UNL     1     178.700 -19.132  25.407  1.00  0.00    -0.545 OA
ATOM     11  O   UNL     1     180.275 -17.501  25.684  1.00  0.00    -0.545 OA
ENDBRANCH   8   9
ENDBRANCH   1   7
BRANCH   4  12
ATOM     12  O   UNL     1     182.274 -20.610  21.959  1.00  0.00    -0.504 OA
ATOM     13  H   UNL     1     181.948 -19.680  21.727  1.00  0.00     0.293 HD
ENDBRANCH   4  12
BRANCH   6  14
ATOM     14  O   UNL     1     181.420 -23.243  21.665  1.00  0.00    -0.504 OA
ATOM     15  H   UNL     1     180.593 -23.400  21.100  1.00  0.00     0.293 HD
ENDBRANCH   6  14
TORSDOF 4
ENDMDL
MODEL 8
REMARK VINA RESULT:    -4.731      2.659      3.309
REMARK INTER + INTRA:          -5.750
REMARK INTER:                  -5.461
REMARK INTRA:                  -0.289
REMARK UNBOUND:                -0.189
REMARK SMILES O=C([O-])C=Cc1ccc(O)c(O)c1
REMARK SMILES IDX 6 1 13 2 7 3 11 4 8 5 9 6 5 7 4 8 2 9 1 10 3 11 12 12 10 14
REMARK H PARENT 12 13 10 15
REMARK Flexibility Score: inf
ROOT
ATOM      1  C   UNL     1     182.303 -20.564  25.011  1.00  0.00    -0.022 A 
ATOM      2  C   UNL     1     181.707 -21.828  25.163  1.00  0.00     0.058 A 
ATOM      3  C   UNL     1     182.649 -20.118  23.728  1.00  0.00     0.012 A 
ATOM      4  C   UNL     1     181.413 -22.613  24.038  1.00  0.00     0.157 A 
ATOM      5  C   UNL     1     182.355 -20.898  22.606  1.00  0.00     0.051 A 
ATOM      6  C   UNL     1     181.733 -22.145  22.758  1.00  0.00     0.157 A 
ENDROOT
BRANCH   1   7
ATOM      7  C   UNL     1     182.669 -19.745  26.185  1.00  0.00     0.010 C 
ATOM      8  C   UNL     1     181.843 -18.918  26.843  1.00  0.00     0.025 C 
BRANCH   8   9
ATOM      9  C   UNL     1     180.488 -18.534  26.404  1.00  0.00     0.064 C 
ATOM     10  O   UNL     1     180.333 -17.481  25.733  1.00  0.00    -0.545 OA
ATOM     11  O   UNL     1     179.387 -19.344  26.654  1.00  0.00    -0.545 OA
ENDBRANCH   8   9
ENDBRANCH   1   7
BRANCH   4  12
ATOM     12  O   UNL     1     180.807 -23.859  24.187  1.00  0.00    -0.504 OA
ATOM     13  H   UNL     1     180.036 -24.148  23.595  1.00  0.00     0.293 HD
ENDBRANCH   4  12
BRANCH   6  14
ATOM     14  O   UNL     1     181.436 -22.926  21.642  1.00  0.00    -0.504 OA
ATOM     15  H   UNL     1     180.721 -23.644  21.673  1.00  0.00     0.293 HD
ENDBRANCH   6  14
TORSDOF 4
ENDMDL
