MODEL 1
REMARK VINA RESULT:    -4.792      0.000      0.000
REMARK INTER + INTRA:          -6.506
REMARK INTER:                  -6.193
REMARK INTRA:                  -0.313
REMARK UNBOUND:                -0.313
REMARK SMILES CCO[C@@H]1O[C@H](CO)[C@@H](O)[C@@H](O)[C@H]1O
REMARK SMILES IDX 4 1 13 2 11 3 9 4 6 5 5 6 3 7 2 8 1 9 14 10 12 12 7 14 8 15
REMARK SMILES IDX 10 17
REMARK H PARENT 14 11 12 13 8 16 10 18
REMARK Flexibility Score: inf
ROOT
ATOM      1  C   UNL     1     -12.523  43.982  35.790  1.00  0.00     0.281 C 
ATOM      2  C   UNL     1     -13.743  43.161  35.307  1.00  0.00     0.202 C 
ATOM      3  C   UNL     1     -14.470  42.504  36.487  1.00  0.00     0.179 C 
ATOM      4  C   UNL     1     -14.768  43.527  37.596  1.00  0.00     0.177 C 
ATOM      5  C   UNL     1     -13.510  44.360  37.943  1.00  0.00     0.178 C 
ATOM      6  O   UNL     1     -12.870  44.923  36.800  1.00  0.00    -0.341 OA
ENDROOT
BRANCH   1   7
ATOM      7  O   UNL     1     -11.487  43.127  36.251  1.00  0.00    -0.350 OA
BRANCH   7   8
ATOM      8  C   UNL     1     -10.219  43.507  35.752  1.00  0.00     0.160 C 
ATOM      9  C   UNL     1      -9.357  44.076  36.873  1.00  0.00     0.035 C 
ENDBRANCH   7   8
ENDBRANCH   1   7
BRANCH   2  10
ATOM     10  O   UNL     1     -14.623  43.944  34.532  1.00  0.00    -0.385 OA
ATOM     11  H   UNL     1     -14.204  44.112  33.650  1.00  0.00     0.211 HD
ENDBRANCH   2  10
BRANCH   3  12
ATOM     12  O   UNL     1     -15.657  41.903  36.038  1.00  0.00    -0.387 OA
ATOM     13  H   UNL     1     -15.800  41.095  36.598  1.00  0.00     0.211 HD
ENDBRANCH   3  12
BRANCH   5  14
ATOM     14  C   UNL     1     -12.534  43.616  38.880  1.00  0.00     0.191 C 
BRANCH  14  15
ATOM     15  O   UNL     1     -11.726  44.524  39.579  1.00  0.00    -0.394 OA
ATOM     16  H   UNL     1     -12.099  45.428  39.406  1.00  0.00     0.210 HD
ENDBRANCH  14  15
ENDBRANCH   5  14
BRANCH   4  17
ATOM     17  O   UNL     1     -15.811  44.377  37.192  1.00  0.00    -0.387 OA
ATOM     18  H   UNL     1     -16.637  43.826  37.155  1.00  0.00     0.211 HD
ENDBRANCH   4  17
TORSDOF 7
ENDMDL
MODEL 2
REMARK VINA RESULT:    -4.664      9.505     12.072
REMARK INTER + INTRA:          -6.340
REMARK INTER:                  -6.032
REMARK INTRA:                  -0.308
REMARK UNBOUND:                -0.313
REMARK SMILES CCO[C@@H]1O[C@H](CO)[C@@H](O)[C@@H](O)[C@H]1O
REMARK SMILES IDX 4 1 13 2 11 3 9 4 6 5 5 6 3 7 2 8 1 9 14 10 12 12 7 14 8 15
REMARK SMILES IDX 10 17
REMARK H PARENT 14 11 12 13 8 16 10 18
REMARK Flexibility Score: inf
ROOT
ATOM      1  C   UNL     1      -6.634  42.452  28.925  1.00  0.00     0.281 C 
ATOM      2  C   UNL     1      -5.413  42.149  29.828  1.00  0.00     0.202 C 
ATOM      3  C   UNL     1      -4.711  40.856  29.391  1.00  0.00     0.179 C 
ATOM      4  C   UNL     1      -4.421  40.863  27.881  1.00  0.00     0.177 C 
ATOM      5  C   UNL     1      -5.678  41.269  27.072  1.00  0.00     0.178 C 
ATOM      6  O   UNL     1      -6.295  42.465  27.544  1.00  0.00    -0.341 OA
ENDROOT
BRANCH   1   7
ATOM      7  O   UNL     1      -7.684  41.527  29.166  1.00  0.00    -0.350 OA
BRANCH   7   8
ATOM      8  C   UNL     1      -8.955  42.149  29.164  1.00  0.00     0.160 C 
ATOM      9  C   UNL     1      -9.904  41.414  28.225  1.00  0.00     0.035 C 
ENDBRANCH   7   8
ENDBRANCH   1   7
BRANCH   2  10
ATOM     10  O   UNL     1      -4.514  43.233  29.871  1.00  0.00    -0.385 OA
ATOM     11  H   UNL     1      -4.587  43.738  29.021  1.00  0.00     0.211 HD
ENDBRANCH   2  10
BRANCH   3  12
ATOM     12  O   UNL     1      -3.522  40.693  30.121  1.00  0.00    -0.387 OA
ATOM     13  H   UNL     1      -3.620  39.856  30.647  1.00  0.00     0.211 HD
ENDBRANCH   3  12
BRANCH   5  14
ATOM     14  C   UNL     1      -6.675  40.104  26.884  1.00  0.00     0.191 C 
BRANCH  14  15
ATOM     15  O   UNL     1      -7.494  40.327  25.768  1.00  0.00    -0.394 OA
ATOM     16  H   UNL     1      -8.339  40.722  26.109  1.00  0.00     0.210 HD
ENDBRANCH  14  15
ENDBRANCH   5  14
BRANCH   4  17
ATOM     17  O   UNL     1      -3.365  41.746  27.603  1.00  0.00    -0.387 OA
ATOM     18  H   UNL     1      -3.583  42.608  28.046  1.00  0.00     0.211 HD
ENDBRANCH   4  17
TORSDOF 7
ENDMDL
MODEL 3
REMARK VINA RESULT:    -4.569      1.533      2.961
REMARK INTER + INTRA:          -6.217
REMARK INTER:                  -6.004
REMARK INTRA:                  -0.213
REMARK UNBOUND:                -0.313
REMARK SMILES CCO[C@@H]1O[C@H](CO)[C@@H](O)[C@@H](O)[C@H]1O
REMARK SMILES IDX 4 1 13 2 11 3 9 4 6 5 5 6 3 7 2 8 1 9 14 10 12 12 7 14 8 15
REMARK SMILES IDX 10 17
REMARK H PARENT 14 11 12 13 8 16 10 18
REMARK Flexibility Score: inf
ROOT
ATOM      1  C   UNL     1     -13.965  44.203  35.621  1.00  0.00     0.281 C 
ATOM      2  C   UNL     1     -14.904  43.565  36.673  1.00  0.00     0.202 C 
ATOM      3  C   UNL     1     -14.102  42.822  37.750  1.00  0.00     0.179 C 
ATOM      4  C   UNL     1     -12.985  43.709  38.324  1.00  0.00     0.177 C 
ATOM      5  C   UNL     1     -12.162  44.375  37.192  1.00  0.00     0.178 C 
ATOM      6  O   UNL     1     -12.968  45.027  36.214  1.00  0.00    -0.341 OA
ENDROOT
BRANCH   1   7
ATOM      7  O   UNL     1     -13.360  43.206  34.810  1.00  0.00    -0.350 OA
BRANCH   7   8
ATOM      8  C   UNL     1     -14.312  42.485  34.052  1.00  0.00     0.160 C 
ATOM      9  C   UNL     1     -14.010  40.992  34.103  1.00  0.00     0.035 C 
ENDBRANCH   7   8
ENDBRANCH   1   7
BRANCH   2  10
ATOM     10  O   UNL     1     -15.771  44.518  37.244  1.00  0.00    -0.385 OA
ATOM     11  H   UNL     1     -15.228  45.185  37.737  1.00  0.00     0.211 HD
ENDBRANCH   2  10
BRANCH   3  12
ATOM     12  O   UNL     1     -14.965  42.393  38.772  1.00  0.00    -0.387 OA
ATOM     13  H   UNL     1     -15.284  43.209  39.240  1.00  0.00     0.211 HD
ENDBRANCH   3  12
BRANCH   5  14
ATOM     14  C   UNL     1     -11.107  43.429  36.578  1.00  0.00     0.191 C 
BRANCH  14  15
ATOM     15  O   UNL     1      -9.854  43.630  37.172  1.00  0.00    -0.394 OA
ATOM     16  H   UNL     1      -9.413  42.742  37.215  1.00  0.00     0.210 HD
ENDBRANCH  14  15
ENDBRANCH   5  14
BRANCH   4  17
ATOM     17  O   UNL     1     -13.540  44.694  39.158  1.00  0.00    -0.387 OA
ATOM     18  H   UNL     1     -14.527  44.595  39.107  1.00  0.00     0.211 HD
ENDBRANCH   4  17
TORSDOF 7
ENDMDL
MODEL 4
REMARK VINA RESULT:    -4.524      9.855     11.968
REMARK INTER + INTRA:          -6.160
REMARK INTER:                  -5.954
REMARK INTRA:                  -0.206
REMARK UNBOUND:                -0.313
REMARK SMILES CCO[C@@H]1O[C@H](CO)[C@@H](O)[C@@H](O)[C@H]1O
REMARK SMILES IDX 4 1 13 2 11 3 9 4 6 5 5 6 3 7 2 8 1 9 14 10 12 12 7 14 8 15
REMARK SMILES IDX 10 17
REMARK H PARENT 14 11 12 13 8 16 10 18
REMARK Flexibility Score: inf
ROOT
ATOM      1  C   UNL     1      -5.248  42.322  28.983  1.00  0.00     0.281 C 
ATOM      2  C   UNL     1      -4.276  41.212  28.517  1.00  0.00     0.202 C 
ATOM      3  C   UNL     1      -5.042  39.996  27.981  1.00  0.00     0.179 C 
ATOM      4  C   UNL     1      -6.099  40.415  26.947  1.00  0.00     0.177 C 
ATOM      5  C   UNL     1      -6.959  41.592  27.471  1.00  0.00     0.178 C 
ATOM      6  O   UNL     1      -6.187  42.679  27.975  1.00  0.00    -0.341 OA
ENDROOT
BRANCH   1   7
ATOM      7  O   UNL     1      -5.926  41.936  30.170  1.00  0.00    -0.350 OA
BRANCH   7   8
ATOM      8  C   UNL     1      -5.279  42.415  31.334  1.00  0.00     0.160 C 
ATOM      9  C   UNL     1      -4.815  43.852  31.129  1.00  0.00     0.035 C 
ENDBRANCH   7   8
ENDBRANCH   1   7
BRANCH   2  10
ATOM     10  O   UNL     1      -3.350  41.695  27.570  1.00  0.00    -0.385 OA
ATOM     11  H   UNL     1      -3.384  42.686  27.570  1.00  0.00     0.211 HD
ENDBRANCH   2  10
BRANCH   3  12
ATOM     12  O   UNL     1      -4.140  39.077  27.420  1.00  0.00    -0.387 OA
ATOM     13  H   UNL     1      -3.251  39.522  27.401  1.00  0.00     0.211 HD
ENDBRANCH   3  12
BRANCH   5  14
ATOM     14  C   UNL     1      -8.074  41.139  28.439  1.00  0.00     0.191 C 
BRANCH  14  15
ATOM     15  O   UNL     1      -9.228  40.775  27.732  1.00  0.00    -0.394 OA
ATOM     16  H   UNL     1      -9.982  40.815  28.377  1.00  0.00     0.210 HD
ENDBRANCH  14  15
ENDBRANCH   5  14
BRANCH   4  17
ATOM     17  O   UNL     1      -5.471  40.778  25.743  1.00  0.00    -0.387 OA
ATOM     18  H   UNL     1      -5.823  40.173  25.038  1.00  0.00     0.211 HD
ENDBRANCH   4  17
TORSDOF 7
ENDMDL
MODEL 5
REMARK VINA RESULT:    -4.087      1.666      3.509
REMARK INTER + INTRA:          -5.595
REMARK INTER:                  -5.177
REMARK INTRA:                  -0.418
REMARK UNBOUND:                -0.313
REMARK SMILES CCO[C@@H]1O[C@H](CO)[C@@H](O)[C@@H](O)[C@H]1O
REMARK SMILES IDX 4 1 13 2 11 3 9 4 6 5 5 6 3 7 2 8 1 9 14 10 12 12 7 14 8 15
REMARK SMILES IDX 10 17
REMARK H PARENT 14 11 12 13 8 16 10 18
REMARK Flexibility Score: inf
ROOT
ATOM      1  C   UNL     1     -13.347  44.207  37.654  1.00  0.00     0.281 C 
ATOM      2  C   UNL     1     -12.455  44.145  36.390  1.00  0.00     0.202 C 
ATOM      3  C   UNL     1     -12.901  43.015  35.454  1.00  0.00     0.179 C 
ATOM      4  C   UNL     1     -14.414  43.079  35.183  1.00  0.00     0.177 C 
ATOM      5  C   UNL     1     -15.212  43.234  36.502  1.00  0.00     0.178 C 
ATOM      6  O   UNL     1     -14.732  44.286  37.335  1.00  0.00    -0.341 OA
ENDROOT
BRANCH   1   7
ATOM      7  O   UNL     1     -13.101  43.094  38.502  1.00  0.00    -0.350 OA
BRANCH   7   8
ATOM      8  C   UNL     1     -13.021  43.469  39.864  1.00  0.00     0.160 C 
ATOM      9  C   UNL     1     -13.662  42.404  40.746  1.00  0.00     0.035 C 
ENDBRANCH   7   8
ENDBRANCH   1   7
BRANCH   2  10
ATOM     10  O   UNL     1     -12.417  45.384  35.719  1.00  0.00    -0.385 OA
ATOM     11  H   UNL     1     -13.026  45.340  34.938  1.00  0.00     0.211 HD
ENDBRANCH   2  10
BRANCH   3  12
ATOM     12  O   UNL     1     -12.181  43.085  34.249  1.00  0.00    -0.387 OA
ATOM     13  H   UNL     1     -12.359  42.239  33.759  1.00  0.00     0.211 HD
ENDBRANCH   3  12
BRANCH   5  14
ATOM     14  C   UNL     1     -15.395  41.898  37.255  1.00  0.00     0.191 C 
BRANCH  14  15
ATOM     15  O   UNL     1     -16.155  42.084  38.418  1.00  0.00    -0.394 OA
ATOM     16  H   UNL     1     -16.353  43.055  38.476  1.00  0.00     0.210 HD
ENDBRANCH  14  15
ENDBRANCH   5  14
BRANCH   4  17
ATOM     17  O   UNL     1     -14.698  44.151  34.321  1.00  0.00    -0.387 OA
ATOM     18  H   UNL     1     -13.915  44.255  33.719  1.00  0.00     0.211 HD
ENDBRANCH   4  17
TORSDOF 7
ENDMDL
MODEL 6
REMARK VINA RESULT:    -4.067      1.533      2.153
REMARK INTER + INTRA:          -5.569
REMARK INTER:                  -5.143
REMARK INTRA:                  -0.426
REMARK UNBOUND:                -0.313
REMARK SMILES CCO[C@@H]1O[C@H](CO)[C@@H](O)[C@@H](O)[C@H]1O
REMARK SMILES IDX 4 1 13 2 11 3 9 4 6 5 5 6 3 7 2 8 1 9 14 10 12 12 7 14 8 15
REMARK SMILES IDX 10 17
REMARK H PARENT 14 11 12 13 8 16 10 18
REMARK Flexibility Score: inf
ROOT
ATOM      1  C   UNL     1     -13.875  44.620  35.438  1.00  0.00     0.281 C 
ATOM      2  C   UNL     1     -13.883  43.380  34.511  1.00  0.00     0.202 C 
ATOM      3  C   UNL     1     -13.722  42.086  35.318  1.00  0.00     0.179 C 
ATOM      4  C   UNL     1     -14.717  42.032  36.488  1.00  0.00     0.177 C 
ATOM      5  C   UNL     1     -14.701  43.352  37.298  1.00  0.00     0.178 C 
ATOM      6  O   UNL     1     -14.832  44.517  36.486  1.00  0.00    -0.341 OA
ENDROOT
BRANCH   1   7
ATOM      7  O   UNL     1     -12.579  44.843  35.976  1.00  0.00    -0.350 OA
BRANCH   7   8
ATOM      8  C   UNL     1     -11.646  45.218  34.980  1.00  0.00     0.160 C 
ATOM      9  C   UNL     1     -11.921  46.640  34.506  1.00  0.00     0.035 C 
ENDBRANCH   7   8
ENDBRANCH   1   7
BRANCH   2  10
ATOM     10  O   UNL     1     -15.036  43.342  33.701  1.00  0.00    -0.385 OA
ATOM     11  H   UNL     1     -14.933  44.006  32.972  1.00  0.00     0.211 HD
ENDBRANCH   2  10
BRANCH   3  12
ATOM     12  O   UNL     1     -13.893  40.976  34.473  1.00  0.00    -0.387 OA
ATOM     13  H   UNL     1     -14.712  41.146  33.938  1.00  0.00     0.211 HD
ENDBRANCH   3  12
BRANCH   5  14
ATOM     14  C   UNL     1     -13.523  43.434  38.293  1.00  0.00     0.191 C 
BRANCH  14  15
ATOM     15  O   UNL     1     -13.496  44.683  38.930  1.00  0.00    -0.394 OA
ATOM     16  H   UNL     1     -12.658  45.130  38.644  1.00  0.00     0.210 HD
ENDBRANCH  14  15
ENDBRANCH   5  14
BRANCH   4  17
ATOM     17  O   UNL     1     -16.012  41.782  36.001  1.00  0.00    -0.387 OA
ATOM     18  H   UNL     1     -16.046  40.823  35.747  1.00  0.00     0.211 HD
ENDBRANCH   4  17
TORSDOF 7
ENDMDL
MODEL 7
REMARK VINA RESULT:    -4.050      1.538      3.230
REMARK INTER + INTRA:          -5.548
REMARK INTER:                  -5.116
REMARK INTRA:                  -0.432
REMARK UNBOUND:                -0.313
REMARK SMILES CCO[C@@H]1O[C@H](CO)[C@@H](O)[C@@H](O)[C@H]1O
REMARK SMILES IDX 4 1 13 2 11 3 9 4 6 5 5 6 3 7 2 8 1 9 14 10 12 12 7 14 8 15
REMARK SMILES IDX 10 17
REMARK H PARENT 14 11 12 13 8 16 10 18
REMARK Flexibility Score: inf
ROOT
ATOM      1  C   UNL     1     -12.140  43.626  36.736  1.00  0.00     0.281 C 
ATOM      2  C   UNL     1     -13.421  44.107  37.458  1.00  0.00     0.202 C 
ATOM      3  C   UNL     1     -14.647  43.992  36.543  1.00  0.00     0.179 C 
ATOM      4  C   UNL     1     -14.740  42.593  35.910  1.00  0.00     0.177 C 
ATOM      5  C   UNL     1     -13.383  42.165  35.298  1.00  0.00     0.178 C 
ATOM      6  O   UNL     1     -12.284  42.319  36.192  1.00  0.00    -0.341 OA
ENDROOT
BRANCH   1   7
ATOM      7  O   UNL     1     -11.756  44.541  35.720  1.00  0.00    -0.350 OA
BRANCH   7   8
ATOM      8  C   UNL     1     -10.350  44.648  35.601  1.00  0.00     0.160 C 
ATOM      9  C   UNL     1      -9.984  45.550  34.428  1.00  0.00     0.035 C 
ENDBRANCH   7   8
ENDBRANCH   1   7
BRANCH   2  10
ATOM     10  O   UNL     1     -13.622  43.424  38.675  1.00  0.00    -0.385 OA
ATOM     11  H   UNL     1     -13.912  44.078  39.360  1.00  0.00     0.211 HD
ENDBRANCH   2  10
BRANCH   3  12
ATOM     12  O   UNL     1     -15.812  44.281  37.272  1.00  0.00    -0.387 OA
ATOM     13  H   UNL     1     -15.567  44.239  38.234  1.00  0.00     0.211 HD
ENDBRANCH   3  12
BRANCH   5  14
ATOM     14  C   UNL     1     -13.127  42.786  33.907  1.00  0.00     0.191 C 
BRANCH  14  15
ATOM     15  O   UNL     1     -11.867  42.413  33.421  1.00  0.00    -0.394 OA
ATOM     16  H   UNL     1     -11.885  41.426  33.312  1.00  0.00     0.210 HD
ENDBRANCH  14  15
ENDBRANCH   5  14
BRANCH   4  17
ATOM     17  O   UNL     1     -15.147  41.659  36.877  1.00  0.00    -0.387 OA
ATOM     18  H   UNL     1     -15.977  41.232  36.538  1.00  0.00     0.211 HD
ENDBRANCH   4  17
TORSDOF 7
ENDMDL
MODEL 8
REMARK VINA RESULT:    -4.039      1.890      2.977
REMARK INTER + INTRA:          -5.533
REMARK INTER:                  -5.080
REMARK INTRA:                  -0.454
REMARK UNBOUND:                -0.313
REMARK SMILES CCO[C@@H]1O[C@H](CO)[C@@H](O)[C@@H](O)[C@H]1O
REMARK SMILES IDX 4 1 13 2 11 3 9 4 6 5 5 6 3 7 2 8 1 9 14 10 12 12 7 14 8 15
REMARK SMILES IDX 10 17
REMARK H PARENT 14 11 12 13 8 16 10 18
REMARK Flexibility Score: inf
ROOT
ATOM      1  C   UNL     1     -13.824  42.365  34.949  1.00  0.00     0.281 C 
ATOM      2  C   UNL     1     -14.544  41.881  36.231  1.00  0.00     0.202 C 
ATOM      3  C   UNL     1     -14.139  42.728  37.445  1.00  0.00     0.179 C 
ATOM      4  C   UNL     1     -14.275  44.230  37.146  1.00  0.00     0.177 C 
ATOM      5  C   UNL     1     -13.603  44.596  35.799  1.00  0.00     0.178 C 
ATOM      6  O   UNL     1     -14.006  43.757  34.719  1.00  0.00    -0.341 OA
ENDROOT
BRANCH   1   7
ATOM      7  O   UNL     1     -12.439  42.051  34.997  1.00  0.00    -0.350 OA
BRANCH   7   8
ATOM      8  C   UNL     1     -11.954  41.588  33.751  1.00  0.00     0.160 C 
ATOM      9  C   UNL     1     -12.649  40.290  33.360  1.00  0.00     0.035 C 
ENDBRANCH   7   8
ENDBRANCH   1   7
BRANCH   2  10
ATOM     10  O   UNL     1     -15.944  41.857  36.065  1.00  0.00    -0.385 OA
ATOM     11  H   UNL     1     -16.250  40.915  36.099  1.00  0.00     0.211 HD
ENDBRANCH   2  10
BRANCH   3  12
ATOM     12  O   UNL     1     -14.924  42.372  38.554  1.00  0.00    -0.387 OA
ATOM     13  H   UNL     1     -14.324  42.379  39.345  1.00  0.00     0.211 HD
ENDBRANCH   3  12
BRANCH   5  14
ATOM     14  C   UNL     1     -12.070  44.748  35.912  1.00  0.00     0.191 C 
BRANCH  14  15
ATOM     15  O   UNL     1     -11.503  45.002  34.656  1.00  0.00    -0.394 OA
ATOM     16  H   UNL     1     -11.587  45.979  34.498  1.00  0.00     0.210 HD
ENDBRANCH  14  15
ENDBRANCH   5  14
BRANCH   4  17
ATOM     17  O   UNL     1     -15.633  44.589  37.120  1.00  0.00    -0.387 OA
ATOM     18  H   UNL     1     -16.142  43.781  36.848  1.00  0.00     0.211 HD
ENDBRANCH   4  17
TORSDOF 7
ENDMDL
MODEL 9
REMARK VINA RESULT:    -3.885      9.289     11.359
REMARK INTER + INTRA:          -5.334
REMARK INTER:                  -4.873
REMARK INTRA:                  -0.460
REMARK UNBOUND:                -0.313
REMARK SMILES CCO[C@@H]1O[C@H](CO)[C@@H](O)[C@@H](O)[C@H]1O
REMARK SMILES IDX 4 1 13 2 11 3 9 4 6 5 5 6 3 7 2 8 1 9 14 10 12 12 7 14 8 15
REMARK SMILES IDX 10 17
REMARK H PARENT 14 11 12 13 8 16 10 18
REMARK Flexibility Score: inf
ROOT
ATOM      1  C   UNL     1      -6.003  40.873  28.314  1.00  0.00     0.281 C 
ATOM      2  C   UNL     1      -4.803  41.808  28.598  1.00  0.00     0.202 C 
ATOM      3  C   UNL     1      -5.278  43.207  29.010  1.00  0.00     0.179 C 
ATOM      4  C   UNL     1      -6.326  43.131  30.132  1.00  0.00     0.177 C 
ATOM      5  C   UNL     1      -7.433  42.101  29.795  1.00  0.00     0.178 C 
ATOM      6  O   UNL     1      -6.924  40.830  29.398  1.00  0.00    -0.341 OA
ENDROOT
BRANCH   1   7
ATOM      7  O   UNL     1      -6.670  41.252  27.118  1.00  0.00    -0.350 OA
BRANCH   7   8
ATOM      8  C   UNL     1      -7.037  40.132  26.334  1.00  0.00     0.160 C 
ATOM      9  C   UNL     1      -5.937  39.077  26.369  1.00  0.00     0.035 C 
ENDBRANCH   7   8
ENDBRANCH   1   7
BRANCH   2  10
ATOM     10  O   UNL     1      -3.929  41.257  29.557  1.00  0.00    -0.385 OA
ATOM     11  H   UNL     1      -3.357  40.581  29.113  1.00  0.00     0.211 HD
ENDBRANCH   2  10
BRANCH   3  12
ATOM     12  O   UNL     1      -4.178  43.981  29.414  1.00  0.00    -0.387 OA
ATOM     13  H   UNL     1      -4.489  44.555  30.162  1.00  0.00     0.211 HD
ENDBRANCH   3  12
BRANCH   5  14
ATOM     14  C   UNL     1      -8.499  42.659  28.827  1.00  0.00     0.191 C 
BRANCH  14  15
ATOM     15  O   UNL     1      -9.400  41.654  28.448  1.00  0.00    -0.394 OA
ATOM     16  H   UNL     1     -10.307  41.981  28.685  1.00  0.00     0.210 HD
ENDBRANCH  14  15
ENDBRANCH   5  14
BRANCH   4  17
ATOM     17  O   UNL     1      -5.702  42.787  31.344  1.00  0.00    -0.387 OA
ATOM     18  H   UNL     1      -6.179  41.991  31.700  1.00  0.00     0.211 HD
ENDBRANCH   4  17
TORSDOF 7
ENDMDL
