MODEL 1
REMARK VINA RESULT:    -6.462      0.000      0.000
REMARK INTER + INTRA:          -7.257
REMARK INTER:                  -7.029
REMARK INTRA:                  -0.229
REMARK UNBOUND:                -0.229
REMARK SMILES O=C([O-])c1ccccc1O
REMARK SMILES IDX 4 1 9 2 5 3 8 4 6 5 7 6 2 7 1 8 3 9 10 10
REMARK H PARENT 10 11
REMARK Flexibility Score: inf
ROOT
ATOM      1  C   UNL     1      -3.455  -9.022 -36.395  1.00  0.00     0.039 A 
ATOM      2  C   UNL     1      -4.233  -9.989 -35.707  1.00  0.00     0.124 A 
ATOM      3  C   UNL     1      -3.484  -9.001 -37.801  1.00  0.00     0.014 A 
ATOM      4  C   UNL     1      -4.961 -10.939 -36.437  1.00  0.00     0.047 A 
ATOM      5  C   UNL     1      -4.232  -9.942 -38.513  1.00  0.00     0.001 A 
ATOM      6  C   UNL     1      -4.961 -10.915 -37.832  1.00  0.00     0.004 A 
ENDROOT
BRANCH   1   7
ATOM      7  C   UNL     1      -2.584  -8.049 -35.698  1.00  0.00     0.075 C 
ATOM      8  O   UNL     1      -1.643  -7.473 -36.304  1.00  0.00    -0.545 OA
ATOM      9  O   UNL     1      -2.842  -7.708 -34.375  1.00  0.00    -0.545 OA
ENDBRANCH   1   7
BRANCH   2  10
ATOM     10  O   UNL     1      -4.338 -10.023 -34.315  1.00  0.00    -0.507 OA
ATOM     11  H   UNL     1      -4.653  -9.240 -33.759  1.00  0.00     0.293 HD
ENDBRANCH   2  10
TORSDOF 2
ENDMDL
MODEL 2
REMARK VINA RESULT:    -6.353      1.763      3.748
REMARK INTER + INTRA:          -7.138
REMARK INTER:                  -6.907
REMARK INTRA:                  -0.232
REMARK UNBOUND:                -0.229
REMARK SMILES O=C([O-])c1ccccc1O
REMARK SMILES IDX 4 1 9 2 5 3 8 4 6 5 7 6 2 7 1 8 3 9 10 10
REMARK H PARENT 10 11
REMARK Flexibility Score: inf
ROOT
ATOM      1  C   UNL     1      -5.164 -11.112 -36.424  1.00  0.00     0.039 A 
ATOM      2  C   UNL     1      -4.402 -10.194 -35.654  1.00  0.00     0.124 A 
ATOM      3  C   UNL     1      -5.063 -11.072 -37.826  1.00  0.00     0.014 A 
ATOM      4  C   UNL     1      -3.620  -9.229 -36.303  1.00  0.00     0.047 A 
ATOM      5  C   UNL     1      -4.262 -10.116 -38.457  1.00  0.00     0.001 A 
ATOM      6  C   UNL     1      -3.549  -9.191 -37.696  1.00  0.00     0.004 A 
ENDROOT
BRANCH   1   7
ATOM      7  C   UNL     1      -6.087 -12.096 -35.816  1.00  0.00     0.075 C 
ATOM      8  O   UNL     1      -7.031 -12.595 -36.484  1.00  0.00    -0.545 OA
ATOM      9  O   UNL     1      -5.879 -12.533 -34.513  1.00  0.00    -0.545 OA
ENDBRANCH   1   7
BRANCH   2  10
ATOM     10  O   UNL     1      -4.368 -10.225 -34.259  1.00  0.00    -0.507 OA
ATOM     11  H   UNL     1      -5.192 -10.315 -33.681  1.00  0.00     0.293 HD
ENDBRANCH   2  10
TORSDOF 2
ENDMDL
MODEL 3
REMARK VINA RESULT:    -6.262      1.552      3.582
REMARK INTER + INTRA:          -7.040
REMARK INTER:                  -6.803
REMARK INTRA:                  -0.237
REMARK UNBOUND:                -0.229
REMARK SMILES O=C([O-])c1ccccc1O
REMARK SMILES IDX 4 1 9 2 5 3 8 4 6 5 7 6 2 7 1 8 3 9 10 10
REMARK H PARENT 10 11
REMARK Flexibility Score: inf
ROOT
ATOM      1  C   UNL     1      -4.858 -10.742 -36.399  1.00  0.00     0.039 A 
ATOM      2  C   UNL     1      -4.072  -9.833 -35.643  1.00  0.00     0.124 A 
ATOM      3  C   UNL     1      -4.756 -10.726 -37.801  1.00  0.00     0.014 A 
ATOM      4  C   UNL     1      -3.264  -8.899 -36.306  1.00  0.00     0.047 A 
ATOM      5  C   UNL     1      -3.930  -9.802 -38.446  1.00  0.00     0.001 A 
ATOM      6  C   UNL     1      -3.193  -8.884 -37.700  1.00  0.00     0.004 A 
ENDROOT
BRANCH   1   7
ATOM      7  C   UNL     1      -5.808 -11.691 -35.776  1.00  0.00     0.075 C 
ATOM      8  O   UNL     1      -5.606 -12.142 -34.617  1.00  0.00    -0.545 OA
ATOM      9  O   UNL     1      -6.975 -12.045 -36.442  1.00  0.00    -0.545 OA
ENDBRANCH   1   7
BRANCH   2  10
ATOM     10  O   UNL     1      -4.039  -9.843 -34.248  1.00  0.00    -0.507 OA
ATOM     11  H   UNL     1      -4.446 -10.577 -33.684  1.00  0.00     0.293 HD
ENDBRANCH   2  10
TORSDOF 2
ENDMDL
MODEL 4
REMARK VINA RESULT:    -6.117      2.500      4.061
REMARK INTER + INTRA:          -6.882
REMARK INTER:                  -6.636
REMARK INTRA:                  -0.247
REMARK UNBOUND:                -0.229
REMARK SMILES O=C([O-])c1ccccc1O
REMARK SMILES IDX 4 1 9 2 5 3 8 4 6 5 7 6 2 7 1 8 3 9 10 10
REMARK H PARENT 10 11
REMARK Flexibility Score: inf
ROOT
ATOM      1  C   UNL     1      -4.374 -10.155 -36.683  1.00  0.00     0.039 A 
ATOM      2  C   UNL     1      -3.697  -9.586 -37.794  1.00  0.00     0.124 A 
ATOM      3  C   UNL     1      -3.990  -9.773 -35.385  1.00  0.00     0.014 A 
ATOM      4  C   UNL     1      -2.626  -8.709 -37.577  1.00  0.00     0.047 A 
ATOM      5  C   UNL     1      -2.933  -8.881 -35.187  1.00  0.00     0.001 A 
ATOM      6  C   UNL     1      -2.246  -8.358 -36.281  1.00  0.00     0.004 A 
ENDROOT
BRANCH   1   7
ATOM      7  C   UNL     1      -5.449 -11.161 -36.828  1.00  0.00     0.075 C 
ATOM      8  O   UNL     1      -6.285 -11.084 -37.767  1.00  0.00    -0.545 OA
ATOM      9  O   UNL     1      -5.506 -12.249 -35.964  1.00  0.00    -0.545 OA
ENDBRANCH   1   7
BRANCH   2  10
ATOM     10  O   UNL     1      -4.074  -9.835 -39.115  1.00  0.00    -0.507 OA
ATOM     11  H   UNL     1      -3.443 -10.197 -39.817  1.00  0.00     0.293 HD
ENDBRANCH   2  10
TORSDOF 2
ENDMDL
MODEL 5
REMARK VINA RESULT:    -6.043      1.898      3.478
REMARK INTER + INTRA:          -6.802
REMARK INTER:                  -6.551
REMARK INTRA:                  -0.251
REMARK UNBOUND:                -0.229
REMARK SMILES O=C([O-])c1ccccc1O
REMARK SMILES IDX 4 1 9 2 5 3 8 4 6 5 7 6 2 7 1 8 3 9 10 10
REMARK H PARENT 10 11
REMARK Flexibility Score: inf
ROOT
ATOM      1  C   UNL     1      -4.428 -10.213 -36.598  1.00  0.00     0.039 A 
ATOM      2  C   UNL     1      -3.951  -9.794 -35.329  1.00  0.00     0.124 A 
ATOM      3  C   UNL     1      -3.858  -9.656 -37.756  1.00  0.00     0.014 A 
ATOM      4  C   UNL     1      -2.972  -8.794 -35.253  1.00  0.00     0.047 A 
ATOM      5  C   UNL     1      -2.868  -8.675 -37.664  1.00  0.00     0.001 A 
ATOM      6  C   UNL     1      -2.433  -8.238 -36.414  1.00  0.00     0.004 A 
ENDROOT
BRANCH   1   7
ATOM      7  C   UNL     1      -5.527 -11.192 -36.758  1.00  0.00     0.075 C 
ATOM      8  O   UNL     1      -6.359 -11.082 -37.698  1.00  0.00    -0.545 OA
ATOM      9  O   UNL     1      -5.611 -12.289 -35.909  1.00  0.00    -0.545 OA
ENDBRANCH   1   7
BRANCH   2  10
ATOM     10  O   UNL     1      -4.392 -10.361 -34.131  1.00  0.00    -0.507 OA
ATOM     11  H   UNL     1      -5.357 -10.353 -33.831  1.00  0.00     0.293 HD
ENDBRANCH   2  10
TORSDOF 2
ENDMDL
MODEL 6
REMARK VINA RESULT:    -6.038      1.737      2.486
REMARK INTER + INTRA:          -6.796
REMARK INTER:                  -6.554
REMARK INTRA:                  -0.242
REMARK UNBOUND:                -0.229
REMARK SMILES O=C([O-])c1ccccc1O
REMARK SMILES IDX 4 1 9 2 5 3 8 4 6 5 7 6 2 7 1 8 3 9 10 10
REMARK H PARENT 10 11
REMARK Flexibility Score: inf
ROOT
ATOM      1  C   UNL     1      -4.004  -9.796 -36.580  1.00  0.00     0.039 A 
ATOM      2  C   UNL     1      -4.564 -10.292 -37.787  1.00  0.00     0.124 A 
ATOM      3  C   UNL     1      -4.506 -10.267 -35.354  1.00  0.00     0.014 A 
ATOM      4  C   UNL     1      -5.641 -11.186 -37.734  1.00  0.00     0.047 A 
ATOM      5  C   UNL     1      -5.567 -11.175 -35.319  1.00  0.00     0.001 A 
ATOM      6  C   UNL     1      -6.139 -11.627 -36.507  1.00  0.00     0.004 A 
ENDROOT
BRANCH   1   7
ATOM      7  C   UNL     1      -2.931  -8.777 -36.553  1.00  0.00     0.075 C 
ATOM      8  O   UNL     1      -2.053  -8.737 -37.455  1.00  0.00    -0.545 OA
ATOM      9  O   UNL     1      -2.922  -7.802 -35.562  1.00  0.00    -0.545 OA
ENDBRANCH   1   7
BRANCH   2  10
ATOM     10  O   UNL     1      -4.065  -9.952 -39.046  1.00  0.00    -0.507 OA
ATOM     11  H   UNL     1      -3.131 -10.180 -39.358  1.00  0.00     0.293 HD
ENDBRANCH   2  10
TORSDOF 2
ENDMDL
MODEL 7
REMARK VINA RESULT:    -5.976      1.391      2.163
REMARK INTER + INTRA:          -6.729
REMARK INTER:                  -6.500
REMARK INTRA:                  -0.229
REMARK UNBOUND:                -0.229
REMARK SMILES O=C([O-])c1ccccc1O
REMARK SMILES IDX 4 1 9 2 5 3 8 4 6 5 7 6 2 7 1 8 3 9 10 10
REMARK H PARENT 10 11
REMARK Flexibility Score: inf
ROOT
ATOM      1  C   UNL     1      -4.300 -10.032 -36.686  1.00  0.00     0.039 A 
ATOM      2  C   UNL     1      -4.599 -10.317 -35.327  1.00  0.00     0.124 A 
ATOM      3  C   UNL     1      -5.009 -10.709 -37.694  1.00  0.00     0.014 A 
ATOM      4  C   UNL     1      -5.542 -11.306 -35.019  1.00  0.00     0.047 A 
ATOM      5  C   UNL     1      -5.962 -11.678 -37.369  1.00  0.00     0.001 A 
ATOM      6  C   UNL     1      -6.221 -11.982 -36.033  1.00  0.00     0.004 A 
ENDROOT
BRANCH   1   7
ATOM      7  C   UNL     1      -3.249  -9.073 -37.092  1.00  0.00     0.075 C 
ATOM      8  O   UNL     1      -2.880  -8.151 -36.317  1.00  0.00    -0.545 OA
ATOM      9  O   UNL     1      -2.605  -9.222 -38.315  1.00  0.00    -0.545 OA
ENDBRANCH   1   7
BRANCH   2  10
ATOM     10  O   UNL     1      -4.013  -9.626 -34.265  1.00  0.00    -0.507 OA
ATOM     11  H   UNL     1      -3.254  -8.968 -34.377  1.00  0.00     0.293 HD
ENDBRANCH   2  10
TORSDOF 2
ENDMDL
MODEL 8
REMARK VINA RESULT:    -5.083      2.049      3.715
REMARK INTER + INTRA:          -5.758
REMARK INTER:                  -5.520
REMARK INTRA:                  -0.238
REMARK UNBOUND:                -0.229
REMARK SMILES O=C([O-])c1ccccc1O
REMARK SMILES IDX 4 1 9 2 5 3 8 4 6 5 7 6 2 7 1 8 3 9 10 10
REMARK H PARENT 10 11
REMARK Flexibility Score: inf
ROOT
ATOM      1  C   UNL     1      -3.191  -8.981 -36.782  1.00  0.00     0.039 A 
ATOM      2  C   UNL     1      -2.508  -7.872 -36.218  1.00  0.00     0.124 A 
ATOM      3  C   UNL     1      -3.983  -9.788 -35.947  1.00  0.00     0.014 A 
ATOM      4  C   UNL     1      -2.584  -7.642 -34.837  1.00  0.00     0.047 A 
ATOM      5  C   UNL     1      -4.064  -9.533 -34.576  1.00  0.00     0.001 A 
ATOM      6  C   UNL     1      -3.358  -8.467 -34.021  1.00  0.00     0.004 A 
ENDROOT
BRANCH   1   7
ATOM      7  C   UNL     1      -3.082  -9.346 -38.212  1.00  0.00     0.075 C 
ATOM      8  O   UNL     1      -1.958  -9.436 -38.773  1.00  0.00    -0.545 OA
ATOM      9  O   UNL     1      -4.225  -9.664 -38.938  1.00  0.00    -0.545 OA
ENDBRANCH   1   7
BRANCH   2  10
ATOM     10  O   UNL     1      -1.778  -6.964 -36.987  1.00  0.00    -0.507 OA
ATOM     11  H   UNL     1      -1.299  -6.162 -36.600  1.00  0.00     0.293 HD
ENDBRANCH   2  10
TORSDOF 2
ENDMDL
MODEL 9
REMARK VINA RESULT:    -4.969      6.881      8.075
REMARK INTER + INTRA:          -5.634
REMARK INTER:                  -5.383
REMARK INTRA:                  -0.251
REMARK UNBOUND:                -0.229
REMARK SMILES O=C([O-])c1ccccc1O
REMARK SMILES IDX 4 1 9 2 5 3 8 4 6 5 7 6 2 7 1 8 3 9 10 10
REMARK H PARENT 10 11
REMARK Flexibility Score: inf
ROOT
ATOM      1  C   UNL     1      -3.703  -9.209 -28.761  1.00  0.00     0.039 A 
ATOM      2  C   UNL     1      -4.401 -10.365 -29.201  1.00  0.00     0.124 A 
ATOM      3  C   UNL     1      -3.629  -8.943 -27.382  1.00  0.00     0.014 A 
ATOM      4  C   UNL     1      -5.053 -11.178 -28.264  1.00  0.00     0.047 A 
ATOM      5  C   UNL     1      -4.267  -9.776 -26.460  1.00  0.00     0.001 A 
ATOM      6  C   UNL     1      -4.986 -10.887 -26.901  1.00  0.00     0.004 A 
ENDROOT
BRANCH   1   7
ATOM      7  C   UNL     1      -3.073  -8.249 -29.695  1.00  0.00     0.075 C 
ATOM      8  O   UNL     1      -1.907  -7.819 -29.491  1.00  0.00    -0.545 OA
ATOM      9  O   UNL     1      -3.741  -7.862 -30.851  1.00  0.00    -0.545 OA
ENDBRANCH   1   7
BRANCH   2  10
ATOM     10  O   UNL     1      -4.444 -10.756 -30.540  1.00  0.00    -0.507 OA
ATOM     11  H   UNL     1      -3.832 -10.382 -31.252  1.00  0.00     0.293 HD
ENDBRANCH   2  10
TORSDOF 2
ENDMDL
