MODEL 1
REMARK VINA RESULT:    -2.597      0.000      0.000
REMARK INTER + INTRA:          -7.467
REMARK INTER:                  -5.481
REMARK INTRA:                  -1.986
REMARK UNBOUND:                -1.986
REMARK SMILES CCC(=O)CCCCC[C@H]1NC(=O)[C@@H]2CCCCN2C(=O)[C@@H]([C@@H](C)CC)NC(=O)[C@H](Cc2cn(OC)c3ccccc23)NC1=O
REMARK SMILES IDX 9 1 10 2 44 3 43 4 45 6 30 7 28 8 27 9 29 11 22 12 23 14
REMARK SMILES IDX 24 15 25 16 26 17 31 18 32 19 33 20 42 21 34 22 37 23 41 24
REMARK SMILES IDX 38 25 40 26 39 27 35 28 36 29 11 30 12 31 13 33 14 34 19 35
REMARK SMILES IDX 15 36 18 37 16 38 17 39 20 40 21 41 8 43 7 44 6 45 5 46 3 47
REMARK SMILES IDX 4 48 2 49 1 50
REMARK H PARENT 43 5 27 10 11 32
REMARK Flexibility Score: 80.00
ROOT
ATOM      1  C   UNL     1    -116.441  39.106  -9.254  1.00  0.00     0.035 C 
ENDROOT
BRANCH   1   2
ATOM      2  C   UNL     1    -115.410  39.220 -10.398  1.00  0.00     0.171 C 
BRANCH   2   3
ATOM      3  C   UNL     1    -114.755  40.575 -10.406  1.00  0.00     0.243 C 
ATOM      4  N   UNL     1    -115.451  41.738  -9.946  1.00  0.00    -0.342 N 
ATOM      5  H   UNL     1    -115.674  41.765  -8.920  1.00  0.00     0.164 HD
ATOM      6  O   UNL     1    -113.556  40.690 -10.788  1.00  0.00    -0.273 OA
BRANCH   4   7
ATOM      7  C   UNL     1    -116.160  42.660 -10.845  1.00  0.00     0.175 C 
BRANCH   7   8
ATOM      8  C   UNL     1    -115.454  42.808 -12.169  1.00  0.00     0.243 C 
ATOM      9  N   UNL     1    -116.026  42.242 -13.353  1.00  0.00    -0.342 N 
ATOM     10  H   UNL     1    -117.031  41.952 -13.335  1.00  0.00     0.164 HD
ATOM     11  O   UNL     1    -114.344  43.391 -12.222  1.00  0.00    -0.273 OA
BRANCH   9  12
ATOM     12  C   UNL     1    -115.235  41.972 -14.561  1.00  0.00     0.174 CG0
ATOM     13  G   UNL     1    -115.493  40.552 -15.016  1.00  0.00     0.000 G0
BRANCH  12  14
ATOM     14  C   UNL     1    -115.516  43.019 -15.679  1.00  0.00     0.018 C 
ATOM     15  C   UNL     1    -116.688  43.974 -15.350  1.00  0.00     0.010 C 
BRANCH  14  16
ATOM     16  C   UNL     1    -114.236  43.828 -16.011  1.00  0.00     0.002 C 
ATOM     17  C   UNL     1    -113.959  44.920 -14.978  1.00  0.00     0.004 C 
ENDBRANCH  14  16
ENDBRANCH  12  14
ENDBRANCH   9  12
ENDBRANCH   7   8
BRANCH   7  18
ATOM     18  C   UNL     1    -116.329  44.044 -10.186  1.00  0.00     0.073 C 
BRANCH  18  19
ATOM     19  C   UNL     1    -115.287  44.300  -9.128  1.00  0.00    -0.016 A 
ATOM     20  C   UNL     1    -113.955  44.631  -9.340  1.00  0.00     0.134 A 
ATOM     21  C   UNL     1    -115.453  44.271  -7.756  1.00  0.00     0.006 A 
ATOM     22  N   UNL     1    -113.311  44.778  -8.164  1.00  0.00    -0.191 N 
ATOM     23  C   UNL     1    -114.230  44.557  -7.185  1.00  0.00     0.087 A 
ATOM     24  C   UNL     1    -116.596  44.041  -6.988  1.00  0.00     0.011 A 
ATOM     25  C   UNL     1    -114.094  44.637  -5.791  1.00  0.00     0.030 A 
ATOM     26  C   UNL     1    -116.470  44.101  -5.592  1.00  0.00     0.001 A 
ATOM     27  C   UNL     1    -115.228  44.390  -4.996  1.00  0.00     0.002 A 
BRANCH  22  28
ATOM     28  O   UNL     1    -111.965  45.109  -8.082  1.00  0.00    -0.417 OA
ATOM     29  C   UNL     1    -110.937  44.523  -8.868  1.00  0.00     0.313 C 
ENDBRANCH  22  28
ENDBRANCH  18  19
ENDBRANCH   7  18
ENDBRANCH   4   7
ENDBRANCH   2   3
BRANCH   2  30
ATOM     30  N   UNL     1    -116.026  38.955 -11.704  1.00  0.00    -0.343 N 
ATOM     31  C   UNL     1    -115.526  37.957 -12.600  1.00  0.00     0.243 C 
ATOM     32  H   UNL     1    -116.759  39.599 -12.068  1.00  0.00     0.164 HD
ATOM     33  O   UNL     1    -115.077  36.867 -12.147  1.00  0.00    -0.273 OA
BRANCH  31  34
ATOM     34  C   UNL     1    -115.528  38.214 -14.094  1.00  0.00     0.174 C 
ATOM     35  N   UNL     1    -114.795  39.458 -14.401  1.00  0.00    -0.329 N 
ATOM     36  C   UNL     1    -114.905  37.073 -14.909  1.00  0.00     0.035 C 
ATOM     37  C   UNL     1    -113.328  39.501 -14.294  1.00  0.00     0.120 C 
ATOM     38  C   UNL     1    -113.356  37.000 -14.817  1.00  0.00     0.004 C 
ATOM     39  C   UNL     1    -112.717  38.129 -13.987  1.00  0.00     0.022 C 
BRANCH  35  40
ATOM     40  C   UNL     1    -115.476  40.552 -15.031  1.00  0.00     0.246 CG0
ATOM     41  O   UNL     1    -116.338  40.310 -15.924  1.00  0.00    -0.272 OA
ATOM     42  G   UNL     1    -115.248  41.968 -14.548  1.00  0.00     0.000 G0
ENDBRANCH  35  40
ENDBRANCH  31  34
ENDBRANCH   2  30
ENDBRANCH   1   2
BRANCH   1  43
ATOM     43  C   UNL     1    -116.826  37.646  -8.951  1.00  0.00     0.003 C 
BRANCH  43  44
ATOM     44  C   UNL     1    -115.617  36.739  -8.682  1.00  0.00     0.001 C 
BRANCH  44  45
ATOM     45  C   UNL     1    -115.890  35.661  -7.623  1.00  0.00     0.008 C 
BRANCH  45  46
ATOM     46  C   UNL     1    -116.707  34.508  -8.239  1.00  0.00     0.075 C 
BRANCH  46  47
ATOM     47  C   UNL     1    -116.042  33.861  -9.436  1.00  0.00     0.132 C 
ATOM     48  O   UNL     1    -114.830  33.690  -9.430  1.00  0.00    -0.300 OA
BRANCH  47  49
ATOM     49  C   UNL     1    -116.810  33.463 -10.681  1.00  0.00     0.072 C 
ATOM     50  C   UNL     1    -116.048  33.685 -11.990  1.00  0.00     0.012 C 
ENDBRANCH  47  49
ENDBRANCH  46  47
ENDBRANCH  45  46
ENDBRANCH  44  45
ENDBRANCH  43  44
ENDBRANCH   1  43
TORSDOF 12
ENDMDL
