MODEL 1
REMARK VINA RESULT:    -4.657      0.000      0.000
REMARK INTER + INTRA:          -7.825
REMARK INTER:                  -7.107
REMARK INTRA:                  -0.717
REMARK UNBOUND:                -0.717
REMARK SMILES CCCCCCCCCCC(=O)[O-]
REMARK SMILES IDX 7 1 8 2 9 3 10 4 11 5 12 6 13 7 6 8 5 9 4 10 3 11 2 12 1 13
REMARK H PARENT
REMARK Flexibility Score: inf
ROOT
ATOM      1  C   UNL     1      -3.226  -0.194  29.035  1.00  0.00     0.000 C 
ENDROOT
BRANCH   1   2
ATOM      2  C   UNL     1      -1.928   0.271  28.365  1.00  0.00     0.000 C 
BRANCH   2   3
ATOM      3  C   UNL     1      -1.669  -0.507  27.066  1.00  0.00     0.006 C 
BRANCH   3   4
ATOM      4  C   UNL     1      -0.337  -1.268  27.101  1.00  0.00     0.053 C 
BRANCH   4   5
ATOM      5  C   UNL     1      -0.219  -2.125  28.324  1.00  0.00     0.041 C 
ATOM      6  O   UNL     1       0.714  -1.930  29.148  1.00  0.00    -0.550 OA
ATOM      7  O   UNL     1      -1.121  -3.160  28.537  1.00  0.00    -0.550 OA
ENDBRANCH   4   5
ENDBRANCH   3   4
ENDBRANCH   2   3
ENDBRANCH   1   2
BRANCH   1   8
ATOM      8  C   UNL     1      -4.116  -0.954  28.045  1.00  0.00     0.000 C 
BRANCH   8   9
ATOM      9  C   UNL     1      -5.281  -1.646  28.770  1.00  0.00    -0.000 C 
BRANCH   9  10
ATOM     10  C   UNL     1      -4.814  -2.786  29.690  1.00  0.00    -0.000 C 
BRANCH  10  11
ATOM     11  C   UNL     1      -4.518  -4.083  28.919  1.00  0.00    -0.000 C 
BRANCH  11  12
ATOM     12  C   UNL     1      -5.741  -4.601  28.147  1.00  0.00    -0.003 C 
ATOM     13  C   UNL     1      -5.833  -6.127  28.134  1.00  0.00     0.004 C 
ENDBRANCH  11  12
ENDBRANCH  10  11
ENDBRANCH   9  10
ENDBRANCH   8   9
ENDBRANCH   1   8
TORSDOF 9
ENDMDL
MODEL 2
REMARK VINA RESULT:    -4.529      1.960      4.932
REMARK INTER + INTRA:          -7.629
REMARK INTER:                  -6.731
REMARK INTRA:                  -0.898
REMARK UNBOUND:                -0.717
REMARK SMILES CCCCCCCCCCC(=O)[O-]
REMARK SMILES IDX 7 1 8 2 9 3 10 4 11 5 12 6 13 7 6 8 5 9 4 10 3 11 2 12 1 13
REMARK H PARENT
REMARK Flexibility Score: inf
ROOT
ATOM      1  C   UNL     1      -4.202  -0.950  27.994  1.00  0.00     0.000 C 
ENDROOT
BRANCH   1   2
ATOM      2  C   UNL     1      -5.329  -1.733  28.677  1.00  0.00     0.000 C 
BRANCH   2   3
ATOM      3  C   UNL     1      -4.762  -2.819  29.603  1.00  0.00     0.006 C 
BRANCH   3   4
ATOM      4  C   UNL     1      -5.625  -4.087  29.606  1.00  0.00     0.053 C 
BRANCH   4   5
ATOM      5  C   UNL     1      -5.209  -5.044  28.531  1.00  0.00     0.041 C 
ATOM      6  O   UNL     1      -4.072  -4.946  28.000  1.00  0.00    -0.550 OA
ATOM      7  O   UNL     1      -6.092  -6.024  28.093  1.00  0.00    -0.550 OA
ENDBRANCH   4   5
ENDBRANCH   3   4
ENDBRANCH   2   3
ENDBRANCH   1   2
BRANCH   1   8
ATOM      8  C   UNL     1      -3.412  -0.118  29.012  1.00  0.00     0.000 C 
BRANCH   8   9
ATOM      9  C   UNL     1      -1.996   0.183  28.496  1.00  0.00    -0.000 C 
BRANCH   9  10
ATOM     10  C   UNL     1      -1.715  -0.455  27.126  1.00  0.00    -0.000 C 
BRANCH  10  11
ATOM     11  C   UNL     1      -0.479  -1.371  27.144  1.00  0.00    -0.000 C 
BRANCH  11  12
ATOM     12  C   UNL     1      -0.217  -1.977  28.531  1.00  0.00    -0.003 C 
ATOM     13  C   UNL     1      -0.948  -3.303  28.747  1.00  0.00     0.004 C 
ENDBRANCH  11  12
ENDBRANCH  10  11
ENDBRANCH   9  10
ENDBRANCH   8   9
ENDBRANCH   1   8
TORSDOF 9
ENDMDL
MODEL 3
REMARK VINA RESULT:    -4.518      1.172      1.747
REMARK INTER + INTRA:          -7.613
REMARK INTER:                  -6.570
REMARK INTRA:                  -1.043
REMARK UNBOUND:                -0.717
REMARK SMILES CCCCCCCCCCC(=O)[O-]
REMARK SMILES IDX 7 1 8 2 9 3 10 4 11 5 12 6 13 7 6 8 5 9 4 10 3 11 2 12 1 13
REMARK H PARENT
REMARK Flexibility Score: inf
ROOT
ATOM      1  C   UNL     1      -3.402  -0.696  28.892  1.00  0.00     0.000 C 
ENDROOT
BRANCH   1   2
ATOM      2  C   UNL     1      -2.714  -0.839  27.530  1.00  0.00     0.000 C 
BRANCH   2   3
ATOM      3  C   UNL     1      -1.238  -0.423  27.612  1.00  0.00     0.006 C 
BRANCH   3   4
ATOM      4  C   UNL     1      -0.290  -1.623  27.482  1.00  0.00     0.053 C 
BRANCH   4   5
ATOM      5  C   UNL     1       0.489  -1.855  28.741  1.00  0.00     0.041 C 
ATOM      6  O   UNL     1       0.913  -3.007  29.021  1.00  0.00    -0.550 OA
ATOM      7  O   UNL     1       0.716  -0.804  29.621  1.00  0.00    -0.550 OA
ENDBRANCH   4   5
ENDBRANCH   3   4
ENDBRANCH   2   3
ENDBRANCH   1   2
BRANCH   1   8
ATOM      8  C   UNL     1      -4.927  -0.787  28.753  1.00  0.00     0.000 C 
BRANCH   8   9
ATOM      9  C   UNL     1      -5.355  -2.192  28.301  1.00  0.00    -0.000 C 
BRANCH   9  10
ATOM     10  C   UNL     1      -5.517  -3.171  29.475  1.00  0.00    -0.000 C 
BRANCH  10  11
ATOM     11  C   UNL     1      -4.929  -4.560  29.171  1.00  0.00    -0.000 C 
BRANCH  11  12
ATOM     12  C   UNL     1      -3.627  -4.483  28.360  1.00  0.00    -0.003 C 
ATOM     13  C   UNL     1      -2.398  -4.230  29.233  1.00  0.00     0.004 C 
ENDBRANCH  11  12
ENDBRANCH  10  11
ENDBRANCH   9  10
ENDBRANCH   8   9
ENDBRANCH   1   8
TORSDOF 9
ENDMDL
MODEL 4
REMARK VINA RESULT:    -4.331      2.046      5.694
REMARK INTER + INTRA:          -7.327
REMARK INTER:                  -6.604
REMARK INTRA:                  -0.723
REMARK UNBOUND:                -0.717
REMARK SMILES CCCCCCCCCCC(=O)[O-]
REMARK SMILES IDX 7 1 8 2 9 3 10 4 11 5 12 6 13 7 6 8 5 9 4 10 3 11 2 12 1 13
REMARK H PARENT
REMARK Flexibility Score: inf
ROOT
ATOM      1  C   UNL     1      -4.000  -1.025  27.872  1.00  0.00     0.000 C 
ENDROOT
BRANCH   1   2
ATOM      2  C   UNL     1      -5.238  -1.097  28.774  1.00  0.00     0.000 C 
BRANCH   2   3
ATOM      3  C   UNL     1      -5.430  -2.515  29.333  1.00  0.00     0.006 C 
BRANCH   3   4
ATOM      4  C   UNL     1      -5.815  -3.521  28.240  1.00  0.00     0.053 C 
BRANCH   4   5
ATOM      5  C   UNL     1      -4.907  -4.713  28.239  1.00  0.00     0.041 C 
ATOM      6  O   UNL     1      -5.352  -5.848  27.923  1.00  0.00    -0.550 OA
ATOM      7  O   UNL     1      -3.579  -4.576  28.618  1.00  0.00    -0.550 OA
ENDBRANCH   4   5
ENDBRANCH   3   4
ENDBRANCH   2   3
ENDBRANCH   1   2
BRANCH   1   8
ATOM      8  C   UNL     1      -2.717  -0.913  28.704  1.00  0.00     0.000 C 
BRANCH   8   9
ATOM      9  C   UNL     1      -1.490  -1.338  27.882  1.00  0.00    -0.000 C 
BRANCH   9  10
ATOM     10  C   UNL     1      -1.188  -0.373  26.724  1.00  0.00    -0.000 C 
BRANCH  10  11
ATOM     11  C   UNL     1      -0.146   0.694  27.100  1.00  0.00    -0.000 C 
BRANCH  11  12
ATOM     12  C   UNL     1      -0.730   2.114  27.095  1.00  0.00    -0.003 C 
ATOM     13  C   UNL     1      -1.409   2.482  28.415  1.00  0.00     0.004 C 
ENDBRANCH  11  12
ENDBRANCH  10  11
ENDBRANCH   9  10
ENDBRANCH   8   9
ENDBRANCH   1   8
TORSDOF 9
ENDMDL
MODEL 5
REMARK VINA RESULT:    -4.305      1.842      3.044
REMARK INTER + INTRA:          -7.288
REMARK INTER:                  -6.433
REMARK INTRA:                  -0.855
REMARK UNBOUND:                -0.717
REMARK SMILES CCCCCCCCCCC(=O)[O-]
REMARK SMILES IDX 7 1 8 2 9 3 10 4 11 5 12 6 13 7 6 8 5 9 4 10 3 11 2 12 1 13
REMARK H PARENT
REMARK Flexibility Score: inf
ROOT
ATOM      1  C   UNL     1      -5.272  -1.370  29.237  1.00  0.00     0.000 C 
ENDROOT
BRANCH   1   2
ATOM      2  C   UNL     1      -4.418  -0.129  28.951  1.00  0.00     0.000 C 
BRANCH   2   3
ATOM      3  C   UNL     1      -2.931  -0.496  28.843  1.00  0.00     0.006 C 
BRANCH   3   4
ATOM      4  C   UNL     1      -2.045   0.734  28.607  1.00  0.00     0.053 C 
BRANCH   4   5
ATOM      5  C   UNL     1      -1.222   0.595  27.363  1.00  0.00     0.041 C 
ATOM      6  O   UNL     1      -0.388   1.486  27.052  1.00  0.00    -0.550 OA
ATOM      7  O   UNL     1      -1.402  -0.501  26.529  1.00  0.00    -0.550 OA
ENDBRANCH   4   5
ENDBRANCH   3   4
ENDBRANCH   2   3
ENDBRANCH   1   2
BRANCH   1   8
ATOM      8  C   UNL     1      -5.275  -2.325  28.037  1.00  0.00     0.000 C 
BRANCH   8   9
ATOM      9  C   UNL     1      -5.832  -3.702  28.431  1.00  0.00    -0.000 C 
BRANCH   9  10
ATOM     10  C   UNL     1      -4.778  -4.600  29.099  1.00  0.00    -0.000 C 
BRANCH  10  11
ATOM     11  C   UNL     1      -3.420  -4.552  28.379  1.00  0.00    -0.000 C 
BRANCH  11  12
ATOM     12  C   UNL     1      -2.264  -4.203  29.327  1.00  0.00    -0.003 C 
ATOM     13  C   UNL     1      -1.128  -3.453  28.630  1.00  0.00     0.004 C 
ENDBRANCH  11  12
ENDBRANCH  10  11
ENDBRANCH   9  10
ENDBRANCH   8   9
ENDBRANCH   1   8
TORSDOF 9
ENDMDL
MODEL 6
REMARK VINA RESULT:    -4.241      1.786      3.780
REMARK INTER + INTRA:          -7.189
REMARK INTER:                  -6.400
REMARK INTRA:                  -0.789
REMARK UNBOUND:                -0.717
REMARK SMILES CCCCCCCCCCC(=O)[O-]
REMARK SMILES IDX 7 1 8 2 9 3 10 4 11 5 12 6 13 7 6 8 5 9 4 10 3 11 2 12 1 13
REMARK H PARENT
REMARK Flexibility Score: inf
ROOT
ATOM      1  C   UNL     1      -3.513  -4.497  28.269  1.00  0.00     0.000 C 
ENDROOT
BRANCH   1   2
ATOM      2  C   UNL     1      -2.468  -4.052  29.299  1.00  0.00     0.000 C 
BRANCH   2   3
ATOM      3  C   UNL     1      -1.214  -3.498  28.607  1.00  0.00     0.006 C 
BRANCH   3   4
ATOM      4  C   UNL     1      -1.188  -1.964  28.594  1.00  0.00     0.053 C 
BRANCH   4   5
ATOM      5  C   UNL     1      -0.721  -1.427  27.276  1.00  0.00     0.041 C 
ATOM      6  O   UNL     1       0.264  -1.950  26.692  1.00  0.00    -0.550 OA
ATOM      7  O   UNL     1      -1.353  -0.327  26.711  1.00  0.00    -0.550 OA
ENDBRANCH   4   5
ENDBRANCH   3   4
ENDBRANCH   2   3
ENDBRANCH   1   2
BRANCH   1   8
ATOM      8  C   UNL     1      -4.933  -4.161  28.743  1.00  0.00     0.000 C 
BRANCH   8   9
ATOM      9  C   UNL     1      -4.930  -2.926  29.657  1.00  0.00    -0.000 C 
BRANCH   9  10
ATOM     10  C   UNL     1      -5.552  -1.689  28.987  1.00  0.00    -0.000 C 
BRANCH  10  11
ATOM     11  C   UNL     1      -4.522  -0.577  28.727  1.00  0.00    -0.000 C 
BRANCH  11  12
ATOM     12  C   UNL     1      -4.904   0.748  29.402  1.00  0.00    -0.003 C 
ATOM     13  C   UNL     1      -6.411   1.009  29.387  1.00  0.00     0.004 C 
ENDBRANCH  11  12
ENDBRANCH  10  11
ENDBRANCH   9  10
ENDBRANCH   8   9
ENDBRANCH   1   8
TORSDOF 9
ENDMDL
MODEL 7
REMARK VINA RESULT:    -4.154      2.041      5.231
REMARK INTER + INTRA:          -7.057
REMARK INTER:                  -6.349
REMARK INTRA:                  -0.708
REMARK UNBOUND:                -0.717
REMARK SMILES CCCCCCCCCCC(=O)[O-]
REMARK SMILES IDX 7 1 8 2 9 3 10 4 11 5 12 6 13 7 6 8 5 9 4 10 3 11 2 12 1 13
REMARK H PARENT
REMARK Flexibility Score: inf
ROOT
ATOM      1  C   UNL     1      -5.364  -0.163  29.023  1.00  0.00     0.000 C 
ENDROOT
BRANCH   1   2
ATOM      2  C   UNL     1      -4.566  -1.414  28.636  1.00  0.00     0.000 C 
BRANCH   2   3
ATOM      3  C   UNL     1      -5.082  -2.650  29.389  1.00  0.00     0.006 C 
BRANCH   3   4
ATOM      4  C   UNL     1      -5.910  -3.575  28.487  1.00  0.00     0.053 C 
BRANCH   4   5
ATOM      5  C   UNL     1      -5.225  -4.888  28.261  1.00  0.00     0.041 C 
ATOM      6  O   UNL     1      -5.902  -5.941  28.127  1.00  0.00    -0.550 OA
ATOM      7  O   UNL     1      -3.838  -4.953  28.231  1.00  0.00    -0.550 OA
ENDBRANCH   4   5
ENDBRANCH   3   4
ENDBRANCH   2   3
ENDBRANCH   1   2
BRANCH   1   8
ATOM      8  C   UNL     1      -4.435   0.952  29.519  1.00  0.00     0.000 C 
BRANCH   8   9
ATOM      9  C   UNL     1      -2.966   0.500  29.485  1.00  0.00    -0.000 C 
BRANCH   9  10
ATOM     10  C   UNL     1      -2.012   1.616  29.028  1.00  0.00    -0.000 C 
BRANCH  10  11
ATOM     11  C   UNL     1      -0.959   1.116  28.024  1.00  0.00    -0.000 C 
BRANCH  11  12
ATOM     12  C   UNL     1      -1.484  -0.024  27.140  1.00  0.00    -0.003 C 
ATOM     13  C   UNL     1      -0.571  -1.251  27.149  1.00  0.00     0.004 C 
ENDBRANCH  11  12
ENDBRANCH  10  11
ENDBRANCH   9  10
ENDBRANCH   8   9
ENDBRANCH   1   8
TORSDOF 9
ENDMDL
MODEL 8
REMARK VINA RESULT:    -4.100      2.116      2.568
REMARK INTER + INTRA:          -6.974
REMARK INTER:                  -6.206
REMARK INTRA:                  -0.769
REMARK UNBOUND:                -0.717
REMARK SMILES CCCCCCCCCCC(=O)[O-]
REMARK SMILES IDX 7 1 8 2 9 3 10 4 11 5 12 6 13 7 6 8 5 9 4 10 3 11 2 12 1 13
REMARK H PARENT
REMARK Flexibility Score: inf
ROOT
ATOM      1  C   UNL     1      -2.643  -1.667  28.645  1.00  0.00     0.000 C 
ENDROOT
BRANCH   1   2
ATOM      2  C   UNL     1      -1.337  -1.290  27.935  1.00  0.00     0.000 C 
BRANCH   2   3
ATOM      3  C   UNL     1      -1.535  -0.062  27.035  1.00  0.00     0.006 C 
BRANCH   3   4
ATOM      4  C   UNL     1      -0.376   0.937  27.154  1.00  0.00     0.053 C 
BRANCH   4   5
ATOM      5  C   UNL     1      -0.522   1.815  28.360  1.00  0.00     0.041 C 
ATOM      6  O   UNL     1       0.381   1.842  29.237  1.00  0.00    -0.550 OA
ATOM      7  O   UNL     1      -1.670   2.577  28.529  1.00  0.00    -0.550 OA
ENDBRANCH   4   5
ENDBRANCH   3   4
ENDBRANCH   2   3
ENDBRANCH   1   2
BRANCH   1   8
ATOM      8  C   UNL     1      -3.561  -0.448  28.793  1.00  0.00     0.000 C 
BRANCH   8   9
ATOM      9  C   UNL     1      -5.039  -0.868  28.782  1.00  0.00    -0.000 C 
BRANCH   9  10
ATOM     10  C   UNL     1      -5.255  -2.266  28.179  1.00  0.00    -0.000 C 
BRANCH  10  11
ATOM     11  C   UNL     1      -5.884  -3.250  29.181  1.00  0.00    -0.000 C 
BRANCH  11  12
ATOM     12  C   UNL     1      -5.591  -4.715  28.828  1.00  0.00    -0.003 C 
ATOM     13  C   UNL     1      -4.181  -4.922  28.272  1.00  0.00     0.004 C 
ENDBRANCH  11  12
ENDBRANCH  10  11
ENDBRANCH   9  10
ENDBRANCH   8   9
ENDBRANCH   1   8
TORSDOF 9
ENDMDL
MODEL 9
REMARK VINA RESULT:    -4.010      2.319      5.525
REMARK INTER + INTRA:          -6.837
REMARK INTER:                  -6.062
REMARK INTRA:                  -0.775
REMARK UNBOUND:                -0.717
REMARK SMILES CCCCCCCCCCC(=O)[O-]
REMARK SMILES IDX 7 1 8 2 9 3 10 4 11 5 12 6 13 7 6 8 5 9 4 10 3 11 2 12 1 13
REMARK H PARENT
REMARK Flexibility Score: inf
ROOT
ATOM      1  C   UNL     1      -2.184  -4.135  28.697  1.00  0.00     0.000 C 
ENDROOT
BRANCH   1   2
ATOM      2  C   UNL     1      -3.693  -4.268  28.931  1.00  0.00     0.000 C 
BRANCH   2   3
ATOM      3  C   UNL     1      -4.226  -3.092  29.764  1.00  0.00     0.006 C 
BRANCH   3   4
ATOM      4  C   UNL     1      -5.465  -2.447  29.129  1.00  0.00     0.053 C 
BRANCH   4   5
ATOM      5  C   UNL     1      -5.173  -1.072  28.613  1.00  0.00     0.041 C 
ATOM      6  O   UNL     1      -4.452  -0.917  27.592  1.00  0.00    -0.550 OA
ATOM      7  O   UNL     1      -5.668   0.041  29.280  1.00  0.00    -0.550 OA
ENDBRANCH   4   5
ENDBRANCH   3   4
ENDBRANCH   2   3
ENDBRANCH   1   2
BRANCH   1   8
ATOM      8  C   UNL     1      -1.738  -2.670  28.786  1.00  0.00     0.000 C 
BRANCH   8   9
ATOM      9  C   UNL     1      -0.238  -2.532  28.481  1.00  0.00    -0.000 C 
BRANCH   9  10
ATOM     10  C   UNL     1       0.036  -1.735  27.195  1.00  0.00    -0.000 C 
BRANCH  10  11
ATOM     11  C   UNL     1      -1.092  -0.742  26.864  1.00  0.00    -0.000 C 
BRANCH  11  12
ATOM     12  C   UNL     1      -0.784   0.681  27.354  1.00  0.00    -0.003 C 
ATOM     13  C   UNL     1      -1.642   1.096  28.550  1.00  0.00     0.004 C 
ENDBRANCH  11  12
ENDBRANCH  10  11
ENDBRANCH   9  10
ENDBRANCH   8   9
ENDBRANCH   1   8
TORSDOF 9
ENDMDL
