MODEL 1
REMARK VINA RESULT:    -3.518      0.000      0.000
REMARK INTER + INTRA:          -3.966
REMARK INTER:                  -5.368
REMARK INTRA:                   1.403
REMARK UNBOUND:                 1.403
REMARK SMILES CC1=CCC[C@@H](C)C(=O)C[C@H](C(C)C)C(=O)C1
REMARK SMILES IDX 8 1 9 2 6 3 7 4 5 5 4 6 3 7 2 8 1 9 10 11 11 12 15 13 16 14
REMARK SMILES IDX 17 15 12 17 13 18 14 19
REMARK H PARENT
REMARK Flexibility Score: 70.00
ROOT
ATOM      1  C   UNL     1      -5.956 -13.392  -6.650  1.00  0.00     0.136 C 
ATOM      2  O   UNL     1      -6.044 -12.491  -5.828  1.00  0.00    -0.299 OA
ENDROOT
BRANCH   1   3
ATOM      3  C   UNL     1      -6.308 -13.126  -8.096  1.00  0.00     0.053 C 
ATOM      4  C   UNL     1      -5.830 -14.266  -9.002  1.00  0.00     0.016 C 
BRANCH   3   5
ATOM      5  C   UNL     1      -5.702 -11.766  -8.522  1.00  0.00     0.015 C 
BRANCH   5   6
ATOM      6  C   UNL     1      -4.233 -11.528  -8.115  1.00  0.00     0.028 C 
BRANCH   6   7
ATOM      7  C   UNL     1      -3.203 -12.488  -8.670  1.00  0.00    -0.028 C 
ATOM      8  C   UNL     1      -2.376 -13.295  -7.960  1.00  0.00    -0.070 CG0
ATOM      9  C   UNL     1      -1.497 -14.249  -8.733  1.00  0.00     0.039 C 
ATOM     10  G   UNL     1      -2.227 -13.247  -6.451  1.00  0.00     0.000 G0
ENDBRANCH   6   7
ENDBRANCH   5   6
ENDBRANCH   3   5
ENDBRANCH   1   3
BRANCH   1  11
ATOM     11  C   UNL     1      -5.574 -14.779  -6.189  1.00  0.00     0.087 C 
BRANCH  11  12
ATOM     12  C   UNL     1      -4.095 -15.130  -6.541  1.00  0.00     0.066 C 
BRANCH  12  13
ATOM     13  C   UNL     1      -3.161 -14.209  -5.763  1.00  0.00     0.140 C 
ATOM     14  O   UNL     1      -3.129 -14.296  -4.544  1.00  0.00    -0.299 OA
BRANCH  13  15
ATOM     15  C   UNL     1      -2.218 -13.246  -6.454  1.00  0.00     0.106 CG0
ATOM     16  G   UNL     1      -2.380 -13.314  -7.962  1.00  0.00     0.000 G0
ENDBRANCH  13  15
ENDBRANCH  12  13
BRANCH  12  17
ATOM     17  C   UNL     1      -3.763 -16.633  -6.257  1.00  0.00    -0.006 C 
ATOM     18  C   UNL     1      -4.496 -17.164  -5.009  1.00  0.00     0.008 C 
ATOM     19  C   UNL     1      -2.249 -16.853  -6.053  1.00  0.00     0.008 C 
ENDBRANCH  12  17
ENDBRANCH  11  12
ENDBRANCH   1  11
TORSDOF 1
ENDMDL
MODEL 2
REMARK VINA RESULT:    -3.144      2.115      3.563
REMARK INTER + INTRA:          -3.395
REMARK INTER:                  -4.486
REMARK INTRA:                   1.091
REMARK UNBOUND:                 1.403
REMARK SMILES CC1=CCC[C@@H](C)C(=O)C[C@H](C(C)C)C(=O)C1
REMARK SMILES IDX 8 1 9 2 6 3 7 4 5 5 4 6 3 7 2 8 1 9 10 11 11 12 15 13 16 14
REMARK SMILES IDX 17 15 12 17 13 18 14 19
REMARK H PARENT
REMARK Flexibility Score: 70.00
ROOT
ATOM      1  C   UNL     1      -2.578 -12.199  -7.698  1.00  0.00     0.136 C 
ATOM      2  O   UNL     1      -2.670 -11.613  -6.629  1.00  0.00    -0.299 OA
ENDROOT
BRANCH   1   3
ATOM      3  C   UNL     1      -2.786 -11.443  -8.990  1.00  0.00     0.053 C 
ATOM      4  C   UNL     1      -1.787 -10.288  -9.125  1.00  0.00     0.016 C 
BRANCH   3   5
ATOM      5  C   UNL     1      -4.250 -10.940  -9.051  1.00  0.00     0.015 C 
BRANCH   5   6
ATOM      6  C   UNL     1      -5.333 -11.983  -8.706  1.00  0.00     0.028 C 
BRANCH   6   7
ATOM      7  C   UNL     1      -5.860 -11.982  -7.288  1.00  0.00    -0.028 C 
ATOM      8  C   UNL     1      -6.060 -13.061  -6.492  1.00  0.00    -0.070 CG0
ATOM      9  C   UNL     1      -6.498 -12.810  -5.070  1.00  0.00     0.039 C 
ATOM     10  G   UNL     1      -5.942 -14.500  -6.962  1.00  0.00     0.000 G0
ENDBRANCH   6   7
ENDBRANCH   5   6
ENDBRANCH   3   5
ENDBRANCH   1   3
BRANCH   1  11
ATOM     11  C   UNL     1      -2.339 -13.691  -7.706  1.00  0.00     0.087 C 
BRANCH  11  12
ATOM     12  C   UNL     1      -3.307 -14.447  -6.742  1.00  0.00     0.066 C 
BRANCH  12  13
ATOM     13  C   UNL     1      -4.571 -14.835  -7.501  1.00  0.00     0.140 C 
ATOM     14  O   UNL     1      -4.464 -15.478  -8.536  1.00  0.00    -0.299 OA
BRANCH  13  15
ATOM     15  C   UNL     1      -5.956 -14.517  -6.977  1.00  0.00     0.106 CG0
ATOM     16  G   UNL     1      -6.040 -13.078  -6.499  1.00  0.00     0.000 G0
ENDBRANCH  13  15
ENDBRANCH  12  13
BRANCH  12  17
ATOM     17  C   UNL     1      -2.633 -15.704  -6.098  1.00  0.00    -0.006 C 
ATOM     18  C   UNL     1      -3.421 -16.997  -6.388  1.00  0.00     0.008 C 
ATOM     19  C   UNL     1      -2.499 -15.558  -4.568  1.00  0.00     0.008 C 
ENDBRANCH  12  17
ENDBRANCH  11  12
ENDBRANCH   1  11
TORSDOF 1
ENDMDL
MODEL 3
REMARK VINA RESULT:    -3.106      1.455      2.278
REMARK INTER + INTRA:          -3.338
REMARK INTER:                  -4.520
REMARK INTRA:                   1.182
REMARK UNBOUND:                 1.403
REMARK SMILES CC1=CCC[C@@H](C)C(=O)C[C@H](C(C)C)C(=O)C1
REMARK SMILES IDX 8 1 9 2 6 3 7 4 5 5 4 6 3 7 2 8 1 9 10 11 11 12 15 13 16 14
REMARK SMILES IDX 17 15 12 17 13 18 14 19
REMARK H PARENT
REMARK Flexibility Score: 70.00
ROOT
ATOM      1  C   UNL     1      -5.376 -14.562  -6.542  1.00  0.00     0.136 C 
ATOM      2  O   UNL     1      -5.878 -15.257  -5.670  1.00  0.00    -0.299 OA
ENDROOT
BRANCH   1   3
ATOM      3  C   UNL     1      -5.565 -13.063  -6.509  1.00  0.00     0.053 C 
ATOM      4  C   UNL     1      -6.387 -12.633  -5.290  1.00  0.00     0.016 C 
BRANCH   3   5
ATOM      5  C   UNL     1      -6.228 -12.608  -7.833  1.00  0.00     0.015 C 
BRANCH   5   6
ATOM      6  C   UNL     1      -5.304 -12.566  -9.067  1.00  0.00     0.028 C 
BRANCH   6   7
ATOM      7  C   UNL     1      -4.146 -11.592  -9.026  1.00  0.00    -0.028 C 
ATOM      8  C   UNL     1      -2.825 -11.895  -9.065  1.00  0.00    -0.070 CG0
ATOM      9  C   UNL     1      -1.846 -10.747  -9.117  1.00  0.00     0.039 C 
ATOM     10  G   UNL     1      -2.271 -13.305  -8.986  1.00  0.00     0.000 G0
ENDBRANCH   6   7
ENDBRANCH   5   6
ENDBRANCH   3   5
ENDBRANCH   1   3
BRANCH   1  11
ATOM     11  C   UNL     1      -4.644 -15.225  -7.686  1.00  0.00     0.087 C 
BRANCH  11  12
ATOM     12  C   UNL     1      -3.106 -15.300  -7.435  1.00  0.00     0.066 C 
BRANCH  12  13
ATOM     13  C   UNL     1      -2.499 -13.912  -7.605  1.00  0.00     0.140 C 
ATOM     14  O   UNL     1      -2.154 -13.293  -6.608  1.00  0.00    -0.299 OA
BRANCH  13  15
ATOM     15  C   UNL     1      -2.241 -13.304  -8.969  1.00  0.00     0.106 CG0
ATOM     16  G   UNL     1      -2.849 -11.917  -9.070  1.00  0.00     0.000 G0
ENDBRANCH  13  15
ENDBRANCH  12  13
BRANCH  12  17
ATOM     17  C   UNL     1      -2.768 -15.889  -6.025  1.00  0.00    -0.006 C 
ATOM     18  C   UNL     1      -1.249 -16.050  -5.813  1.00  0.00     0.008 C 
ATOM     19  C   UNL     1      -3.429 -17.266  -5.809  1.00  0.00     0.008 C 
ENDBRANCH  12  17
ENDBRANCH  11  12
ENDBRANCH   1  11
TORSDOF 1
ENDMDL
MODEL 4
REMARK VINA RESULT:    -2.841      1.950      4.274
REMARK INTER + INTRA:          -2.934
REMARK INTER:                  -5.948
REMARK INTRA:                   3.015
REMARK UNBOUND:                 1.403
REMARK SMILES CC1=CCC[C@@H](C)C(=O)C[C@H](C(C)C)C(=O)C1
REMARK SMILES IDX 8 1 9 2 6 3 7 4 5 5 4 6 3 7 2 8 1 9 10 11 11 12 15 13 16 14
REMARK SMILES IDX 17 15 12 17 13 18 14 19
REMARK H PARENT
REMARK Flexibility Score: 70.00
ROOT
ATOM      1  C   UNL     1      -3.007 -13.236  -8.577  1.00  0.00     0.136 C 
ATOM      2  O   UNL     1      -1.973 -13.597  -9.121  1.00  0.00    -0.299 OA
ENDROOT
BRANCH   1   3
ATOM      3  C   UNL     1      -2.941 -12.399  -7.320  1.00  0.00     0.053 C 
ATOM      4  C   UNL     1      -2.346 -11.016  -7.604  1.00  0.00     0.016 C 
BRANCH   3   5
ATOM      5  C   UNL     1      -2.124 -13.161  -6.247  1.00  0.00     0.015 C 
BRANCH   5   6
ATOM      6  C   UNL     1      -1.637 -14.568  -6.648  1.00  0.00     0.028 C 
BRANCH   6   7
ATOM      7  C   UNL     1      -2.255 -15.743  -5.920  1.00  0.00    -0.028 C 
ATOM      8  C   UNL     1      -3.347 -16.452  -6.298  1.00  0.00    -0.070 CG0
ATOM      9  C   UNL     1      -3.723 -17.654  -5.465  1.00  0.00     0.039 C 
ATOM     10  G   UNL     1      -4.253 -16.071  -7.454  1.00  0.00     0.000 G0
ENDBRANCH   6   7
ENDBRANCH   5   6
ENDBRANCH   3   5
ENDBRANCH   1   3
BRANCH   1  11
ATOM     11  C   UNL     1      -4.334 -13.705  -9.125  1.00  0.00     0.087 C 
BRANCH  11  12
ATOM     12  C   UNL     1      -5.441 -13.753  -8.026  1.00  0.00     0.066 C 
BRANCH  12  13
ATOM     13  C   UNL     1      -5.140 -14.891  -7.058  1.00  0.00     0.140 C 
ATOM     14  O   UNL     1      -5.674 -14.886  -5.957  1.00  0.00    -0.299 OA
BRANCH  13  15
ATOM     15  C   UNL     1      -4.263 -16.066  -7.440  1.00  0.00     0.106 CG0
ATOM     16  G   UNL     1      -3.326 -16.436  -6.305  1.00  0.00     0.000 G0
ENDBRANCH  13  15
ENDBRANCH  12  13
BRANCH  12  17
ATOM     17  C   UNL     1      -5.574 -12.392  -7.264  1.00  0.00    -0.006 C 
ATOM     18  C   UNL     1      -6.360 -12.539  -5.946  1.00  0.00     0.008 C 
ATOM     19  C   UNL     1      -6.278 -11.323  -8.126  1.00  0.00     0.008 C 
ENDBRANCH  12  17
ENDBRANCH  11  12
ENDBRANCH   1  11
TORSDOF 1
ENDMDL
MODEL 5
REMARK VINA RESULT:    -2.398      1.491      4.063
REMARK INTER + INTRA:          -2.257
REMARK INTER:                  -2.672
REMARK INTRA:                   0.415
REMARK UNBOUND:                 1.403
REMARK SMILES CC1=CCC[C@@H](C)C(=O)C[C@H](C(C)C)C(=O)C1
REMARK SMILES IDX 8 1 9 2 6 3 7 4 5 5 4 6 3 7 2 8 1 9 10 11 11 12 15 13 16 14
REMARK SMILES IDX 17 15 12 17 13 18 14 19
REMARK H PARENT
REMARK Flexibility Score: 70.00
ROOT
ATOM      1  C   UNL     1      -4.275 -15.766  -5.582  1.00  0.00     0.136 C 
ATOM      2  O   UNL     1      -4.162 -15.550  -4.384  1.00  0.00    -0.299 OA
ENDROOT
BRANCH   1   3
ATOM      3  C   UNL     1      -3.220 -16.575  -6.302  1.00  0.00     0.053 C 
ATOM      4  C   UNL     1      -3.231 -18.037  -5.841  1.00  0.00     0.016 C 
BRANCH   3   5
ATOM      5  C   UNL     1      -1.836 -15.917  -6.077  1.00  0.00     0.015 C 
BRANCH   5   6
ATOM      6  C   UNL     1      -1.290 -15.083  -7.253  1.00  0.00     0.028 C 
BRANCH   6   7
ATOM      7  C   UNL     1      -1.538 -13.590  -7.210  1.00  0.00    -0.028 C 
ATOM      8  C   UNL     1      -2.505 -12.905  -7.869  1.00  0.00    -0.070 CG0
ATOM      9  C   UNL     1      -2.626 -11.426  -7.592  1.00  0.00     0.039 C 
ATOM     10  G   UNL     1      -3.419 -13.515  -8.916  1.00  0.00     0.000 G0
ENDBRANCH   6   7
ENDBRANCH   5   6
ENDBRANCH   3   5
ENDBRANCH   1   3
BRANCH   1  11
ATOM     11  C   UNL     1      -5.426 -15.147  -6.340  1.00  0.00     0.087 C 
BRANCH  11  12
ATOM     12  C   UNL     1      -5.088 -13.715  -6.857  1.00  0.00     0.066 C 
BRANCH  12  13
ATOM     13  C   UNL     1      -4.805 -13.773  -8.354  1.00  0.00     0.140 C 
ATOM     14  O   UNL     1      -5.735 -13.978  -9.123  1.00  0.00    -0.299 OA
BRANCH  13  15
ATOM     15  C   UNL     1      -3.427 -13.512  -8.926  1.00  0.00     0.106 CG0
ATOM     16  G   UNL     1      -2.511 -12.901  -7.881  1.00  0.00     0.000 G0
ENDBRANCH  13  15
ENDBRANCH  12  13
BRANCH  12  17
ATOM     17  C   UNL     1      -6.230 -12.691  -6.544  1.00  0.00    -0.006 C 
ATOM     18  C   UNL     1      -5.975 -11.319  -7.200  1.00  0.00     0.008 C 
ATOM     19  C   UNL     1      -6.398 -12.472  -5.026  1.00  0.00     0.008 C 
ENDBRANCH  12  17
ENDBRANCH  11  12
ENDBRANCH   1  11
TORSDOF 1
ENDMDL
MODEL 6
REMARK VINA RESULT:    -0.949      1.770      4.535
REMARK INTER + INTRA:          -0.045
REMARK INTER:                  -0.841
REMARK INTRA:                   0.796
REMARK UNBOUND:                 1.403
REMARK SMILES CC1=CCC[C@@H](C)C(=O)C[C@H](C(C)C)C(=O)C1
REMARK SMILES IDX 8 1 9 2 6 3 7 4 5 5 4 6 3 7 2 8 1 9 10 11 11 12 15 13 16 14
REMARK SMILES IDX 17 15 12 17 13 18 14 19
REMARK H PARENT
REMARK Flexibility Score: 70.00
ROOT
ATOM      1  C   UNL     1      -3.645 -13.988  -5.205  1.00  0.00     0.136 C 
ATOM      2  O   UNL     1      -2.921 -13.204  -4.606  1.00  0.00    -0.299 OA
ENDROOT
BRANCH   1   3
ATOM      3  C   UNL     1      -3.769 -15.414  -4.720  1.00  0.00     0.053 C 
ATOM      4  C   UNL     1      -3.729 -15.487  -3.190  1.00  0.00     0.016 C 
BRANCH   3   5
ATOM      5  C   UNL     1      -2.644 -16.265  -5.361  1.00  0.00     0.015 C 
BRANCH   5   6
ATOM      6  C   UNL     1      -3.041 -17.066  -6.618  1.00  0.00     0.028 C 
BRANCH   6   7
ATOM      7  C   UNL     1      -4.264 -16.595  -7.375  1.00  0.00    -0.028 C 
ATOM      8  C   UNL     1      -4.285 -15.795  -8.470  1.00  0.00    -0.070 CG0
ATOM      9  C   UNL     1      -5.622 -15.539  -9.122  1.00  0.00     0.039 C 
ATOM     10  G   UNL     1      -3.067 -15.087  -9.032  1.00  0.00     0.000 G0
ENDBRANCH   6   7
ENDBRANCH   5   6
ENDBRANCH   3   5
ENDBRANCH   1   3
BRANCH   1  11
ATOM     11  C   UNL     1      -4.338 -13.537  -6.469  1.00  0.00     0.087 C 
BRANCH  11  12
ATOM     12  C   UNL     1      -3.339 -12.934  -7.504  1.00  0.00     0.066 C 
BRANCH  12  13
ATOM     13  C   UNL     1      -2.494 -14.054  -8.102  1.00  0.00     0.140 C 
ATOM     14  O   UNL     1      -1.327 -14.163  -7.752  1.00  0.00    -0.299 OA
BRANCH  13  15
ATOM     15  C   UNL     1      -3.071 -15.079  -9.056  1.00  0.00     0.106 CG0
ATOM     16  G   UNL     1      -4.275 -15.772  -8.445  1.00  0.00     0.000 G0
ENDBRANCH  13  15
ENDBRANCH  12  13
BRANCH  12  17
ATOM     17  C   UNL     1      -4.071 -12.126  -8.628  1.00  0.00    -0.006 C 
ATOM     18  C   UNL     1      -3.248 -10.910  -9.099  1.00  0.00     0.008 C 
ATOM     19  C   UNL     1      -5.449 -11.618  -8.158  1.00  0.00     0.008 C 
ENDBRANCH  12  17
ENDBRANCH  11  12
ENDBRANCH   1  11
TORSDOF 1
ENDMDL
MODEL 7
REMARK VINA RESULT:    -0.688      1.877      4.394
REMARK INTER + INTRA:           0.353
REMARK INTER:                  -3.173
REMARK INTRA:                   3.525
REMARK UNBOUND:                 1.403
REMARK SMILES CC1=CCC[C@@H](C)C(=O)C[C@H](C(C)C)C(=O)C1
REMARK SMILES IDX 8 1 9 2 6 3 7 4 5 5 4 6 3 7 2 8 1 9 10 11 11 12 15 13 16 14
REMARK SMILES IDX 17 15 12 17 13 18 14 19
REMARK H PARENT
REMARK Flexibility Score: 70.00
ROOT
ATOM      1  C   UNL     1      -3.547 -13.246  -5.857  1.00  0.00     0.136 C 
ATOM      2  O   UNL     1      -3.534 -13.548  -4.672  1.00  0.00    -0.299 OA
ENDROOT
BRANCH   1   3
ATOM      3  C   UNL     1      -2.318 -12.636  -6.491  1.00  0.00     0.053 C 
ATOM      4  C   UNL     1      -2.591 -11.206  -6.969  1.00  0.00     0.016 C 
BRANCH   3   5
ATOM      5  C   UNL     1      -1.844 -13.545  -7.653  1.00  0.00     0.015 C 
BRANCH   5   6
ATOM      6  C   UNL     1      -1.455 -14.985  -7.262  1.00  0.00     0.028 C 
BRANCH   6   7
ATOM      7  C   UNL     1      -2.437 -15.755  -6.406  1.00  0.00    -0.028 C 
ATOM      8  C   UNL     1      -3.544 -16.414  -6.830  1.00  0.00    -0.070 CG0
ATOM      9  C   UNL     1      -4.323 -17.203  -5.805  1.00  0.00     0.039 C 
ATOM     10  G   UNL     1      -4.086 -16.348  -8.246  1.00  0.00     0.000 G0
ENDBRANCH   6   7
ENDBRANCH   5   6
ENDBRANCH   3   5
ENDBRANCH   1   3
BRANCH   1  11
ATOM     11  C   UNL     1      -4.824 -13.411  -6.648  1.00  0.00     0.087 C 
BRANCH  11  12
ATOM     12  C   UNL     1      -4.548 -13.743  -8.147  1.00  0.00     0.066 C 
BRANCH  12  13
ATOM     13  C   UNL     1      -5.018 -15.162  -8.444  1.00  0.00     0.140 C 
ATOM     14  O   UNL     1      -6.136 -15.327  -8.914  1.00  0.00    -0.299 OA
BRANCH  13  15
ATOM     15  C   UNL     1      -4.121 -16.367  -8.249  1.00  0.00     0.106 CG0
ATOM     16  G   UNL     1      -3.547 -16.395  -6.844  1.00  0.00     0.000 G0
ENDBRANCH  13  15
ENDBRANCH  12  13
BRANCH  12  17
ATOM     17  C   UNL     1      -5.229 -12.715  -9.112  1.00  0.00    -0.006 C 
ATOM     18  C   UNL     1      -4.497 -11.358  -9.125  1.00  0.00     0.008 C 
ATOM     19  C   UNL     1      -6.701 -12.462  -8.728  1.00  0.00     0.008 C 
ENDBRANCH  12  17
ENDBRANCH  11  12
ENDBRANCH   1  11
TORSDOF 1
ENDMDL
MODEL 8
REMARK VINA RESULT:    -0.662      1.768      4.143
REMARK INTER + INTRA:           0.392
REMARK INTER:                  -1.946
REMARK INTRA:                   2.338
REMARK UNBOUND:                 1.403
REMARK SMILES CC1=CCC[C@@H](C)C(=O)C[C@H](C(C)C)C(=O)C1
REMARK SMILES IDX 8 1 9 2 6 3 7 4 5 5 4 6 3 7 2 8 1 9 10 11 11 12 15 13 16 14
REMARK SMILES IDX 17 15 12 17 13 18 14 19
REMARK H PARENT
REMARK Flexibility Score: 70.00
ROOT
ATOM      1  C   UNL     1      -2.729 -16.840  -6.145  1.00  0.00     0.136 C 
ATOM      2  O   UNL     1      -2.107 -17.786  -5.683  1.00  0.00    -0.299 OA
ENDROOT
BRANCH   1   3
ATOM      3  C   UNL     1      -4.078 -17.069  -6.787  1.00  0.00     0.053 C 
ATOM      4  C   UNL     1      -4.435 -18.559  -6.813  1.00  0.00     0.016 C 
BRANCH   3   5
ATOM      5  C   UNL     1      -4.070 -16.460  -8.211  1.00  0.00     0.015 C 
BRANCH   5   6
ATOM      6  C   UNL     1      -5.442 -16.016  -8.759  1.00  0.00     0.028 C 
BRANCH   6   7
ATOM      7  C   UNL     1      -5.652 -14.531  -8.963  1.00  0.00    -0.028 C 
ATOM      8  C   UNL     1      -5.598 -13.563  -8.016  1.00  0.00    -0.070 CG0
ATOM      9  C   UNL     1      -5.738 -12.130  -8.471  1.00  0.00     0.039 C 
ATOM     10  G   UNL     1      -5.480 -13.833  -6.527  1.00  0.00     0.000 G0
ENDBRANCH   6   7
ENDBRANCH   5   6
ENDBRANCH   3   5
ENDBRANCH   1   3
BRANCH   1  11
ATOM     11  C   UNL     1      -2.098 -15.467  -6.140  1.00  0.00     0.087 C 
BRANCH  11  12
ATOM     12  C   UNL     1      -2.931 -14.434  -6.960  1.00  0.00     0.066 C 
BRANCH  12  13
ATOM     13  C   UNL     1      -4.032 -13.859  -6.076  1.00  0.00     0.140 C 
ATOM     14  O   UNL     1      -3.726 -13.359  -5.003  1.00  0.00    -0.299 OA
BRANCH  13  15
ATOM     15  C   UNL     1      -5.482 -13.820  -6.515  1.00  0.00     0.106 CG0
ATOM     16  G   UNL     1      -5.591 -13.547  -8.004  1.00  0.00     0.000 G0
ENDBRANCH  13  15
ENDBRANCH  12  13
BRANCH  12  17
ATOM     17  C   UNL     1      -2.037 -13.293  -7.552  1.00  0.00    -0.006 C 
ATOM     18  C   UNL     1      -2.604 -11.893  -7.244  1.00  0.00     0.008 C 
ATOM     19  C   UNL     1      -1.886 -13.423  -9.082  1.00  0.00     0.008 C 
ENDBRANCH  12  17
ENDBRANCH  11  12
ENDBRANCH   1  11
TORSDOF 1
ENDMDL
MODEL 9
REMARK VINA RESULT:    -0.587      1.754      2.664
REMARK INTER + INTRA:           0.506
REMARK INTER:                  -0.046
REMARK INTRA:                   0.552
REMARK UNBOUND:                 1.403
REMARK SMILES CC1=CCC[C@@H](C)C(=O)C[C@H](C(C)C)C(=O)C1
REMARK SMILES IDX 8 1 9 2 6 3 7 4 5 5 4 6 3 7 2 8 1 9 10 11 11 12 15 13 16 14
REMARK SMILES IDX 17 15 12 17 13 18 14 19
REMARK H PARENT
REMARK Flexibility Score: 70.00
ROOT
ATOM      1  C   UNL     1      -5.206 -12.875  -5.754  1.00  0.00     0.136 C 
ATOM      2  O   UNL     1      -6.137 -12.831  -4.962  1.00  0.00    -0.299 OA
ENDROOT
BRANCH   1   3
ATOM      3  C   UNL     1      -5.376 -12.309  -7.146  1.00  0.00     0.053 C 
ATOM      4  C   UNL     1      -5.575 -10.790  -7.107  1.00  0.00     0.016 C 
BRANCH   3   5
ATOM      5  C   UNL     1      -6.563 -13.022  -7.840  1.00  0.00     0.015 C 
BRANCH   5   6
ATOM      6  C   UNL     1      -6.219 -13.804  -9.124  1.00  0.00     0.028 C 
BRANCH   6   7
ATOM      7  C   UNL     1      -5.837 -15.259  -8.960  1.00  0.00    -0.028 C 
ATOM      8  C   UNL     1      -4.591 -15.756  -8.759  1.00  0.00    -0.070 CG0
ATOM      9  C   UNL     1      -4.461 -17.241  -8.519  1.00  0.00     0.039 C 
ATOM     10  G   UNL     1      -3.321 -14.929  -8.835  1.00  0.00     0.000 G0
ENDBRANCH   6   7
ENDBRANCH   5   6
ENDBRANCH   3   5
ENDBRANCH   1   3
BRANCH   1  11
ATOM     11  C   UNL     1      -3.927 -13.572  -5.354  1.00  0.00     0.087 C 
BRANCH  11  12
ATOM     12  C   UNL     1      -3.683 -14.873  -6.179  1.00  0.00     0.066 C 
BRANCH  12  13
ATOM     13  C   UNL     1      -2.861 -14.537  -7.419  1.00  0.00     0.140 C 
ATOM     14  O   UNL     1      -1.784 -13.973  -7.277  1.00  0.00    -0.299 OA
BRANCH  13  15
ATOM     15  C   UNL     1      -3.297 -14.943  -8.811  1.00  0.00     0.106 CG0
ATOM     16  G   UNL     1      -4.589 -15.738  -8.766  1.00  0.00     0.000 G0
ENDBRANCH  13  15
ENDBRANCH  12  13
BRANCH  12  17
ATOM     17  C   UNL     1      -2.983 -15.987  -5.330  1.00  0.00    -0.006 C 
ATOM     18  C   UNL     1      -3.867 -17.241  -5.176  1.00  0.00     0.008 C 
ATOM     19  C   UNL     1      -2.618 -15.482  -3.919  1.00  0.00     0.008 C 
ENDBRANCH  12  17
ENDBRANCH  11  12
ENDBRANCH   1  11
TORSDOF 1
ENDMDL
