MODEL 1
REMARK VINA RESULT:    -3.225      0.000      0.000
REMARK INTER + INTRA:         -11.773
REMARK INTER:                  -7.374
REMARK INTRA:                  -4.400
REMARK UNBOUND:                -4.400
REMARK SMILES CCCCCCCCCCCCCCCCCCCCCCCC(=O)[O-]
REMARK SMILES IDX 13 1 14 2 15 3 16 4 17 5 18 6 19 7 20 8 21 9 22 10 23 11
REMARK SMILES IDX 24 12 25 13 26 14 12 15 11 16 10 17 9 18 8 19 7 20 6 21 5 22
REMARK SMILES IDX 4 23 3 24 2 25 1 26
REMARK H PARENT
REMARK Flexibility Score: inf
ROOT
ATOM      1  C   UNL     1      42.283  27.458  89.723  1.00  0.00     0.000 C 
ENDROOT
BRANCH   1   2
ATOM      2  C   UNL     1      43.284  28.167  90.660  1.00  0.00     0.000 C 
BRANCH   2   3
ATOM      3  C   UNL     1      42.703  29.403  91.368  1.00  0.00     0.000 C 
BRANCH   3   4
ATOM      4  C   UNL     1      43.790  30.349  91.899  1.00  0.00     0.000 C 
BRANCH   4   5
ATOM      5  C   UNL     1      45.219  29.841  91.628  1.00  0.00     0.000 C 
BRANCH   5   6
ATOM      6  C   UNL     1      46.104  30.775  90.782  1.00  0.00     0.000 C 
BRANCH   6   7
ATOM      7  C   UNL     1      47.450  30.140  90.391  1.00  0.00     0.000 C 
BRANCH   7   8
ATOM      8  C   UNL     1      48.287  31.049  89.475  1.00  0.00     0.000 C 
BRANCH   8   9
ATOM      9  C   UNL     1      47.419  31.928  88.561  1.00  0.00     0.000 C 
BRANCH   9  10
ATOM     10  C   UNL     1      48.018  32.009  87.152  1.00  0.00     0.006 C 
BRANCH  10  11
ATOM     11  C   UNL     1      49.520  32.304  87.207  1.00  0.00     0.053 C 
BRANCH  11  12
ATOM     12  C   UNL     1      49.774  33.774  87.087  1.00  0.00     0.041 C 
ATOM     13  O   UNL     1      50.930  34.236  87.277  1.00  0.00    -0.550 OA
ATOM     14  O   UNL     1      48.735  34.635  86.751  1.00  0.00    -0.550 OA
ENDBRANCH  11  12
ENDBRANCH  10  11
ENDBRANCH   9  10
ENDBRANCH   8   9
ENDBRANCH   7   8
ENDBRANCH   6   7
ENDBRANCH   5   6
ENDBRANCH   4   5
ENDBRANCH   3   4
ENDBRANCH   2   3
ENDBRANCH   1   2
BRANCH   1  15
ATOM     15  C   UNL     1      40.898  28.132  89.735  1.00  0.00     0.000 C 
BRANCH  15  16
ATOM     16  C   UNL     1      40.187  28.045  88.367  1.00  0.00     0.000 C 
BRANCH  16  17
ATOM     17  C   UNL     1      39.624  29.390  87.871  1.00  0.00     0.000 C 
BRANCH  17  18
ATOM     18  C   UNL     1      40.382  30.639  88.359  1.00  0.00    -0.000 C 
BRANCH  18  19
ATOM     19  C   UNL     1      41.560  31.078  87.468  1.00  0.00    -0.000 C 
BRANCH  19  20
ATOM     20  C   UNL     1      42.815  31.450  88.277  1.00  0.00    -0.000 C 
BRANCH  20  21
ATOM     21  C   UNL     1      44.014  30.527  87.988  1.00  0.00    -0.000 C 
BRANCH  21  22
ATOM     22  C   UNL     1      43.745  29.382  86.992  1.00  0.00    -0.000 C 
BRANCH  22  23
ATOM     23  C   UNL     1      45.013  28.593  86.625  1.00  0.00    -0.000 C 
BRANCH  23  24
ATOM     24  C   UNL     1      45.931  28.346  87.834  1.00  0.00    -0.000 C 
BRANCH  24  25
ATOM     25  C   UNL     1      46.164  26.852  88.140  1.00  0.00    -0.003 C 
ATOM     26  C   UNL     1      46.453  26.602  89.620  1.00  0.00     0.004 C 
ENDBRANCH  24  25
ENDBRANCH  23  24
ENDBRANCH  22  23
ENDBRANCH  21  22
ENDBRANCH  20  21
ENDBRANCH  19  20
ENDBRANCH  18  19
ENDBRANCH  17  18
ENDBRANCH  16  17
ENDBRANCH  15  16
ENDBRANCH   1  15
TORSDOF 22
ENDMDL
MODEL 2
REMARK VINA RESULT:    -3.174      3.015      7.889
REMARK INTER + INTRA:         -11.657
REMARK INTER:                  -8.023
REMARK INTRA:                  -3.634
REMARK UNBOUND:                -4.400
REMARK SMILES CCCCCCCCCCCCCCCCCCCCCCCC(=O)[O-]
REMARK SMILES IDX 13 1 14 2 15 3 16 4 17 5 18 6 19 7 20 8 21 9 22 10 23 11
REMARK SMILES IDX 24 12 25 13 26 14 12 15 11 16 10 17 9 18 8 19 7 20 6 21 5 22
REMARK SMILES IDX 4 23 3 24 2 25 1 26
REMARK H PARENT
REMARK Flexibility Score: inf
ROOT
ATOM      1  C   UNL     1      47.869  31.579  87.111  1.00  0.00     0.000 C 
ENDROOT
BRANCH   1   2
ATOM      2  C   UNL     1      47.471  32.030  88.533  1.00  0.00     0.000 C 
BRANCH   2   3
ATOM      3  C   UNL     1      46.205  31.341  89.071  1.00  0.00     0.000 C 
BRANCH   3   4
ATOM      4  C   UNL     1      46.031  29.913  88.532  1.00  0.00     0.000 C 
BRANCH   4   5
ATOM      5  C   UNL     1      46.741  28.851  89.395  1.00  0.00     0.000 C 
BRANCH   5   6
ATOM      6  C   UNL     1      46.652  29.068  90.917  1.00  0.00     0.000 C 
BRANCH   6   7
ATOM      7  C   UNL     1      45.325  28.577  91.520  1.00  0.00     0.000 C 
BRANCH   7   8
ATOM      8  C   UNL     1      44.623  29.658  92.359  1.00  0.00     0.000 C 
BRANCH   8   9
ATOM      9  C   UNL     1      43.445  30.309  91.618  1.00  0.00     0.000 C 
BRANCH   9  10
ATOM     10  C   UNL     1      43.021  29.462  90.413  1.00  0.00     0.006 C 
BRANCH  10  11
ATOM     11  C   UNL     1      41.565  29.742  90.027  1.00  0.00     0.053 C 
BRANCH  11  12
ATOM     12  C   UNL     1      41.496  30.488  88.733  1.00  0.00     0.041 C 
ATOM     13  O   UNL     1      42.553  30.815  88.131  1.00  0.00    -0.550 OA
ATOM     14  O   UNL     1      40.261  30.811  88.180  1.00  0.00    -0.550 OA
ENDBRANCH  11  12
ENDBRANCH  10  11
ENDBRANCH   9  10
ENDBRANCH   8   9
ENDBRANCH   7   8
ENDBRANCH   6   7
ENDBRANCH   5   6
ENDBRANCH   4   5
ENDBRANCH   3   4
ENDBRANCH   2   3
ENDBRANCH   1   2
BRANCH   1  15
ATOM     15  C   UNL     1      48.717  32.638  86.382  1.00  0.00     0.000 C 
BRANCH  15  16
ATOM     16  C   UNL     1      48.696  34.006  87.098  1.00  0.00     0.000 C 
BRANCH  16  17
ATOM     17  C   UNL     1      49.745  35.001  86.568  1.00  0.00     0.000 C 
BRANCH  17  18
ATOM     18  C   UNL     1      50.423  34.599  85.244  1.00  0.00    -0.000 C 
BRANCH  18  19
ATOM     19  C   UNL     1      51.964  34.589  85.277  1.00  0.00    -0.000 C 
BRANCH  19  20
ATOM     20  C   UNL     1      52.531  34.587  86.707  1.00  0.00    -0.000 C 
BRANCH  20  21
ATOM     21  C   UNL     1      53.069  33.210  87.140  1.00  0.00    -0.000 C 
BRANCH  21  22
ATOM     22  C   UNL     1      52.888  32.866  88.630  1.00  0.00    -0.000 C 
BRANCH  22  23
ATOM     23  C   UNL     1      51.478  32.349  88.962  1.00  0.00    -0.000 C 
BRANCH  23  24
ATOM     24  C   UNL     1      51.254  30.897  88.505  1.00  0.00    -0.000 C 
BRANCH  24  25
ATOM     25  C   UNL     1      50.469  30.042  89.521  1.00  0.00    -0.003 C 
ATOM     26  C   UNL     1      50.081  30.836  90.769  1.00  0.00     0.004 C 
ENDBRANCH  24  25
ENDBRANCH  23  24
ENDBRANCH  22  23
ENDBRANCH  21  22
ENDBRANCH  20  21
ENDBRANCH  19  20
ENDBRANCH  18  19
ENDBRANCH  17  18
ENDBRANCH  16  17
ENDBRANCH  15  16
ENDBRANCH   1  15
TORSDOF 22
ENDMDL
MODEL 3
REMARK VINA RESULT:    -3.148      1.852      3.656
REMARK INTER + INTRA:         -11.595
REMARK INTER:                  -7.581
REMARK INTRA:                  -4.015
REMARK UNBOUND:                -4.400
REMARK SMILES CCCCCCCCCCCCCCCCCCCCCCCC(=O)[O-]
REMARK SMILES IDX 13 1 14 2 15 3 16 4 17 5 18 6 19 7 20 8 21 9 22 10 23 11
REMARK SMILES IDX 24 12 25 13 26 14 12 15 11 16 10 17 9 18 8 19 7 20 6 21 5 22
REMARK SMILES IDX 4 23 3 24 2 25 1 26
REMARK H PARENT
REMARK Flexibility Score: inf
ROOT
ATOM      1  C   UNL     1      43.368  27.433  90.412  1.00  0.00     0.000 C 
ENDROOT
BRANCH   1   2
ATOM      2  C   UNL     1      42.556  28.381  91.321  1.00  0.00     0.000 C 
BRANCH   2   3
ATOM      3  C   UNL     1      43.326  29.642  91.749  1.00  0.00     0.000 C 
BRANCH   3   4
ATOM      4  C   UNL     1      44.723  29.326  92.303  1.00  0.00     0.000 C 
BRANCH   4   5
ATOM      5  C   UNL     1      45.861  29.891  91.432  1.00  0.00     0.000 C 
BRANCH   5   6
ATOM      6  C   UNL     1      45.568  31.243  90.755  1.00  0.00     0.000 C 
BRANCH   6   7
ATOM      7  C   UNL     1      46.576  31.593  89.647  1.00  0.00     0.000 C 
BRANCH   7   8
ATOM      8  C   UNL     1      47.626  30.490  89.435  1.00  0.00     0.000 C 
BRANCH   8   9
ATOM      9  C   UNL     1      49.029  30.911  89.902  1.00  0.00     0.000 C 
BRANCH   9  10
ATOM     10  C   UNL     1      50.046  30.784  88.761  1.00  0.00     0.006 C 
BRANCH  10  11
ATOM     11  C   UNL     1      50.888  32.058  88.630  1.00  0.00     0.053 C 
BRANCH  11  12
ATOM     12  C   UNL     1      52.339  31.720  88.502  1.00  0.00     0.041 C 
ATOM     13  O   UNL     1      53.038  32.254  87.600  1.00  0.00    -0.550 OA
ATOM     14  O   UNL     1      52.927  30.824  89.388  1.00  0.00    -0.550 OA
ENDBRANCH  11  12
ENDBRANCH  10  11
ENDBRANCH   9  10
ENDBRANCH   8   9
ENDBRANCH   7   8
ENDBRANCH   6   7
ENDBRANCH   5   6
ENDBRANCH   4   5
ENDBRANCH   3   4
ENDBRANCH   2   3
ENDBRANCH   1   2
BRANCH   1  15
ATOM     15  C   UNL     1      43.189  27.765  88.919  1.00  0.00     0.000 C 
BRANCH  15  16
ATOM     16  C   UNL     1      44.379  28.565  88.346  1.00  0.00     0.000 C 
BRANCH  16  17
ATOM     17  C   UNL     1      43.966  29.850  87.604  1.00  0.00     0.000 C 
BRANCH  17  18
ATOM     18  C   UNL     1      42.903  30.708  88.318  1.00  0.00    -0.000 C 
BRANCH  18  19
ATOM     19  C   UNL     1      41.823  31.307  87.397  1.00  0.00    -0.000 C 
BRANCH  19  20
ATOM     20  C   UNL     1      40.396  31.097  87.935  1.00  0.00    -0.000 C 
BRANCH  20  21
ATOM     21  C   UNL     1      40.330  30.066  89.078  1.00  0.00    -0.000 C 
BRANCH  21  22
ATOM     22  C   UNL     1      39.656  28.726  88.723  1.00  0.00    -0.000 C 
BRANCH  22  23
ATOM     23  C   UNL     1      38.761  28.814  87.475  1.00  0.00    -0.000 C 
BRANCH  23  24
ATOM     24  C   UNL     1      39.198  27.849  86.360  1.00  0.00    -0.000 C 
BRANCH  24  25
ATOM     25  C   UNL     1      40.716  27.569  86.343  1.00  0.00    -0.003 C 
ATOM     26  C   UNL     1      41.434  28.337  85.234  1.00  0.00     0.004 C 
ENDBRANCH  24  25
ENDBRANCH  23  24
ENDBRANCH  22  23
ENDBRANCH  21  22
ENDBRANCH  20  21
ENDBRANCH  19  20
ENDBRANCH  18  19
ENDBRANCH  17  18
ENDBRANCH  16  17
ENDBRANCH  15  16
ENDBRANCH   1  15
TORSDOF 22
ENDMDL
MODEL 4
REMARK VINA RESULT:    -3.142      3.365      7.783
REMARK INTER + INTRA:         -11.582
REMARK INTER:                  -7.747
REMARK INTRA:                  -3.835
REMARK UNBOUND:                -4.400
REMARK SMILES CCCCCCCCCCCCCCCCCCCCCCCC(=O)[O-]
REMARK SMILES IDX 13 1 14 2 15 3 16 4 17 5 18 6 19 7 20 8 21 9 22 10 23 11
REMARK SMILES IDX 24 12 25 13 26 14 12 15 11 16 10 17 9 18 8 19 7 20 6 21 5 22
REMARK SMILES IDX 4 23 3 24 2 25 1 26
REMARK H PARENT
REMARK Flexibility Score: inf
ROOT
ATOM      1  C   UNL     1      47.670  31.207  86.845  1.00  0.00     0.000 C 
ENDROOT
BRANCH   1   2
ATOM      2  C   UNL     1      46.729  30.682  87.951  1.00  0.00     0.000 C 
BRANCH   2   3
ATOM      3  C   UNL     1      46.476  31.694  89.082  1.00  0.00     0.000 C 
BRANCH   3   4
ATOM      4  C   UNL     1      46.870  31.150  90.464  1.00  0.00     0.000 C 
BRANCH   4   5
ATOM      5  C   UNL     1      46.618  29.637  90.613  1.00  0.00     0.000 C 
BRANCH   5   6
ATOM      6  C   UNL     1      45.576  29.240  91.675  1.00  0.00     0.000 C 
BRANCH   6   7
ATOM      7  C   UNL     1      44.352  28.525  91.080  1.00  0.00     0.000 C 
BRANCH   7   8
ATOM      8  C   UNL     1      43.023  29.155  91.532  1.00  0.00     0.000 C 
BRANCH   8   9
ATOM      9  C   UNL     1      42.232  29.766  90.365  1.00  0.00     0.000 C 
BRANCH   9  10
ATOM     10  C   UNL     1      43.080  29.802  89.088  1.00  0.00     0.006 C 
BRANCH  10  11
ATOM     11  C   UNL     1      43.005  31.176  88.415  1.00  0.00     0.053 C 
BRANCH  11  12
ATOM     12  C   UNL     1      41.987  31.173  87.319  1.00  0.00     0.041 C 
ATOM     13  O   UNL     1      41.547  30.084  86.864  1.00  0.00    -0.550 OA
ATOM     14  O   UNL     1      41.510  32.376  86.808  1.00  0.00    -0.550 OA
ENDBRANCH  11  12
ENDBRANCH  10  11
ENDBRANCH   9  10
ENDBRANCH   8   9
ENDBRANCH   7   8
ENDBRANCH   6   7
ENDBRANCH   5   6
ENDBRANCH   4   5
ENDBRANCH   3   4
ENDBRANCH   2   3
ENDBRANCH   1   2
BRANCH   1  15
ATOM     15  C   UNL     1      48.399  32.497  87.266  1.00  0.00     0.000 C 
BRANCH  15  16
ATOM     16  C   UNL     1      49.884  32.250  87.607  1.00  0.00     0.000 C 
BRANCH  16  17
ATOM     17  C   UNL     1      50.425  30.902  87.096  1.00  0.00     0.000 C 
BRANCH  17  18
ATOM     18  C   UNL     1      51.035  29.987  88.175  1.00  0.00    -0.000 C 
BRANCH  18  19
ATOM     19  C   UNL     1      50.066  29.562  89.295  1.00  0.00    -0.000 C 
BRANCH  19  20
ATOM     20  C   UNL     1      50.617  29.850  90.703  1.00  0.00    -0.000 C 
BRANCH  20  21
ATOM     21  C   UNL     1      50.320  31.283  91.184  1.00  0.00    -0.000 C 
BRANCH  21  22
ATOM     22  C   UNL     1      51.489  32.003  91.883  1.00  0.00    -0.000 C 
BRANCH  22  23
ATOM     23  C   UNL     1      52.865  31.599  91.327  1.00  0.00    -0.000 C 
BRANCH  23  24
ATOM     24  C   UNL     1      53.491  32.687  90.437  1.00  0.00    -0.000 C 
BRANCH  24  25
ATOM     25  C   UNL     1      53.751  32.229  88.988  1.00  0.00    -0.003 C 
ATOM     26  C   UNL     1      54.542  30.923  88.927  1.00  0.00     0.004 C 
ENDBRANCH  24  25
ENDBRANCH  23  24
ENDBRANCH  22  23
ENDBRANCH  21  22
ENDBRANCH  20  21
ENDBRANCH  19  20
ENDBRANCH  18  19
ENDBRANCH  17  18
ENDBRANCH  16  17
ENDBRANCH  15  16
ENDBRANCH   1  15
TORSDOF 22
ENDMDL
MODEL 5
REMARK VINA RESULT:    -3.133      3.815      8.434
REMARK INTER + INTRA:         -11.562
REMARK INTER:                  -6.998
REMARK INTRA:                  -4.564
REMARK UNBOUND:                -4.400
REMARK SMILES CCCCCCCCCCCCCCCCCCCCCCCC(=O)[O-]
REMARK SMILES IDX 13 1 14 2 15 3 16 4 17 5 18 6 19 7 20 8 21 9 22 10 23 11
REMARK SMILES IDX 24 12 25 13 26 14 12 15 11 16 10 17 9 18 8 19 7 20 6 21 5 22
REMARK SMILES IDX 4 23 3 24 2 25 1 26
REMARK H PARENT
REMARK Flexibility Score: inf
ROOT
ATOM      1  C   UNL     1      50.699  30.093  86.141  1.00  0.00     0.000 C 
ENDROOT
BRANCH   1   2
ATOM      2  C   UNL     1      51.853  31.059  86.488  1.00  0.00     0.000 C 
BRANCH   2   3
ATOM      3  C   UNL     1      52.559  30.730  87.815  1.00  0.00     0.000 C 
BRANCH   3   4
ATOM      4  C   UNL     1      52.388  31.834  88.869  1.00  0.00     0.000 C 
BRANCH   4   5
ATOM      5  C   UNL     1      50.971  31.880  89.472  1.00  0.00     0.000 C 
BRANCH   5   6
ATOM      6  C   UNL     1      50.824  31.242  90.866  1.00  0.00     0.000 C 
BRANCH   6   7
ATOM      7  C   UNL     1      50.120  29.875  90.832  1.00  0.00     0.000 C 
BRANCH   7   8
ATOM      8  C   UNL     1      49.363  29.634  89.515  1.00  0.00     0.000 C 
BRANCH   8   9
ATOM      9  C   UNL     1      47.837  29.662  89.697  1.00  0.00     0.000 C 
BRANCH   9  10
ATOM     10  C   UNL     1      47.277  31.057  89.396  1.00  0.00     0.006 C 
BRANCH  10  11
ATOM     11  C   UNL     1      46.370  31.543  90.531  1.00  0.00     0.053 C 
BRANCH  11  12
ATOM     12  C   UNL     1      44.977  31.027  90.352  1.00  0.00     0.041 C 
ATOM     13  O   UNL     1      44.545  30.097  91.083  1.00  0.00    -0.550 OA
ATOM     14  O   UNL     1      44.147  31.584  89.384  1.00  0.00    -0.550 OA
ENDBRANCH  11  12
ENDBRANCH  10  11
ENDBRANCH   9  10
ENDBRANCH   8   9
ENDBRANCH   7   8
ENDBRANCH   6   7
ENDBRANCH   5   6
ENDBRANCH   4   5
ENDBRANCH   3   4
ENDBRANCH   2   3
ENDBRANCH   1   2
BRANCH   1  15
ATOM     15  C   UNL     1      49.348  30.821  86.020  1.00  0.00     0.000 C 
BRANCH  15  16
ATOM     16  C   UNL     1      49.513  32.347  85.850  1.00  0.00     0.000 C 
BRANCH  16  17
ATOM     17  C   UNL     1      48.644  33.178  86.812  1.00  0.00     0.000 C 
BRANCH  17  18
ATOM     18  C   UNL     1      49.117  34.626  87.040  1.00  0.00    -0.000 C 
BRANCH  18  19
ATOM     19  C   UNL     1      50.391  35.026  86.271  1.00  0.00    -0.000 C 
BRANCH  19  20
ATOM     20  C   UNL     1      51.645  35.044  87.163  1.00  0.00    -0.000 C 
BRANCH  20  21
ATOM     21  C   UNL     1      52.928  34.653  86.407  1.00  0.00    -0.000 C 
BRANCH  21  22
ATOM     22  C   UNL     1      52.847  34.744  84.871  1.00  0.00    -0.000 C 
BRANCH  22  23
ATOM     23  C   UNL     1      52.944  33.374  84.180  1.00  0.00    -0.000 C 
BRANCH  23  24
ATOM     24  C   UNL     1      51.811  33.138  83.165  1.00  0.00    -0.000 C 
BRANCH  24  25
ATOM     25  C   UNL     1      51.214  34.439  82.590  1.00  0.00    -0.003 C 
ATOM     26  C   UNL     1      49.695  34.497  82.747  1.00  0.00     0.004 C 
ENDBRANCH  24  25
ENDBRANCH  23  24
ENDBRANCH  22  23
ENDBRANCH  21  22
ENDBRANCH  20  21
ENDBRANCH  19  20
ENDBRANCH  18  19
ENDBRANCH  17  18
ENDBRANCH  16  17
ENDBRANCH  15  16
ENDBRANCH   1  15
TORSDOF 22
ENDMDL
MODEL 6
REMARK VINA RESULT:    -3.123      1.740      4.900
REMARK INTER + INTRA:         -11.540
REMARK INTER:                  -8.796
REMARK INTRA:                  -2.744
REMARK UNBOUND:                -4.400
REMARK SMILES CCCCCCCCCCCCCCCCCCCCCCCC(=O)[O-]
REMARK SMILES IDX 13 1 14 2 15 3 16 4 17 5 18 6 19 7 20 8 21 9 22 10 23 11
REMARK SMILES IDX 24 12 25 13 26 14 12 15 11 16 10 17 9 18 8 19 7 20 6 21 5 22
REMARK SMILES IDX 4 23 3 24 2 25 1 26
REMARK H PARENT
REMARK Flexibility Score: inf
ROOT
ATOM      1  C   UNL     1      47.101  28.547  90.286  1.00  0.00     0.000 C 
ENDROOT
BRANCH   1   2
ATOM      2  C   UNL     1      48.364  29.414  90.482  1.00  0.00     0.000 C 
BRANCH   2   3
ATOM      3  C   UNL     1      48.200  30.866  90.000  1.00  0.00     0.000 C 
BRANCH   3   4
ATOM      4  C   UNL     1      47.972  30.966  88.484  1.00  0.00     0.000 C 
BRANCH   4   5
ATOM      5  C   UNL     1      49.075  31.759  87.757  1.00  0.00     0.000 C 
BRANCH   5   6
ATOM      6  C   UNL     1      48.588  32.700  86.640  1.00  0.00     0.000 C 
BRANCH   6   7
ATOM      7  C   UNL     1      48.902  34.180  86.918  1.00  0.00     0.000 C 
BRANCH   7   8
ATOM      8  C   UNL     1      49.322  34.942  85.650  1.00  0.00     0.000 C 
BRANCH   8   9
ATOM      9  C   UNL     1      50.194  34.093  84.712  1.00  0.00     0.000 C 
BRANCH   9  10
ATOM     10  C   UNL     1      51.655  34.558  84.753  1.00  0.00     0.006 C 
BRANCH  10  11
ATOM     11  C   UNL     1      52.455  33.769  85.794  1.00  0.00     0.053 C 
BRANCH  11  12
ATOM     12  C   UNL     1      53.054  34.690  86.809  1.00  0.00     0.041 C 
ATOM     13  O   UNL     1      54.275  34.602  87.104  1.00  0.00    -0.550 OA
ATOM     14  O   UNL     1      52.267  35.659  87.421  1.00  0.00    -0.550 OA
ENDBRANCH  11  12
ENDBRANCH  10  11
ENDBRANCH   9  10
ENDBRANCH   8   9
ENDBRANCH   7   8
ENDBRANCH   6   7
ENDBRANCH   5   6
ENDBRANCH   4   5
ENDBRANCH   3   4
ENDBRANCH   2   3
ENDBRANCH   1   2
BRANCH   1  15
ATOM     15  C   UNL     1      46.561  27.998  91.619  1.00  0.00     0.000 C 
BRANCH  15  16
ATOM     16  C   UNL     1      45.087  28.388  91.864  1.00  0.00     0.000 C 
BRANCH  16  17
ATOM     17  C   UNL     1      44.861  29.903  92.018  1.00  0.00     0.000 C 
BRANCH  17  18
ATOM     18  C   UNL     1      43.889  30.530  91.001  1.00  0.00    -0.000 C 
BRANCH  18  19
ATOM     19  C   UNL     1      44.553  31.130  89.746  1.00  0.00    -0.000 C 
BRANCH  19  20
ATOM     20  C   UNL     1      43.906  30.644  88.438  1.00  0.00    -0.000 C 
BRANCH  20  21
ATOM     21  C   UNL     1      42.657  31.457  88.045  1.00  0.00    -0.000 C 
BRANCH  21  22
ATOM     22  C   UNL     1      41.495  30.640  87.449  1.00  0.00    -0.000 C 
BRANCH  22  23
ATOM     23  C   UNL     1      40.240  30.641  88.338  1.00  0.00    -0.000 C 
BRANCH  23  24
ATOM     24  C   UNL     1      40.387  29.739  89.576  1.00  0.00    -0.000 C 
BRANCH  24  25
ATOM     25  C   UNL     1      40.612  28.251  89.236  1.00  0.00    -0.003 C 
ATOM     26  C   UNL     1      41.820  27.667  89.966  1.00  0.00     0.004 C 
ENDBRANCH  24  25
ENDBRANCH  23  24
ENDBRANCH  22  23
ENDBRANCH  21  22
ENDBRANCH  20  21
ENDBRANCH  19  20
ENDBRANCH  18  19
ENDBRANCH  17  18
ENDBRANCH  16  17
ENDBRANCH  15  16
ENDBRANCH   1  15
TORSDOF 22
ENDMDL
MODEL 7
REMARK VINA RESULT:    -3.100      2.604      4.111
REMARK INTER + INTRA:         -11.487
REMARK INTER:                  -7.147
REMARK INTRA:                  -4.340
REMARK UNBOUND:                -4.400
REMARK SMILES CCCCCCCCCCCCCCCCCCCCCCCC(=O)[O-]
REMARK SMILES IDX 13 1 14 2 15 3 16 4 17 5 18 6 19 7 20 8 21 9 22 10 23 11
REMARK SMILES IDX 24 12 25 13 26 14 12 15 11 16 10 17 9 18 8 19 7 20 6 21 5 22
REMARK SMILES IDX 4 23 3 24 2 25 1 26
REMARK H PARENT
REMARK Flexibility Score: inf
ROOT
ATOM      1  C   UNL     1      44.743  31.232  91.238  1.00  0.00     0.000 C 
ENDROOT
BRANCH   1   2
ATOM      2  C   UNL     1      43.721  30.249  91.849  1.00  0.00     0.000 C 
BRANCH   2   3
ATOM      3  C   UNL     1      44.357  28.975  92.433  1.00  0.00     0.000 C 
BRANCH   3   4
ATOM      4  C   UNL     1      45.712  28.640  91.792  1.00  0.00     0.000 C 
BRANCH   4   5
ATOM      5  C   UNL     1      45.670  27.373  90.916  1.00  0.00     0.000 C 
BRANCH   5   6
ATOM      6  C   UNL     1      46.534  27.420  89.642  1.00  0.00     0.000 C 
BRANCH   6   7
ATOM      7  C   UNL     1      46.731  28.845  89.099  1.00  0.00     0.000 C 
BRANCH   7   8
ATOM      8  C   UNL     1      48.175  29.347  89.268  1.00  0.00     0.000 C 
BRANCH   8   9
ATOM      9  C   UNL     1      48.264  30.611  90.137  1.00  0.00     0.000 C 
BRANCH   9  10
ATOM     10  C   UNL     1      49.724  30.962  90.445  1.00  0.00     0.006 C 
BRANCH  10  11
ATOM     11  C   UNL     1      50.672  29.873  89.932  1.00  0.00     0.053 C 
BRANCH  11  12
ATOM     12  C   UNL     1      51.453  29.277  91.061  1.00  0.00     0.041 C 
ATOM     13  O   UNL     1      52.654  29.606  91.245  1.00  0.00    -0.550 OA
ATOM     14  O   UNL     1      50.848  28.367  91.921  1.00  0.00    -0.550 OA
ENDBRANCH  11  12
ENDBRANCH  10  11
ENDBRANCH   9  10
ENDBRANCH   8   9
ENDBRANCH   7   8
ENDBRANCH   6   7
ENDBRANCH   5   6
ENDBRANCH   4   5
ENDBRANCH   3   4
ENDBRANCH   2   3
ENDBRANCH   1   2
BRANCH   1  15
ATOM     15  C   UNL     1      44.499  31.466  89.736  1.00  0.00     0.000 C 
BRANCH  15  16
ATOM     16  C   UNL     1      43.206  30.786  89.236  1.00  0.00     0.000 C 
BRANCH  16  17
ATOM     17  C   UNL     1      42.776  31.229  87.825  1.00  0.00     0.000 C 
BRANCH  17  18
ATOM     18  C   UNL     1      41.256  31.216  87.568  1.00  0.00    -0.000 C 
BRANCH  18  19
ATOM     19  C   UNL     1      40.416  30.518  88.655  1.00  0.00    -0.000 C 
BRANCH  19  20
ATOM     20  C   UNL     1      39.597  29.335  88.109  1.00  0.00    -0.000 C 
BRANCH  20  21
ATOM     21  C   UNL     1      39.883  28.013  88.847  1.00  0.00    -0.000 C 
BRANCH  21  22
ATOM     22  C   UNL     1      40.781  28.131  90.093  1.00  0.00    -0.000 C 
BRANCH  22  23
ATOM     23  C   UNL     1      42.103  27.357  89.958  1.00  0.00    -0.000 C 
BRANCH  23  24
ATOM     24  C   UNL     1      42.296  26.747  88.559  1.00  0.00    -0.000 C 
BRANCH  24  25
ATOM     25  C   UNL     1      43.353  27.478  87.705  1.00  0.00    -0.003 C 
ATOM     26  C   UNL     1      42.814  27.874  86.331  1.00  0.00     0.004 C 
ENDBRANCH  24  25
ENDBRANCH  23  24
ENDBRANCH  22  23
ENDBRANCH  21  22
ENDBRANCH  20  21
ENDBRANCH  19  20
ENDBRANCH  18  19
ENDBRANCH  17  18
ENDBRANCH  16  17
ENDBRANCH  15  16
ENDBRANCH   1  15
TORSDOF 22
ENDMDL
MODEL 8
REMARK VINA RESULT:    -3.091      2.629      6.645
REMARK INTER + INTRA:         -11.467
REMARK INTER:                  -7.341
REMARK INTRA:                  -4.126
REMARK UNBOUND:                -4.400
REMARK SMILES CCCCCCCCCCCCCCCCCCCCCCCC(=O)[O-]
REMARK SMILES IDX 13 1 14 2 15 3 16 4 17 5 18 6 19 7 20 8 21 9 22 10 23 11
REMARK SMILES IDX 24 12 25 13 26 14 12 15 11 16 10 17 9 18 8 19 7 20 6 21 5 22
REMARK SMILES IDX 4 23 3 24 2 25 1 26
REMARK H PARENT
REMARK Flexibility Score: inf
ROOT
ATOM      1  C   UNL     1      44.919  29.610  88.056  1.00  0.00     0.000 C 
ENDROOT
BRANCH   1   2
ATOM      2  C   UNL     1      45.643  30.624  88.968  1.00  0.00     0.000 C 
BRANCH   2   3
ATOM      3  C   UNL     1      44.695  31.610  89.674  1.00  0.00     0.000 C 
BRANCH   3   4
ATOM      4  C   UNL     1      44.559  31.329  91.178  1.00  0.00     0.000 C 
BRANCH   4   5
ATOM      5  C   UNL     1      45.346  30.086  91.635  1.00  0.00     0.000 C 
BRANCH   5   6
ATOM      6  C   UNL     1      44.497  28.948  92.233  1.00  0.00     0.000 C 
BRANCH   6   7
ATOM      7  C   UNL     1      43.040  28.962  91.741  1.00  0.00     0.000 C 
BRANCH   7   8
ATOM      8  C   UNL     1      42.750  27.844  90.725  1.00  0.00     0.000 C 
BRANCH   8   9
ATOM      9  C   UNL     1      41.833  28.306  89.582  1.00  0.00     0.000 C 
BRANCH   9  10
ATOM     10  C   UNL     1      41.569  29.814  89.669  1.00  0.00     0.006 C 
BRANCH  10  11
ATOM     11  C   UNL     1      40.634  30.275  88.546  1.00  0.00     0.053 C 
BRANCH  11  12
ATOM     12  C   UNL     1      41.415  30.645  87.326  1.00  0.00     0.041 C 
ATOM     13  O   UNL     1      41.869  31.812  87.192  1.00  0.00    -0.550 OA
ATOM     14  O   UNL     1      41.656  29.695  86.339  1.00  0.00    -0.550 OA
ENDBRANCH  11  12
ENDBRANCH  10  11
ENDBRANCH   9  10
ENDBRANCH   8   9
ENDBRANCH   7   8
ENDBRANCH   6   7
ENDBRANCH   5   6
ENDBRANCH   4   5
ENDBRANCH   3   4
ENDBRANCH   2   3
ENDBRANCH   1   2
BRANCH   1  15
ATOM     15  C   UNL     1      45.800  28.390  87.731  1.00  0.00     0.000 C 
BRANCH  15  16
ATOM     16  C   UNL     1      46.125  27.546  88.983  1.00  0.00     0.000 C 
BRANCH  16  17
ATOM     17  C   UNL     1      47.627  27.477  89.314  1.00  0.00     0.000 C 
BRANCH  17  18
ATOM     18  C   UNL     1      48.045  28.176  90.622  1.00  0.00    -0.000 C 
BRANCH  18  19
ATOM     19  C   UNL     1      49.363  28.972  90.545  1.00  0.00    -0.000 C 
BRANCH  19  20
ATOM     20  C   UNL     1      49.138  30.480  90.342  1.00  0.00    -0.000 C 
BRANCH  20  21
ATOM     21  C   UNL     1      50.352  31.190  89.712  1.00  0.00    -0.000 C 
BRANCH  21  22
ATOM     22  C   UNL     1      50.311  31.339  88.179  1.00  0.00    -0.000 C 
BRANCH  22  23
ATOM     23  C   UNL     1      48.885  31.278  87.606  1.00  0.00    -0.000 C 
BRANCH  23  24
ATOM     24  C   UNL     1      48.305  32.671  87.303  1.00  0.00    -0.000 C 
BRANCH  24  25
ATOM     25  C   UNL     1      49.246  33.566  86.470  1.00  0.00    -0.003 C 
ATOM     26  C   UNL     1      49.125  35.041  86.848  1.00  0.00     0.004 C 
ENDBRANCH  24  25
ENDBRANCH  23  24
ENDBRANCH  22  23
ENDBRANCH  21  22
ENDBRANCH  20  21
ENDBRANCH  19  20
ENDBRANCH  18  19
ENDBRANCH  17  18
ENDBRANCH  16  17
ENDBRANCH  15  16
ENDBRANCH   1  15
TORSDOF 22
ENDMDL
MODEL 9
REMARK VINA RESULT:    -3.050      3.967      7.415
REMARK INTER + INTRA:         -11.372
REMARK INTER:                  -7.745
REMARK INTRA:                  -3.627
REMARK UNBOUND:                -4.400
REMARK SMILES CCCCCCCCCCCCCCCCCCCCCCCC(=O)[O-]
REMARK SMILES IDX 13 1 14 2 15 3 16 4 17 5 18 6 19 7 20 8 21 9 22 10 23 11
REMARK SMILES IDX 24 12 25 13 26 14 12 15 11 16 10 17 9 18 8 19 7 20 6 21 5 22
REMARK SMILES IDX 4 23 3 24 2 25 1 26
REMARK H PARENT
REMARK Flexibility Score: inf
ROOT
ATOM      1  C   UNL     1      45.606  27.222  89.682  1.00  0.00     0.000 C 
ENDROOT
BRANCH   1   2
ATOM      2  C   UNL     1      45.505  28.118  88.429  1.00  0.00     0.000 C 
BRANCH   2   3
ATOM      3  C   UNL     1      44.060  28.446  88.015  1.00  0.00     0.000 C 
BRANCH   3   4
ATOM      4  C   UNL     1      43.968  29.681  87.107  1.00  0.00     0.000 C 
BRANCH   4   5
ATOM      5  C   UNL     1      42.519  30.049  86.732  1.00  0.00     0.000 C 
BRANCH   5   6
ATOM      6  C   UNL     1      41.913  31.230  87.513  1.00  0.00     0.000 C 
BRANCH   6   7
ATOM      7  C   UNL     1      40.564  30.890  88.168  1.00  0.00     0.000 C 
BRANCH   7   8
ATOM      8  C   UNL     1      40.700  29.849  89.292  1.00  0.00     0.000 C 
BRANCH   8   9
ATOM      9  C   UNL     1      40.023  28.513  88.946  1.00  0.00     0.000 C 
BRANCH   9  10
ATOM     10  C   UNL     1      39.090  28.670  87.740  1.00  0.00     0.006 C 
BRANCH  10  11
ATOM     11  C   UNL     1      39.475  27.701  86.616  1.00  0.00     0.053 C 
BRANCH  11  12
ATOM     12  C   UNL     1      38.271  27.312  85.818  1.00  0.00     0.041 C 
ATOM     13  O   UNL     1      37.491  26.419  86.241  1.00  0.00    -0.550 OA
ATOM     14  O   UNL     1      38.001  27.948  84.611  1.00  0.00    -0.550 OA
ENDBRANCH  11  12
ENDBRANCH  10  11
ENDBRANCH   9  10
ENDBRANCH   8   9
ENDBRANCH   7   8
ENDBRANCH   6   7
ENDBRANCH   5   6
ENDBRANCH   4   5
ENDBRANCH   3   4
ENDBRANCH   2   3
ENDBRANCH   1   2
BRANCH   1  15
ATOM     15  C   UNL     1      44.524  27.558  90.725  1.00  0.00     0.000 C 
BRANCH  15  16
ATOM     16  C   UNL     1      45.116  28.172  92.012  1.00  0.00     0.000 C 
BRANCH  16  17
ATOM     17  C   UNL     1      44.579  29.578  92.334  1.00  0.00     0.000 C 
BRANCH  17  18
ATOM     18  C   UNL     1      43.751  30.238  91.215  1.00  0.00    -0.000 C 
BRANCH  18  19
ATOM     19  C   UNL     1      44.509  31.279  90.369  1.00  0.00    -0.000 C 
BRANCH  19  20
ATOM     20  C   UNL     1      45.918  31.579  90.912  1.00  0.00    -0.000 C 
BRANCH  20  21
ATOM     21  C   UNL     1      47.038  31.180  89.933  1.00  0.00    -0.000 C 
BRANCH  21  22
ATOM     22  C   UNL     1      47.101  31.997  88.629  1.00  0.00    -0.000 C 
BRANCH  22  23
ATOM     23  C   UNL     1      47.538  31.160  87.414  1.00  0.00    -0.000 C 
BRANCH  23  24
ATOM     24  C   UNL     1      48.303  31.987  86.366  1.00  0.00    -0.000 C 
BRANCH  24  25
ATOM     25  C   UNL     1      48.764  33.366  86.881  1.00  0.00    -0.003 C 
ATOM     26  C   UNL     1      50.265  33.407  87.162  1.00  0.00     0.004 C 
ENDBRANCH  24  25
ENDBRANCH  23  24
ENDBRANCH  22  23
ENDBRANCH  21  22
ENDBRANCH  20  21
ENDBRANCH  19  20
ENDBRANCH  18  19
ENDBRANCH  17  18
ENDBRANCH  16  17
ENDBRANCH  15  16
ENDBRANCH   1  15
TORSDOF 22
ENDMDL
