MODEL 1
REMARK VINA RESULT:     2.261      0.000      0.000
REMARK INTER + INTRA:           2.212
REMARK INTER:                   2.459
REMARK INTRA:                  -0.247
REMARK UNBOUND:                -0.247
REMARK SMILES CC(C)c1cc2c(cc1O)[C@]1(C)CCCC(C)(C)[C@H]1CC2=O
REMARK SMILES IDX 4 1 9 2 8 3 7 4 6 5 5 6 21 7 22 8 20 9 19 10 11 11 13 12
REMARK SMILES IDX 14 13 15 14 16 15 17 16 18 17 12 18 2 19 1 20 3 21 10 22
REMARK H PARENT 10 23
REMARK Flexibility Score: inf
ROOT
ATOM      1  C   UNL     1      25.710  28.711  30.821  1.00  0.00    -0.003 A 
ATOM      2  C   UNL     1      26.322  29.534  29.852  1.00  0.00     0.119 A 
ATOM      3  C   UNL     1      26.926  28.963  28.727  1.00  0.00     0.051 A 
ATOM      4  C   UNL     1      26.901  27.570  28.501  1.00  0.00    -0.027 A 
ATOM      5  C   UNL     1      26.321  26.742  29.495  1.00  0.00     0.022 A 
ATOM      6  C   UNL     1      25.729  27.321  30.633  1.00  0.00     0.020 A 
ATOM      7  C   UNL     1      26.344  25.268  29.355  1.00  0.00     0.163 C 
ATOM      8  O   UNL     1      25.819  24.533  30.237  1.00  0.00    -0.294 OA
ATOM      9  C   UNL     1      27.050  24.618  28.208  1.00  0.00     0.086 C 
ATOM     10  C   UNL     1      27.044  25.534  26.962  1.00  0.00     0.013 C 
ATOM     11  C   UNL     1      27.618  26.968  27.272  1.00  0.00    -0.003 C 
ATOM     12  C   UNL     1      27.393  27.889  26.015  1.00  0.00     0.012 C 
ATOM     13  C   UNL     1      27.265  27.162  24.663  1.00  0.00     0.001 C 
ATOM     14  C   UNL     1      28.095  25.883  24.610  1.00  0.00     0.007 C 
ATOM     15  C   UNL     1      27.618  24.831  25.659  1.00  0.00    -0.031 C 
ATOM     16  C   UNL     1      26.497  23.973  25.014  1.00  0.00     0.011 C 
ATOM     17  C   UNL     1      28.807  23.877  25.955  1.00  0.00     0.011 C 
ATOM     18  C   UNL     1      29.125  26.937  27.634  1.00  0.00     0.017 C 
ENDROOT
BRANCH   1  19
ATOM     19  C   UNL     1      25.007  29.282  32.048  1.00  0.00     0.017 C 
ATOM     20  C   UNL     1      25.160  28.355  33.259  1.00  0.00     0.012 C 
ATOM     21  C   UNL     1      23.533  29.609  31.774  1.00  0.00     0.012 C 
ENDBRANCH   1  19
BRANCH   2  22
ATOM     22  O   UNL     1      26.333  30.921  30.000  1.00  0.00    -0.508 OA
ATOM     23  H   UNL     1      26.225  31.545  29.208  1.00  0.00     0.293 HD
ENDBRANCH   2  22
TORSDOF 2
ENDMDL
MODEL 2
REMARK VINA RESULT:     3.549      2.990      5.463
REMARK INTER + INTRA:           3.614
REMARK INTER:                   2.982
REMARK INTRA:                   0.632
REMARK UNBOUND:                -0.247
REMARK SMILES CC(C)c1cc2c(cc1O)[C@]1(C)CCCC(C)(C)[C@H]1CC2=O
REMARK SMILES IDX 4 1 9 2 8 3 7 4 6 5 5 6 21 7 22 8 20 9 19 10 11 11 13 12
REMARK SMILES IDX 14 13 15 14 16 15 17 16 18 17 12 18 2 19 1 20 3 21 10 22
REMARK H PARENT 10 23
REMARK Flexibility Score: inf
ROOT
ATOM      1  C   UNL     1      28.051  30.529  24.814  1.00  0.00    -0.003 A 
ATOM      2  C   UNL     1      27.629  29.492  23.956  1.00  0.00     0.119 A 
ATOM      3  C   UNL     1      27.557  28.176  24.427  1.00  0.00     0.051 A 
ATOM      4  C   UNL     1      27.852  27.854  25.770  1.00  0.00    -0.027 A 
ATOM      5  C   UNL     1      28.314  28.891  26.619  1.00  0.00     0.022 A 
ATOM      6  C   UNL     1      28.400  30.210  26.135  1.00  0.00     0.020 A 
ATOM      7  C   UNL     1      28.723  28.597  28.012  1.00  0.00     0.163 C 
ATOM      8  O   UNL     1      29.125  29.523  28.769  1.00  0.00    -0.294 OA
ATOM      9  C   UNL     1      28.735  27.194  28.526  1.00  0.00     0.086 C 
ATOM     10  C   UNL     1      27.669  26.331  27.813  1.00  0.00     0.013 C 
ATOM     11  C   UNL     1      27.807  26.386  26.245  1.00  0.00    -0.003 C 
ATOM     12  C   UNL     1      26.575  25.649  25.599  1.00  0.00     0.012 C 
ATOM     13  C   UNL     1      25.888  24.589  26.480  1.00  0.00     0.001 C 
ATOM     14  C   UNL     1      26.866  23.890  27.418  1.00  0.00     0.007 C 
ATOM     15  C   UNL     1      27.508  24.879  28.439  1.00  0.00    -0.031 C 
ATOM     16  C   UNL     1      26.584  24.966  29.682  1.00  0.00     0.011 C 
ATOM     17  C   UNL     1      28.855  24.270  28.915  1.00  0.00     0.011 C 
ATOM     18  C   UNL     1      29.123  25.737  25.744  1.00  0.00     0.017 C 
ENDROOT
BRANCH   1  19
ATOM     19  C   UNL     1      28.115  31.984  24.364  1.00  0.00     0.017 C 
ATOM     20  C   UNL     1      28.393  32.091  22.860  1.00  0.00     0.012 C 
ATOM     21  C   UNL     1      29.124  32.802  25.182  1.00  0.00     0.012 C 
ENDBRANCH   1  19
BRANCH   2  22
ATOM     22  O   UNL     1      27.279  29.760  22.633  1.00  0.00    -0.508 OA
ATOM     23  H   UNL     1      26.346  30.066  22.378  1.00  0.00     0.293 HD
ENDBRANCH   2  22
TORSDOF 2
ENDMDL
MODEL 3
REMARK VINA RESULT:     4.764      3.012      3.539
REMARK INTER + INTRA:           4.936
REMARK INTER:                   5.116
REMARK INTRA:                  -0.180
REMARK UNBOUND:                -0.247
REMARK SMILES CC(C)c1cc2c(cc1O)[C@]1(C)CCCC(C)(C)[C@H]1CC2=O
REMARK SMILES IDX 4 1 9 2 8 3 7 4 6 5 5 6 21 7 22 8 20 9 19 10 11 11 13 12
REMARK SMILES IDX 14 13 15 14 16 15 17 16 18 17 12 18 2 19 1 20 3 21 10 22
REMARK H PARENT 10 23
REMARK Flexibility Score: inf
ROOT
ATOM      1  C   UNL     1      22.021  27.367  28.550  1.00  0.00    -0.003 A 
ATOM      2  C   UNL     1      22.858  28.422  28.970  1.00  0.00     0.119 A 
ATOM      3  C   UNL     1      24.248  28.303  28.858  1.00  0.00     0.051 A 
ATOM      4  C   UNL     1      24.848  27.160  28.285  1.00  0.00    -0.027 A 
ATOM      5  C   UNL     1      24.008  26.085  27.901  1.00  0.00     0.022 A 
ATOM      6  C   UNL     1      22.611  26.205  28.030  1.00  0.00     0.020 A 
ATOM      7  C   UNL     1      24.587  24.827  27.376  1.00  0.00     0.163 C 
ATOM      8  O   UNL     1      23.836  23.875  27.026  1.00  0.00    -0.294 OA
ATOM      9  C   UNL     1      26.068  24.632  27.317  1.00  0.00     0.086 C 
ATOM     10  C   UNL     1      26.799  25.981  27.129  1.00  0.00     0.013 C 
ATOM     11  C   UNL     1      26.387  27.041  28.220  1.00  0.00    -0.003 C 
ATOM     12  C   UNL     1      27.018  28.432  27.842  1.00  0.00     0.012 C 
ATOM     13  C   UNL     1      28.281  28.381  26.962  1.00  0.00     0.001 C 
ATOM     14  C   UNL     1      29.125  27.138  27.228  1.00  0.00     0.007 C 
ATOM     15  C   UNL     1      28.360  25.825  26.878  1.00  0.00    -0.031 C 
ATOM     16  C   UNL     1      28.599  25.505  25.379  1.00  0.00     0.011 C 
ATOM     17  C   UNL     1      28.995  24.668  27.697  1.00  0.00     0.011 C 
ATOM     18  C   UNL     1      26.841  26.632  29.644  1.00  0.00     0.017 C 
ENDROOT
BRANCH   1  19
ATOM     19  C   UNL     1      20.500  27.457  28.616  1.00  0.00     0.017 C 
ATOM     20  C   UNL     1      19.992  27.256  30.048  1.00  0.00     0.012 C 
ATOM     21  C   UNL     1      19.818  26.492  27.636  1.00  0.00     0.012 C 
ENDBRANCH   1  19
BRANCH   2  22
ATOM     22  O   UNL     1      22.317  29.593  29.498  1.00  0.00    -0.508 OA
ATOM     23  H   UNL     1      22.474  30.498  29.068  1.00  0.00     0.293 HD
ENDBRANCH   2  22
TORSDOF 2
ENDMDL
MODEL 4
REMARK VINA RESULT:     5.136      3.489      5.119
REMARK INTER + INTRA:           5.340
REMARK INTER:                   5.281
REMARK INTRA:                   0.059
REMARK UNBOUND:                -0.247
REMARK SMILES CC(C)c1cc2c(cc1O)[C@]1(C)CCCC(C)(C)[C@H]1CC2=O
REMARK SMILES IDX 4 1 9 2 8 3 7 4 6 5 5 6 21 7 22 8 20 9 19 10 11 11 13 12
REMARK SMILES IDX 14 13 15 14 16 15 17 16 18 17 12 18 2 19 1 20 3 21 10 22
REMARK H PARENT 10 23
REMARK Flexibility Score: inf
ROOT
ATOM      1  C   UNL     1      21.763  25.989  27.799  1.00  0.00    -0.003 A 
ATOM      2  C   UNL     1      22.382  24.880  27.183  1.00  0.00     0.119 A 
ATOM      3  C   UNL     1      23.777  24.779  27.159  1.00  0.00     0.051 A 
ATOM      4  C   UNL     1      24.599  25.742  27.784  1.00  0.00    -0.027 A 
ATOM      5  C   UNL     1      23.977  26.874  28.367  1.00  0.00     0.022 A 
ATOM      6  C   UNL     1      22.574  26.979  28.374  1.00  0.00     0.020 A 
ATOM      7  C   UNL     1      24.793  27.960  28.959  1.00  0.00     0.163 C 
ATOM      8  O   UNL     1      24.236  28.963  29.487  1.00  0.00    -0.294 OA
ATOM      9  C   UNL     1      26.285  27.926  28.882  1.00  0.00     0.086 C 
ATOM     10  C   UNL     1      26.806  26.471  28.846  1.00  0.00     0.013 C 
ATOM     11  C   UNL     1      26.137  25.624  27.698  1.00  0.00    -0.003 C 
ATOM     12  C   UNL     1      26.570  24.120  27.856  1.00  0.00     0.012 C 
ATOM     13  C   UNL     1      27.898  23.876  28.598  1.00  0.00     0.001 C 
ATOM     14  C   UNL     1      28.902  25.004  28.378  1.00  0.00     0.007 C 
ATOM     15  C   UNL     1      28.388  26.364  28.945  1.00  0.00    -0.031 C 
ATOM     16  C   UNL     1      28.807  26.460  30.436  1.00  0.00     0.011 C 
ATOM     17  C   UNL     1      29.124  27.505  28.192  1.00  0.00     0.011 C 
ATOM     18  C   UNL     1      26.523  26.133  26.286  1.00  0.00     0.017 C 
ENDROOT
BRANCH   1  19
ATOM     19  C   UNL     1      20.247  26.132  27.885  1.00  0.00     0.017 C 
ATOM     20  C   UNL     1      19.607  26.130  26.493  1.00  0.00     0.012 C 
ATOM     21  C   UNL     1      19.826  27.366  28.696  1.00  0.00     0.012 C 
ENDBRANCH   1  19
BRANCH   2  22
ATOM     22  O   UNL     1      21.617  23.875  26.593  1.00  0.00    -0.508 OA
ATOM     23  H   UNL     1      20.797  24.084  26.033  1.00  0.00     0.293 HD
ENDBRANCH   2  22
TORSDOF 2
ENDMDL
