MODEL 1
REMARK VINA RESULT:    21.974      0.000      0.000
REMARK INTER + INTRA:          24.879
REMARK INTER:                  25.185
REMARK INTRA:                  -0.306
REMARK UNBOUND:                -0.306
REMARK SMILES O=C1C[C@@H](c2ccc(O)cc2)Oc2cc(O)cc(O)c21
REMARK SMILES IDX 3 1 4 2 12 3 13 4 14 5 15 6 17 7 18 8 20 9 2 10 1 11 5 12
REMARK SMILES IDX 6 13 11 14 7 15 10 16 8 17 9 18 19 20 16 22
REMARK H PARENT 9 19 19 21 16 23
REMARK Flexibility Score: inf
ROOT
ATOM      1  C   UNL     1      29.032  24.478  44.407  1.00  0.00     0.131 C 
ATOM      2  C   UNL     1      29.721  23.257  45.030  1.00  0.00     0.211 C 
ATOM      3  O   UNL     1      29.185  23.002  46.328  1.00  0.00    -0.484 OA
ATOM      4  C   UNL     1      27.809  23.022  46.574  1.00  0.00     0.138 A 
ATOM      5  C   UNL     1      27.328  22.457  47.757  1.00  0.00     0.093 A 
ATOM      6  C   UNL     1      25.960  22.436  48.023  1.00  0.00     0.123 A 
ATOM      7  C   UNL     1      25.065  22.967  47.090  1.00  0.00     0.093 A 
ATOM      8  C   UNL     1      25.522  23.531  45.892  1.00  0.00     0.133 A 
ATOM      9  C   UNL     1      26.922  23.608  45.643  1.00  0.00     0.102 A 
ATOM     10  C   UNL     1      27.537  24.345  44.499  1.00  0.00     0.174 C 
ATOM     11  O   UNL     1      26.836  24.961  43.656  1.00  0.00    -0.294 OA
ENDROOT
BRANCH   2  12
ATOM     12  C   UNL     1      31.212  23.469  45.115  1.00  0.00    -0.007 A 
ATOM     13  C   UNL     1      31.857  24.375  44.253  1.00  0.00     0.011 A 
ATOM     14  C   UNL     1      31.982  22.721  46.021  1.00  0.00     0.011 A 
ATOM     15  C   UNL     1      33.244  24.546  44.317  1.00  0.00     0.046 A 
ATOM     16  C   UNL     1      33.368  22.893  46.083  1.00  0.00     0.046 A 
ATOM     17  C   UNL     1      34.002  23.807  45.230  1.00  0.00     0.115 A 
BRANCH  17  18
ATOM     18  O   UNL     1      35.383  23.987  45.283  1.00  0.00    -0.508 OA
ATOM     19  H   UNL     1      35.899  23.878  46.149  1.00  0.00     0.293 HD
ENDBRANCH  17  18
ENDBRANCH   2  12
BRANCH   8  20
ATOM     20  O   UNL     1      24.550  23.976  44.993  1.00  0.00    -0.507 OA
ATOM     21  H   UNL     1      24.749  24.434  44.117  1.00  0.00     0.293 HD
ENDBRANCH   8  20
BRANCH   6  22
ATOM     22  O   UNL     1      25.499  21.875  49.212  1.00  0.00    -0.508 OA
ATOM     23  H   UNL     1      24.567  21.487  49.288  1.00  0.00     0.293 HD
ENDBRANCH   6  22
TORSDOF 4
ENDMDL
MODEL 2
REMARK VINA RESULT:    23.503     10.236     11.226
REMARK INTER + INTRA:          26.632
REMARK INTER:                  26.943
REMARK INTRA:                  -0.311
REMARK UNBOUND:                -0.306
REMARK SMILES O=C1C[C@@H](c2ccc(O)cc2)Oc2cc(O)cc(O)c21
REMARK SMILES IDX 3 1 4 2 12 3 13 4 14 5 15 6 17 7 18 8 20 9 2 10 1 11 5 12
REMARK SMILES IDX 6 13 11 14 7 15 10 16 8 17 9 18 19 20 16 22
REMARK H PARENT 9 19 19 21 16 23
REMARK Flexibility Score: inf
ROOT
ATOM      1  C   UNL     1      28.134  33.538  47.802  1.00  0.00     0.131 C 
ATOM      2  C   UNL     1      28.920  33.705  49.109  1.00  0.00     0.211 C 
ATOM      3  O   UNL     1      28.838  32.511  49.886  1.00  0.00    -0.484 OA
ATOM      4  C   UNL     1      29.015  31.247  49.315  1.00  0.00     0.138 A 
ATOM      5  C   UNL     1      29.246  30.154  50.154  1.00  0.00     0.093 A 
ATOM      6  C   UNL     1      29.452  28.885  49.618  1.00  0.00     0.123 A 
ATOM      7  C   UNL     1      29.447  28.709  48.231  1.00  0.00     0.093 A 
ATOM      8  C   UNL     1      29.227  29.790  47.369  1.00  0.00     0.133 A 
ATOM      9  C   UNL     1      28.956  31.078  47.913  1.00  0.00     0.102 A 
ATOM     10  C   UNL     1      28.527  32.261  47.110  1.00  0.00     0.174 C 
ATOM     11  O   UNL     1      28.374  32.195  45.863  1.00  0.00    -0.294 OA
ENDROOT
BRANCH   2  12
ATOM     12  C   UNL     1      28.397  34.878  49.901  1.00  0.00    -0.007 A 
ATOM     13  C   UNL     1      27.837  34.688  51.177  1.00  0.00     0.011 A 
ATOM     14  C   UNL     1      28.414  36.169  49.347  1.00  0.00     0.011 A 
ATOM     15  C   UNL     1      27.328  35.775  51.895  1.00  0.00     0.046 A 
ATOM     16  C   UNL     1      27.905  37.254  50.066  1.00  0.00     0.046 A 
ATOM     17  C   UNL     1      27.361  37.059  51.343  1.00  0.00     0.115 A 
BRANCH  17  18
ATOM     18  O   UNL     1      26.849  38.133  52.068  1.00  0.00    -0.508 OA
ATOM     19  H   UNL     1      27.261  39.058  52.007  1.00  0.00     0.293 HD
ENDBRANCH  17  18
ENDBRANCH   2  12
BRANCH   8  20
ATOM     20  O   UNL     1      29.305  29.530  45.998  1.00  0.00    -0.507 OA
ATOM     21  H   UNL     1      28.633  28.984  45.481  1.00  0.00     0.293 HD
ENDBRANCH   8  20
BRANCH   6  22
ATOM     22  O   UNL     1      29.674  27.806  50.470  1.00  0.00    -0.508 OA
ATOM     23  H   UNL     1      29.474  27.863  51.462  1.00  0.00     0.293 HD
ENDBRANCH   6  22
TORSDOF 4
ENDMDL
MODEL 3
REMARK VINA RESULT:    24.843     10.235     11.096
REMARK INTER + INTRA:          28.168
REMARK INTER:                  28.452
REMARK INTRA:                  -0.284
REMARK UNBOUND:                -0.306
REMARK SMILES O=C1C[C@@H](c2ccc(O)cc2)Oc2cc(O)cc(O)c21
REMARK SMILES IDX 3 1 4 2 12 3 13 4 14 5 15 6 17 7 18 8 20 9 2 10 1 11 5 12
REMARK SMILES IDX 6 13 11 14 7 15 10 16 8 17 9 18 19 20 16 22
REMARK H PARENT 9 19 19 21 16 23
REMARK Flexibility Score: inf
ROOT
ATOM      1  C   UNL     1      30.021  32.670  50.207  1.00  0.00     0.131 C 
ATOM      2  C   UNL     1      29.049  33.648  49.535  1.00  0.00     0.211 C 
ATOM      3  O   UNL     1      28.810  33.251  48.185  1.00  0.00    -0.484 OA
ATOM      4  C   UNL     1      28.550  31.921  47.843  1.00  0.00     0.138 A 
ATOM      5  C   UNL     1      28.011  31.641  46.585  1.00  0.00     0.093 A 
ATOM      6  C   UNL     1      27.715  30.329  46.221  1.00  0.00     0.123 A 
ATOM      7  C   UNL     1      27.941  29.290  47.128  1.00  0.00     0.093 A 
ATOM      8  C   UNL     1      28.472  29.546  48.399  1.00  0.00     0.133 A 
ATOM      9  C   UNL     1      28.832  30.877  48.753  1.00  0.00     0.102 A 
ATOM     10  C   UNL     1      29.571  31.250  49.996  1.00  0.00     0.174 C 
ATOM     11  O   UNL     1      29.932  30.386  50.836  1.00  0.00    -0.294 OA
ENDROOT
BRANCH   2  12
ATOM     12  C   UNL     1      29.593  35.055  49.575  1.00  0.00    -0.007 A 
ATOM     13  C   UNL     1      28.745  36.143  49.850  1.00  0.00     0.011 A 
ATOM     14  C   UNL     1      30.945  35.299  49.282  1.00  0.00     0.011 A 
ATOM     15  C   UNL     1      29.248  37.447  49.858  1.00  0.00     0.046 A 
ATOM     16  C   UNL     1      31.446  36.604  49.290  1.00  0.00     0.046 A 
ATOM     17  C   UNL     1      30.598  37.682  49.578  1.00  0.00     0.115 A 
BRANCH  17  18
ATOM     18  O   UNL     1      31.087  38.987  49.588  1.00  0.00    -0.508 OA
ATOM     19  H   UNL     1      31.977  39.216  50.015  1.00  0.00     0.293 HD
ENDBRANCH  17  18
ENDBRANCH   2  12
BRANCH   8  20
ATOM     20  O   UNL     1      28.601  28.454  49.260  1.00  0.00    -0.507 OA
ATOM     21  H   UNL     1      29.098  27.605  49.037  1.00  0.00     0.293 HD
ENDBRANCH   8  20
BRANCH   6  22
ATOM     22  O   UNL     1      27.184  30.068  44.960  1.00  0.00    -0.508 OA
ATOM     23  H   UNL     1      27.754  30.124  44.124  1.00  0.00     0.293 HD
ENDBRANCH   6  22
TORSDOF 4
ENDMDL
