MODEL 1
REMARK VINA RESULT:    -4.560      0.000      0.000
REMARK INTER + INTRA:         -15.891
REMARK INTER:                 -12.024
REMARK INTRA:                  -3.867
REMARK UNBOUND:                -3.867
REMARK SMILES CCCCCCCCCCCCCCCCCCCCCCCCCCCCCC(=O)[O-]
REMARK SMILES IDX 16 1 17 2 18 3 19 4 20 5 21 6 22 7 23 8 24 9 25 10 26 11
REMARK SMILES IDX 27 12 28 13 29 14 30 15 31 16 32 17 15 18 14 19 13 20 12 21
REMARK SMILES IDX 11 22 10 23 9 24 8 25 7 26 6 27 5 28 4 29 3 30 2 31 1 32
REMARK H PARENT
REMARK Flexibility Score: inf
ROOT
ATOM      1  C   UNL     1       1.484   9.946  82.621  1.00  0.00     0.000 C 
ENDROOT
BRANCH   1   2
ATOM      2  C   UNL     1       0.323  10.472  81.751  1.00  0.00     0.000 C 
BRANCH   2   3
ATOM      3  C   UNL     1      -0.553  11.526  82.452  1.00  0.00     0.000 C 
BRANCH   3   4
ATOM      4  C   UNL     1      -0.453  12.909  81.792  1.00  0.00     0.000 C 
BRANCH   4   5
ATOM      5  C   UNL     1       0.360  13.873  82.668  1.00  0.00     0.000 C 
BRANCH   5   6
ATOM      6  C   UNL     1       1.707  14.252  82.030  1.00  0.00     0.000 C 
BRANCH   6   7
ATOM      7  C   UNL     1       2.894  13.999  82.971  1.00  0.00     0.000 C 
BRANCH   7   8
ATOM      8  C   UNL     1       4.101  13.447  82.197  1.00  0.00     0.000 C 
BRANCH   8   9
ATOM      9  C   UNL     1       3.799  12.117  81.480  1.00  0.00     0.000 C 
BRANCH   9  10
ATOM     10  C   UNL     1       5.005  11.171  81.330  1.00  0.00     0.000 C 
BRANCH  10  11
ATOM     11  C   UNL     1       5.005   9.971  82.295  1.00  0.00     0.000 C 
BRANCH  11  12
ATOM     12  C   UNL     1       6.090   8.919  81.971  1.00  0.00     0.000 C 
BRANCH  12  13
ATOM     13  C   UNL     1       6.897   9.238  80.701  1.00  0.00     0.006 C 
BRANCH  13  14
ATOM     14  C   UNL     1       8.258   8.530  80.682  1.00  0.00     0.053 C 
BRANCH  14  15
ATOM     15  C   UNL     1       8.224   7.361  79.750  1.00  0.00     0.041 C 
ATOM     16  O   UNL     1       7.419   6.414  79.950  1.00  0.00    -0.550 OA
ATOM     17  O   UNL     1       9.051   7.336  78.634  1.00  0.00    -0.550 OA
ENDBRANCH  14  15
ENDBRANCH  13  14
ENDBRANCH  12  13
ENDBRANCH  11  12
ENDBRANCH  10  11
ENDBRANCH   9  10
ENDBRANCH   8   9
ENDBRANCH   7   8
ENDBRANCH   6   7
ENDBRANCH   5   6
ENDBRANCH   4   5
ENDBRANCH   3   4
ENDBRANCH   2   3
ENDBRANCH   1   2
BRANCH   1  18
ATOM     18  C   UNL     1       1.290  10.176  84.133  1.00  0.00     0.000 C 
BRANCH  18  19
ATOM     19  C   UNL     1       2.429  10.978  84.798  1.00  0.00     0.000 C 
BRANCH  19  20
ATOM     20  C   UNL     1       1.966  11.849  85.982  1.00  0.00     0.000 C 
BRANCH  20  21
ATOM     21  C   UNL     1       0.546  11.531  86.487  1.00  0.00     0.000 C 
BRANCH  21  22
ATOM     22  C   UNL     1       0.547  10.731  87.802  1.00  0.00     0.000 C 
BRANCH  22  23
ATOM     23  C   UNL     1       1.957  10.570  88.397  1.00  0.00     0.000 C 
BRANCH  23  24
ATOM     24  C   UNL     1       2.682   9.265  88.009  1.00  0.00    -0.000 C 
BRANCH  24  25
ATOM     25  C   UNL     1       1.806   8.208  87.304  1.00  0.00    -0.000 C 
BRANCH  25  26
ATOM     26  C   UNL     1       2.442   7.547  86.066  1.00  0.00    -0.000 C 
BRANCH  26  27
ATOM     27  C   UNL     1       2.034   6.073  85.901  1.00  0.00    -0.000 C 
BRANCH  27  28
ATOM     28  C   UNL     1       1.072   5.601  87.003  1.00  0.00    -0.000 C 
BRANCH  28  29
ATOM     29  C   UNL     1       1.371   4.172  87.483  1.00  0.00    -0.000 C 
BRANCH  29  30
ATOM     30  C   UNL     1       2.661   3.638  86.842  1.00  0.00    -0.000 C 
BRANCH  30  31
ATOM     31  C   UNL     1       3.411   2.656  87.755  1.00  0.00    -0.003 C 
ATOM     32  C   UNL     1       2.526   1.514  88.252  1.00  0.00     0.004 C 
ENDBRANCH  30  31
ENDBRANCH  29  30
ENDBRANCH  28  29
ENDBRANCH  27  28
ENDBRANCH  26  27
ENDBRANCH  25  26
ENDBRANCH  24  25
ENDBRANCH  23  24
ENDBRANCH  22  23
ENDBRANCH  21  22
ENDBRANCH  20  21
ENDBRANCH  19  20
ENDBRANCH  18  19
ENDBRANCH   1  18
TORSDOF 28
ENDMDL
MODEL 2
REMARK VINA RESULT:    -4.470      7.021     13.792
REMARK INTER + INTRA:         -15.653
REMARK INTER:                 -12.687
REMARK INTRA:                  -2.966
REMARK UNBOUND:                -3.867
REMARK SMILES CCCCCCCCCCCCCCCCCCCCCCCCCCCCCC(=O)[O-]
REMARK SMILES IDX 16 1 17 2 18 3 19 4 20 5 21 6 22 7 23 8 24 9 25 10 26 11
REMARK SMILES IDX 27 12 28 13 29 14 30 15 31 16 32 17 15 18 14 19 13 20 12 21
REMARK SMILES IDX 11 22 10 23 9 24 8 25 7 26 6 27 5 28 4 29 3 30 2 31 1 32
REMARK H PARENT
REMARK Flexibility Score: inf
ROOT
ATOM      1  C   UNL     1      13.160   3.137  79.324  1.00  0.00     0.000 C 
ENDROOT
BRANCH   1   2
ATOM      2  C   UNL     1      11.617   3.155  79.290  1.00  0.00     0.000 C 
BRANCH   2   3
ATOM      3  C   UNL     1      11.002   4.518  79.658  1.00  0.00     0.000 C 
BRANCH   3   4
ATOM      4  C   UNL     1       9.515   4.413  80.026  1.00  0.00     0.000 C 
BRANCH   4   5
ATOM      5  C   UNL     1       8.700   5.507  79.322  1.00  0.00     0.000 C 
BRANCH   5   6
ATOM      6  C   UNL     1       9.507   6.800  79.118  1.00  0.00     0.000 C 
BRANCH   6   7
ATOM      7  C   UNL     1       8.832   8.020  79.764  1.00  0.00     0.000 C 
BRANCH   7   8
ATOM      8  C   UNL     1       7.437   7.658  80.296  1.00  0.00     0.000 C 
BRANCH   8   9
ATOM      9  C   UNL     1       6.762   8.818  81.052  1.00  0.00     0.000 C 
BRANCH   9  10
ATOM     10  C   UNL     1       5.520   8.423  81.872  1.00  0.00     0.000 C 
BRANCH  10  11
ATOM     11  C   UNL     1       4.610   9.602  82.268  1.00  0.00     0.000 C 
BRANCH  11  12
ATOM     12  C   UNL     1       3.247   9.161  82.849  1.00  0.00     0.000 C 
BRANCH  12  13
ATOM     13  C   UNL     1       3.193   9.197  84.385  1.00  0.00     0.006 C 
BRANCH  13  14
ATOM     14  C   UNL     1       1.883   8.618  84.935  1.00  0.00     0.053 C 
BRANCH  14  15
ATOM     15  C   UNL     1       2.138   7.318  85.629  1.00  0.00     0.041 C 
ATOM     16  O   UNL     1       3.034   6.540  85.208  1.00  0.00    -0.550 OA
ATOM     17  O   UNL     1       1.416   6.983  86.768  1.00  0.00    -0.550 OA
ENDBRANCH  14  15
ENDBRANCH  13  14
ENDBRANCH  12  13
ENDBRANCH  11  12
ENDBRANCH  10  11
ENDBRANCH   9  10
ENDBRANCH   8   9
ENDBRANCH   7   8
ENDBRANCH   6   7
ENDBRANCH   5   6
ENDBRANCH   4   5
ENDBRANCH   3   4
ENDBRANCH   2   3
ENDBRANCH   1   2
BRANCH   1  18
ATOM     18  C   UNL     1      13.771   1.721  79.334  1.00  0.00     0.000 C 
BRANCH  18  19
ATOM     19  C   UNL     1      14.216   1.239  80.732  1.00  0.00     0.000 C 
BRANCH  19  20
ATOM     20  C   UNL     1      14.926   2.324  81.566  1.00  0.00     0.000 C 
BRANCH  20  21
ATOM     21  C   UNL     1      16.459   2.341  81.409  1.00  0.00     0.000 C 
BRANCH  21  22
ATOM     22  C   UNL     1      16.997   3.715  80.970  1.00  0.00     0.000 C 
BRANCH  22  23
ATOM     23  C   UNL     1      15.956   4.838  81.133  1.00  0.00     0.000 C 
BRANCH  23  24
ATOM     24  C   UNL     1      16.123   6.025  80.161  1.00  0.00    -0.000 C 
BRANCH  24  25
ATOM     25  C   UNL     1      15.468   5.841  78.777  1.00  0.00    -0.000 C 
BRANCH  25  26
ATOM     26  C   UNL     1      16.407   6.046  77.572  1.00  0.00    -0.000 C 
BRANCH  26  27
ATOM     27  C   UNL     1      16.222   4.978  76.482  1.00  0.00    -0.000 C 
BRANCH  27  28
ATOM     28  C   UNL     1      17.553   4.554  75.840  1.00  0.00    -0.000 C 
BRANCH  28  29
ATOM     29  C   UNL     1      17.822   3.046  75.965  1.00  0.00    -0.000 C 
BRANCH  29  30
ATOM     30  C   UNL     1      16.759   2.372  76.845  1.00  0.00    -0.000 C 
BRANCH  30  31
ATOM     31  C   UNL     1      17.373   1.548  77.988  1.00  0.00    -0.003 C 
ATOM     32  C   UNL     1      16.767   0.150  78.102  1.00  0.00     0.004 C 
ENDBRANCH  30  31
ENDBRANCH  29  30
ENDBRANCH  28  29
ENDBRANCH  27  28
ENDBRANCH  26  27
ENDBRANCH  25  26
ENDBRANCH  24  25
ENDBRANCH  23  24
ENDBRANCH  22  23
ENDBRANCH  21  22
ENDBRANCH  20  21
ENDBRANCH  19  20
ENDBRANCH  18  19
ENDBRANCH   1  18
TORSDOF 28
ENDMDL
MODEL 3
REMARK VINA RESULT:    -4.467      7.244     14.299
REMARK INTER + INTRA:         -15.645
REMARK INTER:                 -12.739
REMARK INTRA:                  -2.906
REMARK UNBOUND:                -3.867
REMARK SMILES CCCCCCCCCCCCCCCCCCCCCCCCCCCCCC(=O)[O-]
REMARK SMILES IDX 16 1 17 2 18 3 19 4 20 5 21 6 22 7 23 8 24 9 25 10 26 11
REMARK SMILES IDX 27 12 28 13 29 14 30 15 31 16 32 17 15 18 14 19 13 20 12 21
REMARK SMILES IDX 11 22 10 23 9 24 8 25 7 26 6 27 5 28 4 29 3 30 2 31 1 32
REMARK H PARENT
REMARK Flexibility Score: inf
ROOT
ATOM      1  C   UNL     1      13.328   3.540  79.239  1.00  0.00     0.000 C 
ENDROOT
BRANCH   1   2
ATOM      2  C   UNL     1      11.860   3.287  79.642  1.00  0.00     0.000 C 
BRANCH   2   3
ATOM      3  C   UNL     1      10.983   4.552  79.628  1.00  0.00     0.000 C 
BRANCH   3   4
ATOM      4  C   UNL     1       9.520   4.259  79.993  1.00  0.00     0.000 C 
BRANCH   4   5
ATOM      5  C   UNL     1       8.605   5.406  79.540  1.00  0.00     0.000 C 
BRANCH   5   6
ATOM      6  C   UNL     1       9.397   6.638  79.070  1.00  0.00     0.000 C 
BRANCH   6   7
ATOM      7  C   UNL     1       8.857   7.945  79.670  1.00  0.00     0.000 C 
BRANCH   7   8
ATOM      8  C   UNL     1       7.472   7.730  80.299  1.00  0.00     0.000 C 
BRANCH   8   9
ATOM      9  C   UNL     1       6.908   9.001  80.962  1.00  0.00     0.000 C 
BRANCH   9  10
ATOM     10  C   UNL     1       5.676   8.775  81.858  1.00  0.00     0.000 C 
BRANCH  10  11
ATOM     11  C   UNL     1       5.227  10.013  82.656  1.00  0.00     0.000 C 
BRANCH  11  12
ATOM     12  C   UNL     1       3.726  10.345  82.486  1.00  0.00     0.000 C 
BRANCH  12  13
ATOM     13  C   UNL     1       3.465  11.780  81.998  1.00  0.00     0.006 C 
BRANCH  13  14
ATOM     14  C   UNL     1       2.034  12.245  82.294  1.00  0.00     0.053 C 
BRANCH  14  15
ATOM     15  C   UNL     1       1.114  11.837  81.187  1.00  0.00     0.041 C 
ATOM     16  O   UNL     1       1.526  11.812  79.998  1.00  0.00    -0.550 OA
ATOM     17  O   UNL     1      -0.187  11.440  81.473  1.00  0.00    -0.550 OA
ENDBRANCH  14  15
ENDBRANCH  13  14
ENDBRANCH  12  13
ENDBRANCH  11  12
ENDBRANCH  10  11
ENDBRANCH   9  10
ENDBRANCH   8   9
ENDBRANCH   7   8
ENDBRANCH   6   7
ENDBRANCH   5   6
ENDBRANCH   4   5
ENDBRANCH   3   4
ENDBRANCH   2   3
ENDBRANCH   1   2
BRANCH   1  18
ATOM     18  C   UNL     1      14.114   2.259  78.894  1.00  0.00     0.000 C 
BRANCH  18  19
ATOM     19  C   UNL     1      15.054   2.407  77.678  1.00  0.00     0.000 C 
BRANCH  19  20
ATOM     20  C   UNL     1      16.156   1.332  77.611  1.00  0.00     0.000 C 
BRANCH  20  21
ATOM     21  C   UNL     1      17.288   1.646  76.614  1.00  0.00     0.000 C 
BRANCH  21  22
ATOM     22  C   UNL     1      17.843   3.072  76.773  1.00  0.00     0.000 C 
BRANCH  22  23
ATOM     23  C   UNL     1      18.309   3.679  75.437  1.00  0.00     0.000 C 
BRANCH  23  24
ATOM     24  C   UNL     1      17.620   5.003  75.049  1.00  0.00    -0.000 C 
BRANCH  24  25
ATOM     25  C   UNL     1      16.390   5.382  75.899  1.00  0.00    -0.000 C 
BRANCH  25  26
ATOM     26  C   UNL     1      16.562   6.631  76.785  1.00  0.00    -0.000 C 
BRANCH  26  27
ATOM     27  C   UNL     1      15.761   6.548  78.096  1.00  0.00    -0.000 C 
BRANCH  27  28
ATOM     28  C   UNL     1      16.287   5.455  79.040  1.00  0.00    -0.000 C 
BRANCH  28  29
ATOM     29  C   UNL     1      17.358   5.972  80.013  1.00  0.00    -0.000 C 
BRANCH  29  30
ATOM     30  C   UNL     1      17.973   4.814  80.813  1.00  0.00    -0.000 C 
BRANCH  30  31
ATOM     31  C   UNL     1      17.330   3.458  80.480  1.00  0.00    -0.003 C 
ATOM     32  C   UNL     1      16.820   2.724  81.719  1.00  0.00     0.004 C 
ENDBRANCH  30  31
ENDBRANCH  29  30
ENDBRANCH  28  29
ENDBRANCH  27  28
ENDBRANCH  26  27
ENDBRANCH  25  26
ENDBRANCH  24  25
ENDBRANCH  23  24
ENDBRANCH  22  23
ENDBRANCH  21  22
ENDBRANCH  20  21
ENDBRANCH  19  20
ENDBRANCH  18  19
ENDBRANCH   1  18
TORSDOF 28
ENDMDL
MODEL 4
REMARK VINA RESULT:    -4.456     13.949     16.468
REMARK INTER + INTRA:         -15.617
REMARK INTER:                  -9.848
REMARK INTRA:                  -5.769
REMARK UNBOUND:                -3.867
REMARK SMILES CCCCCCCCCCCCCCCCCCCCCCCCCCCCCC(=O)[O-]
REMARK SMILES IDX 16 1 17 2 18 3 19 4 20 5 21 6 22 7 23 8 24 9 25 10 26 11
REMARK SMILES IDX 27 12 28 13 29 14 30 15 31 16 32 17 15 18 14 19 13 20 12 21
REMARK SMILES IDX 11 22 10 23 9 24 8 25 7 26 6 27 5 28 4 29 3 30 2 31 1 32
REMARK H PARENT
REMARK Flexibility Score: inf
ROOT
ATOM      1  C   UNL     1      14.889   2.730  80.988  1.00  0.00     0.000 C 
ENDROOT
BRANCH   1   2
ATOM      2  C   UNL     1      14.644   2.118  79.592  1.00  0.00     0.000 C 
BRANCH   2   3
ATOM      3  C   UNL     1      14.418   3.163  78.484  1.00  0.00     0.000 C 
BRANCH   3   4
ATOM      4  C   UNL     1      15.323   2.934  77.265  1.00  0.00     0.000 C 
BRANCH   4   5
ATOM      5  C   UNL     1      15.719   1.455  77.150  1.00  0.00     0.000 C 
BRANCH   5   6
ATOM      6  C   UNL     1      17.212   1.270  76.831  1.00  0.00     0.000 C 
BRANCH   6   7
ATOM      7  C   UNL     1      17.961   2.607  76.734  1.00  0.00     0.000 C 
BRANCH   7   8
ATOM      8  C   UNL     1      18.750   2.700  75.419  1.00  0.00     0.000 C 
BRANCH   8   9
ATOM      9  C   UNL     1      18.293   3.867  74.524  1.00  0.00     0.000 C 
BRANCH   9  10
ATOM     10  C   UNL     1      18.567   5.271  75.096  1.00  0.00     0.000 C 
BRANCH  10  11
ATOM     11  C   UNL     1      17.323   5.996  75.643  1.00  0.00     0.000 C 
BRANCH  11  12
ATOM     12  C   UNL     1      17.564   6.696  77.000  1.00  0.00     0.000 C 
BRANCH  12  13
ATOM     13  C   UNL     1      16.624   6.212  78.117  1.00  0.00     0.006 C 
BRANCH  13  14
ATOM     14  C   UNL     1      17.370   5.442  79.213  1.00  0.00     0.053 C 
BRANCH  14  15
ATOM     15  C   UNL     1      17.116   6.061  80.551  1.00  0.00     0.041 C 
ATOM     16  O   UNL     1      18.069   6.533  81.222  1.00  0.00    -0.550 OA
ATOM     17  O   UNL     1      15.818   6.156  81.038  1.00  0.00    -0.550 OA
ENDBRANCH  14  15
ENDBRANCH  13  14
ENDBRANCH  12  13
ENDBRANCH  11  12
ENDBRANCH  10  11
ENDBRANCH   9  10
ENDBRANCH   8   9
ENDBRANCH   7   8
ENDBRANCH   6   7
ENDBRANCH   5   6
ENDBRANCH   4   5
ENDBRANCH   3   4
ENDBRANCH   2   3
ENDBRANCH   1   2
BRANCH   1  18
ATOM     18  C   UNL     1      16.338   2.581  81.493  1.00  0.00     0.000 C 
BRANCH  18  19
ATOM     19  C   UNL     1      17.249   1.759  80.555  1.00  0.00     0.000 C 
BRANCH  19  20
ATOM     20  C   UNL     1      18.106   0.708  81.286  1.00  0.00     0.000 C 
BRANCH  20  21
ATOM     21  C   UNL     1      17.981  -0.719  80.718  1.00  0.00     0.000 C 
BRANCH  21  22
ATOM     22  C   UNL     1      16.729  -0.904  79.843  1.00  0.00     0.000 C 
BRANCH  22  23
ATOM     23  C   UNL     1      16.534  -2.363  79.390  1.00  0.00     0.000 C 
BRANCH  23  24
ATOM     24  C   UNL     1      16.136  -3.344  80.510  1.00  0.00    -0.000 C 
BRANCH  24  25
ATOM     25  C   UNL     1      15.079  -2.819  81.504  1.00  0.00    -0.000 C 
BRANCH  25  26
ATOM     26  C   UNL     1      15.567  -2.656  82.957  1.00  0.00    -0.000 C 
BRANCH  26  27
ATOM     27  C   UNL     1      15.477  -1.205  83.458  1.00  0.00    -0.000 C 
BRANCH  27  28
ATOM     28  C   UNL     1      14.447  -0.374  82.674  1.00  0.00    -0.000 C 
BRANCH  28  29
ATOM     29  C   UNL     1      13.470   0.381  83.588  1.00  0.00    -0.000 C 
BRANCH  29  30
ATOM     30  C   UNL     1      12.627  -0.601  84.416  1.00  0.00    -0.000 C 
BRANCH  30  31
ATOM     31  C   UNL     1      11.699  -1.463  83.544  1.00  0.00    -0.003 C 
ATOM     32  C   UNL     1      11.864  -2.960  83.805  1.00  0.00     0.004 C 
ENDBRANCH  30  31
ENDBRANCH  29  30
ENDBRANCH  28  29
ENDBRANCH  27  28
ENDBRANCH  26  27
ENDBRANCH  25  26
ENDBRANCH  24  25
ENDBRANCH  23  24
ENDBRANCH  22  23
ENDBRANCH  21  22
ENDBRANCH  20  21
ENDBRANCH  19  20
ENDBRANCH  18  19
ENDBRANCH   1  18
TORSDOF 28
ENDMDL
MODEL 5
REMARK VINA RESULT:    -4.448      7.573     13.599
REMARK INTER + INTRA:         -15.596
REMARK INTER:                 -12.305
REMARK INTRA:                  -3.291
REMARK UNBOUND:                -3.867
REMARK SMILES CCCCCCCCCCCCCCCCCCCCCCCCCCCCCC(=O)[O-]
REMARK SMILES IDX 16 1 17 2 18 3 19 4 20 5 21 6 22 7 23 8 24 9 25 10 26 11
REMARK SMILES IDX 27 12 28 13 29 14 30 15 31 16 32 17 15 18 14 19 13 20 12 21
REMARK SMILES IDX 11 22 10 23 9 24 8 25 7 26 6 27 5 28 4 29 3 30 2 31 1 32
REMARK H PARENT
REMARK Flexibility Score: inf
ROOT
ATOM      1  C   UNL     1      14.330   4.457  79.510  1.00  0.00     0.000 C 
ENDROOT
BRANCH   1   2
ATOM      2  C   UNL     1      13.418   3.365  78.912  1.00  0.00     0.000 C 
BRANCH   2   3
ATOM      3  C   UNL     1      12.060   3.229  79.626  1.00  0.00     0.000 C 
BRANCH   3   4
ATOM      4  C   UNL     1      11.263   4.542  79.633  1.00  0.00     0.000 C 
BRANCH   4   5
ATOM      5  C   UNL     1       9.794   4.285  79.999  1.00  0.00     0.000 C 
BRANCH   5   6
ATOM      6  C   UNL     1       8.874   5.444  79.582  1.00  0.00     0.000 C 
BRANCH   6   7
ATOM      7  C   UNL     1       9.658   6.715  79.223  1.00  0.00     0.000 C 
BRANCH   7   8
ATOM      8  C   UNL     1       8.802   7.971  79.452  1.00  0.00     0.000 C 
BRANCH   8   9
ATOM      9  C   UNL     1       7.462   7.668  80.146  1.00  0.00     0.000 C 
BRANCH   9  10
ATOM     10  C   UNL     1       6.971   8.757  81.117  1.00  0.00     0.000 C 
BRANCH  10  11
ATOM     11  C   UNL     1       5.647   8.431  81.834  1.00  0.00     0.000 C 
BRANCH  11  12
ATOM     12  C   UNL     1       4.829   9.685  82.221  1.00  0.00     0.000 C 
BRANCH  12  13
ATOM     13  C   UNL     1       3.485   9.358  82.894  1.00  0.00     0.006 C 
BRANCH  13  14
ATOM     14  C   UNL     1       2.796  10.609  83.455  1.00  0.00     0.053 C 
BRANCH  14  15
ATOM     15  C   UNL     1       2.604  11.626  82.376  1.00  0.00     0.041 C 
ATOM     16  O   UNL     1       1.749  11.437  81.472  1.00  0.00    -0.550 OA
ATOM     17  O   UNL     1       3.339  12.805  82.392  1.00  0.00    -0.550 OA
ENDBRANCH  14  15
ENDBRANCH  13  14
ENDBRANCH  12  13
ENDBRANCH  11  12
ENDBRANCH  10  11
ENDBRANCH   9  10
ENDBRANCH   8   9
ENDBRANCH   7   8
ENDBRANCH   6   7
ENDBRANCH   5   6
ENDBRANCH   4   5
ENDBRANCH   3   4
ENDBRANCH   2   3
ENDBRANCH   1   2
BRANCH   1  18
ATOM     18  C   UNL     1      15.664   4.641  78.758  1.00  0.00     0.000 C 
BRANCH  18  19
ATOM     19  C   UNL     1      15.680   4.015  77.346  1.00  0.00     0.000 C 
BRANCH  19  20
ATOM     20  C   UNL     1      17.078   3.554  76.888  1.00  0.00     0.000 C 
BRANCH  20  21
ATOM     21  C   UNL     1      17.232   2.027  76.763  1.00  0.00     0.000 C 
BRANCH  21  22
ATOM     22  C   UNL     1      17.475   1.339  78.118  1.00  0.00     0.000 C 
BRANCH  22  23
ATOM     23  C   UNL     1      16.276   0.487  78.573  1.00  0.00     0.000 C 
BRANCH  23  24
ATOM     24  C   UNL     1      15.529   1.024  79.811  1.00  0.00    -0.000 C 
BRANCH  24  25
ATOM     25  C   UNL     1      16.428   1.560  80.944  1.00  0.00    -0.000 C 
BRANCH  25  26
ATOM     26  C   UNL     1      15.680   2.136  82.161  1.00  0.00    -0.000 C 
BRANCH  26  27
ATOM     27  C   UNL     1      14.205   1.701  82.216  1.00  0.00    -0.000 C 
BRANCH  27  28
ATOM     28  C   UNL     1      13.906   0.784  83.413  1.00  0.00    -0.000 C 
BRANCH  28  29
ATOM     29  C   UNL     1      14.304  -0.678  83.159  1.00  0.00    -0.000 C 
BRANCH  29  30
ATOM     30  C   UNL     1      13.315  -1.356  82.200  1.00  0.00    -0.000 C 
BRANCH  30  31
ATOM     31  C   UNL     1      13.903  -2.609  81.532  1.00  0.00    -0.003 C 
ATOM     32  C   UNL     1      15.333  -2.399  81.033  1.00  0.00     0.004 C 
ENDBRANCH  30  31
ENDBRANCH  29  30
ENDBRANCH  28  29
ENDBRANCH  27  28
ENDBRANCH  26  27
ENDBRANCH  25  26
ENDBRANCH  24  25
ENDBRANCH  23  24
ENDBRANCH  22  23
ENDBRANCH  21  22
ENDBRANCH  20  21
ENDBRANCH  19  20
ENDBRANCH  18  19
ENDBRANCH   1  18
TORSDOF 28
ENDMDL
MODEL 6
REMARK VINA RESULT:    -4.444      2.809      7.796
REMARK INTER + INTRA:         -15.586
REMARK INTER:                 -11.127
REMARK INTRA:                  -4.459
REMARK UNBOUND:                -3.867
REMARK SMILES CCCCCCCCCCCCCCCCCCCCCCCCCCCCCC(=O)[O-]
REMARK SMILES IDX 16 1 17 2 18 3 19 4 20 5 21 6 22 7 23 8 24 9 25 10 26 11
REMARK SMILES IDX 27 12 28 13 29 14 30 15 31 16 32 17 15 18 14 19 13 20 12 21
REMARK SMILES IDX 11 22 10 23 9 24 8 25 7 26 6 27 5 28 4 29 3 30 2 31 1 32
REMARK H PARENT
REMARK Flexibility Score: inf
ROOT
ATOM      1  C   UNL     1       4.873  10.343  82.545  1.00  0.00     0.000 C 
ENDROOT
BRANCH   1   2
ATOM      2  C   UNL     1       4.000   9.073  82.623  1.00  0.00     0.000 C 
BRANCH   2   3
ATOM      3  C   UNL     1       2.630   9.298  83.288  1.00  0.00     0.000 C 
BRANCH   3   4
ATOM      4  C   UNL     1       1.607   9.929  82.332  1.00  0.00     0.000 C 
BRANCH   4   5
ATOM      5  C   UNL     1       0.539  10.707  83.114  1.00  0.00     0.000 C 
BRANCH   5   6
ATOM      6  C   UNL     1      -0.001   9.917  84.317  1.00  0.00     0.000 C 
BRANCH   6   7
ATOM      7  C   UNL     1      -0.098  10.776  85.587  1.00  0.00     0.000 C 
BRANCH   7   8
ATOM      8  C   UNL     1       1.082  11.756  85.679  1.00  0.00     0.000 C 
BRANCH   8   9
ATOM      9  C   UNL     1       2.274  11.189  86.472  1.00  0.00     0.000 C 
BRANCH   9  10
ATOM     10  C   UNL     1       1.923  10.627  87.862  1.00  0.00     0.000 C 
BRANCH  10  11
ATOM     11  C   UNL     1       2.143   9.111  88.017  1.00  0.00     0.000 C 
BRANCH  11  12
ATOM     12  C   UNL     1       2.657   8.427  86.729  1.00  0.00     0.000 C 
BRANCH  12  13
ATOM     13  C   UNL     1       1.727   7.318  86.209  1.00  0.00     0.006 C 
BRANCH  13  14
ATOM     14  C   UNL     1       2.505   6.153  85.582  1.00  0.00     0.053 C 
BRANCH  14  15
ATOM     15  C   UNL     1       2.224   4.883  86.320  1.00  0.00     0.041 C 
ATOM     16  O   UNL     1       1.222   4.797  87.077  1.00  0.00    -0.550 OA
ATOM     17  O   UNL     1       3.045   3.776  86.138  1.00  0.00    -0.550 OA
ENDBRANCH  14  15
ENDBRANCH  13  14
ENDBRANCH  12  13
ENDBRANCH  11  12
ENDBRANCH  10  11
ENDBRANCH   9  10
ENDBRANCH   8   9
ENDBRANCH   7   8
ENDBRANCH   6   7
ENDBRANCH   5   6
ENDBRANCH   4   5
ENDBRANCH   3   4
ENDBRANCH   2   3
ENDBRANCH   1   2
BRANCH   1  18
ATOM     18  C   UNL     1       4.851  11.200  83.826  1.00  0.00     0.000 C 
BRANCH  18  19
ATOM     19  C   UNL     1       4.260  12.613  83.628  1.00  0.00     0.000 C 
BRANCH  19  20
ATOM     20  C   UNL     1       3.685  12.853  82.219  1.00  0.00     0.000 C 
BRANCH  20  21
ATOM     21  C   UNL     1       4.027  14.230  81.620  1.00  0.00     0.000 C 
BRANCH  21  22
ATOM     22  C   UNL     1       5.543  14.461  81.486  1.00  0.00     0.000 C 
BRANCH  22  23
ATOM     23  C   UNL     1       5.945  14.959  80.086  1.00  0.00     0.000 C 
BRANCH  23  24
ATOM     24  C   UNL     1       5.106  14.384  78.926  1.00  0.00    -0.000 C 
BRANCH  24  25
ATOM     25  C   UNL     1       5.377  12.905  78.585  1.00  0.00    -0.000 C 
BRANCH  25  26
ATOM     26  C   UNL     1       6.837  12.571  78.217  1.00  0.00    -0.000 C 
BRANCH  26  27
ATOM     27  C   UNL     1       7.556  11.758  79.306  1.00  0.00    -0.000 C 
BRANCH  27  28
ATOM     28  C   UNL     1       6.811  10.461  79.661  1.00  0.00    -0.000 C 
BRANCH  28  29
ATOM     29  C   UNL     1       7.740   9.238  79.723  1.00  0.00    -0.000 C 
BRANCH  29  30
ATOM     30  C   UNL     1       7.188   8.181  80.692  1.00  0.00    -0.000 C 
BRANCH  30  31
ATOM     31  C   UNL     1       6.979   6.815  80.020  1.00  0.00    -0.003 C 
ATOM     32  C   UNL     1       8.293   6.126  79.657  1.00  0.00     0.004 C 
ENDBRANCH  30  31
ENDBRANCH  29  30
ENDBRANCH  28  29
ENDBRANCH  27  28
ENDBRANCH  26  27
ENDBRANCH  25  26
ENDBRANCH  24  25
ENDBRANCH  23  24
ENDBRANCH  22  23
ENDBRANCH  21  22
ENDBRANCH  20  21
ENDBRANCH  19  20
ENDBRANCH  18  19
ENDBRANCH   1  18
TORSDOF 28
ENDMDL
MODEL 7
REMARK VINA RESULT:    -4.433      6.251     11.086
REMARK INTER + INTRA:         -15.556
REMARK INTER:                 -14.169
REMARK INTRA:                  -1.387
REMARK UNBOUND:                -3.867
REMARK SMILES CCCCCCCCCCCCCCCCCCCCCCCCCCCCCC(=O)[O-]
REMARK SMILES IDX 16 1 17 2 18 3 19 4 20 5 21 6 22 7 23 8 24 9 25 10 26 11
REMARK SMILES IDX 27 12 28 13 29 14 30 15 31 16 32 17 15 18 14 19 13 20 12 21
REMARK SMILES IDX 11 22 10 23 9 24 8 25 7 26 6 27 5 28 4 29 3 30 2 31 1 32
REMARK H PARENT
REMARK Flexibility Score: inf
ROOT
ATOM      1  C   UNL     1       9.569   4.286  79.989  1.00  0.00     0.000 C 
ENDROOT
BRANCH   1   2
ATOM      2  C   UNL     1       8.573   5.399  79.597  1.00  0.00     0.000 C 
BRANCH   2   3
ATOM      3  C   UNL     1       9.246   6.682  79.074  1.00  0.00     0.000 C 
BRANCH   3   4
ATOM      4  C   UNL     1       8.395   7.936  79.323  1.00  0.00     0.000 C 
BRANCH   4   5
ATOM      5  C   UNL     1       7.165   7.600  80.177  1.00  0.00     0.000 C 
BRANCH   5   6
ATOM      6  C   UNL     1       6.759   8.757  81.104  1.00  0.00     0.000 C 
BRANCH   6   7
ATOM      7  C   UNL     1       5.491   8.445  81.912  1.00  0.00     0.000 C 
BRANCH   7   8
ATOM      8  C   UNL     1       4.855   9.733  82.456  1.00  0.00     0.000 C 
BRANCH   8   9
ATOM      9  C   UNL     1       3.370   9.561  82.827  1.00  0.00     0.000 C 
BRANCH   9  10
ATOM     10  C   UNL     1       2.522  10.843  82.727  1.00  0.00     0.000 C 
BRANCH  10  11
ATOM     11  C   UNL     1       1.275  10.860  83.630  1.00  0.00     0.000 C 
BRANCH  11  12
ATOM     12  C   UNL     1       0.588   9.480  83.760  1.00  0.00     0.000 C 
BRANCH  12  13
ATOM     13  C   UNL     1       0.517   8.962  85.206  1.00  0.00     0.006 C 
BRANCH  13  14
ATOM     14  C   UNL     1       0.928   7.488  85.317  1.00  0.00     0.053 C 
BRANCH  14  15
ATOM     15  C   UNL     1       2.365   7.377  85.717  1.00  0.00     0.041 C 
ATOM     16  O   UNL     1       2.902   8.279  86.412  1.00  0.00    -0.550 OA
ATOM     17  O   UNL     1       3.102   6.254  85.359  1.00  0.00    -0.550 OA
ENDBRANCH  14  15
ENDBRANCH  13  14
ENDBRANCH  12  13
ENDBRANCH  11  12
ENDBRANCH  10  11
ENDBRANCH   9  10
ENDBRANCH   8   9
ENDBRANCH   7   8
ENDBRANCH   6   7
ENDBRANCH   5   6
ENDBRANCH   4   5
ENDBRANCH   3   4
ENDBRANCH   2   3
ENDBRANCH   1   2
BRANCH   1  18
ATOM     18  C   UNL     1      11.036   4.606  79.640  1.00  0.00     0.000 C 
BRANCH  18  19
ATOM     19  C   UNL     1      11.962   3.370  79.629  1.00  0.00     0.000 C 
BRANCH  19  20
ATOM     20  C   UNL     1      13.438   3.703  79.334  1.00  0.00     0.000 C 
BRANCH  20  21
ATOM     21  C   UNL     1      14.314   2.476  79.019  1.00  0.00     0.000 C 
BRANCH  21  22
ATOM     22  C   UNL     1      13.906   1.229  79.824  1.00  0.00     0.000 C 
BRANCH  22  23
ATOM     23  C   UNL     1      14.252   1.350  81.319  1.00  0.00     0.000 C 
BRANCH  23  24
ATOM     24  C   UNL     1      14.126   0.041  82.124  1.00  0.00    -0.000 C 
BRANCH  24  25
ATOM     25  C   UNL     1      13.388   0.162  83.473  1.00  0.00    -0.000 C 
BRANCH  25  26
ATOM     26  C   UNL     1      12.866  -1.164  84.058  1.00  0.00    -0.000 C 
BRANCH  26  27
ATOM     27  C   UNL     1      11.456  -1.037  84.659  1.00  0.00    -0.000 C 
BRANCH  27  28
ATOM     28  C   UNL     1      10.697  -2.374  84.670  1.00  0.00    -0.000 C 
BRANCH  28  29
ATOM     29  C   UNL     1      10.099  -2.732  83.301  1.00  0.00    -0.000 C 
BRANCH  29  30
ATOM     30  C   UNL     1       9.345  -4.069  83.367  1.00  0.00    -0.000 C 
BRANCH  30  31
ATOM     31  C   UNL     1       8.020  -3.962  84.138  1.00  0.00    -0.003 C 
ATOM     32  C   UNL     1       6.938  -3.218  83.356  1.00  0.00     0.004 C 
ENDBRANCH  30  31
ENDBRANCH  29  30
ENDBRANCH  28  29
ENDBRANCH  27  28
ENDBRANCH  26  27
ENDBRANCH  25  26
ENDBRANCH  24  25
ENDBRANCH  23  24
ENDBRANCH  22  23
ENDBRANCH  21  22
ENDBRANCH  20  21
ENDBRANCH  19  20
ENDBRANCH  18  19
ENDBRANCH   1  18
TORSDOF 28
ENDMDL
MODEL 8
REMARK VINA RESULT:    -4.386     13.693     17.545
REMARK INTER + INTRA:         -15.432
REMARK INTER:                  -9.631
REMARK INTRA:                  -5.801
REMARK UNBOUND:                -3.867
REMARK SMILES CCCCCCCCCCCCCCCCCCCCCCCCCCCCCC(=O)[O-]
REMARK SMILES IDX 16 1 17 2 18 3 19 4 20 5 21 6 22 7 23 8 24 9 25 10 26 11
REMARK SMILES IDX 27 12 28 13 29 14 30 15 31 16 32 17 15 18 14 19 13 20 12 21
REMARK SMILES IDX 11 22 10 23 9 24 8 25 7 26 6 27 5 28 4 29 3 30 2 31 1 32
REMARK H PARENT
REMARK Flexibility Score: inf
ROOT
ATOM      1  C   UNL     1      14.381   0.750  82.239  1.00  0.00     0.000 C 
ENDROOT
BRANCH   1   2
ATOM      2  C   UNL     1      15.429   0.884  83.364  1.00  0.00     0.000 C 
BRANCH   2   3
ATOM      3  C   UNL     1      16.537  -0.184  83.315  1.00  0.00     0.000 C 
BRANCH   3   4
ATOM      4  C   UNL     1      17.619   0.137  82.274  1.00  0.00     0.000 C 
BRANCH   4   5
ATOM      5  C   UNL     1      17.833  -1.051  81.326  1.00  0.00     0.000 C 
BRANCH   5   6
ATOM      6  C   UNL     1      17.052  -0.901  80.010  1.00  0.00     0.000 C 
BRANCH   6   7
ATOM      7  C   UNL     1      15.725  -1.674  80.025  1.00  0.00     0.000 C 
BRANCH   7   8
ATOM      8  C   UNL     1      15.910  -3.072  80.635  1.00  0.00     0.000 C 
BRANCH   8   9
ATOM      9  C   UNL     1      14.790  -3.452  81.621  1.00  0.00     0.000 C 
BRANCH   9  10
ATOM     10  C   UNL     1      15.273  -3.909  83.009  1.00  0.00     0.000 C 
BRANCH  10  11
ATOM     11  C   UNL     1      14.722  -3.082  84.186  1.00  0.00     0.000 C 
BRANCH  11  12
ATOM     12  C   UNL     1      13.180  -2.967  84.191  1.00  0.00     0.000 C 
BRANCH  12  13
ATOM     13  C   UNL     1      12.671  -1.516  84.241  1.00  0.00     0.006 C 
BRANCH  13  14
ATOM     14  C   UNL     1      11.204  -1.399  83.811  1.00  0.00     0.053 C 
BRANCH  14  15
ATOM     15  C   UNL     1      11.005  -2.016  82.464  1.00  0.00     0.041 C 
ATOM     16  O   UNL     1      11.595  -1.545  81.457  1.00  0.00    -0.550 OA
ATOM     17  O   UNL     1      10.201  -3.141  82.325  1.00  0.00    -0.550 OA
ENDBRANCH  14  15
ENDBRANCH  13  14
ENDBRANCH  12  13
ENDBRANCH  11  12
ENDBRANCH  10  11
ENDBRANCH   9  10
ENDBRANCH   8   9
ENDBRANCH   7   8
ENDBRANCH   6   7
ENDBRANCH   5   6
ENDBRANCH   4   5
ENDBRANCH   3   4
ENDBRANCH   2   3
ENDBRANCH   1   2
BRANCH   1  18
ATOM     18  C   UNL     1      14.279   1.988  81.326  1.00  0.00     0.000 C 
BRANCH  18  19
ATOM     19  C   UNL     1      14.072   1.651  79.833  1.00  0.00     0.000 C 
BRANCH  19  20
ATOM     20  C   UNL     1      13.915   2.893  78.933  1.00  0.00     0.000 C 
BRANCH  20  21
ATOM     21  C   UNL     1      14.833   2.900  77.696  1.00  0.00     0.000 C 
BRANCH  21  22
ATOM     22  C   UNL     1      15.670   1.614  77.568  1.00  0.00     0.000 C 
BRANCH  22  23
ATOM     23  C   UNL     1      17.173   1.901  77.400  1.00  0.00     0.000 C 
BRANCH  23  24
ATOM     24  C   UNL     1      17.720   3.044  78.279  1.00  0.00    -0.000 C 
BRANCH  24  25
ATOM     25  C   UNL     1      17.933   2.690  79.765  1.00  0.00    -0.000 C 
BRANCH  25  26
ATOM     26  C   UNL     1      17.874   3.882  80.740  1.00  0.00    -0.000 C 
BRANCH  26  27
ATOM     27  C   UNL     1      16.553   4.663  80.649  1.00  0.00    -0.000 C 
BRANCH  27  28
ATOM     28  C   UNL     1      16.771   6.163  80.392  1.00  0.00    -0.000 C 
BRANCH  28  29
ATOM     29  C   UNL     1      17.899   6.438  79.386  1.00  0.00    -0.000 C 
BRANCH  29  30
ATOM     30  C   UNL     1      17.353   7.128  78.127  1.00  0.00    -0.000 C 
BRANCH  30  31
ATOM     31  C   UNL     1      16.162   6.377  77.512  1.00  0.00    -0.003 C 
ATOM     32  C   UNL     1      16.448   5.867  76.100  1.00  0.00     0.004 C 
ENDBRANCH  30  31
ENDBRANCH  29  30
ENDBRANCH  28  29
ENDBRANCH  27  28
ENDBRANCH  26  27
ENDBRANCH  25  26
ENDBRANCH  24  25
ENDBRANCH  23  24
ENDBRANCH  22  23
ENDBRANCH  21  22
ENDBRANCH  20  21
ENDBRANCH  19  20
ENDBRANCH  18  19
ENDBRANCH   1  18
TORSDOF 28
ENDMDL
MODEL 9
REMARK VINA RESULT:    -4.361     13.443     16.048
REMARK INTER + INTRA:         -15.366
REMARK INTER:                  -9.530
REMARK INTRA:                  -5.836
REMARK UNBOUND:                -3.867
REMARK SMILES CCCCCCCCCCCCCCCCCCCCCCCCCCCCCC(=O)[O-]
REMARK SMILES IDX 16 1 17 2 18 3 19 4 20 5 21 6 22 7 23 8 24 9 25 10 26 11
REMARK SMILES IDX 27 12 28 13 29 14 30 15 31 16 32 17 15 18 14 19 13 20 12 21
REMARK SMILES IDX 11 22 10 23 9 24 8 25 7 26 6 27 5 28 4 29 3 30 2 31 1 32
REMARK H PARENT
REMARK Flexibility Score: inf
ROOT
ATOM      1  C   UNL     1      14.647   4.201  79.220  1.00  0.00     0.000 C 
ENDROOT
BRANCH   1   2
ATOM      2  C   UNL     1      15.622   4.323  78.029  1.00  0.00     0.000 C 
BRANCH   2   3
ATOM      3  C   UNL     1      15.922   2.985  77.329  1.00  0.00     0.000 C 
BRANCH   3   4
ATOM      4  C   UNL     1      17.285   2.984  76.620  1.00  0.00     0.000 C 
BRANCH   4   5
ATOM      5  C   UNL     1      17.796   1.550  76.425  1.00  0.00     0.000 C 
BRANCH   5   6
ATOM      6  C   UNL     1      16.784   0.495  76.901  1.00  0.00     0.000 C 
BRANCH   6   7
ATOM      7  C   UNL     1      17.441  -0.864  77.183  1.00  0.00     0.000 C 
BRANCH   7   8
ATOM      8  C   UNL     1      17.133  -1.337  78.612  1.00  0.00     0.000 C 
BRANCH   8   9
ATOM      9  C   UNL     1      16.723  -0.188  79.551  1.00  0.00     0.000 C 
BRANCH   9  10
ATOM     10  C   UNL     1      17.873   0.418  80.377  1.00  0.00     0.000 C 
BRANCH  10  11
ATOM     11  C   UNL     1      18.147   1.908  80.100  1.00  0.00     0.000 C 
BRANCH  11  12
ATOM     12  C   UNL     1      18.157   2.781  81.376  1.00  0.00     0.000 C 
BRANCH  12  13
ATOM     13  C   UNL     1      17.660   4.218  81.142  1.00  0.00     0.006 C 
BRANCH  13  14
ATOM     14  C   UNL     1      18.633   5.039  80.286  1.00  0.00     0.053 C 
BRANCH  14  15
ATOM     15  C   UNL     1      18.276   6.490  80.338  1.00  0.00     0.041 C 
ATOM     16  O   UNL     1      18.073   7.131  79.274  1.00  0.00    -0.550 OA
ATOM     17  O   UNL     1      18.124   7.126  81.565  1.00  0.00    -0.550 OA
ENDBRANCH  14  15
ENDBRANCH  13  14
ENDBRANCH  12  13
ENDBRANCH  11  12
ENDBRANCH  10  11
ENDBRANCH   9  10
ENDBRANCH   8   9
ENDBRANCH   7   8
ENDBRANCH   6   7
ENDBRANCH   5   6
ENDBRANCH   4   5
ENDBRANCH   3   4
ENDBRANCH   2   3
ENDBRANCH   1   2
BRANCH   1  18
ATOM     18  C   UNL     1      14.411   2.752  79.691  1.00  0.00     0.000 C 
BRANCH  18  19
ATOM     19  C   UNL     1      14.491   2.568  81.222  1.00  0.00     0.000 C 
BRANCH  19  20
ATOM     20  C   UNL     1      14.162   1.139  81.694  1.00  0.00     0.000 C 
BRANCH  20  21
ATOM     21  C   UNL     1      14.473   0.873  83.179  1.00  0.00     0.000 C 
BRANCH  21  22
ATOM     22  C   UNL     1      15.929   0.431  83.412  1.00  0.00     0.000 C 
BRANCH  22  23
ATOM     23  C   UNL     1      16.104  -1.097  83.328  1.00  0.00     0.000 C 
BRANCH  23  24
ATOM     24  C   UNL     1      14.923  -1.918  83.884  1.00  0.00    -0.000 C 
BRANCH  24  25
ATOM     25  C   UNL     1      14.320  -2.949  82.909  1.00  0.00    -0.000 C 
BRANCH  25  26
ATOM     26  C   UNL     1      14.166  -2.466  81.453  1.00  0.00    -0.000 C 
BRANCH  26  27
ATOM     27  C   UNL     1      12.721  -2.072  81.104  1.00  0.00    -0.000 C 
BRANCH  27  28
ATOM     28  C   UNL     1      11.686  -3.040  81.699  1.00  0.00    -0.000 C 
BRANCH  28  29
ATOM     29  C   UNL     1      10.594  -2.323  82.508  1.00  0.00    -0.000 C 
BRANCH  29  30
ATOM     30  C   UNL     1      10.413  -2.981  83.884  1.00  0.00    -0.000 C 
BRANCH  30  31
ATOM     31  C   UNL     1      11.032  -2.152  85.021  1.00  0.00    -0.003 C 
ATOM     32  C   UNL     1      11.476  -0.762  84.567  1.00  0.00     0.004 C 
ENDBRANCH  30  31
ENDBRANCH  29  30
ENDBRANCH  28  29
ENDBRANCH  27  28
ENDBRANCH  26  27
ENDBRANCH  25  26
ENDBRANCH  24  25
ENDBRANCH  23  24
ENDBRANCH  22  23
ENDBRANCH  21  22
ENDBRANCH  20  21
ENDBRANCH  19  20
ENDBRANCH  18  19
ENDBRANCH   1  18
TORSDOF 28
ENDMDL
