MODEL 1
REMARK VINA RESULT:    -5.024      0.000      0.000
REMARK INTER + INTRA:          -5.171
REMARK INTER:                  -5.171
REMARK INTRA:                   0.000
REMARK UNBOUND:                 0.000
REMARK SMILES O=c1ccc2ccc(O)cc2o1
REMARK SMILES IDX 6 1 7 2 8 3 10 4 11 5 5 6 4 7 3 8 2 9 1 10 12 11 9 12
REMARK H PARENT 9 13
REMARK Flexibility Score: inf
ROOT
ATOM      1  C   UNL     1      12.888  -3.780  11.671  1.00  0.00     0.016 A 
ATOM      2  C   UNL     1      11.626  -3.497  11.135  1.00  0.00     0.047 A 
ATOM      3  C   UNL     1      11.228  -2.169  10.926  1.00  0.00     0.119 A 
ATOM      4  C   UNL     1      12.096  -1.120  11.253  1.00  0.00     0.094 A 
ATOM      5  C   UNL     1      13.359  -1.393  11.789  1.00  0.00     0.142 A 
ATOM      6  C   UNL     1      13.758  -2.732  11.999  1.00  0.00     0.018 A 
ATOM      7  C   UNL     1      15.026  -2.972  12.536  1.00  0.00     0.019 A 
ATOM      8  C   UNL     1      15.854  -1.894  12.845  1.00  0.00     0.094 A 
ATOM      9  C   UNL     1      15.392  -0.594  12.610  1.00  0.00     0.336 A 
ATOM     10  O   UNL     1      16.125   0.392  12.883  1.00  0.00    -0.246 OA
ATOM     11  O   UNL     1      14.181  -0.392  12.098  1.00  0.00    -0.423 OA
ENDROOT
BRANCH   3  12
ATOM     12  O   UNL     1       9.973  -1.881  10.393  1.00  0.00    -0.508 OA
ATOM     13  H   UNL     1       9.816  -1.055   9.828  1.00  0.00     0.293 HD
ENDBRANCH   3  12
TORSDOF 1
ENDMDL
MODEL 2
REMARK VINA RESULT:    -3.765      0.758      4.223
REMARK INTER + INTRA:          -3.875
REMARK INTER:                  -3.875
REMARK INTRA:                   0.000
REMARK UNBOUND:                 0.000
REMARK SMILES O=c1ccc2ccc(O)cc2o1
REMARK SMILES IDX 6 1 7 2 8 3 10 4 11 5 5 6 4 7 3 8 2 9 1 10 12 11 9 12
REMARK H PARENT 9 13
REMARK Flexibility Score: inf
ROOT
ATOM      1  C   UNL     1      14.904  -3.075  12.390  1.00  0.00     0.016 A 
ATOM      2  C   UNL     1      15.740  -2.008  12.735  1.00  0.00     0.047 A 
ATOM      3  C   UNL     1      15.298  -0.686  12.585  1.00  0.00     0.119 A 
ATOM      4  C   UNL     1      14.014  -0.431  12.086  1.00  0.00     0.094 A 
ATOM      5  C   UNL     1      13.172  -1.491  11.738  1.00  0.00     0.142 A 
ATOM      6  C   UNL     1      13.619  -2.823  11.891  1.00  0.00     0.018 A 
ATOM      7  C   UNL     1      12.754  -3.862  11.534  1.00  0.00     0.019 A 
ATOM      8  C   UNL     1      11.485  -3.557  11.043  1.00  0.00     0.094 A 
ATOM      9  C   UNL     1      11.109  -2.215  10.918  1.00  0.00     0.336 A 
ATOM     10  O   UNL     1       9.969  -1.921  10.476  1.00  0.00    -0.246 OA
ATOM     11  O   UNL     1      11.952  -1.245  11.265  1.00  0.00    -0.423 OA
ENDROOT
BRANCH   3  12
ATOM     12  O   UNL     1      16.125   0.382  12.927  1.00  0.00    -0.508 OA
ATOM     13  H   UNL     1      16.794   0.765  12.270  1.00  0.00     0.293 HD
ENDBRANCH   3  12
TORSDOF 1
ENDMDL
MODEL 3
REMARK VINA RESULT:    -3.654      1.765      2.425
REMARK INTER + INTRA:          -3.760
REMARK INTER:                  -3.760
REMARK INTRA:                   0.000
REMARK UNBOUND:                 0.000
REMARK SMILES O=c1ccc2ccc(O)cc2o1
REMARK SMILES IDX 6 1 7 2 8 3 10 4 11 5 5 6 4 7 3 8 2 9 1 10 12 11 9 12
REMARK H PARENT 9 13
REMARK Flexibility Score: inf
ROOT
ATOM      1  C   UNL     1      12.367  -0.716  11.378  1.00  0.00     0.016 A 
ATOM      2  C   UNL     1      11.243  -1.263  10.750  1.00  0.00     0.047 A 
ATOM      3  C   UNL     1      11.109  -2.653  10.624  1.00  0.00     0.119 A 
ATOM      4  C   UNL     1      12.105  -3.499  11.130  1.00  0.00     0.094 A 
ATOM      5  C   UNL     1      13.231  -2.962  11.760  1.00  0.00     0.142 A 
ATOM      6  C   UNL     1      13.364  -1.560  11.885  1.00  0.00     0.018 A 
ATOM      7  C   UNL     1      14.502  -1.053  12.520  1.00  0.00     0.019 A 
ATOM      8  C   UNL     1      15.465  -1.936  13.007  1.00  0.00     0.094 A 
ATOM      9  C   UNL     1      15.267  -3.312  12.848  1.00  0.00     0.336 A 
ATOM     10  O   UNL     1      16.125  -4.124  13.280  1.00  0.00    -0.246 OA
ATOM     11  O   UNL     1      14.175  -3.769  12.239  1.00  0.00    -0.423 OA
ENDROOT
BRANCH   3  12
ATOM     12  O   UNL     1       9.993  -3.205  10.000  1.00  0.00    -0.508 OA
ATOM     13  H   UNL     1       9.797  -3.036   9.021  1.00  0.00     0.293 HD
ENDBRANCH   3  12
TORSDOF 1
ENDMDL
MODEL 4
REMARK VINA RESULT:    -3.026      1.939      4.709
REMARK INTER + INTRA:          -3.114
REMARK INTER:                  -3.114
REMARK INTRA:                   0.000
REMARK UNBOUND:                 0.000
REMARK SMILES O=c1ccc2ccc(O)cc2o1
REMARK SMILES IDX 6 1 7 2 8 3 10 4 11 5 5 6 4 7 3 8 2 9 1 10 12 11 9 12
REMARK H PARENT 9 13
REMARK Flexibility Score: inf
ROOT
ATOM      1  C   UNL     1      14.412  -1.134  12.464  1.00  0.00     0.016 A 
ATOM      2  C   UNL     1      15.346  -1.930  13.135  1.00  0.00     0.047 A 
ATOM      3  C   UNL     1      15.198  -3.325  13.161  1.00  0.00     0.119 A 
ATOM      4  C   UNL     1      14.112  -3.924  12.511  1.00  0.00     0.094 A 
ATOM      5  C   UNL     1      13.174  -3.136  11.837  1.00  0.00     0.142 A 
ATOM      6  C   UNL     1      13.325  -1.731  11.813  1.00  0.00     0.018 A 
ATOM      7  C   UNL     1      12.370  -0.970  11.130  1.00  0.00     0.019 A 
ATOM      8  C   UNL     1      11.307  -1.613  10.498  1.00  0.00     0.094 A 
ATOM      9  C   UNL     1      11.221  -3.008  10.564  1.00  0.00     0.336 A 
ATOM     10  O   UNL     1      10.268  -3.606  10.000  1.00  0.00    -0.246 OA
ATOM     11  O   UNL     1      12.143  -3.709  11.220  1.00  0.00    -0.423 OA
ENDROOT
BRANCH   3  12
ATOM     12  O   UNL     1      16.125  -4.124  13.827  1.00  0.00    -0.508 OA
ATOM     13  H   UNL     1      17.108  -4.107  13.586  1.00  0.00     0.293 HD
ENDBRANCH   3  12
TORSDOF 1
ENDMDL
MODEL 5
REMARK VINA RESULT:    -2.636     15.592     17.659
REMARK INTER + INTRA:          -2.713
REMARK INTER:                  -2.713
REMARK INTRA:                   0.000
REMARK UNBOUND:                 0.000
REMARK SMILES O=c1ccc2ccc(O)cc2o1
REMARK SMILES IDX 6 1 7 2 8 3 10 4 11 5 5 6 4 7 3 8 2 9 1 10 12 11 9 12
REMARK H PARENT 9 13
REMARK Flexibility Score: inf
ROOT
ATOM      1  C   UNL     1      -1.039  -3.538   0.523  1.00  0.00     0.016 A 
ATOM      2  C   UNL     1      -1.292  -4.039  -0.758  1.00  0.00     0.047 A 
ATOM      3  C   UNL     1      -0.509  -3.629  -1.846  1.00  0.00     0.119 A 
ATOM      4  C   UNL     1       0.533  -2.713  -1.651  1.00  0.00     0.094 A 
ATOM      5  C   UNL     1       0.793  -2.206  -0.374  1.00  0.00     0.142 A 
ATOM      6  C   UNL     1       0.002  -2.622   0.721  1.00  0.00     0.018 A 
ATOM      7  C   UNL     1       0.287  -2.097   1.986  1.00  0.00     0.019 A 
ATOM      8  C   UNL     1       1.335  -1.188   2.130  1.00  0.00     0.094 A 
ATOM      9  C   UNL     1       2.076  -0.823   1.001  1.00  0.00     0.336 A 
ATOM     10  O   UNL     1       3.025  -0.003   1.110  1.00  0.00    -0.246 OA
ATOM     11  O   UNL     1       1.784  -1.336  -0.192  1.00  0.00    -0.423 OA
ENDROOT
BRANCH   3  12
ATOM     12  O   UNL     1      -0.755  -4.124  -3.125  1.00  0.00    -0.508 OA
ATOM     13  H   UNL     1       0.000  -4.409  -3.736  1.00  0.00     0.293 HD
ENDBRANCH   3  12
TORSDOF 1
ENDMDL
MODEL 6
REMARK VINA RESULT:    -2.573     15.020     17.786
REMARK INTER + INTRA:          -2.648
REMARK INTER:                  -2.648
REMARK INTRA:                   0.000
REMARK UNBOUND:                 0.000
REMARK SMILES O=c1ccc2ccc(O)cc2o1
REMARK SMILES IDX 6 1 7 2 8 3 10 4 11 5 5 6 4 7 3 8 2 9 1 10 12 11 9 12
REMARK H PARENT 9 13
REMARK Flexibility Score: inf
ROOT
ATOM      1  C   UNL     1       0.370  -1.904   2.166  1.00  0.00     0.016 A 
ATOM      2  C   UNL     1       1.552  -1.239   2.508  1.00  0.00     0.047 A 
ATOM      3  C   UNL     1       2.480  -0.892   1.516  1.00  0.00     0.119 A 
ATOM      4  C   UNL     1       2.224  -1.212   0.177  1.00  0.00     0.094 A 
ATOM      5  C   UNL     1       1.045  -1.877  -0.174  1.00  0.00     0.142 A 
ATOM      6  C   UNL     1       0.111  -2.226   0.827  1.00  0.00     0.018 A 
ATOM      7  C   UNL     1      -1.058  -2.890   0.445  1.00  0.00     0.019 A 
ATOM      8  C   UNL     1      -1.268  -3.187  -0.901  1.00  0.00     0.094 A 
ATOM      9  C   UNL     1      -0.299  -2.810  -1.838  1.00  0.00     0.336 A 
ATOM     10  O   UNL     1      -0.471  -3.070  -3.057  1.00  0.00    -0.246 OA
ATOM     11  O   UNL     1       0.805  -2.179  -1.448  1.00  0.00    -0.423 OA
ENDROOT
BRANCH   3  12
ATOM     12  O   UNL     1       3.660  -0.228   1.849  1.00  0.00    -0.508 OA
ATOM     13  H   UNL     1       4.167  -0.446   2.698  1.00  0.00     0.293 HD
ENDBRANCH   3  12
TORSDOF 1
ENDMDL
