MODEL 1
REMARK VINA RESULT:    -3.174      0.000      0.000
REMARK INTER + INTRA:         -13.931
REMARK INTER:                  -7.997
REMARK INTRA:                  -5.934
REMARK UNBOUND:                -5.934
REMARK SMILES CCCCCCCCCCCCCCCCCCCCCCCCCCCC(=O)[O-]
REMARK SMILES IDX 15 1 16 2 17 3 18 4 19 5 20 6 21 7 22 8 23 9 24 10 25 11
REMARK SMILES IDX 26 12 27 13 28 14 29 15 30 16 14 17 13 18 12 19 11 20 10 21
REMARK SMILES IDX 9 22 8 23 7 24 6 25 5 26 4 27 3 28 2 29 1 30
REMARK H PARENT
REMARK Flexibility Score: inf
ROOT
ATOM      1  C   UNL     1       5.245  -1.898  -0.882  1.00  0.00     0.000 C 
ENDROOT
BRANCH   1   2
ATOM      2  C   UNL     1       6.107  -0.646  -1.110  1.00  0.00     0.000 C 
BRANCH   2   3
ATOM      3  C   UNL     1       7.565  -0.991  -1.449  1.00  0.00     0.000 C 
BRANCH   3   4
ATOM      4  C   UNL     1       8.484  -0.737  -0.245  1.00  0.00     0.000 C 
BRANCH   4   5
ATOM      5  C   UNL     1       7.761  -0.036   0.918  1.00  0.00     0.000 C 
BRANCH   5   6
ATOM      6  C   UNL     1       7.783  -0.802   2.256  1.00  0.00     0.000 C 
BRANCH   6   7
ATOM      7  C   UNL     1       9.141  -1.462   2.578  1.00  0.00     0.000 C 
BRANCH   7   8
ATOM      8  C   UNL     1       9.007  -2.965   2.888  1.00  0.00     0.000 C 
BRANCH   8   9
ATOM      9  C   UNL     1       7.692  -3.575   2.366  1.00  0.00     0.000 C 
BRANCH   9  10
ATOM     10  C   UNL     1       7.855  -4.770   1.407  1.00  0.00     0.000 C 
BRANCH  10  11
ATOM     11  C   UNL     1       8.289  -4.356  -0.009  1.00  0.00     0.000 C 
BRANCH  11  12
ATOM     12  C   UNL     1       7.333  -4.875  -1.098  1.00  0.00     0.006 C 
BRANCH  12  13
ATOM     13  C   UNL     1       6.993  -6.370  -0.984  1.00  0.00     0.053 C 
BRANCH  13  14
ATOM     14  C   UNL     1       5.914  -6.772  -1.945  1.00  0.00     0.041 C 
ATOM     15  O   UNL     1       4.796  -7.160  -1.515  1.00  0.00    -0.550 OA
ATOM     16  O   UNL     1       6.152  -6.738  -3.312  1.00  0.00    -0.550 OA
ENDBRANCH  13  14
ENDBRANCH  12  13
ENDBRANCH  11  12
ENDBRANCH  10  11
ENDBRANCH   9  10
ENDBRANCH   8   9
ENDBRANCH   7   8
ENDBRANCH   6   7
ENDBRANCH   5   6
ENDBRANCH   4   5
ENDBRANCH   3   4
ENDBRANCH   2   3
ENDBRANCH   1   2
BRANCH   1  17
ATOM     17  C   UNL     1       4.803  -2.054   0.584  1.00  0.00     0.000 C 
BRANCH  17  18
ATOM     18  C   UNL     1       4.403  -3.497   0.938  1.00  0.00     0.000 C 
BRANCH  18  19
ATOM     19  C   UNL     1       3.540  -4.211  -0.118  1.00  0.00     0.000 C 
BRANCH  19  20
ATOM     20  C   UNL     1       2.233  -4.773   0.458  1.00  0.00     0.000 C 
BRANCH  20  21
ATOM     21  C   UNL     1       2.026  -4.312   1.906  1.00  0.00     0.000 C 
BRANCH  21  22
ATOM     22  C   UNL     1       1.301  -5.388   2.727  1.00  0.00    -0.000 C 
BRANCH  22  23
ATOM     23  C   UNL     1       0.666  -6.477   1.848  1.00  0.00    -0.000 C 
BRANCH  23  24
ATOM     24  C   UNL     1       1.084  -7.894   2.268  1.00  0.00    -0.000 C 
BRANCH  24  25
ATOM     25  C   UNL     1       2.514  -7.902   2.830  1.00  0.00    -0.000 C 
BRANCH  25  26
ATOM     26  C   UNL     1       3.592  -7.975   1.735  1.00  0.00    -0.000 C 
BRANCH  26  27
ATOM     27  C   UNL     1       4.827  -7.086   1.971  1.00  0.00    -0.000 C 
BRANCH  27  28
ATOM     28  C   UNL     1       5.208  -6.971   3.457  1.00  0.00    -0.000 C 
BRANCH  28  29
ATOM     29  C   UNL     1       4.948  -5.566   4.024  1.00  0.00    -0.003 C 
ATOM     30  C   UNL     1       4.101  -5.586   5.297  1.00  0.00     0.004 C 
ENDBRANCH  28  29
ENDBRANCH  27  28
ENDBRANCH  26  27
ENDBRANCH  25  26
ENDBRANCH  24  25
ENDBRANCH  23  24
ENDBRANCH  22  23
ENDBRANCH  21  22
ENDBRANCH  20  21
ENDBRANCH  19  20
ENDBRANCH  18  19
ENDBRANCH  17  18
ENDBRANCH   1  17
TORSDOF 26
ENDMDL
MODEL 2
REMARK VINA RESULT:    -3.167      1.877      4.040
REMARK INTER + INTRA:         -13.916
REMARK INTER:                  -9.726
REMARK INTRA:                  -4.189
REMARK UNBOUND:                -5.934
REMARK SMILES CCCCCCCCCCCCCCCCCCCCCCCCCCCC(=O)[O-]
REMARK SMILES IDX 15 1 16 2 17 3 18 4 19 5 20 6 21 7 22 8 23 9 24 10 25 11
REMARK SMILES IDX 26 12 27 13 28 14 29 15 30 16 14 17 13 18 12 19 11 20 10 21
REMARK SMILES IDX 9 22 8 23 7 24 6 25 5 26 4 27 3 28 2 29 1 30
REMARK H PARENT
REMARK Flexibility Score: inf
ROOT
ATOM      1  C   UNL     1       2.603  -4.762   0.513  1.00  0.00     0.000 C 
ENDROOT
BRANCH   1   2
ATOM      2  C   UNL     1       4.017  -4.408   0.023  1.00  0.00     0.000 C 
BRANCH   2   3
ATOM      3  C   UNL     1       4.720  -3.398   0.943  1.00  0.00     0.000 C 
BRANCH   3   4
ATOM      4  C   UNL     1       6.213  -3.729   1.084  1.00  0.00     0.000 C 
BRANCH   4   5
ATOM      5  C   UNL     1       7.042  -2.538   1.594  1.00  0.00     0.000 C 
BRANCH   5   6
ATOM      6  C   UNL     1       6.517  -1.151   1.174  1.00  0.00     0.000 C 
BRANCH   6   7
ATOM      7  C   UNL     1       7.513  -0.335   0.322  1.00  0.00     0.000 C 
BRANCH   7   8
ATOM      8  C   UNL     1       6.977  -0.040  -1.091  1.00  0.00     0.000 C 
BRANCH   8   9
ATOM      9  C   UNL     1       5.616  -0.705  -1.372  1.00  0.00     0.000 C 
BRANCH   9  10
ATOM     10  C   UNL     1       5.641  -1.847  -2.405  1.00  0.00     0.000 C 
BRANCH  10  11
ATOM     11  C   UNL     1       6.909  -2.712  -2.322  1.00  0.00     0.000 C 
BRANCH  11  12
ATOM     12  C   UNL     1       6.631  -4.201  -2.597  1.00  0.00     0.006 C 
BRANCH  12  13
ATOM     13  C   UNL     1       7.276  -4.740  -3.883  1.00  0.00     0.053 C 
BRANCH  13  14
ATOM     14  C   UNL     1       6.671  -6.045  -4.307  1.00  0.00     0.041 C 
ATOM     15  O   UNL     1       6.890  -7.091  -3.642  1.00  0.00    -0.550 OA
ATOM     16  O   UNL     1       5.882  -6.107  -5.448  1.00  0.00    -0.550 OA
ENDBRANCH  13  14
ENDBRANCH  12  13
ENDBRANCH  11  12
ENDBRANCH  10  11
ENDBRANCH   9  10
ENDBRANCH   8   9
ENDBRANCH   7   8
ENDBRANCH   6   7
ENDBRANCH   5   6
ENDBRANCH   4   5
ENDBRANCH   3   4
ENDBRANCH   2   3
ENDBRANCH   1   2
BRANCH   1  17
ATOM     17  C   UNL     1       2.263  -4.108   1.864  1.00  0.00     0.000 C 
BRANCH  17  18
ATOM     18  C   UNL     1       1.210  -4.897   2.661  1.00  0.00     0.000 C 
BRANCH  18  19
ATOM     19  C   UNL     1       1.081  -6.382   2.276  1.00  0.00     0.000 C 
BRANCH  19  20
ATOM     20  C   UNL     1       1.116  -7.321   3.491  1.00  0.00     0.000 C 
BRANCH  20  21
ATOM     21  C   UNL     1       2.206  -8.387   3.331  1.00  0.00     0.000 C 
BRANCH  21  22
ATOM     22  C   UNL     1       3.431  -7.816   2.604  1.00  0.00    -0.000 C 
BRANCH  22  23
ATOM     23  C   UNL     1       4.566  -7.431   3.566  1.00  0.00    -0.000 C 
BRANCH  23  24
ATOM     24  C   UNL     1       4.726  -5.910   3.714  1.00  0.00    -0.000 C 
BRANCH  24  25
ATOM     25  C   UNL     1       4.090  -5.414   5.021  1.00  0.00    -0.000 C 
BRANCH  25  26
ATOM     26  C   UNL     1       4.480  -6.265   6.243  1.00  0.00    -0.000 C 
BRANCH  26  27
ATOM     27  C   UNL     1       5.762  -5.820   6.969  1.00  0.00    -0.000 C 
BRANCH  27  28
ATOM     28  C   UNL     1       5.498  -5.308   8.395  1.00  0.00    -0.000 C 
BRANCH  28  29
ATOM     29  C   UNL     1       5.187  -3.803   8.432  1.00  0.00    -0.003 C 
ATOM     30  C   UNL     1       6.161  -3.015   9.309  1.00  0.00     0.004 C 
ENDBRANCH  28  29
ENDBRANCH  27  28
ENDBRANCH  26  27
ENDBRANCH  25  26
ENDBRANCH  24  25
ENDBRANCH  23  24
ENDBRANCH  22  23
ENDBRANCH  21  22
ENDBRANCH  20  21
ENDBRANCH  19  20
ENDBRANCH  18  19
ENDBRANCH  17  18
ENDBRANCH   1  17
TORSDOF 26
ENDMDL
MODEL 3
REMARK VINA RESULT:    -3.158      1.690      6.748
REMARK INTER + INTRA:         -13.892
REMARK INTER:                  -8.955
REMARK INTRA:                  -4.938
REMARK UNBOUND:                -5.934
REMARK SMILES CCCCCCCCCCCCCCCCCCCCCCCCCCCC(=O)[O-]
REMARK SMILES IDX 15 1 16 2 17 3 18 4 19 5 20 6 21 7 22 8 23 9 24 10 25 11
REMARK SMILES IDX 26 12 27 13 28 14 29 15 30 16 14 17 13 18 12 19 11 20 10 21
REMARK SMILES IDX 9 22 8 23 7 24 6 25 5 26 4 27 3 28 2 29 1 30
REMARK H PARENT
REMARK Flexibility Score: inf
ROOT
ATOM      1  C   UNL     1       4.815  -2.627   0.751  1.00  0.00     0.000 C 
ENDROOT
BRANCH   1   2
ATOM      2  C   UNL     1       5.038  -3.738  -0.288  1.00  0.00     0.000 C 
BRANCH   2   3
ATOM      3  C   UNL     1       5.461  -5.067   0.355  1.00  0.00     0.000 C 
BRANCH   3   4
ATOM      4  C   UNL     1       5.587  -4.924   1.879  1.00  0.00     0.000 C 
BRANCH   4   5
ATOM      5  C   UNL     1       5.104  -6.173   2.637  1.00  0.00     0.000 C 
BRANCH   5   6
ATOM      6  C   UNL     1       3.616  -6.158   3.037  1.00  0.00     0.000 C 
BRANCH   6   7
ATOM      7  C   UNL     1       3.049  -4.745   3.292  1.00  0.00     0.000 C 
BRANCH   7   8
ATOM      8  C   UNL     1       1.642  -4.558   2.696  1.00  0.00     0.000 C 
BRANCH   8   9
ATOM      9  C   UNL     1       1.313  -5.578   1.589  1.00  0.00     0.000 C 
BRANCH   9  10
ATOM     10  C   UNL     1       1.685  -5.142   0.159  1.00  0.00     0.000 C 
BRANCH  10  11
ATOM     11  C   UNL     1       1.283  -6.170  -0.912  1.00  0.00     0.000 C 
BRANCH  11  12
ATOM     12  C   UNL     1       1.744  -7.597  -0.565  1.00  0.00     0.006 C 
BRANCH  12  13
ATOM     13  C   UNL     1       3.269  -7.783  -0.536  1.00  0.00     0.053 C 
BRANCH  13  14
ATOM     14  C   UNL     1       3.845  -7.889  -1.917  1.00  0.00     0.041 C 
ATOM     15  O   UNL     1       4.962  -7.369  -2.179  1.00  0.00    -0.550 OA
ATOM     16  O   UNL     1       3.140  -8.546  -2.916  1.00  0.00    -0.550 OA
ENDBRANCH  13  14
ENDBRANCH  12  13
ENDBRANCH  11  12
ENDBRANCH  10  11
ENDBRANCH   9  10
ENDBRANCH   8   9
ENDBRANCH   7   8
ENDBRANCH   6   7
ENDBRANCH   5   6
ENDBRANCH   4   5
ENDBRANCH   3   4
ENDBRANCH   2   3
ENDBRANCH   1   2
BRANCH   1  17
ATOM     17  C   UNL     1       4.969  -1.217   0.153  1.00  0.00     0.000 C 
BRANCH  17  18
ATOM     18  C   UNL     1       5.215  -1.236  -1.366  1.00  0.00     0.000 C 
BRANCH  18  19
ATOM     19  C   UNL     1       5.879   0.031  -1.934  1.00  0.00     0.000 C 
BRANCH  19  20
ATOM     20  C   UNL     1       7.390   0.085  -1.668  1.00  0.00     0.000 C 
BRANCH  20  21
ATOM     21  C   UNL     1       8.024  -1.304  -1.805  1.00  0.00     0.000 C 
BRANCH  21  22
ATOM     22  C   UNL     1       9.470  -1.303  -1.290  1.00  0.00    -0.000 C 
BRANCH  22  23
ATOM     23  C   UNL     1       9.684  -2.275  -0.118  1.00  0.00    -0.000 C 
BRANCH  23  24
ATOM     24  C   UNL     1       8.399  -2.524   0.686  1.00  0.00    -0.000 C 
BRANCH  24  25
ATOM     25  C   UNL     1       8.696  -2.581   2.193  1.00  0.00    -0.000 C 
BRANCH  25  26
ATOM     26  C   UNL     1       8.511  -1.225   2.895  1.00  0.00    -0.000 C 
BRANCH  26  27
ATOM     27  C   UNL     1       7.728  -0.172   2.090  1.00  0.00    -0.000 C 
BRANCH  27  28
ATOM     28  C   UNL     1       7.720   1.213   2.760  1.00  0.00    -0.000 C 
BRANCH  28  29
ATOM     29  C   UNL     1       8.879   2.103   2.286  1.00  0.00    -0.003 C 
ATOM     30  C   UNL     1       9.421   1.696   0.915  1.00  0.00     0.004 C 
ENDBRANCH  28  29
ENDBRANCH  27  28
ENDBRANCH  26  27
ENDBRANCH  25  26
ENDBRANCH  24  25
ENDBRANCH  23  24
ENDBRANCH  22  23
ENDBRANCH  21  22
ENDBRANCH  20  21
ENDBRANCH  19  20
ENDBRANCH  18  19
ENDBRANCH  17  18
ENDBRANCH   1  17
TORSDOF 26
ENDMDL
MODEL 4
REMARK VINA RESULT:    -3.138      3.349      7.655
REMARK INTER + INTRA:         -13.841
REMARK INTER:                  -8.864
REMARK INTRA:                  -4.977
REMARK UNBOUND:                -5.934
REMARK SMILES CCCCCCCCCCCCCCCCCCCCCCCCCCCC(=O)[O-]
REMARK SMILES IDX 15 1 16 2 17 3 18 4 19 5 20 6 21 7 22 8 23 9 24 10 25 11
REMARK SMILES IDX 26 12 27 13 28 14 29 15 30 16 14 17 13 18 12 19 11 20 10 21
REMARK SMILES IDX 9 22 8 23 7 24 6 25 5 26 4 27 3 28 2 29 1 30
REMARK H PARENT
REMARK Flexibility Score: inf
ROOT
ATOM      1  C   UNL     1       5.129  -6.895  -0.280  1.00  0.00     0.000 C 
ENDROOT
BRANCH   1   2
ATOM      2  C   UNL     1       3.709  -6.820   0.305  1.00  0.00     0.000 C 
BRANCH   2   3
ATOM      3  C   UNL     1       2.759  -5.986  -0.568  1.00  0.00     0.000 C 
BRANCH   3   4
ATOM      4  C   UNL     1       1.619  -5.393   0.272  1.00  0.00     0.000 C 
BRANCH   4   5
ATOM      5  C   UNL     1       2.124  -4.461   1.388  1.00  0.00     0.000 C 
BRANCH   5   6
ATOM      6  C   UNL     1       1.722  -4.878   2.817  1.00  0.00     0.000 C 
BRANCH   6   7
ATOM      7  C   UNL     1       0.661  -5.998   2.868  1.00  0.00     0.000 C 
BRANCH   7   8
ATOM      8  C   UNL     1       1.191  -7.283   3.530  1.00  0.00     0.000 C 
BRANCH   8   9
ATOM      9  C   UNL     1       2.686  -7.202   3.896  1.00  0.00     0.000 C 
BRANCH   9  10
ATOM     10  C   UNL     1       2.989  -7.001   5.393  1.00  0.00     0.000 C 
BRANCH  10  11
ATOM     11  C   UNL     1       4.068  -5.938   5.654  1.00  0.00     0.000 C 
BRANCH  11  12
ATOM     12  C   UNL     1       5.323  -6.520   6.331  1.00  0.00     0.006 C 
BRANCH  12  13
ATOM     13  C   UNL     1       6.409  -5.483   6.655  1.00  0.00     0.053 C 
BRANCH  13  14
ATOM     14  C   UNL     1       6.544  -5.258   8.132  1.00  0.00     0.041 C 
ATOM     15  O   UNL     1       7.685  -5.151   8.654  1.00  0.00    -0.550 OA
ATOM     16  O   UNL     1       5.411  -5.185   8.931  1.00  0.00    -0.550 OA
ENDBRANCH  13  14
ENDBRANCH  12  13
ENDBRANCH  11  12
ENDBRANCH  10  11
ENDBRANCH   9  10
ENDBRANCH   8   9
ENDBRANCH   7   8
ENDBRANCH   6   7
ENDBRANCH   5   6
ENDBRANCH   4   5
ENDBRANCH   3   4
ENDBRANCH   2   3
ENDBRANCH   1   2
BRANCH   1  17
ATOM     17  C   UNL     1       6.218  -6.891   0.809  1.00  0.00     0.000 C 
BRANCH  17  18
ATOM     18  C   UNL     1       5.666  -6.550   2.204  1.00  0.00     0.000 C 
BRANCH  18  19
ATOM     19  C   UNL     1       5.689  -5.053   2.565  1.00  0.00     0.000 C 
BRANCH  19  20
ATOM     20  C   UNL     1       7.022  -4.375   2.219  1.00  0.00     0.000 C 
BRANCH  20  21
ATOM     21  C   UNL     1       6.853  -3.385   1.060  1.00  0.00     0.000 C 
BRANCH  21  22
ATOM     22  C   UNL     1       5.449  -2.765   1.067  1.00  0.00    -0.000 C 
BRANCH  22  23
ATOM     23  C   UNL     1       4.756  -2.850  -0.302  1.00  0.00    -0.000 C 
BRANCH  23  24
ATOM     24  C   UNL     1       5.699  -3.335  -1.414  1.00  0.00    -0.000 C 
BRANCH  24  25
ATOM     25  C   UNL     1       5.832  -2.279  -2.522  1.00  0.00    -0.000 C 
BRANCH  25  26
ATOM     26  C   UNL     1       5.426  -0.867  -2.062  1.00  0.00    -0.000 C 
BRANCH  26  27
ATOM     27  C   UNL     1       6.591   0.119  -1.870  1.00  0.00    -0.000 C 
BRANCH  27  28
ATOM     28  C   UNL     1       7.270  -0.013  -0.496  1.00  0.00    -0.000 C 
BRANCH  28  29
ATOM     29  C   UNL     1       8.742  -0.440  -0.605  1.00  0.00    -0.003 C 
ATOM     30  C   UNL     1       9.129  -0.890  -2.014  1.00  0.00     0.004 C 
ENDBRANCH  28  29
ENDBRANCH  27  28
ENDBRANCH  26  27
ENDBRANCH  25  26
ENDBRANCH  24  25
ENDBRANCH  23  24
ENDBRANCH  22  23
ENDBRANCH  21  22
ENDBRANCH  20  21
ENDBRANCH  19  20
ENDBRANCH  18  19
ENDBRANCH  17  18
ENDBRANCH   1  17
TORSDOF 26
ENDMDL
MODEL 5
REMARK VINA RESULT:    -3.116      3.960      6.266
REMARK INTER + INTRA:         -13.785
REMARK INTER:                  -9.714
REMARK INTRA:                  -4.071
REMARK UNBOUND:                -5.934
REMARK SMILES CCCCCCCCCCCCCCCCCCCCCCCCCCCC(=O)[O-]
REMARK SMILES IDX 15 1 16 2 17 3 18 4 19 5 20 6 21 7 22 8 23 9 24 10 25 11
REMARK SMILES IDX 26 12 27 13 28 14 29 15 30 16 14 17 13 18 12 19 11 20 10 21
REMARK SMILES IDX 9 22 8 23 7 24 6 25 5 26 4 27 3 28 2 29 1 30
REMARK H PARENT
REMARK Flexibility Score: inf
ROOT
ATOM      1  C   UNL     1       5.232  -2.252  -1.074  1.00  0.00     0.000 C 
ENDROOT
BRANCH   1   2
ATOM      2  C   UNL     1       5.833  -1.461  -2.248  1.00  0.00     0.000 C 
BRANCH   2   3
ATOM      3  C   UNL     1       5.625   0.054  -2.101  1.00  0.00     0.000 C 
BRANCH   3   4
ATOM      4  C   UNL     1       6.972   0.790  -2.041  1.00  0.00     0.000 C 
BRANCH   4   5
ATOM      5  C   UNL     1       8.165  -0.165  -1.865  1.00  0.00     0.000 C 
BRANCH   5   6
ATOM      6  C   UNL     1       9.190   0.262  -0.795  1.00  0.00     0.000 C 
BRANCH   6   7
ATOM      7  C   UNL     1       8.552   0.765   0.518  1.00  0.00     0.000 C 
BRANCH   7   8
ATOM      8  C   UNL     1       9.184   0.121   1.765  1.00  0.00     0.000 C 
BRANCH   8   9
ATOM      9  C   UNL     1       8.472   0.512   3.074  1.00  0.00     0.000 C 
BRANCH   9  10
ATOM     10  C   UNL     1       7.575   1.760   2.990  1.00  0.00     0.000 C 
BRANCH  10  11
ATOM     11  C   UNL     1       8.096   2.940   3.827  1.00  0.00     0.000 C 
BRANCH  11  12
ATOM     12  C   UNL     1       6.996   3.591   4.684  1.00  0.00     0.006 C 
BRANCH  12  13
ATOM     13  C   UNL     1       5.801   4.129   3.882  1.00  0.00     0.053 C 
BRANCH  13  14
ATOM     14  C   UNL     1       4.492   3.764   4.515  1.00  0.00     0.041 C 
ATOM     15  O   UNL     1       4.370   3.772   5.768  1.00  0.00    -0.550 OA
ATOM     16  O   UNL     1       3.413   3.398   3.721  1.00  0.00    -0.550 OA
ENDBRANCH  13  14
ENDBRANCH  12  13
ENDBRANCH  11  12
ENDBRANCH  10  11
ENDBRANCH   9  10
ENDBRANCH   8   9
ENDBRANCH   7   8
ENDBRANCH   6   7
ENDBRANCH   5   6
ENDBRANCH   4   5
ENDBRANCH   3   4
ENDBRANCH   2   3
ENDBRANCH   1   2
BRANCH   1  17
ATOM     17  C   UNL     1       5.342  -1.499   0.265  1.00  0.00     0.000 C 
BRANCH  17  18
ATOM     18  C   UNL     1       6.351  -2.143   1.231  1.00  0.00     0.000 C 
BRANCH  18  19
ATOM     19  C   UNL     1       7.430  -3.013   0.561  1.00  0.00     0.000 C 
BRANCH  19  20
ATOM     20  C   UNL     1       7.396  -4.475   1.029  1.00  0.00     0.000 C 
BRANCH  20  21
ATOM     21  C   UNL     1       6.700  -4.601   2.389  1.00  0.00     0.000 C 
BRANCH  21  22
ATOM     22  C   UNL     1       5.541  -5.606   2.323  1.00  0.00    -0.000 C 
BRANCH  22  23
ATOM     23  C   UNL     1       5.016  -5.812   0.893  1.00  0.00    -0.000 C 
BRANCH  23  24
ATOM     24  C   UNL     1       3.826  -4.898   0.561  1.00  0.00    -0.000 C 
BRANCH  24  25
ATOM     25  C   UNL     1       3.205  -4.318   1.842  1.00  0.00    -0.000 C 
BRANCH  25  26
ATOM     26  C   UNL     1       1.683  -4.531   1.923  1.00  0.00    -0.000 C 
BRANCH  26  27
ATOM     27  C   UNL     1       1.218  -5.525   3.002  1.00  0.00    -0.000 C 
BRANCH  27  28
ATOM     28  C   UNL     1       0.763  -6.874   2.419  1.00  0.00    -0.000 C 
BRANCH  28  29
ATOM     29  C   UNL     1       0.753  -6.879   0.883  1.00  0.00    -0.003 C 
ATOM     30  C   UNL     1       1.703  -7.917   0.284  1.00  0.00     0.004 C 
ENDBRANCH  28  29
ENDBRANCH  27  28
ENDBRANCH  26  27
ENDBRANCH  25  26
ENDBRANCH  24  25
ENDBRANCH  23  24
ENDBRANCH  22  23
ENDBRANCH  21  22
ENDBRANCH  20  21
ENDBRANCH  19  20
ENDBRANCH  18  19
ENDBRANCH  17  18
ENDBRANCH   1  17
TORSDOF 26
ENDMDL
MODEL 6
REMARK VINA RESULT:    -3.066      2.458      6.295
REMARK INTER + INTRA:         -13.659
REMARK INTER:                  -8.528
REMARK INTRA:                  -5.131
REMARK UNBOUND:                -5.934
REMARK SMILES CCCCCCCCCCCCCCCCCCCCCCCCCCCC(=O)[O-]
REMARK SMILES IDX 15 1 16 2 17 3 18 4 19 5 20 6 21 7 22 8 23 9 24 10 25 11
REMARK SMILES IDX 26 12 27 13 28 14 29 15 30 16 14 17 13 18 12 19 11 20 10 21
REMARK SMILES IDX 9 22 8 23 7 24 6 25 5 26 4 27 3 28 2 29 1 30
REMARK H PARENT
REMARK Flexibility Score: inf
ROOT
ATOM      1  C   UNL     1       5.197  -2.244  -1.080  1.00  0.00     0.000 C 
ENDROOT
BRANCH   1   2
ATOM      2  C   UNL     1       5.223  -1.482   0.255  1.00  0.00     0.000 C 
BRANCH   2   3
ATOM      3  C   UNL     1       6.443  -1.845   1.114  1.00  0.00     0.000 C 
BRANCH   3   4
ATOM      4  C   UNL     1       7.031  -0.597   1.788  1.00  0.00     0.000 C 
BRANCH   4   5
ATOM      5  C   UNL     1       8.298  -0.903   2.607  1.00  0.00     0.000 C 
BRANCH   5   6
ATOM      6  C   UNL     1       8.946  -2.272   2.320  1.00  0.00     0.000 C 
BRANCH   6   7
ATOM      7  C   UNL     1       9.288  -3.082   3.589  1.00  0.00     0.000 C 
BRANCH   7   8
ATOM      8  C   UNL     1       9.093  -4.597   3.391  1.00  0.00     0.000 C 
BRANCH   8   9
ATOM      9  C   UNL     1       8.037  -4.936   2.322  1.00  0.00     0.000 C 
BRANCH   9  10
ATOM     10  C   UNL     1       6.589  -5.049   2.837  1.00  0.00     0.000 C 
BRANCH  10  11
ATOM     11  C   UNL     1       5.627  -5.668   1.810  1.00  0.00     0.000 C 
BRANCH  11  12
ATOM     12  C   UNL     1       4.249  -4.982   1.800  1.00  0.00     0.006 C 
BRANCH  12  13
ATOM     13  C   UNL     1       3.547  -4.987   0.433  1.00  0.00     0.053 C 
BRANCH  13  14
ATOM     14  C   UNL     1       2.067  -4.791   0.564  1.00  0.00     0.041 C 
ATOM     15  O   UNL     1       1.348  -4.688  -0.465  1.00  0.00    -0.550 OA
ATOM     16  O   UNL     1       1.485  -4.702   1.821  1.00  0.00    -0.550 OA
ENDBRANCH  13  14
ENDBRANCH  12  13
ENDBRANCH  11  12
ENDBRANCH  10  11
ENDBRANCH   9  10
ENDBRANCH   8   9
ENDBRANCH   7   8
ENDBRANCH   6   7
ENDBRANCH   5   6
ENDBRANCH   4   5
ENDBRANCH   3   4
ENDBRANCH   2   3
ENDBRANCH   1   2
BRANCH   1  17
ATOM     17  C   UNL     1       5.565  -1.352  -2.279  1.00  0.00     0.000 C 
BRANCH  17  18
ATOM     18  C   UNL     1       5.609   0.144  -1.918  1.00  0.00     0.000 C 
BRANCH  18  19
ATOM     19  C   UNL     1       6.920   0.863  -2.285  1.00  0.00     0.000 C 
BRANCH  19  20
ATOM     20  C   UNL     1       8.080   0.512  -1.342  1.00  0.00     0.000 C 
BRANCH  20  21
ATOM     21  C   UNL     1       9.108  -0.383  -2.044  1.00  0.00     0.000 C 
BRANCH  21  22
ATOM     22  C   UNL     1       9.292  -1.707  -1.289  1.00  0.00    -0.000 C 
BRANCH  22  23
ATOM     23  C   UNL     1       8.831  -2.924  -2.108  1.00  0.00    -0.000 C 
BRANCH  23  24
ATOM     24  C   UNL     1       8.296  -4.062  -1.226  1.00  0.00    -0.000 C 
BRANCH  24  25
ATOM     25  C   UNL     1       7.456  -5.050  -2.051  1.00  0.00    -0.000 C 
BRANCH  25  26
ATOM     26  C   UNL     1       6.969  -4.458  -3.386  1.00  0.00    -0.000 C 
BRANCH  26  27
ATOM     27  C   UNL     1       6.731  -5.484  -4.508  1.00  0.00    -0.000 C 
BRANCH  27  28
ATOM     28  C   UNL     1       8.027  -5.908  -5.220  1.00  0.00    -0.000 C 
BRANCH  28  29
ATOM     29  C   UNL     1       9.002  -4.737  -5.414  1.00  0.00    -0.003 C 
ATOM     30  C   UNL     1       9.179  -4.345  -6.881  1.00  0.00     0.004 C 
ENDBRANCH  28  29
ENDBRANCH  27  28
ENDBRANCH  26  27
ENDBRANCH  25  26
ENDBRANCH  24  25
ENDBRANCH  23  24
ENDBRANCH  22  23
ENDBRANCH  21  22
ENDBRANCH  20  21
ENDBRANCH  19  20
ENDBRANCH  18  19
ENDBRANCH  17  18
ENDBRANCH   1  17
TORSDOF 26
ENDMDL
MODEL 7
REMARK VINA RESULT:    -3.044      3.889      6.054
REMARK INTER + INTRA:         -13.604
REMARK INTER:                  -9.808
REMARK INTRA:                  -3.796
REMARK UNBOUND:                -5.934
REMARK SMILES CCCCCCCCCCCCCCCCCCCCCCCCCCCC(=O)[O-]
REMARK SMILES IDX 15 1 16 2 17 3 18 4 19 5 20 6 21 7 22 8 23 9 24 10 25 11
REMARK SMILES IDX 26 12 27 13 28 14 29 15 30 16 14 17 13 18 12 19 11 20 10 21
REMARK SMILES IDX 9 22 8 23 7 24 6 25 5 26 4 27 3 28 2 29 1 30
REMARK H PARENT
REMARK Flexibility Score: inf
ROOT
ATOM      1  C   UNL     1       4.853  -2.679  -0.072  1.00  0.00     0.000 C 
ENDROOT
BRANCH   1   2
ATOM      2  C   UNL     1       5.700  -3.297  -1.197  1.00  0.00     0.000 C 
BRANCH   2   3
ATOM      3  C   UNL     1       6.108  -2.264  -2.259  1.00  0.00     0.000 C 
BRANCH   3   4
ATOM      4  C   UNL     1       5.243  -1.000  -2.157  1.00  0.00     0.000 C 
BRANCH   4   5
ATOM      5  C   UNL     1       6.078   0.289  -2.074  1.00  0.00     0.000 C 
BRANCH   5   6
ATOM      6  C   UNL     1       7.554   0.086  -1.680  1.00  0.00     0.000 C 
BRANCH   6   7
ATOM      7  C   UNL     1       7.853   0.380  -0.194  1.00  0.00     0.000 C 
BRANCH   7   8
ATOM      8  C   UNL     1       7.914  -0.900   0.660  1.00  0.00     0.000 C 
BRANCH   8   9
ATOM      9  C   UNL     1       7.612  -0.648   2.150  1.00  0.00     0.000 C 
BRANCH   9  10
ATOM     10  C   UNL     1       8.845  -0.592   3.072  1.00  0.00     0.000 C 
BRANCH  10  11
ATOM     11  C   UNL     1       8.944   0.718   3.871  1.00  0.00     0.000 C 
BRANCH  11  12
ATOM     12  C   UNL     1       8.608   1.957   3.022  1.00  0.00     0.006 C 
BRANCH  12  13
ATOM     13  C   UNL     1       7.367   2.731   3.492  1.00  0.00     0.053 C 
BRANCH  13  14
ATOM     14  C   UNL     1       7.649   3.553   4.714  1.00  0.00     0.041 C 
ATOM     15  O   UNL     1       6.835   3.560   5.675  1.00  0.00    -0.550 OA
ATOM     16  O   UNL     1       8.802   4.324   4.783  1.00  0.00    -0.550 OA
ENDBRANCH  13  14
ENDBRANCH  12  13
ENDBRANCH  11  12
ENDBRANCH  10  11
ENDBRANCH   9  10
ENDBRANCH   8   9
ENDBRANCH   7   8
ENDBRANCH   6   7
ENDBRANCH   5   6
ENDBRANCH   4   5
ENDBRANCH   3   4
ENDBRANCH   2   3
ENDBRANCH   1   2
BRANCH   1  17
ATOM     17  C   UNL     1       5.098  -3.352   1.291  1.00  0.00     0.000 C 
BRANCH  17  18
ATOM     18  C   UNL     1       6.291  -4.324   1.271  1.00  0.00     0.000 C 
BRANCH  18  19
ATOM     19  C   UNL     1       6.834  -4.716   2.657  1.00  0.00     0.000 C 
BRANCH  19  20
ATOM     20  C   UNL     1       6.095  -5.912   3.273  1.00  0.00     0.000 C 
BRANCH  20  21
ATOM     21  C   UNL     1       6.583  -6.185   4.701  1.00  0.00     0.000 C 
BRANCH  21  22
ATOM     22  C   UNL     1       5.499  -5.835   5.730  1.00  0.00    -0.000 C 
BRANCH  22  23
ATOM     23  C   UNL     1       4.135  -5.551   5.080  1.00  0.00    -0.000 C 
BRANCH  23  24
ATOM     24  C   UNL     1       3.177  -6.748   5.168  1.00  0.00    -0.000 C 
BRANCH  24  25
ATOM     25  C   UNL     1       2.342  -6.881   3.884  1.00  0.00    -0.000 C 
BRANCH  25  26
ATOM     26  C   UNL     1       2.708  -5.834   2.817  1.00  0.00    -0.000 C 
BRANCH  26  27
ATOM     27  C   UNL     1       1.557  -4.908   2.386  1.00  0.00    -0.000 C 
BRANCH  27  28
ATOM     28  C   UNL     1       1.639  -4.496   0.906  1.00  0.00    -0.000 C 
BRANCH  28  29
ATOM     29  C   UNL     1       2.298  -5.573   0.030  1.00  0.00    -0.003 C 
ATOM     30  C   UNL     1       1.290  -6.561  -0.558  1.00  0.00     0.004 C 
ENDBRANCH  28  29
ENDBRANCH  27  28
ENDBRANCH  26  27
ENDBRANCH  25  26
ENDBRANCH  24  25
ENDBRANCH  23  24
ENDBRANCH  22  23
ENDBRANCH  21  22
ENDBRANCH  20  21
ENDBRANCH  19  20
ENDBRANCH  18  19
ENDBRANCH  17  18
ENDBRANCH   1  17
TORSDOF 26
ENDMDL
MODEL 8
REMARK VINA RESULT:    -3.027      1.361      2.154
REMARK INTER + INTRA:         -13.563
REMARK INTER:                  -8.684
REMARK INTRA:                  -4.879
REMARK UNBOUND:                -5.934
REMARK SMILES CCCCCCCCCCCCCCCCCCCCCCCCCCCC(=O)[O-]
REMARK SMILES IDX 15 1 16 2 17 3 18 4 19 5 20 6 21 7 22 8 23 9 24 10 25 11
REMARK SMILES IDX 26 12 27 13 28 14 29 15 30 16 14 17 13 18 12 19 11 20 10 21
REMARK SMILES IDX 9 22 8 23 7 24 6 25 5 26 4 27 3 28 2 29 1 30
REMARK H PARENT
REMARK Flexibility Score: inf
ROOT
ATOM      1  C   UNL     1       5.654  -0.017  -2.279  1.00  0.00     0.000 C 
ENDROOT
BRANCH   1   2
ATOM      2  C   UNL     1       6.923   0.711  -1.806  1.00  0.00     0.000 C 
BRANCH   2   3
ATOM      3  C   UNL     1       8.138  -0.225  -1.719  1.00  0.00     0.000 C 
BRANCH   3   4
ATOM      4  C   UNL     1       8.798  -0.142  -0.335  1.00  0.00     0.000 C 
BRANCH   4   5
ATOM      5  C   UNL     1       7.865   0.452   0.735  1.00  0.00     0.000 C 
BRANCH   5   6
ATOM      6  C   UNL     1       7.487  -0.511   1.877  1.00  0.00     0.000 C 
BRANCH   6   7
ATOM      7  C   UNL     1       8.376  -1.771   1.955  1.00  0.00     0.000 C 
BRANCH   7   8
ATOM      8  C   UNL     1       7.552  -3.067   2.071  1.00  0.00     0.000 C 
BRANCH   8   9
ATOM      9  C   UNL     1       7.868  -4.086   0.959  1.00  0.00     0.000 C 
BRANCH   9  10
ATOM     10  C   UNL     1       9.022  -3.696   0.016  1.00  0.00     0.000 C 
BRANCH  10  11
ATOM     11  C   UNL     1       8.650  -3.802  -1.472  1.00  0.00     0.000 C 
BRANCH  11  12
ATOM     12  C   UNL     1       7.811  -5.055  -1.786  1.00  0.00     0.006 C 
BRANCH  12  13
ATOM     13  C   UNL     1       6.767  -4.858  -2.896  1.00  0.00     0.053 C 
BRANCH  13  14
ATOM     14  C   UNL     1       6.943  -5.847  -4.010  1.00  0.00     0.041 C 
ATOM     15  O   UNL     1       8.002  -5.852  -4.691  1.00  0.00    -0.550 OA
ATOM     16  O   UNL     1       5.929  -6.747  -4.307  1.00  0.00    -0.550 OA
ENDBRANCH  13  14
ENDBRANCH  12  13
ENDBRANCH  11  12
ENDBRANCH  10  11
ENDBRANCH   9  10
ENDBRANCH   8   9
ENDBRANCH   7   8
ENDBRANCH   6   7
ENDBRANCH   5   6
ENDBRANCH   4   5
ENDBRANCH   3   4
ENDBRANCH   2   3
ENDBRANCH   1   2
BRANCH   1  17
ATOM     17  C   UNL     1       5.693  -1.527  -1.984  1.00  0.00     0.000 C 
BRANCH  17  18
ATOM     18  C   UNL     1       5.165  -1.876  -0.581  1.00  0.00     0.000 C 
BRANCH  18  19
ATOM     19  C   UNL     1       4.593  -3.298  -0.436  1.00  0.00     0.000 C 
BRANCH  19  20
ATOM     20  C   UNL     1       4.091  -3.599   0.983  1.00  0.00     0.000 C 
BRANCH  20  21
ATOM     21  C   UNL     1       3.582  -5.041   1.093  1.00  0.00     0.000 C 
BRANCH  21  22
ATOM     22  C   UNL     1       2.194  -5.184   0.453  1.00  0.00    -0.000 C 
BRANCH  22  23
ATOM     23  C   UNL     1       1.139  -5.718   1.437  1.00  0.00    -0.000 C 
BRANCH  23  24
ATOM     24  C   UNL     1       1.538  -5.506   2.905  1.00  0.00    -0.000 C 
BRANCH  24  25
ATOM     25  C   UNL     1       1.686  -6.851   3.634  1.00  0.00    -0.000 C 
BRANCH  25  26
ATOM     26  C   UNL     1       2.897  -6.893   4.582  1.00  0.00    -0.000 C 
BRANCH  26  27
ATOM     27  C   UNL     1       3.661  -5.564   4.728  1.00  0.00    -0.000 C 
BRANCH  27  28
ATOM     28  C   UNL     1       5.181  -5.757   4.863  1.00  0.00    -0.000 C 
BRANCH  28  29
ATOM     29  C   UNL     1       5.670  -7.062   4.216  1.00  0.00    -0.003 C 
ATOM     30  C   UNL     1       6.250  -6.852   2.817  1.00  0.00     0.004 C 
ENDBRANCH  28  29
ENDBRANCH  27  28
ENDBRANCH  26  27
ENDBRANCH  25  26
ENDBRANCH  24  25
ENDBRANCH  23  24
ENDBRANCH  22  23
ENDBRANCH  21  22
ENDBRANCH  20  21
ENDBRANCH  19  20
ENDBRANCH  18  19
ENDBRANCH  17  18
ENDBRANCH   1  17
TORSDOF 26
ENDMDL
MODEL 9
REMARK VINA RESULT:    -2.970      3.555      7.712
REMARK INTER + INTRA:         -13.419
REMARK INTER:                  -9.204
REMARK INTRA:                  -4.215
REMARK UNBOUND:                -5.934
REMARK SMILES CCCCCCCCCCCCCCCCCCCCCCCCCCCC(=O)[O-]
REMARK SMILES IDX 15 1 16 2 17 3 18 4 19 5 20 6 21 7 22 8 23 9 24 10 25 11
REMARK SMILES IDX 26 12 27 13 28 14 29 15 30 16 14 17 13 18 12 19 11 20 10 21
REMARK SMILES IDX 9 22 8 23 7 24 6 25 5 26 4 27 3 28 2 29 1 30
REMARK H PARENT
REMARK Flexibility Score: inf
ROOT
ATOM      1  C   UNL     1       3.864  -4.827   0.028  1.00  0.00     0.000 C 
ENDROOT
BRANCH   1   2
ATOM      2  C   UNL     1       2.455  -5.062   0.599  1.00  0.00     0.000 C 
BRANCH   2   3
ATOM      3  C   UNL     1       2.159  -4.169   1.813  1.00  0.00     0.000 C 
BRANCH   3   4
ATOM      4  C   UNL     1       1.594  -4.995   2.978  1.00  0.00     0.000 C 
BRANCH   4   5
ATOM      5  C   UNL     1       2.209  -6.404   3.063  1.00  0.00     0.000 C 
BRANCH   5   6
ATOM      6  C   UNL     1       3.441  -6.523   3.980  1.00  0.00     0.000 C 
BRANCH   6   7
ATOM      7  C   UNL     1       4.788  -6.515   3.226  1.00  0.00     0.000 C 
BRANCH   7   8
ATOM      8  C   UNL     1       5.858  -5.668   3.939  1.00  0.00     0.000 C 
BRANCH   8   9
ATOM      9  C   UNL     1       7.173  -6.434   4.182  1.00  0.00     0.000 C 
BRANCH   9  10
ATOM     10  C   UNL     1       7.626  -6.515   5.652  1.00  0.00     0.000 C 
BRANCH  10  11
ATOM     11  C   UNL     1       7.286  -5.253   6.462  1.00  0.00     0.000 C 
BRANCH  11  12
ATOM     12  C   UNL     1       6.259  -5.523   7.577  1.00  0.00     0.006 C 
BRANCH  12  13
ATOM     13  C   UNL     1       5.243  -4.391   7.792  1.00  0.00     0.053 C 
BRANCH  13  14
ATOM     14  C   UNL     1       5.493  -3.651   9.072  1.00  0.00     0.041 C 
ATOM     15  O   UNL     1       4.628  -2.855   9.524  1.00  0.00    -0.550 OA
ATOM     16  O   UNL     1       6.690  -3.826   9.754  1.00  0.00    -0.550 OA
ENDBRANCH  13  14
ENDBRANCH  12  13
ENDBRANCH  11  12
ENDBRANCH  10  11
ENDBRANCH   9  10
ENDBRANCH   8   9
ENDBRANCH   7   8
ENDBRANCH   6   7
ENDBRANCH   5   6
ENDBRANCH   4   5
ENDBRANCH   3   4
ENDBRANCH   2   3
ENDBRANCH   1   2
BRANCH   1  17
ATOM     17  C   UNL     1       4.418  -3.433   0.374  1.00  0.00     0.000 C 
BRANCH  17  18
ATOM     18  C   UNL     1       4.953  -2.681  -0.858  1.00  0.00     0.000 C 
BRANCH  18  19
ATOM     19  C   UNL     1       5.208  -1.178  -0.642  1.00  0.00     0.000 C 
BRANCH  19  20
ATOM     20  C   UNL     1       5.652  -0.457  -1.922  1.00  0.00     0.000 C 
BRANCH  20  21
ATOM     21  C   UNL     1       6.946   0.332  -1.689  1.00  0.00     0.000 C 
BRANCH  21  22
ATOM     22  C   UNL     1       8.124  -0.613  -1.412  1.00  0.00    -0.000 C 
BRANCH  22  23
ATOM     23  C   UNL     1       8.914  -0.221  -0.152  1.00  0.00    -0.000 C 
BRANCH  23  24
ATOM     24  C   UNL     1       8.083   0.614   0.832  1.00  0.00    -0.000 C 
BRANCH  24  25
ATOM     25  C   UNL     1       7.530  -0.262   1.967  1.00  0.00    -0.000 C 
BRANCH  25  26
ATOM     26  C   UNL     1       8.635  -0.929   2.807  1.00  0.00    -0.000 C 
BRANCH  26  27
ATOM     27  C   UNL     1       8.646  -2.467   2.771  1.00  0.00    -0.000 C 
BRANCH  27  28
ATOM     28  C   UNL     1       7.502  -3.057   1.929  1.00  0.00    -0.000 C 
BRANCH  28  29
ATOM     29  C   UNL     1       7.962  -4.228   1.047  1.00  0.00    -0.003 C 
ATOM     30  C   UNL     1       9.207  -3.900   0.223  1.00  0.00     0.004 C 
ENDBRANCH  28  29
ENDBRANCH  27  28
ENDBRANCH  26  27
ENDBRANCH  25  26
ENDBRANCH  24  25
ENDBRANCH  23  24
ENDBRANCH  22  23
ENDBRANCH  21  22
ENDBRANCH  20  21
ENDBRANCH  19  20
ENDBRANCH  18  19
ENDBRANCH  17  18
ENDBRANCH   1  17
TORSDOF 26
ENDMDL
