MODEL 1
REMARK VINA RESULT:    -5.497      0.000      0.000
REMARK INTER + INTRA:          -7.072
REMARK INTER:                  -6.783
REMARK INTRA:                  -0.290
REMARK UNBOUND:                -0.290
REMARK SMILES O=c1c(O)c(-c2cc(O)c(O)c(O)c2)oc2cc(O)cc(O)c12
REMARK SMILES IDX 5 1 3 2 2 3 1 4 23 5 21 6 20 7 18 8 17 9 16 10 15 11 6 12
REMARK SMILES IDX 7 13 8 14 14 15 10 16 12 17 9 18 11 20 13 22 4 24 22 26
REMARK SMILES IDX 19 28
REMARK H PARENT 9 19 11 21 13 23 4 25 22 27 19 29
REMARK Flexibility Score: inf
ROOT
ATOM      1  C   UNL     1     -18.048   5.862 -34.974  1.00  0.00     0.180 A 
ATOM      2  C   UNL     1     -18.245   5.045 -33.848  1.00  0.00     0.208 A 
ATOM      3  C   UNL     1     -19.167   5.447 -32.868  1.00  0.00     0.238 A 
ATOM      4  O   UNL     1     -19.379   4.685 -31.889  1.00  0.00    -0.285 OA
ATOM      5  C   UNL     1     -19.869   6.667 -33.020  1.00  0.00     0.111 A 
ATOM      6  C   UNL     1     -20.797   7.191 -32.070  1.00  0.00     0.134 A 
ATOM      7  C   UNL     1     -21.530   8.342 -32.384  1.00  0.00     0.093 A 
ATOM      8  C   UNL     1     -21.322   9.024 -33.585  1.00  0.00     0.123 A 
ATOM      9  C   UNL     1     -20.375   8.553 -34.492  1.00  0.00     0.094 A 
ATOM     10  C   UNL     1     -19.654   7.387 -34.224  1.00  0.00     0.146 A 
ATOM     11  O   UNL     1     -18.769   6.968 -35.120  1.00  0.00    -0.452 OA
ENDROOT
BRANCH   1  12
ATOM     12  C   UNL     1     -17.075   5.518 -36.037  1.00  0.00     0.029 A 
ATOM     13  C   UNL     1     -17.337   4.496 -36.965  1.00  0.00     0.062 A 
ATOM     14  C   UNL     1     -16.395   4.168 -37.949  1.00  0.00     0.162 A 
ATOM     15  C   UNL     1     -15.840   6.183 -36.084  1.00  0.00     0.062 A 
ATOM     16  C   UNL     1     -15.170   4.856 -38.003  1.00  0.00     0.200 A 
ATOM     17  C   UNL     1     -14.894   5.864 -37.063  1.00  0.00     0.162 A 
BRANCH  14  18
ATOM     18  O   UNL     1     -16.669   3.158 -38.869  1.00  0.00    -0.504 OA
ATOM     19  H   UNL     1     -16.963   3.367 -39.816  1.00  0.00     0.293 HD
ENDBRANCH  14  18
BRANCH  16  20
ATOM     20  O   UNL     1     -14.222   4.545 -38.979  1.00  0.00    -0.502 OA
ATOM     21  H   UNL     1     -13.671   5.257 -39.443  1.00  0.00     0.293 HD
ENDBRANCH  16  20
BRANCH  17  22
ATOM     22  O   UNL     1     -13.685   6.558 -37.086  1.00  0.00    -0.504 OA
ATOM     23  H   UNL     1     -13.029   6.472 -37.852  1.00  0.00     0.293 HD
ENDBRANCH  17  22
ENDBRANCH   1  12
BRANCH   2  24
ATOM     24  O   UNL     1     -17.557   3.834 -33.730  1.00  0.00    -0.502 OA
ATOM     25  H   UNL     1     -17.312   3.433 -32.832  1.00  0.00     0.293 HD
ENDBRANCH   2  24
BRANCH   6  26
ATOM     26  O   UNL     1     -21.013   6.639 -30.804  1.00  0.00    -0.507 OA
ATOM     27  H   UNL     1     -21.314   5.691 -30.633  1.00  0.00     0.293 HD
ENDBRANCH   6  26
BRANCH   8  28
ATOM     28  O   UNL     1     -22.044  10.177 -33.882  1.00  0.00    -0.508 OA
ATOM     29  H   UNL     1     -23.017  10.278 -33.614  1.00  0.00     0.293 HD
ENDBRANCH   8  28
TORSDOF 7
ENDMDL
MODEL 2
REMARK VINA RESULT:    -5.455      0.059      1.755
REMARK INTER + INTRA:          -7.021
REMARK INTER:                  -6.719
REMARK INTRA:                  -0.302
REMARK UNBOUND:                -0.290
REMARK SMILES O=c1c(O)c(-c2cc(O)c(O)c(O)c2)oc2cc(O)cc(O)c12
REMARK SMILES IDX 5 1 3 2 2 3 1 4 23 5 21 6 20 7 18 8 17 9 16 10 15 11 6 12
REMARK SMILES IDX 7 13 8 14 14 15 10 16 12 17 9 18 11 20 13 22 4 24 22 26
REMARK SMILES IDX 19 28
REMARK H PARENT 9 19 11 21 13 23 4 25 22 27 19 29
REMARK Flexibility Score: inf
ROOT
ATOM      1  C   UNL     1     -18.015   5.867 -34.946  1.00  0.00     0.180 A 
ATOM      2  C   UNL     1     -18.226   5.057 -33.817  1.00  0.00     0.208 A 
ATOM      3  C   UNL     1     -19.172   5.457 -32.860  1.00  0.00     0.238 A 
ATOM      4  O   UNL     1     -19.396   4.701 -31.878  1.00  0.00    -0.285 OA
ATOM      5  C   UNL     1     -19.884   6.667 -33.036  1.00  0.00     0.111 A 
ATOM      6  C   UNL     1     -20.838   7.189 -32.110  1.00  0.00     0.134 A 
ATOM      7  C   UNL     1     -21.577   8.329 -32.449  1.00  0.00     0.093 A 
ATOM      8  C   UNL     1     -21.352   9.003 -33.652  1.00  0.00     0.123 A 
ATOM      9  C   UNL     1     -20.382   8.536 -34.535  1.00  0.00     0.094 A 
ATOM     10  C   UNL     1     -19.653   7.380 -34.242  1.00  0.00     0.146 A 
ATOM     11  O   UNL     1     -18.745   6.963 -35.116  1.00  0.00    -0.452 OA
ENDROOT
BRANCH   1  12
ATOM     12  C   UNL     1     -17.017   5.525 -35.986  1.00  0.00     0.029 A 
ATOM     13  C   UNL     1     -15.790   6.204 -36.073  1.00  0.00     0.062 A 
ATOM     14  C   UNL     1     -14.867   5.883 -37.078  1.00  0.00     0.162 A 
ATOM     15  C   UNL     1     -17.323   4.544 -36.941  1.00  0.00     0.062 A 
ATOM     16  C   UNL     1     -15.174   4.882 -38.016  1.00  0.00     0.200 A 
ATOM     17  C   UNL     1     -16.408   4.215 -37.946  1.00  0.00     0.162 A 
BRANCH  14  18
ATOM     18  O   UNL     1     -13.651   6.559 -37.150  1.00  0.00    -0.504 OA
ATOM     19  H   UNL     1     -13.142   6.829 -36.316  1.00  0.00     0.293 HD
ENDBRANCH  14  18
BRANCH  16  20
ATOM     20  O   UNL     1     -14.264   4.547 -39.021  1.00  0.00    -0.502 OA
ATOM     21  H   UNL     1     -13.497   3.905 -38.862  1.00  0.00     0.293 HD
ENDBRANCH  16  20
BRANCH  17  22
ATOM     22  O   UNL     1     -16.744   3.224 -38.867  1.00  0.00    -0.504 OA
ATOM     23  H   UNL     1     -16.833   3.417 -39.858  1.00  0.00     0.293 HD
ENDBRANCH  17  22
ENDBRANCH   1  12
BRANCH   2  24
ATOM     24  O   UNL     1     -17.527   3.855 -33.674  1.00  0.00    -0.502 OA
ATOM     25  H   UNL     1     -16.708   3.633 -34.228  1.00  0.00     0.293 HD
ENDBRANCH   2  24
BRANCH   6  26
ATOM     26  O   UNL     1     -21.073   6.646 -30.844  1.00  0.00    -0.507 OA
ATOM     27  H   UNL     1     -21.985   6.536 -30.425  1.00  0.00     0.293 HD
ENDBRANCH   6  26
BRANCH   8  28
ATOM     28  O   UNL     1     -22.081  10.145 -33.973  1.00  0.00    -0.508 OA
ATOM     29  H   UNL     1     -22.050  10.975 -33.392  1.00  0.00     0.293 HD
ENDBRANCH   8  28
TORSDOF 7
ENDMDL
MODEL 3
REMARK VINA RESULT:    -5.412     13.215     15.679
REMARK INTER + INTRA:          -6.968
REMARK INTER:                  -6.695
REMARK INTRA:                  -0.273
REMARK UNBOUND:                -0.290
REMARK SMILES O=c1c(O)c(-c2cc(O)c(O)c(O)c2)oc2cc(O)cc(O)c12
REMARK SMILES IDX 5 1 3 2 2 3 1 4 23 5 21 6 20 7 18 8 17 9 16 10 15 11 6 12
REMARK SMILES IDX 7 13 8 14 14 15 10 16 12 17 9 18 11 20 13 22 4 24 22 26
REMARK SMILES IDX 19 28
REMARK H PARENT 9 19 11 21 13 23 4 25 22 27 19 29
REMARK Flexibility Score: inf
ROOT
ATOM      1  C   UNL     1      -7.007   5.590 -26.406  1.00  0.00     0.180 A 
ATOM      2  C   UNL     1      -6.773   4.829 -27.565  1.00  0.00     0.208 A 
ATOM      3  C   UNL     1      -5.855   5.304 -28.516  1.00  0.00     0.238 A 
ATOM      4  O   UNL     1      -5.608   4.593 -29.525  1.00  0.00    -0.285 OA
ATOM      5  C   UNL     1      -5.195   6.538 -28.304  1.00  0.00     0.111 A 
ATOM      6  C   UNL     1      -4.276   7.133 -29.220  1.00  0.00     0.134 A 
ATOM      7  C   UNL     1      -3.584   8.293 -28.849  1.00  0.00     0.093 A 
ATOM      8  C   UNL     1      -3.826   8.914 -27.621  1.00  0.00     0.123 A 
ATOM      9  C   UNL     1      -4.766   8.374 -26.746  1.00  0.00     0.094 A 
ATOM     10  C   UNL     1      -5.445   7.198 -27.072  1.00  0.00     0.146 A 
ATOM     11  O   UNL     1      -6.324   6.711 -26.205  1.00  0.00    -0.452 OA
ENDROOT
BRANCH   1  12
ATOM     12  C   UNL     1      -7.978   5.168 -25.370  1.00  0.00     0.029 A 
ATOM     13  C   UNL     1      -7.705   4.094 -24.507  1.00  0.00     0.062 A 
ATOM     14  C   UNL     1      -8.645   3.693 -23.549  1.00  0.00     0.162 A 
ATOM     15  C   UNL     1      -9.221   5.813 -25.285  1.00  0.00     0.062 A 
ATOM     16  C   UNL     1      -9.879   4.360 -23.455  1.00  0.00     0.200 A 
ATOM     17  C   UNL     1     -10.165   5.422 -24.331  1.00  0.00     0.162 A 
BRANCH  14  18
ATOM     18  O   UNL     1      -8.361   2.630 -22.692  1.00  0.00    -0.504 OA
ATOM     19  H   UNL     1      -8.206   1.692 -23.043  1.00  0.00     0.293 HD
ENDBRANCH  14  18
BRANCH  16  20
ATOM     20  O   UNL     1     -10.825   3.978 -22.503  1.00  0.00    -0.502 OA
ATOM     21  H   UNL     1     -11.483   4.634 -22.101  1.00  0.00     0.293 HD
ENDBRANCH  16  20
BRANCH  17  22
ATOM     22  O   UNL     1     -11.383   6.098 -24.269  1.00  0.00    -0.504 OA
ATOM     23  H   UNL     1     -11.844   6.299 -23.390  1.00  0.00     0.293 HD
ENDBRANCH  17  22
ENDBRANCH   1  12
BRANCH   2  24
ATOM     24  O   UNL     1      -7.419   3.603 -27.743  1.00  0.00    -0.502 OA
ATOM     25  H   UNL     1      -7.681   3.009 -26.966  1.00  0.00     0.293 HD
ENDBRANCH   2  24
BRANCH   6  26
ATOM     26  O   UNL     1      -4.030   6.645 -30.506  1.00  0.00    -0.507 OA
ATOM     27  H   UNL     1      -4.170   7.169 -31.357  1.00  0.00     0.293 HD
ENDBRANCH   6  26
BRANCH   8  28
ATOM     28  O   UNL     1      -3.145  10.076 -27.266  1.00  0.00    -0.508 OA
ATOM     29  H   UNL     1      -3.446  10.988 -27.593  1.00  0.00     0.293 HD
ENDBRANCH   8  28
TORSDOF 7
ENDMDL
MODEL 4
REMARK VINA RESULT:    -5.279     11.859     14.552
REMARK INTER + INTRA:          -6.803
REMARK INTER:                  -6.556
REMARK INTRA:                  -0.247
REMARK UNBOUND:                -0.290
REMARK SMILES O=c1c(O)c(-c2cc(O)c(O)c(O)c2)oc2cc(O)cc(O)c12
REMARK SMILES IDX 5 1 3 2 2 3 1 4 23 5 21 6 20 7 18 8 17 9 16 10 15 11 6 12
REMARK SMILES IDX 7 13 8 14 14 15 10 16 12 17 9 18 11 20 13 22 4 24 22 26
REMARK SMILES IDX 19 28
REMARK H PARENT 9 19 11 21 13 23 4 25 22 27 19 29
REMARK Flexibility Score: inf
ROOT
ATOM      1  C   UNL     1      -9.740  -4.499 -36.400  1.00  0.00     0.180 A 
ATOM      2  C   UNL     1      -9.210  -3.199 -36.325  1.00  0.00     0.208 A 
ATOM      3  C   UNL     1      -9.657  -2.228 -37.236  1.00  0.00     0.238 A 
ATOM      4  O   UNL     1      -9.219  -1.053 -37.129  1.00  0.00    -0.285 OA
ATOM      5  C   UNL     1     -10.616  -2.572 -38.218  1.00  0.00     0.111 A 
ATOM      6  C   UNL     1     -11.111  -1.678 -39.216  1.00  0.00     0.134 A 
ATOM      7  C   UNL     1     -12.154  -2.089 -40.055  1.00  0.00     0.093 A 
ATOM      8  C   UNL     1     -12.677  -3.383 -39.975  1.00  0.00     0.123 A 
ATOM      9  C   UNL     1     -12.159  -4.281 -39.044  1.00  0.00     0.094 A 
ATOM     10  C   UNL     1     -11.144  -3.889 -38.169  1.00  0.00     0.146 A 
ATOM     11  O   UNL     1     -10.687  -4.774 -37.290  1.00  0.00    -0.452 OA
ENDROOT
BRANCH   1  12
ATOM     12  C   UNL     1      -9.301  -5.582 -35.491  1.00  0.00     0.029 A 
ATOM     13  C   UNL     1      -8.556  -6.676 -35.964  1.00  0.00     0.062 A 
ATOM     14  C   UNL     1      -8.168  -7.704 -35.094  1.00  0.00     0.162 A 
ATOM     15  C   UNL     1      -9.684  -5.551 -34.142  1.00  0.00     0.062 A 
ATOM     16  C   UNL     1      -8.538  -7.651 -33.739  1.00  0.00     0.200 A 
ATOM     17  C   UNL     1      -9.301  -6.571 -33.266  1.00  0.00     0.162 A 
BRANCH  14  18
ATOM     18  O   UNL     1      -7.423  -8.780 -35.573  1.00  0.00    -0.504 OA
ATOM     19  H   UNL     1      -6.416  -8.726 -35.674  1.00  0.00     0.293 HD
ENDBRANCH  14  18
BRANCH  16  20
ATOM     20  O   UNL     1      -8.156  -8.665 -32.858  1.00  0.00    -0.502 OA
ATOM     21  H   UNL     1      -7.572  -8.486 -32.050  1.00  0.00     0.293 HD
ENDBRANCH  16  20
BRANCH  17  22
ATOM     22  O   UNL     1      -9.691  -6.495 -31.929  1.00  0.00    -0.504 OA
ATOM     23  H   UNL     1     -10.643  -6.282 -31.656  1.00  0.00     0.293 HD
ENDBRANCH  17  22
ENDBRANCH   1  12
BRANCH   2  24
ATOM     24  O   UNL     1      -8.280  -2.876 -35.333  1.00  0.00    -0.502 OA
ATOM     25  H   UNL     1      -7.405  -2.408 -35.540  1.00  0.00     0.293 HD
ENDBRANCH   2  24
BRANCH   6  26
ATOM     26  O   UNL     1     -10.596  -0.399 -39.440  1.00  0.00    -0.507 OA
ATOM     27  H   UNL     1      -9.795  -0.193 -40.019  1.00  0.00     0.293 HD
ENDBRANCH   6  26
BRANCH   8  28
ATOM     28  O   UNL     1     -13.703  -3.788 -40.824  1.00  0.00    -0.508 OA
ATOM     29  H   UNL     1     -14.457  -4.383 -40.498  1.00  0.00     0.293 HD
ENDBRANCH   8  28
TORSDOF 7
ENDMDL
MODEL 5
REMARK VINA RESULT:    -5.241      3.611      7.922
REMARK INTER + INTRA:          -6.757
REMARK INTER:                  -6.459
REMARK INTRA:                  -0.297
REMARK UNBOUND:                -0.290
REMARK SMILES O=c1c(O)c(-c2cc(O)c(O)c(O)c2)oc2cc(O)cc(O)c12
REMARK SMILES IDX 5 1 3 2 2 3 1 4 23 5 21 6 20 7 18 8 17 9 16 10 15 11 6 12
REMARK SMILES IDX 7 13 8 14 14 15 10 16 12 17 9 18 11 20 13 22 4 24 22 26
REMARK SMILES IDX 19 28
REMARK H PARENT 9 19 11 21 13 23 4 25 22 27 19 29
REMARK Flexibility Score: inf
ROOT
ATOM      1  C   UNL     1     -13.833   6.227 -37.556  1.00  0.00     0.180 A 
ATOM      2  C   UNL     1     -12.732   5.925 -36.736  1.00  0.00     0.208 A 
ATOM      3  C   UNL     1     -11.529   6.624 -36.929  1.00  0.00     0.238 A 
ATOM      4  O   UNL     1     -10.563   6.389 -36.156  1.00  0.00    -0.285 OA
ATOM      5  C   UNL     1     -11.438   7.604 -37.946  1.00  0.00     0.111 A 
ATOM      6  C   UNL     1     -10.257   8.344 -38.255  1.00  0.00     0.134 A 
ATOM      7  C   UNL     1     -10.318   9.380 -39.196  1.00  0.00     0.093 A 
ATOM      8  C   UNL     1     -11.501   9.659 -39.885  1.00  0.00     0.123 A 
ATOM      9  C   UNL     1     -12.643   8.902 -39.634  1.00  0.00     0.094 A 
ATOM     10  C   UNL     1     -12.623   7.886 -38.675  1.00  0.00     0.146 A 
ATOM     11  O   UNL     1     -13.737   7.196 -38.458  1.00  0.00    -0.452 OA
ENDROOT
BRANCH   1  12
ATOM     12  C   UNL     1     -15.126   5.516 -37.430  1.00  0.00     0.029 A 
ATOM     13  C   UNL     1     -15.528   4.557 -38.375  1.00  0.00     0.062 A 
ATOM     14  C   UNL     1     -16.765   3.911 -38.254  1.00  0.00     0.162 A 
ATOM     15  C   UNL     1     -15.997   5.846 -36.381  1.00  0.00     0.062 A 
ATOM     16  C   UNL     1     -17.621   4.232 -37.185  1.00  0.00     0.200 A 
ATOM     17  C   UNL     1     -17.233   5.206 -36.250  1.00  0.00     0.162 A 
BRANCH  14  18
ATOM     18  O   UNL     1     -17.150   2.956 -39.193  1.00  0.00    -0.504 OA
ATOM     19  H   UNL     1     -16.650   2.080 -39.296  1.00  0.00     0.293 HD
ENDBRANCH  14  18
BRANCH  16  20
ATOM     20  O   UNL     1     -18.855   3.594 -37.046  1.00  0.00    -0.502 OA
ATOM     21  H   UNL     1     -19.075   3.010 -36.248  1.00  0.00     0.293 HD
ENDBRANCH  16  20
BRANCH  17  22
ATOM     22  O   UNL     1     -18.063   5.552 -35.185  1.00  0.00    -0.504 OA
ATOM     23  H   UNL     1     -18.405   6.496 -35.052  1.00  0.00     0.293 HD
ENDBRANCH  17  22
ENDBRANCH   1  12
BRANCH   2  24
ATOM     24  O   UNL     1     -12.850   4.970 -35.723  1.00  0.00    -0.502 OA
ATOM     25  H   UNL     1     -13.370   4.109 -35.846  1.00  0.00     0.293 HD
ENDBRANCH   2  24
BRANCH   6  26
ATOM     26  O   UNL     1      -9.005   8.086 -37.692  1.00  0.00    -0.507 OA
ATOM     27  H   UNL     1      -8.512   7.208 -37.762  1.00  0.00     0.293 HD
ENDBRANCH   6  26
BRANCH   8  28
ATOM     28  O   UNL     1     -11.548  10.681 -40.831  1.00  0.00    -0.508 OA
ATOM     29  H   UNL     1     -12.223  11.434 -40.764  1.00  0.00     0.293 HD
ENDBRANCH   8  28
TORSDOF 7
ENDMDL
MODEL 6
REMARK VINA RESULT:    -5.196      9.963     13.638
REMARK INTER + INTRA:          -6.701
REMARK INTER:                  -6.378
REMARK INTRA:                  -0.323
REMARK UNBOUND:                -0.290
REMARK SMILES O=c1c(O)c(-c2cc(O)c(O)c(O)c2)oc2cc(O)cc(O)c12
REMARK SMILES IDX 5 1 3 2 2 3 1 4 23 5 21 6 20 7 18 8 17 9 16 10 15 11 6 12
REMARK SMILES IDX 7 13 8 14 14 15 10 16 12 17 9 18 11 20 13 22 4 24 22 26
REMARK SMILES IDX 19 28
REMARK H PARENT 9 19 11 21 13 23 4 25 22 27 19 29
REMARK Flexibility Score: inf
ROOT
ATOM      1  C   UNL     1     -10.535  -3.177 -37.488  1.00  0.00     0.180 A 
ATOM      2  C   UNL     1      -9.198  -2.829 -37.749  1.00  0.00     0.208 A 
ATOM      3  C   UNL     1      -8.196  -3.272 -36.871  1.00  0.00     0.238 A 
ATOM      4  O   UNL     1      -6.995  -3.004 -37.139  1.00  0.00    -0.285 OA
ATOM      5  C   UNL     1      -8.543  -4.045 -35.737  1.00  0.00     0.111 A 
ATOM      6  C   UNL     1      -7.614  -4.514 -34.760  1.00  0.00     0.134 A 
ATOM      7  C   UNL     1      -8.052  -5.379 -33.750  1.00  0.00     0.093 A 
ATOM      8  C   UNL     1      -9.397  -5.741 -33.644  1.00  0.00     0.123 A 
ATOM      9  C   UNL     1     -10.322  -5.240 -34.557  1.00  0.00     0.094 A 
ATOM     10  C   UNL     1      -9.910  -4.404 -35.598  1.00  0.00     0.146 A 
ATOM     11  O   UNL     1     -10.822  -3.958 -36.453  1.00  0.00    -0.452 OA
ENDROOT
BRANCH   1  12
ATOM     12  C   UNL     1     -11.649  -2.727 -38.353  1.00  0.00     0.029 A 
ATOM     13  C   UNL     1     -12.202  -3.570 -39.332  1.00  0.00     0.062 A 
ATOM     14  C   UNL     1     -13.240  -3.119 -40.158  1.00  0.00     0.162 A 
ATOM     15  C   UNL     1     -12.127  -1.413 -38.236  1.00  0.00     0.062 A 
ATOM     16  C   UNL     1     -13.727  -1.807 -40.017  1.00  0.00     0.200 A 
ATOM     17  C   UNL     1     -13.164  -0.953 -39.054  1.00  0.00     0.162 A 
BRANCH  14  18
ATOM     18  O   UNL     1     -13.785  -3.966 -41.120  1.00  0.00    -0.504 OA
ATOM     19  H   UNL     1     -14.411  -3.620 -41.839  1.00  0.00     0.293 HD
ENDBRANCH  14  18
BRANCH  16  20
ATOM     20  O   UNL     1     -14.765  -1.343 -40.828  1.00  0.00    -0.502 OA
ATOM     21  H   UNL     1     -15.168  -0.421 -40.714  1.00  0.00     0.293 HD
ENDBRANCH  16  20
BRANCH  17  22
ATOM     22  O   UNL     1     -13.619   0.355 -38.897  1.00  0.00    -0.504 OA
ATOM     23  H   UNL     1     -13.818   0.955 -39.688  1.00  0.00     0.293 HD
ENDBRANCH  17  22
ENDBRANCH   1  12
BRANCH   2  24
ATOM     24  O   UNL     1      -8.876  -2.084 -38.886  1.00  0.00    -0.502 OA
ATOM     25  H   UNL     1      -7.987  -1.609 -38.991  1.00  0.00     0.293 HD
ENDBRANCH   2  24
BRANCH   6  26
ATOM     26  O   UNL     1      -6.268  -4.140 -34.722  1.00  0.00    -0.507 OA
ATOM     27  H   UNL     1      -5.721  -4.045 -33.879  1.00  0.00     0.293 HD
ENDBRANCH   6  26
BRANCH   8  28
ATOM     28  O   UNL     1      -9.826  -6.590 -32.626  1.00  0.00    -0.508 OA
ATOM     29  H   UNL     1     -10.615  -6.352 -32.035  1.00  0.00     0.293 HD
ENDBRANCH   8  28
TORSDOF 7
ENDMDL
MODEL 7
REMARK VINA RESULT:    -5.173      2.830      8.276
REMARK INTER + INTRA:          -6.673
REMARK INTER:                  -6.341
REMARK INTRA:                  -0.332
REMARK UNBOUND:                -0.290
REMARK SMILES O=c1c(O)c(-c2cc(O)c(O)c(O)c2)oc2cc(O)cc(O)c12
REMARK SMILES IDX 5 1 3 2 2 3 1 4 23 5 21 6 20 7 18 8 17 9 16 10 15 11 6 12
REMARK SMILES IDX 7 13 8 14 14 15 10 16 12 17 9 18 11 20 13 22 4 24 22 26
REMARK SMILES IDX 19 28
REMARK H PARENT 9 19 11 21 13 23 4 25 22 27 19 29
REMARK Flexibility Score: inf
ROOT
ATOM      1  C   UNL     1     -14.745   5.771 -37.475  1.00  0.00     0.180 A 
ATOM      2  C   UNL     1     -14.831   5.882 -38.874  1.00  0.00     0.208 A 
ATOM      3  C   UNL     1     -13.701   6.304 -39.593  1.00  0.00     0.238 A 
ATOM      4  O   UNL     1     -13.766   6.350 -40.850  1.00  0.00    -0.285 OA
ATOM      5  C   UNL     1     -12.506   6.622 -38.905  1.00  0.00     0.111 A 
ATOM      6  C   UNL     1     -11.313   7.098 -39.529  1.00  0.00     0.134 A 
ATOM      7  C   UNL     1     -10.150   7.257 -38.765  1.00  0.00     0.093 A 
ATOM      8  C   UNL     1     -10.154   7.021 -37.388  1.00  0.00     0.123 A 
ATOM      9  C   UNL     1     -11.330   6.615 -36.760  1.00  0.00     0.094 A 
ATOM     10  C   UNL     1     -12.496   6.411 -37.501  1.00  0.00     0.146 A 
ATOM     11  O   UNL     1     -13.591   6.013 -36.864  1.00  0.00    -0.452 OA
ENDROOT
BRANCH   1  12
ATOM     12  C   UNL     1     -15.901   5.357 -36.646  1.00  0.00     0.029 A 
ATOM     13  C   UNL     1     -16.673   6.298 -35.946  1.00  0.00     0.062 A 
ATOM     14  C   UNL     1     -17.748   5.887 -35.147  1.00  0.00     0.162 A 
ATOM     15  C   UNL     1     -16.197   3.992 -36.507  1.00  0.00     0.062 A 
ATOM     16  C   UNL     1     -18.052   4.519 -35.033  1.00  0.00     0.200 A 
ATOM     17  C   UNL     1     -17.269   3.571 -35.714  1.00  0.00     0.162 A 
BRANCH  14  18
ATOM     18  O   UNL     1     -18.512   6.830 -34.463  1.00  0.00    -0.504 OA
ATOM     19  H   UNL     1     -18.850   6.660 -33.523  1.00  0.00     0.293 HD
ENDBRANCH  14  18
BRANCH  16  20
ATOM     20  O   UNL     1     -19.123   4.091 -34.245  1.00  0.00    -0.502 OA
ATOM     21  H   UNL     1     -19.163   3.161 -33.848  1.00  0.00     0.293 HD
ENDBRANCH  16  20
BRANCH  17  22
ATOM     22  O   UNL     1     -17.540   2.207 -35.613  1.00  0.00    -0.504 OA
ATOM     23  H   UNL     1     -16.880   1.555 -35.206  1.00  0.00     0.293 HD
ENDBRANCH  17  22
ENDBRANCH   1  12
BRANCH   2  24
ATOM     24  O   UNL     1     -16.014   5.541 -39.535  1.00  0.00    -0.502 OA
ATOM     25  H   UNL     1     -16.508   4.676 -39.353  1.00  0.00     0.293 HD
ENDBRANCH   2  24
BRANCH   6  26
ATOM     26  O   UNL     1     -11.226   7.451 -40.878  1.00  0.00    -0.507 OA
ATOM     27  H   UNL     1     -10.374   7.456 -41.418  1.00  0.00     0.293 HD
ENDBRANCH   6  26
BRANCH   8  28
ATOM     28  O   UNL     1      -8.998   7.198 -36.633  1.00  0.00    -0.508 OA
ATOM     29  H   UNL     1      -8.253   6.509 -36.634  1.00  0.00     0.293 HD
ENDBRANCH   8  28
TORSDOF 7
ENDMDL
MODEL 8
REMARK VINA RESULT:    -5.169     11.101     14.333
REMARK INTER + INTRA:          -6.667
REMARK INTER:                  -6.681
REMARK INTRA:                   0.015
REMARK UNBOUND:                -0.290
REMARK SMILES O=c1c(O)c(-c2cc(O)c(O)c(O)c2)oc2cc(O)cc(O)c12
REMARK SMILES IDX 5 1 3 2 2 3 1 4 23 5 21 6 20 7 18 8 17 9 16 10 15 11 6 12
REMARK SMILES IDX 7 13 8 14 14 15 10 16 12 17 9 18 11 20 13 22 4 24 22 26
REMARK SMILES IDX 19 28
REMARK H PARENT 9 19 11 21 13 23 4 25 22 27 19 29
REMARK Flexibility Score: inf
ROOT
ATOM      1  C   UNL     1     -10.716  -4.114 -37.035  1.00  0.00     0.180 A 
ATOM      2  C   UNL     1     -10.680  -3.683 -35.698  1.00  0.00     0.208 A 
ATOM      3  C   UNL     1     -10.024  -4.478 -34.743  1.00  0.00     0.238 A 
ATOM      4  O   UNL     1      -9.948  -4.060 -33.558  1.00  0.00    -0.285 OA
ATOM      5  C   UNL     1      -9.426  -5.699 -35.135  1.00  0.00     0.111 A 
ATOM      6  C   UNL     1      -8.770  -6.602 -34.245  1.00  0.00     0.134 A 
ATOM      7  C   UNL     1      -8.101  -7.718 -34.763  1.00  0.00     0.093 A 
ATOM      8  C   UNL     1      -8.119  -7.998 -36.132  1.00  0.00     0.123 A 
ATOM      9  C   UNL     1      -8.807  -7.155 -37.001  1.00  0.00     0.094 A 
ATOM     10  C   UNL     1      -9.454  -6.014 -36.519  1.00  0.00     0.146 A 
ATOM     11  O   UNL     1     -10.089  -5.232 -37.384  1.00  0.00    -0.452 OA
ENDROOT
BRANCH   1  12
ATOM     12  C   UNL     1     -11.409  -3.344 -38.093  1.00  0.00     0.029 A 
ATOM     13  C   UNL     1     -12.298  -3.965 -38.986  1.00  0.00     0.062 A 
ATOM     14  C   UNL     1     -12.928  -3.225 -39.996  1.00  0.00     0.162 A 
ATOM     15  C   UNL     1     -11.131  -1.977 -38.247  1.00  0.00     0.062 A 
ATOM     16  C   UNL     1     -12.660  -1.851 -40.128  1.00  0.00     0.200 A 
ATOM     17  C   UNL     1     -11.755  -1.230 -39.250  1.00  0.00     0.162 A 
BRANCH  14  18
ATOM     18  O   UNL     1     -13.813  -3.850 -40.872  1.00  0.00    -0.504 OA
ATOM     19  H   UNL     1     -14.545  -3.333 -41.346  1.00  0.00     0.293 HD
ENDBRANCH  14  18
BRANCH  16  20
ATOM     20  O   UNL     1     -13.282  -1.097 -41.125  1.00  0.00    -0.502 OA
ATOM     21  H   UNL     1     -13.403  -0.095 -41.048  1.00  0.00     0.293 HD
ENDBRANCH  16  20
BRANCH  17  22
ATOM     22  O   UNL     1     -11.462   0.129 -39.361  1.00  0.00    -0.504 OA
ATOM     23  H   UNL     1     -10.511   0.476 -39.376  1.00  0.00     0.293 HD
ENDBRANCH  17  22
ENDBRANCH   1  12
BRANCH   2  24
ATOM     24  O   UNL     1     -11.258  -2.463 -35.337  1.00  0.00    -0.502 OA
ATOM     25  H   UNL     1     -10.705  -1.651 -35.089  1.00  0.00     0.293 HD
ENDBRANCH   2  24
BRANCH   6  26
ATOM     26  O   UNL     1      -8.770  -6.464 -32.855  1.00  0.00    -0.507 OA
ATOM     27  H   UNL     1      -9.515  -6.046 -32.317  1.00  0.00     0.293 HD
ENDBRANCH   6  26
BRANCH   8  28
ATOM     28  O   UNL     1      -7.464  -9.119 -36.636  1.00  0.00    -0.508 OA
ATOM     29  H   UNL     1      -7.021  -9.109 -37.548  1.00  0.00     0.293 HD
ENDBRANCH   8  28
TORSDOF 7
ENDMDL
