MODEL 1
REMARK VINA RESULT:    -4.068      0.000      0.000
REMARK INTER + INTRA:          -6.365
REMARK INTER:                  -5.733
REMARK INTRA:                  -0.632
REMARK UNBOUND:                -0.632
REMARK SMILES CCCCCCCCC(=O)[O-]
REMARK SMILES IDX 6 1 7 2 8 3 9 4 10 5 11 6 5 7 4 8 3 9 2 10 1 11
REMARK H PARENT
REMARK Flexibility Score: inf
ROOT
ATOM      1  C   UNL     1       9.756   5.140  27.239  1.00  0.00     0.000 C 
ENDROOT
BRANCH   1   2
ATOM      2  C   UNL     1      10.930   6.126  27.375  1.00  0.00     0.006 C 
BRANCH   2   3
ATOM      3  C   UNL     1      12.167   5.697  26.576  1.00  0.00     0.053 C 
BRANCH   3   4
ATOM      4  C   UNL     1      13.414   5.972  27.357  1.00  0.00     0.041 C 
ATOM      5  O   UNL     1      14.262   6.796  26.926  1.00  0.00    -0.550 OA
ATOM      6  O   UNL     1      13.661   5.282  28.538  1.00  0.00    -0.550 OA
ENDBRANCH   3   4
ENDBRANCH   2   3
ENDBRANCH   1   2
BRANCH   1   7
ATOM      7  C   UNL     1       9.854   3.887  28.127  1.00  0.00     0.000 C 
BRANCH   7   8
ATOM      8  C   UNL     1      10.445   4.178  29.514  1.00  0.00    -0.000 C 
BRANCH   8   9
ATOM      9  C   UNL     1       9.395   4.822  30.433  1.00  0.00    -0.000 C 
BRANCH   9  10
ATOM     10  C   UNL     1       9.797   6.233  30.891  1.00  0.00    -0.003 C 
ATOM     11  C   UNL     1       8.855   7.316  30.362  1.00  0.00     0.004 C 
ENDBRANCH   9  10
ENDBRANCH   8   9
ENDBRANCH   7   8
ENDBRANCH   1   7
TORSDOF 7
ENDMDL
MODEL 2
REMARK VINA RESULT:    -4.038     14.522     16.235
REMARK INTER + INTRA:          -6.323
REMARK INTER:                  -5.602
REMARK INTRA:                  -0.721
REMARK UNBOUND:                -0.632
REMARK SMILES CCCCCCCCC(=O)[O-]
REMARK SMILES IDX 6 1 7 2 8 3 9 4 10 5 11 6 5 7 4 8 3 9 2 10 1 11
REMARK H PARENT
REMARK Flexibility Score: inf
ROOT
ATOM      1  C   UNL     1       8.246   7.397  14.423  1.00  0.00     0.000 C 
ENDROOT
BRANCH   1   2
ATOM      2  C   UNL     1       7.098   7.427  15.449  1.00  0.00     0.006 C 
BRANCH   2   3
ATOM      3  C   UNL     1       6.132   6.245  15.299  1.00  0.00     0.053 C 
BRANCH   3   4
ATOM      4  C   UNL     1       4.714   6.715  15.389  1.00  0.00     0.041 C 
ATOM      5  O   UNL     1       4.388   7.835  14.915  1.00  0.00    -0.550 OA
ATOM      6  O   UNL     1       3.764   5.937  16.039  1.00  0.00    -0.550 OA
ENDBRANCH   3   4
ENDBRANCH   2   3
ENDBRANCH   1   2
BRANCH   1   7
ATOM      7  C   UNL     1       8.222   8.536  13.388  1.00  0.00     0.000 C 
BRANCH   7   8
ATOM      8  C   UNL     1       8.170   8.030  11.939  1.00  0.00    -0.000 C 
BRANCH   8   9
ATOM      9  C   UNL     1       7.872   6.523  11.895  1.00  0.00    -0.000 C 
BRANCH   9  10
ATOM     10  C   UNL     1       6.684   6.182  10.983  1.00  0.00    -0.003 C 
ATOM     11  C   UNL     1       5.333   6.408  11.664  1.00  0.00     0.004 C 
ENDBRANCH   9  10
ENDBRANCH   8   9
ENDBRANCH   7   8
ENDBRANCH   1   7
TORSDOF 7
ENDMDL
MODEL 3
REMARK VINA RESULT:    -4.014      0.950      1.550
REMARK INTER + INTRA:          -6.289
REMARK INTER:                  -5.617
REMARK INTRA:                  -0.672
REMARK UNBOUND:                -0.632
REMARK SMILES CCCCCCCCC(=O)[O-]
REMARK SMILES IDX 6 1 7 2 8 3 9 4 10 5 11 6 5 7 4 8 3 9 2 10 1 11
REMARK H PARENT
REMARK Flexibility Score: inf
ROOT
ATOM      1  C   UNL     1       9.617   4.472  28.337  1.00  0.00     0.000 C 
ENDROOT
BRANCH   1   2
ATOM      2  C   UNL     1      10.490   4.952  27.162  1.00  0.00     0.006 C 
BRANCH   2   3
ATOM      3  C   UNL     1      11.485   6.047  27.565  1.00  0.00     0.053 C 
BRANCH   3   4
ATOM      4  C   UNL     1      12.888   5.599  27.302  1.00  0.00     0.041 C 
ATOM      5  O   UNL     1      13.706   5.490  28.253  1.00  0.00    -0.550 OA
ATOM      6  O   UNL     1      13.305   5.349  26.001  1.00  0.00    -0.550 OA
ENDBRANCH   3   4
ENDBRANCH   2   3
ENDBRANCH   1   2
BRANCH   1   7
ATOM      7  C   UNL     1      10.391   4.133  29.624  1.00  0.00     0.000 C 
BRANCH   7   8
ATOM      8  C   UNL     1       9.981   5.007  30.818  1.00  0.00    -0.000 C 
BRANCH   8   9
ATOM      9  C   UNL     1       8.948   6.064  30.396  1.00  0.00    -0.000 C 
BRANCH   9  10
ATOM     10  C   UNL     1       9.319   7.476  30.876  1.00  0.00    -0.003 C 
ATOM     11  C   UNL     1       9.452   8.474  29.725  1.00  0.00     0.004 C 
ENDBRANCH   9  10
ENDBRANCH   8   9
ENDBRANCH   7   8
ENDBRANCH   1   7
TORSDOF 7
ENDMDL
MODEL 4
REMARK VINA RESULT:    -4.000      1.438      2.687
REMARK INTER + INTRA:          -6.269
REMARK INTER:                  -5.558
REMARK INTRA:                  -0.712
REMARK UNBOUND:                -0.632
REMARK SMILES CCCCCCCCC(=O)[O-]
REMARK SMILES IDX 6 1 7 2 8 3 9 4 10 5 11 6 5 7 4 8 3 9 2 10 1 11
REMARK H PARENT
REMARK Flexibility Score: inf
ROOT
ATOM      1  C   UNL     1      10.587   8.127  27.740  1.00  0.00     0.000 C 
ENDROOT
BRANCH   1   2
ATOM      2  C   UNL     1      10.996   7.094  26.674  1.00  0.00     0.006 C 
BRANCH   2   3
ATOM      3  C   UNL     1      12.514   7.021  26.466  1.00  0.00     0.053 C 
BRANCH   3   4
ATOM      4  C   UNL     1      13.034   5.683  26.890  1.00  0.00     0.041 C 
ATOM      5  O   UNL     1      13.091   5.384  28.112  1.00  0.00    -0.550 OA
ATOM      6  O   UNL     1      13.500   4.785  25.938  1.00  0.00    -0.550 OA
ENDBRANCH   3   4
ENDBRANCH   2   3
ENDBRANCH   1   2
BRANCH   1   7
ATOM      7  C   UNL     1       9.450   7.679  28.676  1.00  0.00     0.000 C 
BRANCH   7   8
ATOM      8  C   UNL     1       8.956   6.255  28.381  1.00  0.00    -0.000 C 
BRANCH   8   9
ATOM      9  C   UNL     1       9.348   5.293  29.513  1.00  0.00    -0.000 C 
BRANCH   9  10
ATOM     10  C   UNL     1       9.936   3.973  28.989  1.00  0.00    -0.003 C 
ATOM     11  C   UNL     1       9.670   3.759  27.498  1.00  0.00     0.004 C 
ENDBRANCH   9  10
ENDBRANCH   8   9
ENDBRANCH   7   8
ENDBRANCH   1   7
TORSDOF 7
ENDMDL
MODEL 5
REMARK VINA RESULT:    -3.980      1.261      2.196
REMARK INTER + INTRA:          -6.241
REMARK INTER:                  -5.588
REMARK INTRA:                  -0.653
REMARK UNBOUND:                -0.632
REMARK SMILES CCCCCCCCC(=O)[O-]
REMARK SMILES IDX 6 1 7 2 8 3 9 4 10 5 11 6 5 7 4 8 3 9 2 10 1 11
REMARK H PARENT
REMARK Flexibility Score: inf
ROOT
ATOM      1  C   UNL     1      10.017   6.861  27.272  1.00  0.00     0.000 C 
ENDROOT
BRANCH   1   2
ATOM      2  C   UNL     1      10.882   5.631  26.941  1.00  0.00     0.006 C 
BRANCH   2   3
ATOM      3  C   UNL     1      12.175   5.571  27.764  1.00  0.00     0.053 C 
BRANCH   3   4
ATOM      4  C   UNL     1      13.368   5.718  26.873  1.00  0.00     0.041 C 
ATOM      5  O   UNL     1      13.560   4.904  25.932  1.00  0.00    -0.550 OA
ATOM      6  O   UNL     1      14.293   6.727  27.112  1.00  0.00    -0.550 OA
ENDBRANCH   3   4
ENDBRANCH   2   3
ENDBRANCH   1   2
BRANCH   1   7
ATOM      7  C   UNL     1       8.892   6.608  28.292  1.00  0.00     0.000 C 
BRANCH   7   8
ATOM      8  C   UNL     1       9.000   7.499  29.538  1.00  0.00    -0.000 C 
BRANCH   8   9
ATOM      9  C   UNL     1       9.409   6.675  30.769  1.00  0.00    -0.000 C 
BRANCH   9  10
ATOM     10  C   UNL     1       9.485   5.170  30.473  1.00  0.00    -0.003 C 
ATOM     11  C   UNL     1      10.767   4.527  31.005  1.00  0.00     0.004 C 
ENDBRANCH   9  10
ENDBRANCH   8   9
ENDBRANCH   7   8
ENDBRANCH   1   7
TORSDOF 7
ENDMDL
MODEL 6
REMARK VINA RESULT:    -3.936     14.243     15.984
REMARK INTER + INTRA:          -6.179
REMARK INTER:                  -5.461
REMARK INTRA:                  -0.718
REMARK UNBOUND:                -0.632
REMARK SMILES CCCCCCCCC(=O)[O-]
REMARK SMILES IDX 6 1 7 2 8 3 9 4 10 5 11 6 5 7 4 8 3 9 2 10 1 11
REMARK H PARENT
REMARK Flexibility Score: inf
ROOT
ATOM      1  C   UNL     1       7.058   7.604  15.535  1.00  0.00     0.000 C 
ENDROOT
BRANCH   1   2
ATOM      2  C   UNL     1       5.712   8.081  14.959  1.00  0.00     0.006 C 
BRANCH   2   3
ATOM      3  C   UNL     1       4.745   6.928  14.666  1.00  0.00     0.053 C 
BRANCH   3   4
ATOM      4  C   UNL     1       3.830   6.705  15.829  1.00  0.00     0.041 C 
ATOM      5  O   UNL     1       3.756   5.570  16.368  1.00  0.00    -0.550 OA
ATOM      6  O   UNL     1       3.024   7.740  16.287  1.00  0.00    -0.550 OA
ENDBRANCH   3   4
ENDBRANCH   2   3
ENDBRANCH   1   2
BRANCH   1   7
ATOM      7  C   UNL     1       8.163   7.366  14.490  1.00  0.00     0.000 C 
BRANCH   7   8
ATOM      8  C   UNL     1       8.210   8.453  13.407  1.00  0.00    -0.000 C 
BRANCH   8   9
ATOM      9  C   UNL     1       8.026   7.843  12.009  1.00  0.00    -0.000 C 
BRANCH   9  10
ATOM     10  C   UNL     1       7.755   6.332  12.054  1.00  0.00    -0.003 C 
ATOM     11  C   UNL     1       6.400   5.956  11.454  1.00  0.00     0.004 C 
ENDBRANCH   9  10
ENDBRANCH   8   9
ENDBRANCH   7   8
ENDBRANCH   1   7
TORSDOF 7
ENDMDL
MODEL 7
REMARK VINA RESULT:    -3.840     15.059     16.420
REMARK INTER + INTRA:          -6.043
REMARK INTER:                  -5.413
REMARK INTRA:                  -0.630
REMARK UNBOUND:                -0.632
REMARK SMILES CCCCCCCCC(=O)[O-]
REMARK SMILES IDX 6 1 7 2 8 3 9 4 10 5 11 6 5 7 4 8 3 9 2 10 1 11
REMARK H PARENT
REMARK Flexibility Score: inf
ROOT
ATOM      1  C   UNL     1       8.179   8.336  13.295  1.00  0.00     0.000 C 
ENDROOT
BRANCH   1   2
ATOM      2  C   UNL     1       8.128   7.495  12.006  1.00  0.00     0.006 C 
BRANCH   2   3
ATOM      3  C   UNL     1       6.845   7.720  11.197  1.00  0.00     0.053 C 
BRANCH   3   4
ATOM      4  C   UNL     1       6.094   6.435  11.041  1.00  0.00     0.041 C 
ATOM      5  O   UNL     1       4.846   6.446  10.881  1.00  0.00    -0.550 OA
ATOM      6  O   UNL     1       6.768   5.223  11.121  1.00  0.00    -0.550 OA
ENDBRANCH   3   4
ENDBRANCH   2   3
ENDBRANCH   1   2
BRANCH   1   7
ATOM      7  C   UNL     1       8.213   7.522  14.601  1.00  0.00     0.000 C 
BRANCH   7   8
ATOM      8  C   UNL     1       7.398   6.224  14.520  1.00  0.00    -0.000 C 
BRANCH   8   9
ATOM      9  C   UNL     1       6.080   6.353  15.300  1.00  0.00    -0.000 C 
BRANCH   9  10
ATOM     10  C   UNL     1       4.940   6.925  14.444  1.00  0.00    -0.003 C 
ATOM     11  C   UNL     1       3.831   7.560  15.284  1.00  0.00     0.004 C 
ENDBRANCH   9  10
ENDBRANCH   8   9
ENDBRANCH   7   8
ENDBRANCH   1   7
TORSDOF 7
ENDMDL
MODEL 8
REMARK VINA RESULT:    -3.747     14.570     15.931
REMARK INTER + INTRA:          -5.912
REMARK INTER:                  -5.338
REMARK INTRA:                  -0.574
REMARK UNBOUND:                -0.632
REMARK SMILES CCCCCCCCC(=O)[O-]
REMARK SMILES IDX 6 1 7 2 8 3 9 4 10 5 11 6 5 7 4 8 3 9 2 10 1 11
REMARK H PARENT
REMARK Flexibility Score: inf
ROOT
ATOM      1  C   UNL     1       8.223   7.550  14.566  1.00  0.00     0.000 C 
ENDROOT
BRANCH   1   2
ATOM      2  C   UNL     1       8.018   8.275  13.223  1.00  0.00     0.006 C 
BRANCH   2   3
ATOM      3  C   UNL     1       8.207   7.354  12.012  1.00  0.00     0.053 C 
BRANCH   3   4
ATOM      4  C   UNL     1       6.932   6.635  11.700  1.00  0.00     0.041 C 
ATOM      5  O   UNL     1       6.061   7.178  10.971  1.00  0.00    -0.550 OA
ATOM      6  O   UNL     1       6.686   5.385  12.254  1.00  0.00    -0.550 OA
ENDBRANCH   3   4
ENDBRANCH   2   3
ENDBRANCH   1   2
BRANCH   1   7
ATOM      7  C   UNL     1       7.164   7.859  15.640  1.00  0.00     0.000 C 
BRANCH   7   8
ATOM      8  C   UNL     1       5.968   8.650  15.093  1.00  0.00    -0.000 C 
BRANCH   8   9
ATOM      9  C   UNL     1       4.708   8.391  15.934  1.00  0.00    -0.000 C 
BRANCH   9  10
ATOM     10  C   UNL     1       3.524   7.899  15.087  1.00  0.00    -0.003 C 
ATOM     11  C   UNL     1       3.945   6.910  14.000  1.00  0.00     0.004 C 
ENDBRANCH   9  10
ENDBRANCH   8   9
ENDBRANCH   7   8
ENDBRANCH   1   7
TORSDOF 7
ENDMDL
