MODEL 1
REMARK VINA RESULT:    -4.063      0.000      0.000
REMARK INTER + INTRA:          -4.181
REMARK INTER:                  -4.181
REMARK INTRA:                   0.000
REMARK UNBOUND:                 0.000
REMARK SMILES O=c1ccc2cc(O)ccc2o1
REMARK SMILES IDX 9 1 10 2 11 3 5 4 4 5 3 6 2 7 1 8 12 9 6 10 7 11 8 12
REMARK H PARENT 8 13
REMARK Flexibility Score: inf
ROOT
ATOM      1  C   UNL     1      -9.620  -1.070   5.219  1.00  0.00     0.050 A 
ATOM      2  C   UNL     1      -8.467  -1.071   6.010  1.00  0.00     0.052 A 
ATOM      3  C   UNL     1      -8.566  -1.245   7.394  1.00  0.00     0.138 A 
ATOM      4  C   UNL     1      -9.835  -1.420   7.989  1.00  0.00     0.021 A 
ATOM      5  C   UNL     1      -9.903  -1.592   9.375  1.00  0.00     0.019 A 
ATOM      6  C   UNL     1      -8.726  -1.585  10.125  1.00  0.00     0.094 A 
ATOM      7  C   UNL     1      -7.504  -1.407   9.467  1.00  0.00     0.336 A 
ATOM      8  O   UNL     1      -6.432  -1.397  10.125  1.00  0.00    -0.246 OA
ATOM      9  O   UNL     1      -7.468  -1.245   8.146  1.00  0.00    -0.423 OA
ATOM     10  C   UNL     1     -10.988  -1.418   7.192  1.00  0.00     0.058 A 
ATOM     11  C   UNL     1     -10.879  -1.243   5.805  1.00  0.00     0.116 A 
ENDROOT
BRANCH  11  12
ATOM     12  O   UNL     1     -12.017  -1.239   4.999  1.00  0.00    -0.508 OA
ATOM     13  H   UNL     1     -12.362  -0.386   4.575  1.00  0.00     0.293 HD
ENDBRANCH  11  12
TORSDOF 1
ENDMDL
MODEL 2
REMARK VINA RESULT:    -3.924     11.290     14.178
REMARK INTER + INTRA:          -4.039
REMARK INTER:                  -4.039
REMARK INTRA:                   0.000
REMARK UNBOUND:                 0.000
REMARK SMILES O=c1ccc2cc(O)ccc2o1
REMARK SMILES IDX 9 1 10 2 11 3 5 4 4 5 3 6 2 7 1 8 12 9 6 10 7 11 8 12
REMARK H PARENT 8 13
REMARK Flexibility Score: inf
ROOT
ATOM      1  C   UNL     1     -12.022   4.239  -2.184  1.00  0.00     0.050 A 
ATOM      2  C   UNL     1     -12.124   4.978  -3.366  1.00  0.00     0.052 A 
ATOM      3  C   UNL     1     -11.995   4.341  -4.605  1.00  0.00     0.138 A 
ATOM      4  C   UNL     1     -11.759   2.949  -4.655  1.00  0.00     0.021 A 
ATOM      5  C   UNL     1     -11.634   2.340  -5.908  1.00  0.00     0.019 A 
ATOM      6  C   UNL     1     -11.743   3.116  -7.061  1.00  0.00     0.094 A 
ATOM      7  C   UNL     1     -11.977   4.490  -6.934  1.00  0.00     0.336 A 
ATOM      8  O   UNL     1     -12.078   5.207  -7.963  1.00  0.00    -0.246 OA
ATOM      9  O   UNL     1     -12.093   5.045  -5.730  1.00  0.00    -0.423 OA
ATOM     10  C   UNL     1     -11.657   2.213  -3.467  1.00  0.00     0.058 A 
ATOM     11  C   UNL     1     -11.788   2.860  -2.229  1.00  0.00     0.116 A 
ENDROOT
BRANCH  11  12
ATOM     12  O   UNL     1     -11.689   2.142  -1.039  1.00  0.00    -0.508 OA
ATOM     13  H   UNL     1     -12.398   1.471  -0.765  1.00  0.00     0.293 HD
ENDBRANCH  11  12
TORSDOF 1
ENDMDL
MODEL 3
REMARK VINA RESULT:    -3.892     10.259     12.926
REMARK INTER + INTRA:          -4.006
REMARK INTER:                  -4.006
REMARK INTRA:                   0.000
REMARK UNBOUND:                 0.000
REMARK SMILES O=c1ccc2cc(O)ccc2o1
REMARK SMILES IDX 9 1 10 2 11 3 5 4 4 5 3 6 2 7 1 8 12 9 6 10 7 11 8 12
REMARK H PARENT 8 13
REMARK Flexibility Score: inf
ROOT
ATOM      1  C   UNL     1     -11.578   1.811  -2.789  1.00  0.00     0.050 A 
ATOM      2  C   UNL     1     -11.584   2.692  -3.875  1.00  0.00     0.052 A 
ATOM      3  C   UNL     1     -11.766   4.063  -3.665  1.00  0.00     0.138 A 
ATOM      4  C   UNL     1     -11.944   4.553  -2.352  1.00  0.00     0.021 A 
ATOM      5  C   UNL     1     -12.124   5.928  -2.174  1.00  0.00     0.019 A 
ATOM      6  C   UNL     1     -12.124   6.770  -3.286  1.00  0.00     0.094 A 
ATOM      7  C   UNL     1     -11.941   6.213  -4.557  1.00  0.00     0.336 A 
ATOM      8  O   UNL     1     -11.938   6.955  -5.573  1.00  0.00    -0.246 OA
ATOM      9  O   UNL     1     -11.772   4.900  -4.699  1.00  0.00    -0.423 OA
ATOM     10  C   UNL     1     -11.937   3.666  -1.267  1.00  0.00     0.058 A 
ATOM     11  C   UNL     1     -11.754   2.292  -1.487  1.00  0.00     0.116 A 
ENDROOT
BRANCH  11  12
ATOM     12  O   UNL     1     -11.745   1.398  -0.418  1.00  0.00    -0.508 OA
ATOM     13  H   UNL     1     -12.464   1.418   0.295  1.00  0.00     0.293 HD
ENDBRANCH  11  12
TORSDOF 1
ENDMDL
MODEL 4
REMARK VINA RESULT:    -3.801     10.832     13.186
REMARK INTER + INTRA:          -3.912
REMARK INTER:                  -3.912
REMARK INTRA:                   0.000
REMARK UNBOUND:                 0.000
REMARK SMILES O=c1ccc2cc(O)ccc2o1
REMARK SMILES IDX 9 1 10 2 11 3 5 4 4 5 3 6 2 7 1 8 12 9 6 10 7 11 8 12
REMARK H PARENT 8 13
REMARK Flexibility Score: inf
ROOT
ATOM      1  C   UNL     1     -12.124   7.758  -2.765  1.00  0.00     0.050 A 
ATOM      2  C   UNL     1     -12.125   6.711  -1.837  1.00  0.00     0.052 A 
ATOM      3  C   UNL     1     -12.120   5.384  -2.278  1.00  0.00     0.138 A 
ATOM      4  C   UNL     1     -12.116   5.106  -3.664  1.00  0.00     0.021 A 
ATOM      5  C   UNL     1     -12.111   3.769  -4.074  1.00  0.00     0.019 A 
ATOM      6  C   UNL     1     -12.113   2.757  -3.114  1.00  0.00     0.094 A 
ATOM      7  C   UNL     1     -12.117   3.108  -1.760  1.00  0.00     0.336 A 
ATOM      8  O   UNL     1     -12.119   2.210  -0.878  1.00  0.00    -0.246 OA
ATOM      9  O   UNL     1     -12.121   4.389  -1.395  1.00  0.00    -0.423 OA
ATOM     10  C   UNL     1     -12.115   6.158  -4.589  1.00  0.00     0.058 A 
ATOM     11  C   UNL     1     -12.120   7.487  -4.138  1.00  0.00     0.116 A 
ENDROOT
BRANCH  11  12
ATOM     12  O   UNL     1     -12.119   8.544  -5.046  1.00  0.00    -0.508 OA
ATOM     13  H   UNL     1     -12.601   9.413  -4.846  1.00  0.00     0.293 HD
ENDBRANCH  11  12
TORSDOF 1
ENDMDL
MODEL 5
REMARK VINA RESULT:    -3.749      3.282      4.821
REMARK INTER + INTRA:          -3.859
REMARK INTER:                  -3.859
REMARK INTRA:                   0.000
REMARK UNBOUND:                 0.000
REMARK SMILES O=c1ccc2cc(O)ccc2o1
REMARK SMILES IDX 9 1 10 2 11 3 5 4 4 5 3 6 2 7 1 8 12 9 6 10 7 11 8 12
REMARK H PARENT 8 13
REMARK Flexibility Score: inf
ROOT
ATOM      1  C   UNL     1      -8.118  -1.369   8.416  1.00  0.00     0.050 A 
ATOM      2  C   UNL     1      -8.985  -0.428   7.851  1.00  0.00     0.052 A 
ATOM      3  C   UNL     1      -9.094   0.849   8.413  1.00  0.00     0.138 A 
ATOM      4  C   UNL     1      -8.327   1.182   9.552  1.00  0.00     0.021 A 
ATOM      5  C   UNL     1      -8.459   2.465  10.091  1.00  0.00     0.019 A 
ATOM      6  C   UNL     1      -9.335   3.372   9.495  1.00  0.00     0.094 A 
ATOM      7  C   UNL     1     -10.062   2.972   8.368  1.00  0.00     0.336 A 
ATOM      8  O   UNL     1     -10.858   3.776   7.817  1.00  0.00    -0.246 OA
ATOM      9  O   UNL     1      -9.919   1.744   7.875  1.00  0.00    -0.423 OA
ATOM     10  C   UNL     1      -7.461   0.234  10.114  1.00  0.00     0.058 A 
ATOM     11  C   UNL     1      -7.357  -1.044   9.544  1.00  0.00     0.116 A 
ENDROOT
BRANCH  11  12
ATOM     12  O   UNL     1      -6.500  -1.997  10.091  1.00  0.00    -0.508 OA
ATOM     13  H   UNL     1      -6.790  -2.590  10.860  1.00  0.00     0.293 HD
ENDBRANCH  11  12
TORSDOF 1
ENDMDL
MODEL 6
REMARK VINA RESULT:    -3.726     18.605     19.346
REMARK INTER + INTRA:          -3.835
REMARK INTER:                  -3.835
REMARK INTRA:                   0.000
REMARK UNBOUND:                 0.000
REMARK SMILES O=c1ccc2cc(O)ccc2o1
REMARK SMILES IDX 9 1 10 2 11 3 5 4 4 5 3 6 2 7 1 8 12 9 6 10 7 11 8 12
REMARK H PARENT 8 13
REMARK Flexibility Score: inf
ROOT
ATOM      1  C   UNL     1      -1.603  -4.030  -9.088  1.00  0.00     0.050 A 
ATOM      2  C   UNL     1      -0.435  -3.262  -9.061  1.00  0.00     0.052 A 
ATOM      3  C   UNL     1       0.773  -3.838  -8.656  1.00  0.00     0.138 A 
ATOM      4  C   UNL     1       0.808  -5.198  -8.274  1.00  0.00     0.021 A 
ATOM      5  C   UNL     1       2.031  -5.745  -7.874  1.00  0.00     0.019 A 
ATOM      6  C   UNL     1       3.171  -4.942  -7.862  1.00  0.00     0.094 A 
ATOM      7  C   UNL     1       3.061  -3.603  -8.254  1.00  0.00     0.336 A 
ATOM      8  O   UNL     1       4.077  -2.862  -8.251  1.00  0.00    -0.246 OA
ATOM      9  O   UNL     1       1.885  -3.106  -8.631  1.00  0.00    -0.423 OA
ATOM     10  C   UNL     1      -0.366  -5.963  -8.302  1.00  0.00     0.058 A 
ATOM     11  C   UNL     1      -1.573  -5.377  -8.710  1.00  0.00     0.116 A 
ENDROOT
BRANCH  11  12
ATOM     12  O   UNL     1      -2.749  -6.125  -8.743  1.00  0.00    -0.508 OA
ATOM     13  H   UNL     1      -2.946  -6.832  -8.045  1.00  0.00     0.293 HD
ENDBRANCH  11  12
TORSDOF 1
ENDMDL
MODEL 7
REMARK VINA RESULT:    -3.724     19.059     20.206
REMARK INTER + INTRA:          -3.833
REMARK INTER:                  -3.833
REMARK INTRA:                   0.000
REMARK UNBOUND:                 0.000
REMARK SMILES O=c1ccc2cc(O)ccc2o1
REMARK SMILES IDX 9 1 10 2 11 3 5 4 4 5 3 6 2 7 1 8 12 9 6 10 7 11 8 12
REMARK H PARENT 8 13
REMARK Flexibility Score: inf
ROOT
ATOM      1  C   UNL     1       5.666  -5.399  -3.438  1.00  0.00     0.050 A 
ATOM      2  C   UNL     1       4.894  -4.628  -4.312  1.00  0.00     0.052 A 
ATOM      3  C   UNL     1       5.418  -3.453  -4.861  1.00  0.00     0.138 A 
ATOM      4  C   UNL     1       6.731  -3.050  -4.528  1.00  0.00     0.021 A 
ATOM      5  C   UNL     1       7.228  -1.871  -5.092  1.00  0.00     0.019 A 
ATOM      6  C   UNL     1       6.422  -1.133  -5.959  1.00  0.00     0.094 A 
ATOM      7  C   UNL     1       5.132  -1.594  -6.243  1.00  0.00     0.336 A 
ATOM      8  O   UNL     1       4.390  -0.943  -7.023  1.00  0.00    -0.246 OA
ATOM      9  O   UNL     1       4.683  -2.720  -5.693  1.00  0.00    -0.423 OA
ATOM     10  C   UNL     1       7.501  -3.826  -3.650  1.00  0.00     0.058 A 
ATOM     11  C   UNL     1       6.966  -5.003  -3.104  1.00  0.00     0.116 A 
ENDROOT
BRANCH  11  12
ATOM     12  O   UNL     1       7.719  -5.785  -2.231  1.00  0.00    -0.508 OA
ATOM     13  H   UNL     1       8.541  -5.418  -1.766  1.00  0.00     0.293 HD
ENDBRANCH  11  12
TORSDOF 1
ENDMDL
MODEL 8
REMARK VINA RESULT:    -3.675     18.680     19.076
REMARK INTER + INTRA:          -3.783
REMARK INTER:                  -3.783
REMARK INTRA:                   0.000
REMARK UNBOUND:                 0.000
REMARK SMILES O=c1ccc2cc(O)ccc2o1
REMARK SMILES IDX 9 1 10 2 11 3 5 4 4 5 3 6 2 7 1 8 12 9 6 10 7 11 8 12
REMARK H PARENT 8 13
REMARK Flexibility Score: inf
ROOT
ATOM      1  C   UNL     1      -1.023  -2.007  -9.378  1.00  0.00     0.050 A 
ATOM      2  C   UNL     1       0.296  -2.282  -9.005  1.00  0.00     0.052 A 
ATOM      3  C   UNL     1       0.664  -3.579  -8.634  1.00  0.00     0.138 A 
ATOM      4  C   UNL     1      -0.303  -4.610  -8.637  1.00  0.00     0.021 A 
ATOM      5  C   UNL     1       0.094  -5.896  -8.261  1.00  0.00     0.019 A 
ATOM      6  C   UNL     1       1.421  -6.125  -7.896  1.00  0.00     0.094 A 
ATOM      7  C   UNL     1       2.324  -5.056  -7.917  1.00  0.00     0.336 A 
ATOM      8  O   UNL     1       3.524  -5.241  -7.591  1.00  0.00    -0.246 OA
ATOM      9  O   UNL     1       1.920  -3.840  -8.279  1.00  0.00    -0.423 OA
ATOM     10  C   UNL     1      -1.624  -4.329  -9.012  1.00  0.00     0.058 A 
ATOM     11  C   UNL     1      -1.984  -3.024  -9.382  1.00  0.00     0.116 A 
ENDROOT
BRANCH  11  12
ATOM     12  O   UNL     1      -3.294  -2.729  -9.758  1.00  0.00    -0.508 OA
ATOM     13  H   UNL     1      -3.743  -1.866  -9.476  1.00  0.00     0.293 HD
ENDBRANCH  11  12
TORSDOF 1
ENDMDL
