MODEL 1
REMARK VINA RESULT:    -2.211      0.000      0.000
REMARK INTER + INTRA:          -4.190
REMARK INTER:                  -2.987
REMARK INTRA:                  -1.203
REMARK UNBOUND:                -1.203
REMARK SMILES CC(=O)CCC=C(C)CCC=C(C)C
REMARK SMILES IDX 7 1 6 2 8 3 9 4 10 5 11 6 13 7 12 8 14 9 5 10 4 11 2 12 3 13
REMARK SMILES IDX 1 14
REMARK H PARENT
REMARK Flexibility Score: inf
ROOT
ATOM      1  C   UNL     1      30.963  57.380   9.518  1.00  0.00    -0.077 C 
ATOM      2  C   UNL     1      32.080  58.142   9.464  1.00  0.00    -0.028 C 
ATOM      3  C   UNL     1      29.634  57.873   8.995  1.00  0.00     0.039 C 
ENDROOT
BRANCH   1   4
ATOM      4  C   UNL     1      31.052  55.983  10.099  1.00  0.00     0.034 C 
BRANCH   4   5
ATOM      5  C   UNL     1      30.327  55.875  11.448  1.00  0.00     0.032 C 
BRANCH   5   6
ATOM      6  C   UNL     1      31.147  56.466  12.572  1.00  0.00    -0.028 C 
ATOM      7  C   UNL     1      29.717  58.513  12.767  1.00  0.00     0.039 C 
ATOM      8  C   UNL     1      30.867  57.633  13.194  1.00  0.00    -0.080 C 
ATOM      9  C   UNL     1      31.751  58.066  14.334  1.00  0.00     0.039 C 
ENDBRANCH   5   6
ENDBRANCH   4   5
ENDBRANCH   1   4
BRANCH   2  10
ATOM     10  C   UNL     1      32.123  59.556   8.942  1.00  0.00     0.035 C 
BRANCH  10  11
ATOM     11  C   UNL     1      31.836  60.559  10.063  1.00  0.00     0.079 C 
BRANCH  11  12
ATOM     12  C   UNL     1      30.924  61.654   9.576  1.00  0.00     0.130 C 
ATOM     13  O   UNL     1      30.752  62.646  10.268  1.00  0.00    -0.300 OA
ATOM     14  C   UNL     1      30.210  61.548   8.259  1.00  0.00     0.087 C 
ENDBRANCH  11  12
ENDBRANCH  10  11
ENDBRANCH   2  10
TORSDOF 6
ENDMDL
MODEL 2
REMARK VINA RESULT:    -2.176      1.697      3.864
REMARK INTER + INTRA:          -4.142
REMARK INTER:                  -2.752
REMARK INTRA:                  -1.390
REMARK UNBOUND:                -1.203
REMARK SMILES CC(=O)CCC=C(C)CCC=C(C)C
REMARK SMILES IDX 7 1 6 2 8 3 9 4 10 5 11 6 13 7 12 8 14 9 5 10 4 11 2 12 3 13
REMARK SMILES IDX 1 14
REMARK H PARENT
REMARK Flexibility Score: inf
ROOT
ATOM      1  C   UNL     1      30.497  57.219  13.407  1.00  0.00    -0.077 C 
ATOM      2  C   UNL     1      31.372  58.066  13.998  1.00  0.00    -0.028 C 
ATOM      3  C   UNL     1      29.004  57.431  13.487  1.00  0.00     0.039 C 
ENDROOT
BRANCH   1   4
ATOM      4  C   UNL     1      31.031  56.035  12.626  1.00  0.00     0.034 C 
BRANCH   4   5
ATOM      5  C   UNL     1      30.611  56.085  11.150  1.00  0.00     0.032 C 
BRANCH   5   6
ATOM      6  C   UNL     1      31.495  57.012  10.348  1.00  0.00    -0.028 C 
ATOM      7  C   UNL     1      29.704  58.737  10.048  1.00  0.00     0.039 C 
ATOM      8  C   UNL     1      31.112  58.218   9.874  1.00  0.00    -0.080 C 
ATOM      9  C   UNL     1      32.125  59.052   9.133  1.00  0.00     0.039 C 
ENDBRANCH   5   6
ENDBRANCH   4   5
ENDBRANCH   1   4
BRANCH   2  10
ATOM     10  C   UNL     1      30.975  59.260  14.828  1.00  0.00     0.035 C 
BRANCH  10  11
ATOM     11  C   UNL     1      31.538  60.551  14.229  1.00  0.00     0.079 C 
BRANCH  11  12
ATOM     12  C   UNL     1      30.693  61.013  13.072  1.00  0.00     0.130 C 
ATOM     13  O   UNL     1      29.475  60.961  13.158  1.00  0.00    -0.300 OA
ATOM     14  C   UNL     1      31.315  61.530  11.807  1.00  0.00     0.087 C 
ENDBRANCH  11  12
ENDBRANCH  10  11
ENDBRANCH   2  10
TORSDOF 6
ENDMDL
MODEL 3
REMARK VINA RESULT:    -2.137      2.199      4.476
REMARK INTER + INTRA:          -4.090
REMARK INTER:                  -2.567
REMARK INTRA:                  -1.522
REMARK UNBOUND:                -1.203
REMARK SMILES CC(=O)CCC=C(C)CCC=C(C)C
REMARK SMILES IDX 7 1 6 2 8 3 9 4 10 5 11 6 13 7 12 8 14 9 5 10 4 11 2 12 3 13
REMARK SMILES IDX 1 14
REMARK H PARENT
REMARK Flexibility Score: inf
ROOT
ATOM      1  C   UNL     1      30.712  56.491  12.592  1.00  0.00    -0.077 C 
ATOM      2  C   UNL     1      29.443  56.912  12.802  1.00  0.00    -0.028 C 
ATOM      3  C   UNL     1      31.775  56.597  13.660  1.00  0.00     0.039 C 
ENDROOT
BRANCH   1   4
ATOM      4  C   UNL     1      31.072  55.876  11.254  1.00  0.00     0.034 C 
BRANCH   4   5
ATOM      5  C   UNL     1      30.645  56.768  10.079  1.00  0.00     0.032 C 
BRANCH   5   6
ATOM      6  C   UNL     1      31.475  58.028  10.002  1.00  0.00    -0.028 C 
ATOM      7  C   UNL     1      29.495  59.549  10.197  1.00  0.00     0.039 C 
ATOM      8  C   UNL     1      30.977  59.281  10.084  1.00  0.00    -0.080 C 
ATOM      9  C   UNL     1      31.940  60.439  10.042  1.00  0.00     0.039 C 
ENDBRANCH   5   6
ENDBRANCH   4   5
ENDBRANCH   1   4
BRANCH   2  10
ATOM     10  C   UNL     1      28.962  57.569  14.072  1.00  0.00     0.035 C 
BRANCH  10  11
ATOM     11  C   UNL     1      28.875  59.087  13.900  1.00  0.00     0.079 C 
BRANCH  11  12
ATOM     12  C   UNL     1      30.061  59.763  14.535  1.00  0.00     0.130 C 
ATOM     13  O   UNL     1      30.127  59.843  15.752  1.00  0.00    -0.300 OA
ATOM     14  C   UNL     1      31.163  60.352  13.703  1.00  0.00     0.087 C 
ENDBRANCH  11  12
ENDBRANCH  10  11
ENDBRANCH   2  10
TORSDOF 6
ENDMDL
MODEL 4
REMARK VINA RESULT:    -2.086      1.954      4.354
REMARK INTER + INTRA:          -4.021
REMARK INTER:                  -2.663
REMARK INTRA:                  -1.358
REMARK UNBOUND:                -1.203
REMARK SMILES CC(=O)CCC=C(C)CCC=C(C)C
REMARK SMILES IDX 7 1 6 2 8 3 9 4 10 5 11 6 13 7 12 8 14 9 5 10 4 11 2 12 3 13
REMARK SMILES IDX 1 14
REMARK H PARENT
REMARK Flexibility Score: inf
ROOT
ATOM      1  C   UNL     1      30.820  56.978  10.947  1.00  0.00    -0.077 C 
ATOM      2  C   UNL     1      31.370  56.814  12.173  1.00  0.00    -0.028 C 
ATOM      3  C   UNL     1      29.335  56.827  10.712  1.00  0.00     0.039 C 
ENDROOT
BRANCH   1   4
ATOM      4  C   UNL     1      31.716  57.346   9.781  1.00  0.00     0.034 C 
BRANCH   4   5
ATOM      5  C   UNL     1      31.239  58.621   9.071  1.00  0.00     0.032 C 
BRANCH   5   6
ATOM      6  C   UNL     1      31.841  59.863   9.686  1.00  0.00    -0.028 C 
ATOM      7  C   UNL     1      29.709  60.547  10.808  1.00  0.00     0.039 C 
ATOM      8  C   UNL     1      31.175  60.719  10.492  1.00  0.00    -0.080 C 
ATOM      9  C   UNL     1      31.928  61.888  11.072  1.00  0.00     0.039 C 
ENDBRANCH   5   6
ENDBRANCH   4   5
ENDBRANCH   1   4
BRANCH   2  10
ATOM     10  C   UNL     1      30.599  56.419  13.407  1.00  0.00     0.035 C 
BRANCH  10  11
ATOM     11  C   UNL     1      30.892  57.379  14.563  1.00  0.00     0.079 C 
BRANCH  11  12
ATOM     12  C   UNL     1      30.418  58.769  14.232  1.00  0.00     0.130 C 
ATOM     13  O   UNL     1      29.237  58.958  13.982  1.00  0.00    -0.300 OA
ATOM     14  C   UNL     1      31.368  59.931  14.193  1.00  0.00     0.087 C 
ENDBRANCH  11  12
ENDBRANCH  10  11
ENDBRANCH   2  10
TORSDOF 6
ENDMDL
MODEL 5
REMARK VINA RESULT:    -2.023      1.897      3.037
REMARK INTER + INTRA:          -3.935
REMARK INTER:                  -2.836
REMARK INTRA:                  -1.100
REMARK UNBOUND:                -1.203
REMARK SMILES CC(=O)CCC=C(C)CCC=C(C)C
REMARK SMILES IDX 7 1 6 2 8 3 9 4 10 5 11 6 13 7 12 8 14 9 5 10 4 11 2 12 3 13
REMARK SMILES IDX 1 14
REMARK H PARENT
REMARK Flexibility Score: inf
ROOT
ATOM      1  C   UNL     1      30.244  56.090  11.950  1.00  0.00    -0.077 C 
ATOM      2  C   UNL     1      31.147  55.875  10.966  1.00  0.00    -0.028 C 
ATOM      3  C   UNL     1      28.791  56.378  11.652  1.00  0.00     0.039 C 
ENDROOT
BRANCH   1   4
ATOM      4  C   UNL     1      30.698  56.020  13.395  1.00  0.00     0.034 C 
BRANCH   4   5
ATOM      5  C   UNL     1      31.956  56.864  13.643  1.00  0.00     0.032 C 
BRANCH   5   6
ATOM      6  C   UNL     1      31.694  57.987  14.620  1.00  0.00    -0.028 C 
ATOM      7  C   UNL     1      30.955  59.590  12.843  1.00  0.00     0.039 C 
ATOM      8  C   UNL     1      31.216  59.204  14.280  1.00  0.00    -0.080 C 
ATOM      9  C   UNL     1      30.957  60.204  15.376  1.00  0.00     0.039 C 
ENDBRANCH   5   6
ENDBRANCH   4   5
ENDBRANCH   1   4
BRANCH   2  10
ATOM     10  C   UNL     1      30.835  55.947   9.492  1.00  0.00     0.035 C 
BRANCH  10  11
ATOM     11  C   UNL     1      31.778  56.923   8.784  1.00  0.00     0.079 C 
BRANCH  11  12
ATOM     12  C   UNL     1      31.344  58.346   9.018  1.00  0.00     0.130 C 
ATOM     13  O   UNL     1      32.125  59.137   9.525  1.00  0.00    -0.300 OA
ATOM     14  C   UNL     1      29.965  58.813   8.651  1.00  0.00     0.087 C 
ENDBRANCH  11  12
ENDBRANCH  10  11
ENDBRANCH   2  10
TORSDOF 6
ENDMDL
MODEL 6
REMARK VINA RESULT:    -2.013      2.271      4.107
REMARK INTER + INTRA:          -3.922
REMARK INTER:                  -2.488
REMARK INTRA:                  -1.433
REMARK UNBOUND:                -1.203
REMARK SMILES CC(=O)CCC=C(C)CCC=C(C)C
REMARK SMILES IDX 7 1 6 2 8 3 9 4 10 5 11 6 13 7 12 8 14 9 5 10 4 11 2 12 3 13
REMARK SMILES IDX 1 14
REMARK H PARENT
REMARK Flexibility Score: inf
ROOT
ATOM      1  C   UNL     1      31.177  59.294   9.475  1.00  0.00    -0.077 C 
ATOM      2  C   UNL     1      31.735  58.106   9.808  1.00  0.00    -0.028 C 
ATOM      3  C   UNL     1      29.887  59.379   8.694  1.00  0.00     0.039 C 
ENDROOT
BRANCH   1   4
ATOM      4  C   UNL     1      31.856  60.576   9.917  1.00  0.00     0.034 C 
BRANCH   4   5
ATOM      5  C   UNL     1      31.002  61.359  10.925  1.00  0.00     0.032 C 
BRANCH   5   6
ATOM      6  C   UNL     1      31.084  60.761  12.310  1.00  0.00    -0.028 C 
ATOM      7  C   UNL     1      28.743  59.874  12.251  1.00  0.00     0.039 C 
ATOM      8  C   UNL     1      30.090  60.067  12.906  1.00  0.00    -0.080 C 
ATOM      9  C   UNL     1      30.340  59.488  14.274  1.00  0.00     0.039 C 
ENDBRANCH   5   6
ENDBRANCH   4   5
ENDBRANCH   1   4
BRANCH   2  10
ATOM     10  C   UNL     1      31.181  56.762   9.406  1.00  0.00     0.035 C 
BRANCH  10  11
ATOM     11  C   UNL     1      30.961  55.876  10.634  1.00  0.00     0.079 C 
BRANCH  11  12
ATOM     12  C   UNL     1      29.704  56.277  11.361  1.00  0.00     0.130 C 
ATOM     13  O   UNL     1      29.733  56.430  12.572  1.00  0.00    -0.300 OA
ATOM     14  C   UNL     1      28.410  56.483  10.628  1.00  0.00     0.087 C 
ENDBRANCH  11  12
ENDBRANCH  10  11
ENDBRANCH   2  10
TORSDOF 6
ENDMDL
MODEL 7
REMARK VINA RESULT:    -1.989      2.503      4.988
REMARK INTER + INTRA:          -3.889
REMARK INTER:                  -3.160
REMARK INTRA:                  -0.730
REMARK UNBOUND:                -1.203
REMARK SMILES CC(=O)CCC=C(C)CCC=C(C)C
REMARK SMILES IDX 7 1 6 2 8 3 9 4 10 5 11 6 13 7 12 8 14 9 5 10 4 11 2 12 3 13
REMARK SMILES IDX 1 14
REMARK H PARENT
REMARK Flexibility Score: inf
ROOT
ATOM      1  C   UNL     1      31.688  57.984   9.833  1.00  0.00    -0.077 C 
ATOM      2  C   UNL     1      31.110  57.839  11.048  1.00  0.00    -0.028 C 
ATOM      3  C   UNL     1      31.917  56.807   8.914  1.00  0.00     0.039 C 
ENDROOT
BRANCH   1   4
ATOM      4  C   UNL     1      32.098  59.368   9.373  1.00  0.00     0.034 C 
BRANCH   4   5
ATOM      5  C   UNL     1      31.031  60.422   9.702  1.00  0.00     0.032 C 
BRANCH   5   6
ATOM      6  C   UNL     1      31.609  61.577  10.486  1.00  0.00    -0.028 C 
ATOM      7  C   UNL     1      30.571  60.852  12.647  1.00  0.00     0.039 C 
ATOM      8  C   UNL     1      31.437  61.766  11.813  1.00  0.00    -0.080 C 
ATOM      9  C   UNL     1      32.120  62.940  12.465  1.00  0.00     0.039 C 
ENDBRANCH   5   6
ENDBRANCH   4   5
ENDBRANCH   1   4
BRANCH   2  10
ATOM     10  C   UNL     1      30.685  56.518  11.639  1.00  0.00     0.035 C 
BRANCH  10  11
ATOM     11  C   UNL     1      31.710  56.025  12.663  1.00  0.00     0.079 C 
BRANCH  11  12
ATOM     12  C   UNL     1      31.324  56.459  14.052  1.00  0.00     0.130 C 
ATOM     13  O   UNL     1      32.003  57.293  14.632  1.00  0.00    -0.300 OA
ATOM     14  C   UNL     1      30.125  55.882  14.746  1.00  0.00     0.087 C 
ENDBRANCH  11  12
ENDBRANCH  10  11
ENDBRANCH   2  10
TORSDOF 6
ENDMDL
MODEL 8
REMARK VINA RESULT:    -1.923      1.258      3.270
REMARK INTER + INTRA:          -3.801
REMARK INTER:                  -2.295
REMARK INTRA:                  -1.506
REMARK UNBOUND:                -1.203
REMARK SMILES CC(=O)CCC=C(C)CCC=C(C)C
REMARK SMILES IDX 7 1 6 2 8 3 9 4 10 5 11 6 13 7 12 8 14 9 5 10 4 11 2 12 3 13
REMARK SMILES IDX 1 14
REMARK H PARENT
REMARK Flexibility Score: inf
ROOT
ATOM      1  C   UNL     1      30.007  58.848  12.653  1.00  0.00    -0.077 C 
ATOM      2  C   UNL     1      31.007  59.743  12.478  1.00  0.00    -0.028 C 
ATOM      3  C   UNL     1      28.563  59.202  12.385  1.00  0.00     0.039 C 
ENDROOT
BRANCH   1   4
ATOM      4  C   UNL     1      30.347  57.444  13.111  1.00  0.00     0.034 C 
BRANCH   4   5
ATOM      5  C   UNL     1      31.245  56.712  12.103  1.00  0.00     0.032 C 
BRANCH   5   6
ATOM      6  C   UNL     1      30.515  56.419  10.813  1.00  0.00    -0.028 C 
ATOM      7  C   UNL     1      32.033  57.850   9.428  1.00  0.00     0.039 C 
ATOM      8  C   UNL     1      30.875  56.897   9.602  1.00  0.00    -0.080 C 
ATOM      9  C   UNL     1      30.075  56.473   8.397  1.00  0.00     0.039 C 
ENDBRANCH   5   6
ENDBRANCH   4   5
ENDBRANCH   1   4
BRANCH   2  10
ATOM     10  C   UNL     1      30.804  61.177  12.058  1.00  0.00     0.035 C 
BRANCH  10  11
ATOM     11  C   UNL     1      31.156  61.365  10.580  1.00  0.00     0.079 C 
BRANCH  11  12
ATOM     12  C   UNL     1      29.908  61.502   9.749  1.00  0.00     0.130 C 
ATOM     13  O   UNL     1      29.292  62.557   9.758  1.00  0.00    -0.300 OA
ATOM     14  C   UNL     1      29.396  60.364   8.914  1.00  0.00     0.087 C 
ENDBRANCH  11  12
ENDBRANCH  10  11
ENDBRANCH   2  10
TORSDOF 6
ENDMDL
MODEL 9
REMARK VINA RESULT:    -1.875      1.554      2.050
REMARK INTER + INTRA:          -3.736
REMARK INTER:                  -2.682
REMARK INTRA:                  -1.053
REMARK UNBOUND:                -1.203
REMARK SMILES CC(=O)CCC=C(C)CCC=C(C)C
REMARK SMILES IDX 7 1 6 2 8 3 9 4 10 5 11 6 13 7 12 8 14 9 5 10 4 11 2 12 3 13
REMARK SMILES IDX 1 14
REMARK H PARENT
REMARK Flexibility Score: inf
ROOT
ATOM      1  C   UNL     1      30.344  56.513  10.788  1.00  0.00    -0.077 C 
ATOM      2  C   UNL     1      31.396  57.355  10.658  1.00  0.00    -0.028 C 
ATOM      3  C   UNL     1      29.444  56.175   9.624  1.00  0.00     0.039 C 
ENDROOT
BRANCH   1   4
ATOM      4  C   UNL     1      30.075  55.875  12.136  1.00  0.00     0.034 C 
BRANCH   4   5
ATOM      5  C   UNL     1      31.294  55.959  13.066  1.00  0.00     0.032 C 
BRANCH   5   6
ATOM      6  C   UNL     1      30.904  56.385  14.462  1.00  0.00    -0.028 C 
ATOM      7  C   UNL     1      31.363  58.809  14.036  1.00  0.00     0.039 C 
ATOM      8  C   UNL     1      30.901  57.662  14.902  1.00  0.00    -0.080 C 
ATOM      9  C   UNL     1      30.437  57.934  16.310  1.00  0.00     0.039 C 
ENDBRANCH   5   6
ENDBRANCH   4   5
ENDBRANCH   1   4
BRANCH   2  10
ATOM     10  C   UNL     1      31.756  58.079   9.385  1.00  0.00     0.035 C 
BRANCH  10  11
ATOM     11  C   UNL     1      31.800  59.592   9.614  1.00  0.00     0.079 C 
BRANCH  11  12
ATOM     12  C   UNL     1      30.414  60.137   9.838  1.00  0.00     0.130 C 
ATOM     13  O   UNL     1      29.571  60.013   8.963  1.00  0.00    -0.300 OA
ATOM     14  C   UNL     1      30.048  60.840  11.112  1.00  0.00     0.087 C 
ENDBRANCH  11  12
ENDBRANCH  10  11
ENDBRANCH   2  10
TORSDOF 6
ENDMDL
