MODEL 1
REMARK VINA RESULT:    -3.591      0.000      0.000
REMARK INTER + INTRA:          -6.203
REMARK INTER:                  -5.690
REMARK INTRA:                  -0.513
REMARK UNBOUND:                -0.513
REMARK SMILES CCCCCCCCCCCC(=O)[O-]
REMARK SMILES IDX 7 1 8 2 9 3 10 4 11 5 12 6 13 7 14 8 6 9 5 10 4 11 3 12 2 13
REMARK SMILES IDX 1 14
REMARK H PARENT
REMARK Flexibility Score: inf
ROOT
ATOM      1  C   UNL     1      -7.929   2.426  -3.638  1.00  0.00     0.000 C 
ENDROOT
BRANCH   1   2
ATOM      2  C   UNL     1      -8.991   1.819  -4.571  1.00  0.00     0.000 C 
BRANCH   2   3
ATOM      3  C   UNL     1      -8.648   0.385  -5.005  1.00  0.00     0.000 C 
BRANCH   3   4
ATOM      4  C   UNL     1      -9.096   0.080  -6.445  1.00  0.00     0.006 C 
BRANCH   4   5
ATOM      5  C   UNL     1      -9.638   1.326  -7.157  1.00  0.00     0.053 C 
BRANCH   5   6
ATOM      6  C   UNL     1      -8.719   1.787  -8.247  1.00  0.00     0.041 C 
ATOM      7  O   UNL     1      -8.921   2.888  -8.824  1.00  0.00    -0.550 OA
ATOM      8  O   UNL     1      -7.657   0.985  -8.646  1.00  0.00    -0.550 OA
ENDBRANCH   5   6
ENDBRANCH   4   5
ENDBRANCH   3   4
ENDBRANCH   2   3
ENDBRANCH   1   2
BRANCH   1   9
ATOM      9  C   UNL     1      -6.677   1.531  -3.505  1.00  0.00     0.000 C 
BRANCH   9  10
ATOM     10  C   UNL     1      -5.706   1.982  -2.398  1.00  0.00    -0.000 C 
BRANCH  10  11
ATOM     11  C   UNL     1      -6.348   2.817  -1.273  1.00  0.00    -0.000 C 
BRANCH  11  12
ATOM     12  C   UNL     1      -5.409   3.159  -0.097  1.00  0.00    -0.000 C 
BRANCH  12  13
ATOM     13  C   UNL     1      -5.216   2.031   0.931  1.00  0.00    -0.003 C 
ATOM     14  C   UNL     1      -5.282   2.523   2.376  1.00  0.00     0.004 C 
ENDBRANCH  12  13
ENDBRANCH  11  12
ENDBRANCH  10  11
ENDBRANCH   9  10
ENDBRANCH   1   9
TORSDOF 10
ENDMDL
MODEL 2
REMARK VINA RESULT:    -3.569      2.076      2.735
REMARK INTER + INTRA:          -6.169
REMARK INTER:                  -5.591
REMARK INTRA:                  -0.577
REMARK UNBOUND:                -0.513
REMARK SMILES CCCCCCCCCCCC(=O)[O-]
REMARK SMILES IDX 7 1 8 2 9 3 10 4 11 5 12 6 13 7 14 8 6 9 5 10 4 11 3 12 2 13
REMARK SMILES IDX 1 14
REMARK H PARENT
REMARK Flexibility Score: inf
ROOT
ATOM      1  C   UNL     1      -8.998   2.214  -4.681  1.00  0.00     0.000 C 
ENDROOT
BRANCH   1   2
ATOM      2  C   UNL     1      -9.545   3.343  -3.789  1.00  0.00     0.000 C 
BRANCH   2   3
ATOM      3  C   UNL     1      -9.989   4.573  -4.597  1.00  0.00     0.000 C 
BRANCH   3   4
ATOM      4  C   UNL     1      -9.814   4.379  -6.113  1.00  0.00     0.006 C 
BRANCH   4   5
ATOM      5  C   UNL     1      -8.708   5.273  -6.687  1.00  0.00     0.053 C 
BRANCH   5   6
ATOM      6  C   UNL     1      -7.971   4.598  -7.803  1.00  0.00     0.041 C 
ATOM      7  O   UNL     1      -7.943   3.342  -7.877  1.00  0.00    -0.550 OA
ATOM      8  O   UNL     1      -7.287   5.359  -8.744  1.00  0.00    -0.550 OA
ENDBRANCH   5   6
ENDBRANCH   4   5
ENDBRANCH   3   4
ENDBRANCH   2   3
ENDBRANCH   1   2
BRANCH   1   9
ATOM      9  C   UNL     1      -7.814   1.468  -4.028  1.00  0.00     0.000 C 
BRANCH   9  10
ATOM     10  C   UNL     1      -7.142   2.251  -2.884  1.00  0.00    -0.000 C 
BRANCH  10  11
ATOM     11  C   UNL     1      -5.660   1.907  -2.645  1.00  0.00    -0.000 C 
BRANCH  11  12
ATOM     12  C   UNL     1      -5.263   1.719  -1.165  1.00  0.00    -0.000 C 
BRANCH  12  13
ATOM     13  C   UNL     1      -5.646   2.884  -0.236  1.00  0.00    -0.003 C 
ATOM     14  C   UNL     1      -5.368   2.589   1.237  1.00  0.00     0.004 C 
ENDBRANCH  12  13
ENDBRANCH  11  12
ENDBRANCH  10  11
ENDBRANCH   9  10
ENDBRANCH   1   9
TORSDOF 10
ENDMDL
MODEL 3
REMARK VINA RESULT:    -3.567      2.251      2.854
REMARK INTER + INTRA:          -6.166
REMARK INTER:                  -5.615
REMARK INTRA:                  -0.551
REMARK UNBOUND:                -0.513
REMARK SMILES CCCCCCCCCCCC(=O)[O-]
REMARK SMILES IDX 7 1 8 2 9 3 10 4 11 5 12 6 13 7 14 8 6 9 5 10 4 11 3 12 2 13
REMARK SMILES IDX 1 14
REMARK H PARENT
REMARK Flexibility Score: inf
ROOT
ATOM      1  C   UNL     1      -8.128   1.324  -4.215  1.00  0.00     0.000 C 
ENDROOT
BRANCH   1   2
ATOM      2  C   UNL     1      -9.074   2.177  -5.078  1.00  0.00     0.000 C 
BRANCH   2   3
ATOM      3  C   UNL     1      -9.414   3.527  -4.426  1.00  0.00     0.000 C 
BRANCH   3   4
ATOM      4  C   UNL     1      -9.411   4.688  -5.435  1.00  0.00     0.006 C 
BRANCH   4   5
ATOM      5  C   UNL     1      -8.652   4.335  -6.721  1.00  0.00     0.053 C 
BRANCH   5   6
ATOM      6  C   UNL     1      -7.952   5.526  -7.299  1.00  0.00     0.041 C 
ATOM      7  O   UNL     1      -7.546   5.507  -8.490  1.00  0.00    -0.550 OA
ATOM      8  O   UNL     1      -7.722   6.647  -6.511  1.00  0.00    -0.550 OA
ENDBRANCH   5   6
ENDBRANCH   4   5
ENDBRANCH   3   4
ENDBRANCH   2   3
ENDBRANCH   1   2
BRANCH   1   9
ATOM      9  C   UNL     1      -7.207   2.183  -3.322  1.00  0.00     0.000 C 
BRANCH   9  10
ATOM     10  C   UNL     1      -5.828   1.548  -3.061  1.00  0.00    -0.000 C 
BRANCH  10  11
ATOM     11  C   UNL     1      -5.216   1.866  -1.684  1.00  0.00    -0.000 C 
BRANCH  11  12
ATOM     12  C   UNL     1      -5.949   2.963  -0.882  1.00  0.00    -0.000 C 
BRANCH  12  13
ATOM     13  C   UNL     1      -5.253   3.391   0.422  1.00  0.00    -0.003 C 
ATOM     14  C   UNL     1      -5.127   2.251   1.432  1.00  0.00     0.004 C 
ENDBRANCH  12  13
ENDBRANCH  11  12
ENDBRANCH  10  11
ENDBRANCH   9  10
ENDBRANCH   1   9
TORSDOF 10
ENDMDL
MODEL 4
REMARK VINA RESULT:    -3.528      1.665      2.154
REMARK INTER + INTRA:          -6.103
REMARK INTER:                  -5.628
REMARK INTRA:                  -0.475
REMARK UNBOUND:                -0.513
REMARK SMILES CCCCCCCCCCCC(=O)[O-]
REMARK SMILES IDX 7 1 8 2 9 3 10 4 11 5 12 6 13 7 14 8 6 9 5 10 4 11 3 12 2 13
REMARK SMILES IDX 1 14
REMARK H PARENT
REMARK Flexibility Score: inf
ROOT
ATOM      1  C   UNL     1      -7.857   2.293  -3.381  1.00  0.00     0.000 C 
ENDROOT
BRANCH   1   2
ATOM      2  C   UNL     1      -8.778   1.845  -4.529  1.00  0.00     0.000 C 
BRANCH   2   3
ATOM      3  C   UNL     1      -9.999   2.762  -4.701  1.00  0.00     0.000 C 
BRANCH   3   4
ATOM      4  C   UNL     1     -10.033   3.447  -6.078  1.00  0.00     0.006 C 
BRANCH   4   5
ATOM      5  C   UNL     1      -9.012   4.587  -6.183  1.00  0.00     0.053 C 
BRANCH   5   6
ATOM      6  C   UNL     1      -8.190   4.483  -7.431  1.00  0.00     0.041 C 
ATOM      7  O   UNL     1      -7.932   3.356  -7.930  1.00  0.00    -0.550 OA
ATOM      8  O   UNL     1      -7.682   5.632  -8.026  1.00  0.00    -0.550 OA
ENDBRANCH   5   6
ENDBRANCH   4   5
ENDBRANCH   3   4
ENDBRANCH   2   3
ENDBRANCH   1   2
BRANCH   1   9
ATOM      9  C   UNL     1      -6.493   1.568  -3.401  1.00  0.00     0.000 C 
BRANCH   9  10
ATOM     10  C   UNL     1      -5.547   1.996  -2.263  1.00  0.00    -0.000 C 
BRANCH  10  11
ATOM     11  C   UNL     1      -6.228   2.741  -1.099  1.00  0.00    -0.000 C 
BRANCH  11  12
ATOM     12  C   UNL     1      -5.262   3.407  -0.096  1.00  0.00    -0.000 C 
BRANCH  12  13
ATOM     13  C   UNL     1      -4.714   2.475   0.998  1.00  0.00    -0.003 C 
ATOM     14  C   UNL     1      -5.553   2.495   2.275  1.00  0.00     0.004 C 
ENDBRANCH  12  13
ENDBRANCH  11  12
ENDBRANCH  10  11
ENDBRANCH   9  10
ENDBRANCH   1   9
TORSDOF 10
ENDMDL
MODEL 5
REMARK VINA RESULT:    -3.409      1.564      2.252
REMARK INTER + INTRA:          -5.916
REMARK INTER:                  -5.335
REMARK INTRA:                  -0.580
REMARK UNBOUND:                -0.513
REMARK SMILES CCCCCCCCCCCC(=O)[O-]
REMARK SMILES IDX 7 1 8 2 9 3 10 4 11 5 12 6 13 7 14 8 6 9 5 10 4 11 3 12 2 13
REMARK SMILES IDX 1 14
REMARK H PARENT
REMARK Flexibility Score: inf
ROOT
ATOM      1  C   UNL     1      -8.693   1.962  -4.599  1.00  0.00     0.000 C 
ENDROOT
BRANCH   1   2
ATOM      2  C   UNL     1     -10.059   2.670  -4.568  1.00  0.00     0.000 C 
BRANCH   2   3
ATOM      3  C   UNL     1      -9.939   4.194  -4.726  1.00  0.00     0.000 C 
BRANCH   3   4
ATOM      4  C   UNL     1      -9.115   4.597  -5.961  1.00  0.00     0.006 C 
BRANCH   4   5
ATOM      5  C   UNL     1      -9.915   4.456  -7.262  1.00  0.00     0.053 C 
BRANCH   5   6
ATOM      6  C   UNL     1      -9.303   3.447  -8.185  1.00  0.00     0.041 C 
ATOM      7  O   UNL     1      -9.992   2.924  -9.100  1.00  0.00    -0.550 OA
ATOM      8  O   UNL     1      -7.980   3.061  -8.013  1.00  0.00    -0.550 OA
ENDBRANCH   5   6
ENDBRANCH   4   5
ENDBRANCH   3   4
ENDBRANCH   2   3
ENDBRANCH   1   2
BRANCH   1   9
ATOM      9  C   UNL     1      -7.841   2.267  -3.348  1.00  0.00     0.000 C 
BRANCH   9  10
ATOM     10  C   UNL     1      -6.463   1.578  -3.353  1.00  0.00    -0.000 C 
BRANCH  10  11
ATOM     11  C   UNL     1      -5.547   1.949  -2.172  1.00  0.00    -0.000 C 
BRANCH  11  12
ATOM     12  C   UNL     1      -6.198   2.847  -1.098  1.00  0.00    -0.000 C 
BRANCH  12  13
ATOM     13  C   UNL     1      -5.244   3.342   0.002  1.00  0.00    -0.003 C 
ATOM     14  C   UNL     1      -5.165   2.391   1.196  1.00  0.00     0.004 C 
ENDBRANCH  12  13
ENDBRANCH  11  12
ENDBRANCH  10  11
ENDBRANCH   9  10
ENDBRANCH   1   9
TORSDOF 10
ENDMDL
MODEL 6
REMARK VINA RESULT:    -3.380      3.419      4.193
REMARK INTER + INTRA:          -5.870
REMARK INTER:                  -5.455
REMARK INTRA:                  -0.415
REMARK UNBOUND:                -0.513
REMARK SMILES CCCCCCCCCCCC(=O)[O-]
REMARK SMILES IDX 7 1 8 2 9 3 10 4 11 5 12 6 13 7 14 8 6 9 5 10 4 11 3 12 2 13
REMARK SMILES IDX 1 14
REMARK H PARENT
REMARK Flexibility Score: inf
ROOT
ATOM      1  C   UNL     1      -8.720   1.828  -4.571  1.00  0.00     0.000 C 
ENDROOT
BRANCH   1   2
ATOM      2  C   UNL     1      -9.119   3.008  -5.474  1.00  0.00     0.000 C 
BRANCH   2   3
ATOM      3  C   UNL     1      -9.516   4.259  -4.674  1.00  0.00     0.000 C 
BRANCH   3   4
ATOM      4  C   UNL     1      -9.615   5.517  -5.555  1.00  0.00     0.006 C 
BRANCH   4   5
ATOM      5  C   UNL     1      -9.617   6.806  -4.725  1.00  0.00     0.053 C 
BRANCH   5   6
ATOM      6  C   UNL     1      -8.932   7.930  -5.441  1.00  0.00     0.041 C 
ATOM      7  O   UNL     1      -9.112   9.121  -5.072  1.00  0.00    -0.550 OA
ATOM      8  O   UNL     1      -8.120   7.663  -6.536  1.00  0.00    -0.550 OA
ENDBRANCH   5   6
ENDBRANCH   4   5
ENDBRANCH   3   4
ENDBRANCH   2   3
ENDBRANCH   1   2
BRANCH   1   9
ATOM      9  C   UNL     1      -7.811   2.262  -3.400  1.00  0.00     0.000 C 
BRANCH   9  10
ATOM     10  C   UNL     1      -6.423   1.594  -3.413  1.00  0.00    -0.000 C 
BRANCH  10  11
ATOM     11  C   UNL     1      -5.550   1.888  -2.178  1.00  0.00    -0.000 C 
BRANCH  11  12
ATOM     12  C   UNL     1      -6.198   2.811  -1.124  1.00  0.00    -0.000 C 
BRANCH  12  13
ATOM     13  C   UNL     1      -5.239   3.339  -0.044  1.00  0.00    -0.003 C 
ATOM     14  C   UNL     1      -5.224   2.475   1.215  1.00  0.00     0.004 C 
ENDBRANCH  12  13
ENDBRANCH  11  12
ENDBRANCH  10  11
ENDBRANCH   9  10
ENDBRANCH   1   9
TORSDOF 10
ENDMDL
MODEL 7
REMARK VINA RESULT:    -3.343     14.149     16.417
REMARK INTER + INTRA:          -5.811
REMARK INTER:                  -4.773
REMARK INTRA:                  -1.038
REMARK UNBOUND:                -0.513
REMARK SMILES CCCCCCCCCCCC(=O)[O-]
REMARK SMILES IDX 7 1 8 2 9 3 10 4 11 5 12 6 13 7 14 8 6 9 5 10 4 11 3 12 2 13
REMARK SMILES IDX 1 14
REMARK H PARENT
REMARK Flexibility Score: inf
ROOT
ATOM      1  C   UNL     1       4.601   8.770  -2.605  1.00  0.00     0.000 C 
ENDROOT
BRANCH   1   2
ATOM      2  C   UNL     1       5.267  10.124  -2.306  1.00  0.00     0.000 C 
BRANCH   2   3
ATOM      3  C   UNL     1       6.661   9.973  -1.677  1.00  0.00     0.000 C 
BRANCH   3   4
ATOM      4  C   UNL     1       7.078   8.501  -1.512  1.00  0.00     0.006 C 
BRANCH   4   5
ATOM      5  C   UNL     1       8.388   8.185  -2.244  1.00  0.00     0.053 C 
BRANCH   5   6
ATOM      6  C   UNL     1       8.190   7.167  -3.325  1.00  0.00     0.041 C 
ATOM      7  O   UNL     1       9.010   7.084  -4.277  1.00  0.00    -0.550 OA
ATOM      8  O   UNL     1       7.081   6.330  -3.297  1.00  0.00    -0.550 OA
ENDBRANCH   5   6
ENDBRANCH   4   5
ENDBRANCH   3   4
ENDBRANCH   2   3
ENDBRANCH   1   2
BRANCH   1   9
ATOM      9  C   UNL     1       4.328   8.565  -4.111  1.00  0.00     0.000 C 
BRANCH   9  10
ATOM     10  C   UNL     1       5.134   9.511  -5.021  1.00  0.00    -0.000 C 
BRANCH  10  11
ATOM     11  C   UNL     1       5.905   8.816  -6.159  1.00  0.00    -0.000 C 
BRANCH  11  12
ATOM     12  C   UNL     1       5.739   9.463  -7.551  1.00  0.00    -0.000 C 
BRANCH  12  13
ATOM     13  C   UNL     1       4.288   9.779  -7.952  1.00  0.00    -0.003 C 
ATOM     14  C   UNL     1       3.442   8.525  -8.168  1.00  0.00     0.004 C 
ENDBRANCH  12  13
ENDBRANCH  11  12
ENDBRANCH  10  11
ENDBRANCH   9  10
ENDBRANCH   1   9
TORSDOF 10
ENDMDL
MODEL 8
REMARK VINA RESULT:    -3.336     14.670     16.785
REMARK INTER + INTRA:          -5.800
REMARK INTER:                  -4.578
REMARK INTRA:                  -1.222
REMARK UNBOUND:                -0.513
REMARK SMILES CCCCCCCCCCCC(=O)[O-]
REMARK SMILES IDX 7 1 8 2 9 3 10 4 11 5 12 6 13 7 14 8 6 9 5 10 4 11 3 12 2 13
REMARK SMILES IDX 1 14
REMARK H PARENT
REMARK Flexibility Score: inf
ROOT
ATOM      1  C   UNL     1       4.661   8.501  -2.618  1.00  0.00     0.000 C 
ENDROOT
BRANCH   1   2
ATOM      2  C   UNL     1       5.260   9.906  -2.430  1.00  0.00     0.000 C 
BRANCH   2   3
ATOM      3  C   UNL     1       6.767   9.872  -2.129  1.00  0.00     0.000 C 
BRANCH   3   4
ATOM      4  C   UNL     1       7.257   8.471  -1.727  1.00  0.00     0.006 C 
BRANCH   4   5
ATOM      5  C   UNL     1       8.584   8.106  -2.404  1.00  0.00     0.053 C 
BRANCH   5   6
ATOM      6  C   UNL     1       8.510   6.776  -3.090  1.00  0.00     0.041 C 
ATOM      7  O   UNL     1       9.554   6.238  -3.547  1.00  0.00    -0.550 OA
ATOM      8  O   UNL     1       7.284   6.145  -3.253  1.00  0.00    -0.550 OA
ENDBRANCH   5   6
ENDBRANCH   4   5
ENDBRANCH   3   4
ENDBRANCH   2   3
ENDBRANCH   1   2
BRANCH   1   9
ATOM      9  C   UNL     1       4.163   8.260  -4.060  1.00  0.00     0.000 C 
BRANCH   9  10
ATOM     10  C   UNL     1       4.634   9.328  -5.065  1.00  0.00    -0.000 C 
BRANCH  10  11
ATOM     11  C   UNL     1       5.635   8.826  -6.123  1.00  0.00    -0.000 C 
BRANCH  11  12
ATOM     12  C   UNL     1       7.114   9.163  -5.834  1.00  0.00    -0.000 C 
BRANCH  12  13
ATOM     13  C   UNL     1       8.099   8.780  -6.952  1.00  0.00    -0.003 C 
ATOM     14  C   UNL     1       9.414   8.212  -6.420  1.00  0.00     0.004 C 
ENDBRANCH  12  13
ENDBRANCH  11  12
ENDBRANCH  10  11
ENDBRANCH   9  10
ENDBRANCH   1   9
TORSDOF 10
ENDMDL
MODEL 9
REMARK VINA RESULT:    -3.205     14.290     15.873
REMARK INTER + INTRA:          -5.593
REMARK INTER:                  -4.559
REMARK INTRA:                  -1.034
REMARK UNBOUND:                -0.513
REMARK SMILES CCCCCCCCCCCC(=O)[O-]
REMARK SMILES IDX 7 1 8 2 9 3 10 4 11 5 12 6 13 7 14 8 6 9 5 10 4 11 3 12 2 13
REMARK SMILES IDX 1 14
REMARK H PARENT
REMARK Flexibility Score: inf
ROOT
ATOM      1  C   UNL     1       6.380   7.109  -2.998  1.00  0.00     0.000 C 
ENDROOT
BRANCH   1   2
ATOM      2  C   UNL     1       4.847   7.217  -2.925  1.00  0.00     0.000 C 
BRANCH   2   3
ATOM      3  C   UNL     1       4.305   8.454  -3.659  1.00  0.00     0.000 C 
BRANCH   3   4
ATOM      4  C   UNL     1       5.131   8.810  -4.907  1.00  0.00     0.006 C 
BRANCH   4   5
ATOM      5  C   UNL     1       4.249   9.018  -6.144  1.00  0.00     0.053 C 
BRANCH   5   6
ATOM      6  C   UNL     1       5.041   8.929  -7.413  1.00  0.00     0.041 C 
ATOM      7  O   UNL     1       4.586   9.417  -8.481  1.00  0.00    -0.550 OA
ATOM      8  O   UNL     1       6.269   8.279  -7.421  1.00  0.00    -0.550 OA
ENDBRANCH   5   6
ENDBRANCH   4   5
ENDBRANCH   3   4
ENDBRANCH   2   3
ENDBRANCH   1   2
BRANCH   1   9
ATOM      9  C   UNL     1       7.087   8.046  -1.993  1.00  0.00     0.000 C 
BRANCH   9  10
ATOM     10  C   UNL     1       8.594   7.766  -1.840  1.00  0.00    -0.000 C 
BRANCH  10  11
ATOM     11  C   UNL     1       9.225   6.960  -2.991  1.00  0.00    -0.000 C 
BRANCH  11  12
ATOM     12  C   UNL     1       9.954   7.805  -4.057  1.00  0.00    -0.000 C 
BRANCH  12  13
ATOM     13  C   UNL     1       9.082   8.247  -5.245  1.00  0.00    -0.003 C 
ATOM     14  C   UNL     1       8.681   9.719  -5.176  1.00  0.00     0.004 C 
ENDBRANCH  12  13
ENDBRANCH  11  12
ENDBRANCH  10  11
ENDBRANCH   9  10
ENDBRANCH   1   9
TORSDOF 10
ENDMDL
