MODEL 1
REMARK VINA RESULT:     6.134      0.000      0.000
REMARK INTER + INTRA:           7.281
REMARK INTER:                   6.493
REMARK INTRA:                   0.789
REMARK UNBOUND:                 0.789
REMARK SMILES CC1=CC[C@]23[C@H]([C@@H](C(C)C)CC[C@@H]2C)[C@@H]13
REMARK SMILES IDX 14 1 13 2 12 3 11 4 7 5 6 6 5 7 15 8 2 9 3 10 4 11 1 12 8 13
REMARK SMILES IDX 9 14 10 15
REMARK H PARENT
REMARK Flexibility Score: inf
ROOT
ATOM      1  C   UNL     1       3.990   4.875  12.071  1.00  0.00     0.008 C 
ATOM      2  C   UNL     1       4.647   5.999  12.895  1.00  0.00    -0.007 C 
ATOM      3  C   UNL     1       5.717   5.419  13.845  1.00  0.00     0.004 C 
ATOM      4  C   UNL     1       7.023   5.130  13.106  1.00  0.00     0.004 C 
ATOM      5  C   UNL     1       7.709   6.421  12.602  1.00  0.00    -0.004 C 
ATOM      6  C   UNL     1       6.720   7.332  11.817  1.00  0.00     0.007 C 
ATOM      7  C   UNL     1       5.202   7.109  11.957  1.00  0.00    -0.013 C 
ATOM      8  C   UNL     1       5.868   8.287  12.669  1.00  0.00     0.025 C 
ATOM      9  C   UNL     1       5.355   9.492  11.960  1.00  0.00    -0.073 C 
ATOM     10  C   UNL     1       4.498   9.193  10.995  1.00  0.00    -0.027 C 
ATOM     11  C   UNL     1       4.287   7.725  10.881  1.00  0.00     0.035 C 
ATOM     12  C   UNL     1       5.767  10.891  12.298  1.00  0.00     0.039 C 
ENDROOT
BRANCH   5  13
ATOM     13  C   UNL     1       8.531   7.193  13.691  1.00  0.00    -0.014 C 
ATOM     14  C   UNL     1       9.506   8.214  13.075  1.00  0.00     0.007 C 
ATOM     15  C   UNL     1       7.597   7.934  14.667  1.00  0.00     0.007 C 
ENDBRANCH   5  13
TORSDOF 1
ENDMDL
MODEL 2
REMARK VINA RESULT:     8.516      1.016      3.660
REMARK INTER + INTRA:           9.803
REMARK INTER:                   8.761
REMARK INTRA:                   1.041
REMARK UNBOUND:                 0.789
REMARK SMILES CC1=CC[C@]23[C@H]([C@@H](C(C)C)CC[C@@H]2C)[C@@H]13
REMARK SMILES IDX 14 1 13 2 12 3 11 4 7 5 6 6 5 7 15 8 2 9 3 10 4 11 1 12 8 13
REMARK SMILES IDX 9 14 10 15
REMARK H PARENT
REMARK Flexibility Score: inf
ROOT
ATOM      1  C   UNL     1       9.076   7.240  13.852  1.00  0.00     0.008 C 
ATOM      2  C   UNL     1       7.994   6.960  12.791  1.00  0.00    -0.007 C 
ATOM      3  C   UNL     1       7.697   5.447  12.708  1.00  0.00     0.004 C 
ATOM      4  C   UNL     1       6.776   4.994  13.839  1.00  0.00     0.004 C 
ATOM      5  C   UNL     1       5.360   5.605  13.721  1.00  0.00    -0.004 C 
ATOM      6  C   UNL     1       5.411   7.148  13.518  1.00  0.00     0.007 C 
ATOM      7  C   UNL     1       6.725   7.815  13.069  1.00  0.00    -0.013 C 
ATOM      8  C   UNL     1       5.584   7.628  12.068  1.00  0.00     0.025 C 
ATOM      9  C   UNL     1       5.100   9.009  11.789  1.00  0.00    -0.073 C 
ATOM     10  C   UNL     1       5.789   9.935  12.438  1.00  0.00    -0.027 C 
ATOM     11  C   UNL     1       6.861   9.336  13.278  1.00  0.00     0.035 C 
ATOM     12  C   UNL     1       3.954   9.317  10.876  1.00  0.00     0.039 C 
ENDROOT
BRANCH   5  13
ATOM     13  C   UNL     1       4.416   4.878  12.702  1.00  0.00    -0.014 C 
ATOM     14  C   UNL     1       2.943   4.896  13.151  1.00  0.00     0.007 C 
ATOM     15  C   UNL     1       4.511   5.520  11.305  1.00  0.00     0.007 C 
ENDBRANCH   5  13
TORSDOF 1
ENDMDL
MODEL 3
REMARK VINA RESULT:     8.663      1.459      2.990
REMARK INTER + INTRA:           9.958
REMARK INTER:                   9.252
REMARK INTRA:                   0.707
REMARK UNBOUND:                 0.789
REMARK SMILES CC1=CC[C@]23[C@H]([C@@H](C(C)C)CC[C@@H]2C)[C@@H]13
REMARK SMILES IDX 14 1 13 2 12 3 11 4 7 5 6 6 5 7 15 8 2 9 3 10 4 11 1 12 8 13
REMARK SMILES IDX 9 14 10 15
REMARK H PARENT
REMARK Flexibility Score: inf
ROOT
ATOM      1  C   UNL     1       2.904   8.639  13.339  1.00  0.00     0.008 C 
ATOM      2  C   UNL     1       4.137   7.895  13.886  1.00  0.00    -0.007 C 
ATOM      3  C   UNL     1       3.930   6.367  13.800  1.00  0.00     0.004 C 
ATOM      4  C   UNL     1       4.182   5.847  12.386  1.00  0.00     0.004 C 
ATOM      5  C   UNL     1       5.663   5.994  11.963  1.00  0.00    -0.004 C 
ATOM      6  C   UNL     1       6.197   7.434  12.219  1.00  0.00     0.007 C 
ATOM      7  C   UNL     1       5.428   8.376  13.164  1.00  0.00    -0.013 C 
ATOM      8  C   UNL     1       6.722   7.713  13.636  1.00  0.00     0.025 C 
ATOM      9  C   UNL     1       7.698   8.832  13.749  1.00  0.00    -0.073 C 
ATOM     10  C   UNL     1       7.168  10.007  13.448  1.00  0.00    -0.027 C 
ATOM     11  C   UNL     1       5.733   9.884  13.073  1.00  0.00     0.035 C 
ATOM     12  C   UNL     1       9.128   8.648  14.153  1.00  0.00     0.039 C 
ENDROOT
BRANCH   5  13
ATOM     13  C   UNL     1       6.613   4.875  12.512  1.00  0.00    -0.014 C 
ATOM     14  C   UNL     1       8.049   5.006  11.967  1.00  0.00     0.007 C 
ATOM     15  C   UNL     1       6.669   4.901  14.051  1.00  0.00     0.007 C 
ENDBRANCH   5  13
TORSDOF 1
ENDMDL
MODEL 4
REMARK VINA RESULT:     8.940      1.548      3.784
REMARK INTER + INTRA:          10.252
REMARK INTER:                   9.490
REMARK INTRA:                   0.761
REMARK UNBOUND:                 0.789
REMARK SMILES CC1=CC[C@]23[C@H]([C@@H](C(C)C)CC[C@@H]2C)[C@@H]13
REMARK SMILES IDX 14 1 13 2 12 3 11 4 7 5 6 6 5 7 15 8 2 9 3 10 4 11 1 12 8 13
REMARK SMILES IDX 9 14 10 15
REMARK H PARENT
REMARK Flexibility Score: inf
ROOT
ATOM      1  C   UNL     1       8.283   4.876  12.176  1.00  0.00     0.008 C 
ATOM      2  C   UNL     1       7.514   6.191  11.946  1.00  0.00    -0.007 C 
ATOM      3  C   UNL     1       6.100   5.902  11.396  1.00  0.00     0.004 C 
ATOM      4  C   UNL     1       5.142   5.478  12.508  1.00  0.00     0.004 C 
ATOM      5  C   UNL     1       4.867   6.623  13.511  1.00  0.00    -0.004 C 
ATOM      6  C   UNL     1       6.186   7.276  14.019  1.00  0.00     0.007 C 
ATOM      7  C   UNL     1       7.498   7.047  13.244  1.00  0.00    -0.013 C 
ATOM      8  C   UNL     1       6.769   8.386  13.130  1.00  0.00     0.025 C 
ATOM      9  C   UNL     1       7.660   9.358  13.823  1.00  0.00    -0.073 C 
ATOM     10  C   UNL     1       8.771   8.800  14.280  1.00  0.00    -0.027 C 
ATOM     11  C   UNL     1       8.821   7.344  13.977  1.00  0.00     0.035 C 
ATOM     12  C   UNL     1       7.333  10.809  13.989  1.00  0.00     0.039 C 
ENDROOT
BRANCH   5  13
ATOM     13  C   UNL     1       3.802   7.669  13.033  1.00  0.00    -0.014 C 
ATOM     14  C   UNL     1       3.313   8.573  14.180  1.00  0.00     0.007 C 
ATOM     15  C   UNL     1       4.367   8.561  11.912  1.00  0.00     0.007 C 
ENDBRANCH   5  13
TORSDOF 1
ENDMDL
