MODEL 1
REMARK VINA RESULT:    -2.556      0.000      0.000
REMARK INTER + INTRA:          -2.556
REMARK INTER:                  -2.556
REMARK INTRA:                   0.000
REMARK UNBOUND:                 0.000
REMARK SMILES CC(=O)[O-]
REMARK SMILES IDX 1 1 2 2 3 3 4 4
REMARK H PARENT
REMARK Flexibility Score: inf
ROOT
ATOM      1  C   UNL     1      53.272  62.394  43.149  1.00  0.00     0.063 C 
ATOM      2  C   UNL     1      52.436  61.432  42.375  1.00  0.00     0.038 C 
ATOM      3  O   UNL     1      52.896  60.302  42.067  1.00  0.00    -0.550 OA
ATOM      4  O   UNL     1      51.169  61.802  41.944  1.00  0.00    -0.550 OA
ENDROOT
TORSDOF 0
ENDMDL
MODEL 2
REMARK VINA RESULT:    -2.446      1.419      2.123
REMARK INTER + INTRA:          -2.446
REMARK INTER:                  -2.446
REMARK INTRA:                   0.000
REMARK UNBOUND:                 0.000
REMARK SMILES CC(=O)[O-]
REMARK SMILES IDX 1 1 2 2 3 3 4 4
REMARK H PARENT
REMARK Flexibility Score: inf
ROOT
ATOM      1  C   UNL     1      52.894  60.309  42.055  1.00  0.00     0.063 C 
ATOM      2  C   UNL     1      52.426  61.644  42.525  1.00  0.00     0.038 C 
ATOM      3  O   UNL     1      51.244  62.014  42.303  1.00  0.00    -0.550 OA
ATOM      4  O   UNL     1      53.309  62.506  43.162  1.00  0.00    -0.550 OA
ENDROOT
TORSDOF 0
ENDMDL
MODEL 3
REMARK VINA RESULT:    -2.336      1.377      2.166
REMARK INTER + INTRA:          -2.336
REMARK INTER:                  -2.336
REMARK INTRA:                   0.000
REMARK UNBOUND:                 0.000
REMARK SMILES CC(=O)[O-]
REMARK SMILES IDX 1 1 2 2 3 3 4 4
REMARK H PARENT
REMARK Flexibility Score: inf
ROOT
ATOM      1  C   UNL     1      51.184  61.794  41.767  1.00  0.00     0.063 C 
ATOM      2  C   UNL     1      52.493  61.586  42.449  1.00  0.00     0.038 C 
ATOM      3  O   UNL     1      53.065  62.546  43.026  1.00  0.00    -0.550 OA
ATOM      4  O   UNL     1      53.111  60.343  42.403  1.00  0.00    -0.550 OA
ENDROOT
TORSDOF 0
ENDMDL
MODEL 4
REMARK VINA RESULT:    -2.161     14.868     15.213
REMARK INTER + INTRA:          -2.161
REMARK INTER:                  -2.161
REMARK INTRA:                   0.000
REMARK UNBOUND:                 0.000
REMARK SMILES CC(=O)[O-]
REMARK SMILES IDX 1 1 2 2 3 3 4 4
REMARK H PARENT
REMARK Flexibility Score: inf
ROOT
ATOM      1  C   UNL     1      51.350  47.115  46.516  1.00  0.00     0.063 C 
ATOM      2  C   UNL     1      51.366  46.675  45.091  1.00  0.00     0.038 C 
ATOM      3  O   UNL     1      50.437  47.015  44.314  1.00  0.00    -0.550 OA
ATOM      4  O   UNL     1      52.379  45.843  44.631  1.00  0.00    -0.550 OA
ENDROOT
TORSDOF 0
ENDMDL
MODEL 5
REMARK VINA RESULT:    -2.075     15.017     15.245
REMARK INTER + INTRA:          -2.075
REMARK INTER:                  -2.075
REMARK INTRA:                   0.000
REMARK UNBOUND:                 0.000
REMARK SMILES CC(=O)[O-]
REMARK SMILES IDX 1 1 2 2 3 3 4 4
REMARK H PARENT
REMARK Flexibility Score: inf
ROOT
ATOM      1  C   UNL     1      52.067  46.107  44.948  1.00  0.00     0.063 C 
ATOM      2  C   UNL     1      51.122  46.819  45.855  1.00  0.00     0.038 C 
ATOM      3  O   UNL     1      51.557  47.450  46.852  1.00  0.00    -0.550 OA
ATOM      4  O   UNL     1      49.753  46.741  45.632  1.00  0.00    -0.550 OA
ENDROOT
TORSDOF 0
ENDMDL
MODEL 6
REMARK VINA RESULT:    -2.074     15.254     15.671
REMARK INTER + INTRA:          -2.074
REMARK INTER:                  -2.074
REMARK INTRA:                   0.000
REMARK UNBOUND:                 0.000
REMARK SMILES CC(=O)[O-]
REMARK SMILES IDX 1 1 2 2 3 3 4 4
REMARK H PARENT
REMARK Flexibility Score: inf
ROOT
ATOM      1  C   UNL     1      42.357  48.204  41.466  1.00  0.00     0.063 C 
ATOM      2  C   UNL     1      43.706  48.635  41.935  1.00  0.00     0.038 C 
ATOM      3  O   UNL     1      44.722  47.950  41.650  1.00  0.00    -0.550 OA
ATOM      4  O   UNL     1      43.836  49.764  42.732  1.00  0.00    -0.550 OA
ENDROOT
TORSDOF 0
ENDMDL
MODEL 7
REMARK VINA RESULT:    -2.067     19.819     20.107
REMARK INTER + INTRA:          -2.067
REMARK INTER:                  -2.067
REMARK INTRA:                   0.000
REMARK UNBOUND:                 0.000
REMARK SMILES CC(=O)[O-]
REMARK SMILES IDX 1 1 2 2 3 3 4 4
REMARK H PARENT
REMARK Flexibility Score: inf
ROOT
ATOM      1  C   UNL     1      50.168  46.387  54.961  1.00  0.00     0.063 C 
ATOM      2  C   UNL     1      51.595  45.955  54.973  1.00  0.00     0.038 C 
ATOM      3  O   UNL     1      52.106  45.433  53.949  1.00  0.00    -0.550 OA
ATOM      4  O   UNL     1      52.350  46.080  56.133  1.00  0.00    -0.550 OA
ENDROOT
TORSDOF 0
ENDMDL
MODEL 8
REMARK VINA RESULT:    -2.051     15.901     16.309
REMARK INTER + INTRA:          -2.051
REMARK INTER:                  -2.051
REMARK INTRA:                   0.000
REMARK UNBOUND:                 0.000
REMARK SMILES CC(=O)[O-]
REMARK SMILES IDX 1 1 2 2 3 3 4 4
REMARK H PARENT
REMARK Flexibility Score: inf
ROOT
ATOM      1  C   UNL     1      43.752  49.378  42.373  1.00  0.00     0.063 C 
ATOM      2  C   UNL     1      43.173  48.135  41.786  1.00  0.00     0.038 C 
ATOM      3  O   UNL     1      41.985  48.126  41.373  1.00  0.00    -0.550 OA
ATOM      4  O   UNL     1      43.927  46.970  41.744  1.00  0.00    -0.550 OA
ENDROOT
TORSDOF 0
ENDMDL
MODEL 9
REMARK VINA RESULT:    -1.978     19.770     20.128
REMARK INTER + INTRA:          -1.978
REMARK INTER:                  -1.978
REMARK INTRA:                   0.000
REMARK UNBOUND:                 0.000
REMARK SMILES CC(=O)[O-]
REMARK SMILES IDX 1 1 2 2 3 3 4 4
REMARK H PARENT
REMARK Flexibility Score: inf
ROOT
ATOM      1  C   UNL     1      52.435  45.090  54.019  1.00  0.00     0.063 C 
ATOM      2  C   UNL     1      51.785  45.934  55.062  1.00  0.00     0.038 C 
ATOM      3  O   UNL     1      52.227  45.934  56.240  1.00  0.00    -0.550 OA
ATOM      4  O   UNL     1      50.657  46.681  54.750  1.00  0.00    -0.550 OA
ENDROOT
TORSDOF 0
ENDMDL
