MODEL 1
REMARK VINA RESULT:    -3.764      0.000      0.000
REMARK INTER + INTRA:          -4.094
REMARK INTER:                  -4.094
REMARK INTRA:                   0.000
REMARK UNBOUND:                 0.000
REMARK SMILES Cc1cc(O)c2c(c1)C(=O)c1cc(O)cc(O)c1C2=O
REMARK SMILES IDX 1 1 2 2 8 3 7 4 6 5 4 6 3 7 19 8 20 9 18 10 11 11 9 12 10 13
REMARK SMILES IDX 12 14 13 15 15 16 16 17 5 18 17 20 14 22
REMARK H PARENT 5 19 17 21 14 23
REMARK Flexibility Score: inf
ROOT
ATOM      1  C   UNL     1      17.509  53.022  89.125  1.00  0.00     0.044 C 
ATOM      2  C   UNL     1      18.264  51.734  88.961  1.00  0.00    -0.047 A 
ATOM      3  C   UNL     1      19.643  51.751  88.729  1.00  0.00     0.016 A 
ATOM      4  C   UNL     1      20.365  50.550  88.608  1.00  0.00     0.038 A 
ATOM      5  C   UNL     1      19.698  49.315  88.742  1.00  0.00     0.076 A 
ATOM      6  C   UNL     1      18.306  49.302  88.990  1.00  0.00     0.127 A 
ATOM      7  C   UNL     1      17.604  50.508  89.105  1.00  0.00     0.050 A 
ATOM      8  C   UNL     1      20.483  48.055  88.651  1.00  0.00     0.201 C 
ATOM      9  O   UNL     1      19.999  46.988  89.115  1.00  0.00    -0.288 OA
ATOM     10  C   UNL     1      21.876  48.077  88.122  1.00  0.00     0.076 A 
ATOM     11  C   UNL     1      22.549  49.320  88.054  1.00  0.00     0.041 A 
ATOM     12  C   UNL     1      21.822  50.578  88.347  1.00  0.00     0.194 C 
ATOM     13  O   UNL     1      22.443  51.677  88.355  1.00  0.00    -0.289 OA
ATOM     14  C   UNL     1      23.908  49.361  87.700  1.00  0.00     0.059 A 
ATOM     15  C   UNL     1      24.599  48.185  87.397  1.00  0.00     0.120 A 
ATOM     16  C   UNL     1      23.929  46.964  87.415  1.00  0.00     0.093 A 
ATOM     17  C   UNL     1      22.569  46.897  87.738  1.00  0.00     0.131 A 
ENDROOT
BRANCH   6  18
ATOM     18  O   UNL     1      17.617  48.096  89.115  1.00  0.00    -0.507 OA
ATOM     19  H   UNL     1      17.284  47.763  90.012  1.00  0.00     0.293 HD
ENDBRANCH   6  18
BRANCH  17  20
ATOM     20  O   UNL     1      21.949  45.650  87.627  1.00  0.00    -0.507 OA
ATOM     21  H   UNL     1      22.280  44.817  88.091  1.00  0.00     0.293 HD
ENDBRANCH  17  20
BRANCH  15  22
ATOM     22  O   UNL     1      25.951  48.221  87.061  1.00  0.00    -0.508 OA
ATOM     23  H   UNL     1      26.570  47.447  87.270  1.00  0.00     0.293 HD
ENDBRANCH  15  22
TORSDOF 3
ENDMDL
MODEL 2
REMARK VINA RESULT:    -3.757      2.194      6.961
REMARK INTER + INTRA:          -4.087
REMARK INTER:                  -4.087
REMARK INTRA:                   0.000
REMARK UNBOUND:                 0.000
REMARK SMILES Cc1cc(O)c2c(c1)C(=O)c1cc(O)cc(O)c1C2=O
REMARK SMILES IDX 1 1 2 2 8 3 7 4 6 5 4 6 3 7 19 8 20 9 18 10 11 11 9 12 10 13
REMARK SMILES IDX 12 14 13 15 15 16 16 17 5 18 17 20 14 22
REMARK H PARENT 5 19 17 21 14 23
REMARK Flexibility Score: inf
ROOT
ATOM      1  C   UNL     1      26.986  45.424  85.339  1.00  0.00     0.044 C 
ATOM      2  C   UNL     1      26.402  46.642  85.995  1.00  0.00    -0.047 A 
ATOM      3  C   UNL     1      25.015  46.789  86.099  1.00  0.00     0.016 A 
ATOM      4  C   UNL     1      24.459  47.910  86.742  1.00  0.00     0.038 A 
ATOM      5  C   UNL     1      25.306  48.886  87.307  1.00  0.00     0.076 A 
ATOM      6  C   UNL     1      26.707  48.727  87.211  1.00  0.00     0.127 A 
ATOM      7  C   UNL     1      27.243  47.606  86.565  1.00  0.00     0.050 A 
ATOM      8  C   UNL     1      24.701  50.044  88.017  1.00  0.00     0.201 C 
ATOM      9  O   UNL     1      25.404  50.715  88.820  1.00  0.00    -0.288 OA
ATOM     10  C   UNL     1      23.248  50.338  87.870  1.00  0.00     0.076 A 
ATOM     11  C   UNL     1      22.406  49.321  87.359  1.00  0.00     0.041 A 
ATOM     12  C   UNL     1      22.990  48.065  86.833  1.00  0.00     0.194 C 
ATOM     13  O   UNL     1      22.232  47.133  86.444  1.00  0.00    -0.289 OA
ATOM     14  C   UNL     1      21.013  49.509  87.344  1.00  0.00     0.059 A 
ATOM     15  C   UNL     1      20.451  50.699  87.813  1.00  0.00     0.120 A 
ATOM     16  C   UNL     1      21.278  51.721  88.272  1.00  0.00     0.093 A 
ATOM     17  C   UNL     1      22.670  51.572  88.274  1.00  0.00     0.131 A 
ENDROOT
BRANCH   6  18
ATOM     18  O   UNL     1      27.570  49.682  87.749  1.00  0.00    -0.507 OA
ATOM     19  H   UNL     1      28.552  49.486  87.904  1.00  0.00     0.293 HD
ENDBRANCH   6  18
BRANCH  17  20
ATOM     20  O   UNL     1      23.429  52.683  88.649  1.00  0.00    -0.507 OA
ATOM     21  H   UNL     1      23.302  53.183  89.517  1.00  0.00     0.293 HD
ENDBRANCH  17  20
BRANCH  15  22
ATOM     22  O   UNL     1      19.070  50.881  87.815  1.00  0.00    -0.508 OA
ATOM     23  H   UNL     1      18.554  51.020  88.675  1.00  0.00     0.293 HD
ENDBRANCH  15  22
TORSDOF 3
ENDMDL
MODEL 3
REMARK VINA RESULT:    -3.652      1.938      4.092
REMARK INTER + INTRA:          -3.972
REMARK INTER:                  -3.972
REMARK INTRA:                   0.000
REMARK UNBOUND:                 0.000
REMARK SMILES Cc1cc(O)c2c(c1)C(=O)c1cc(O)cc(O)c1C2=O
REMARK SMILES IDX 1 1 2 2 8 3 7 4 6 5 4 6 3 7 19 8 20 9 18 10 11 11 9 12 10 13
REMARK SMILES IDX 12 14 13 15 15 16 16 17 5 18 17 20 14 22
REMARK H PARENT 5 19 17 21 14 23
REMARK Flexibility Score: inf
ROOT
ATOM      1  C   UNL     1      18.670  51.244  88.819  1.00  0.00     0.044 C 
ATOM      2  C   UNL     1      20.137  51.087  88.546  1.00  0.00    -0.047 A 
ATOM      3  C   UNL     1      20.614  49.938  87.904  1.00  0.00     0.016 A 
ATOM      4  C   UNL     1      21.983  49.796  87.613  1.00  0.00     0.038 A 
ATOM      5  C   UNL     1      22.883  50.828  87.950  1.00  0.00     0.076 A 
ATOM      6  C   UNL     1      22.395  51.992  88.586  1.00  0.00     0.127 A 
ATOM      7  C   UNL     1      21.029  52.116  88.871  1.00  0.00     0.050 A 
ATOM      8  C   UNL     1      24.320  50.678  87.599  1.00  0.00     0.201 C 
ATOM      9  O   UNL     1      25.058  51.699  87.557  1.00  0.00    -0.288 OA
ATOM     10  C   UNL     1      24.856  49.350  87.188  1.00  0.00     0.076 A 
ATOM     11  C   UNL     1      23.938  48.348  86.794  1.00  0.00     0.041 A 
ATOM     12  C   UNL     1      22.481  48.571  86.949  1.00  0.00     0.194 C 
ATOM     13  O   UNL     1      21.664  47.704  86.531  1.00  0.00    -0.289 OA
ATOM     14  C   UNL     1      24.411  47.136  86.262  1.00  0.00     0.059 A 
ATOM     15  C   UNL     1      25.782  46.904  86.134  1.00  0.00     0.120 A 
ATOM     16  C   UNL     1      26.691  47.867  86.565  1.00  0.00     0.093 A 
ATOM     17  C   UNL     1      26.249  49.072  87.123  1.00  0.00     0.131 A 
ENDROOT
BRANCH   6  18
ATOM     18  O   UNL     1      23.262  53.025  88.944  1.00  0.00    -0.507 OA
ATOM     19  H   UNL     1      22.932  53.860  89.414  1.00  0.00     0.293 HD
ENDBRANCH   6  18
BRANCH  17  20
ATOM     20  O   UNL     1      27.223  49.936  87.629  1.00  0.00    -0.507 OA
ATOM     21  H   UNL     1      28.040  50.224  87.110  1.00  0.00     0.293 HD
ENDBRANCH  17  20
BRANCH  15  22
ATOM     22  O   UNL     1      26.254  45.710  85.591  1.00  0.00    -0.508 OA
ATOM     23  H   UNL     1      27.186  45.636  85.203  1.00  0.00     0.293 HD
ENDBRANCH  15  22
TORSDOF 3
ENDMDL
MODEL 4
REMARK VINA RESULT:    -3.494      2.744      5.657
REMARK INTER + INTRA:          -3.800
REMARK INTER:                  -3.800
REMARK INTRA:                   0.000
REMARK UNBOUND:                 0.000
REMARK SMILES Cc1cc(O)c2c(c1)C(=O)c1cc(O)cc(O)c1C2=O
REMARK SMILES IDX 1 1 2 2 8 3 7 4 6 5 4 6 3 7 19 8 20 9 18 10 11 11 9 12 10 13
REMARK SMILES IDX 12 14 13 15 15 16 16 17 5 18 17 20 14 22
REMARK H PARENT 5 19 17 21 14 23
REMARK Flexibility Score: inf
ROOT
ATOM      1  C   UNL     1      25.736  55.121  89.123  1.00  0.00     0.044 C 
ATOM      2  C   UNL     1      25.541  53.762  88.516  1.00  0.00    -0.047 A 
ATOM      3  C   UNL     1      24.297  53.127  88.595  1.00  0.00     0.016 A 
ATOM      4  C   UNL     1      24.095  51.868  88.001  1.00  0.00     0.038 A 
ATOM      5  C   UNL     1      25.149  51.248  87.298  1.00  0.00     0.076 A 
ATOM      6  C   UNL     1      26.400  51.899  87.208  1.00  0.00     0.127 A 
ATOM      7  C   UNL     1      26.583  53.151  87.809  1.00  0.00     0.050 A 
ATOM      8  C   UNL     1      24.906  49.935  86.642  1.00  0.00     0.201 C 
ATOM      9  O   UNL     1      25.686  49.544  85.732  1.00  0.00    -0.288 OA
ATOM     10  C   UNL     1      23.688  49.145  86.975  1.00  0.00     0.076 A 
ATOM     11  C   UNL     1      22.617  49.804  87.624  1.00  0.00     0.041 A 
ATOM     12  C   UNL     1      22.781  51.196  88.104  1.00  0.00     0.194 C 
ATOM     13  O   UNL     1      21.801  51.804  88.619  1.00  0.00    -0.289 OA
ATOM     14  C   UNL     1      21.399  49.131  87.822  1.00  0.00     0.059 A 
ATOM     15  C   UNL     1      21.240  47.809  87.398  1.00  0.00     0.120 A 
ATOM     16  C   UNL     1      22.307  47.141  86.801  1.00  0.00     0.093 A 
ATOM     17  C   UNL     1      23.539  47.778  86.616  1.00  0.00     0.131 A 
ENDROOT
BRANCH   6  18
ATOM     18  O   UNL     1      27.465  51.304  86.531  1.00  0.00    -0.507 OA
ATOM     19  H   UNL     1      27.678  51.533  85.567  1.00  0.00     0.293 HD
ENDBRANCH   6  18
BRANCH  17  20
ATOM     20  O   UNL     1      24.586  47.004  86.110  1.00  0.00    -0.507 OA
ATOM     21  H   UNL     1      25.476  47.384  85.822  1.00  0.00     0.293 HD
ENDBRANCH  17  20
BRANCH  15  22
ATOM     22  O   UNL     1      20.028  47.146  87.578  1.00  0.00    -0.508 OA
ATOM     23  H   UNL     1      19.970  46.282  88.103  1.00  0.00     0.293 HD
ENDBRANCH  15  22
TORSDOF 3
ENDMDL
MODEL 5
REMARK VINA RESULT:    -3.423      1.637      2.516
REMARK INTER + INTRA:          -3.723
REMARK INTER:                  -3.723
REMARK INTRA:                   0.000
REMARK UNBOUND:                 0.000
REMARK SMILES Cc1cc(O)c2c(c1)C(=O)c1cc(O)cc(O)c1C2=O
REMARK SMILES IDX 1 1 2 2 8 3 7 4 6 5 4 6 3 7 19 8 20 9 18 10 11 11 9 12 10 13
REMARK SMILES IDX 12 14 13 15 15 16 16 17 5 18 17 20 14 22
REMARK H PARENT 5 19 17 21 14 23
REMARK Flexibility Score: inf
ROOT
ATOM      1  C   UNL     1      18.790  52.266  89.125  1.00  0.00     0.044 C 
ATOM      2  C   UNL     1      19.844  51.285  88.699  1.00  0.00    -0.047 A 
ATOM      3  C   UNL     1      21.168  51.704  88.527  1.00  0.00     0.016 A 
ATOM      4  C   UNL     1      22.169  50.786  88.162  1.00  0.00     0.038 A 
ATOM      5  C   UNL     1      21.842  49.425  87.987  1.00  0.00     0.076 A 
ATOM      6  C   UNL     1      20.506  49.003  88.174  1.00  0.00     0.127 A 
ATOM      7  C   UNL     1      19.522  49.933  88.536  1.00  0.00     0.050 A 
ATOM      8  C   UNL     1      22.920  48.461  87.639  1.00  0.00     0.201 C 
ATOM      9  O   UNL     1      22.735  47.229  87.830  1.00  0.00    -0.288 OA
ATOM     10  C   UNL     1      24.248  48.956  87.179  1.00  0.00     0.076 A 
ATOM     11  C   UNL     1      24.580  50.310  87.421  1.00  0.00     0.041 A 
ATOM     12  C   UNL     1      23.563  51.241  87.966  1.00  0.00     0.194 C 
ATOM     13  O   UNL     1      23.884  52.429  88.247  1.00  0.00    -0.289 OA
ATOM     14  C   UNL     1      25.875  50.775  87.134  1.00  0.00     0.059 A 
ATOM     15  C   UNL     1      26.835  49.914  86.596  1.00  0.00     0.120 A 
ATOM     16  C   UNL     1      26.499  48.593  86.311  1.00  0.00     0.093 A 
ATOM     17  C   UNL     1      25.209  48.111  86.561  1.00  0.00     0.131 A 
ENDROOT
BRANCH   6  18
ATOM     18  O   UNL     1      20.149  47.667  87.996  1.00  0.00    -0.507 OA
ATOM     19  H   UNL     1      19.226  47.325  88.236  1.00  0.00     0.293 HD
ENDBRANCH   6  18
BRANCH  17  20
ATOM     20  O   UNL     1      24.925  46.808  86.147  1.00  0.00    -0.507 OA
ATOM     21  H   UNL     1      24.386  46.151  86.693  1.00  0.00     0.293 HD
ENDBRANCH  17  20
BRANCH  15  22
ATOM     22  O   UNL     1      28.125  50.368  86.326  1.00  0.00    -0.508 OA
ATOM     23  H   UNL     1      28.691  49.953  85.596  1.00  0.00     0.293 HD
ENDBRANCH  15  22
TORSDOF 3
ENDMDL
MODEL 6
REMARK VINA RESULT:    -3.423      2.544      3.447
REMARK INTER + INTRA:          -3.723
REMARK INTER:                  -3.723
REMARK INTRA:                   0.000
REMARK UNBOUND:                 0.000
REMARK SMILES Cc1cc(O)c2c(c1)C(=O)c1cc(O)cc(O)c1C2=O
REMARK SMILES IDX 1 1 2 2 8 3 7 4 6 5 4 6 3 7 19 8 20 9 18 10 11 11 9 12 10 13
REMARK SMILES IDX 12 14 13 15 15 16 16 17 5 18 17 20 14 22
REMARK H PARENT 5 19 17 21 14 23
REMARK Flexibility Score: inf
ROOT
ATOM      1  C   UNL     1      23.047  55.174  89.124  1.00  0.00     0.044 C 
ATOM      2  C   UNL     1      22.910  53.721  88.772  1.00  0.00    -0.047 A 
ATOM      3  C   UNL     1      24.030  52.985  88.371  1.00  0.00     0.016 A 
ATOM      4  C   UNL     1      23.919  51.615  88.072  1.00  0.00     0.038 A 
ATOM      5  C   UNL     1      22.670  50.970  88.196  1.00  0.00     0.076 A 
ATOM      6  C   UNL     1      21.544  51.714  88.614  1.00  0.00     0.127 A 
ATOM      7  C   UNL     1      21.674  53.078  88.906  1.00  0.00     0.050 A 
ATOM      8  C   UNL     1      22.579  49.513  87.914  1.00  0.00     0.201 C 
ATOM      9  O   UNL     1      21.597  48.857  88.355  1.00  0.00    -0.288 OA
ATOM     10  C   UNL     1      23.695  48.813  87.218  1.00  0.00     0.076 A 
ATOM     11  C   UNL     1      24.956  49.452  87.159  1.00  0.00     0.041 A 
ATOM     12  C   UNL     1      25.105  50.848  87.634  1.00  0.00     0.194 C 
ATOM     13  O   UNL     1      26.246  51.390  87.645  1.00  0.00    -0.289 OA
ATOM     14  C   UNL     1      26.066  48.763  86.641  1.00  0.00     0.059 A 
ATOM     15  C   UNL     1      25.932  47.456  86.167  1.00  0.00     0.120 A 
ATOM     16  C   UNL     1      24.683  46.839  86.178  1.00  0.00     0.093 A 
ATOM     17  C   UNL     1      23.556  47.511  86.663  1.00  0.00     0.131 A 
ENDROOT
BRANCH   6  18
ATOM     18  O   UNL     1      20.294  51.107  88.735  1.00  0.00    -0.507 OA
ATOM     19  H   UNL     1      19.857  50.627  87.956  1.00  0.00     0.293 HD
ENDBRANCH   6  18
BRANCH  17  20
ATOM     20  O   UNL     1      22.325  46.862  86.539  1.00  0.00    -0.507 OA
ATOM     21  H   UNL     1      21.443  47.346  86.457  1.00  0.00     0.293 HD
ENDBRANCH  17  20
BRANCH  15  22
ATOM     22  O   UNL     1      27.035  46.764  85.669  1.00  0.00    -0.508 OA
ATOM     23  H   UNL     1      27.198  46.674  84.673  1.00  0.00     0.293 HD
ENDBRANCH  15  22
TORSDOF 3
ENDMDL
MODEL 7
REMARK VINA RESULT:    -3.380      4.018      7.030
REMARK INTER + INTRA:          -3.676
REMARK INTER:                  -3.676
REMARK INTRA:                   0.000
REMARK UNBOUND:                 0.000
REMARK SMILES Cc1cc(O)c2c(c1)C(=O)c1cc(O)cc(O)c1C2=O
REMARK SMILES IDX 1 1 2 2 8 3 7 4 6 5 4 6 3 7 19 8 20 9 18 10 11 11 9 12 10 13
REMARK SMILES IDX 12 14 13 15 15 16 16 17 5 18 17 20 14 22
REMARK H PARENT 5 19 17 21 14 23
REMARK Flexibility Score: inf
ROOT
ATOM      1  C   UNL     1      28.125  45.891  84.857  1.00  0.00     0.044 C 
ATOM      2  C   UNL     1      27.142  46.825  85.501  1.00  0.00    -0.047 A 
ATOM      3  C   UNL     1      27.424  48.193  85.587  1.00  0.00     0.016 A 
ATOM      4  C   UNL     1      26.496  49.082  86.158  1.00  0.00     0.038 A 
ATOM      5  C   UNL     1      25.258  48.596  86.630  1.00  0.00     0.076 A 
ATOM      6  C   UNL     1      24.972  47.215  86.529  1.00  0.00     0.127 A 
ATOM      7  C   UNL     1      25.910  46.345  85.959  1.00  0.00     0.050 A 
ATOM      8  C   UNL     1      24.272  49.555  87.194  1.00  0.00     0.201 C 
ATOM      9  O   UNL     1      23.060  49.219  87.282  1.00  0.00    -0.288 OA
ATOM     10  C   UNL     1      24.691  50.942  87.544  1.00  0.00     0.076 A 
ATOM     11  C   UNL     1      25.906  51.431  87.008  1.00  0.00     0.041 A 
ATOM     12  C   UNL     1      26.808  50.525  86.259  1.00  0.00     0.194 C 
ATOM     13  O   UNL     1      27.857  50.981  85.723  1.00  0.00    -0.289 OA
ATOM     14  C   UNL     1      26.261  52.778  87.196  1.00  0.00     0.059 A 
ATOM     15  C   UNL     1      25.432  53.637  87.921  1.00  0.00     0.120 A 
ATOM     16  C   UNL     1      24.258  53.148  88.492  1.00  0.00     0.093 A 
ATOM     17  C   UNL     1      23.894  51.805  88.344  1.00  0.00     0.131 A 
ENDROOT
BRANCH   6  18
ATOM     18  O   UNL     1      23.762  46.703  86.998  1.00  0.00    -0.507 OA
ATOM     19  H   UNL     1      23.644  45.717  87.201  1.00  0.00     0.293 HD
ENDBRANCH   6  18
BRANCH  17  20
ATOM     20  O   UNL     1      22.761  51.373  89.036  1.00  0.00    -0.507 OA
ATOM     21  H   UNL     1      21.819  51.651  88.799  1.00  0.00     0.293 HD
ENDBRANCH  17  20
BRANCH  15  22
ATOM     22  O   UNL     1      25.773  54.977  88.094  1.00  0.00    -0.508 OA
ATOM     23  H   UNL     1      25.087  55.666  88.376  1.00  0.00     0.293 HD
ENDBRANCH  15  22
TORSDOF 3
ENDMDL
MODEL 8
REMARK VINA RESULT:    -3.288      6.639      8.722
REMARK INTER + INTRA:          -3.576
REMARK INTER:                  -3.576
REMARK INTRA:                   0.000
REMARK UNBOUND:                 0.000
REMARK SMILES Cc1cc(O)c2c(c1)C(=O)c1cc(O)cc(O)c1C2=O
REMARK SMILES IDX 1 1 2 2 8 3 7 4 6 5 4 6 3 7 19 8 20 9 18 10 11 11 9 12 10 13
REMARK SMILES IDX 12 14 13 15 15 16 16 17 5 18 17 20 14 22
REMARK H PARENT 5 19 17 21 14 23
REMARK Flexibility Score: inf
ROOT
ATOM      1  C   UNL     1      28.125  53.257  80.791  1.00  0.00     0.044 C 
ATOM      2  C   UNL     1      27.983  52.903  82.243  1.00  0.00    -0.047 A 
ATOM      3  C   UNL     1      27.999  51.563  82.646  1.00  0.00     0.016 A 
ATOM      4  C   UNL     1      27.901  51.222  84.007  1.00  0.00     0.038 A 
ATOM      5  C   UNL     1      27.806  52.240  84.979  1.00  0.00     0.076 A 
ATOM      6  C   UNL     1      27.803  53.592  84.569  1.00  0.00     0.127 A 
ATOM      7  C   UNL     1      27.900  53.912  83.209  1.00  0.00     0.050 A 
ATOM      8  C   UNL     1      27.743  51.862  86.416  1.00  0.00     0.201 C 
ATOM      9  O   UNL     1      28.019  52.722  87.296  1.00  0.00    -0.288 OA
ATOM     10  C   UNL     1      27.470  50.451  86.809  1.00  0.00     0.076 A 
ATOM     11  C   UNL     1      27.631  49.439  85.834  1.00  0.00     0.041 A 
ATOM     12  C   UNL     1      27.902  49.802  84.423  1.00  0.00     0.194 C 
ATOM     13  O   UNL     1      28.116  48.896  83.570  1.00  0.00    -0.289 OA
ATOM     14  C   UNL     1      27.525  48.088  86.204  1.00  0.00     0.059 A 
ATOM     15  C   UNL     1      27.246  47.733  87.526  1.00  0.00     0.120 A 
ATOM     16  C   UNL     1      27.038  48.726  88.480  1.00  0.00     0.093 A 
ATOM     17  C   UNL     1      27.110  50.080  88.134  1.00  0.00     0.131 A 
ENDROOT
BRANCH   6  18
ATOM     18  O   UNL     1      27.698  54.620  85.506  1.00  0.00    -0.507 OA
ATOM     19  H   UNL     1      27.440  54.439  86.469  1.00  0.00     0.293 HD
ENDBRANCH   6  18
BRANCH  17  20
ATOM     20  O   UNL     1      26.783  51.009  89.124  1.00  0.00    -0.507 OA
ATOM     21  H   UNL     1      26.765  50.795  90.110  1.00  0.00     0.293 HD
ENDBRANCH  17  20
BRANCH  15  22
ATOM     22  O   UNL     1      27.157  46.393  87.899  1.00  0.00    -0.508 OA
ATOM     23  H   UNL     1      26.574  45.739  87.391  1.00  0.00     0.293 HD
ENDBRANCH  15  22
TORSDOF 3
ENDMDL
