MODEL 1
REMARK VINA RESULT:    -5.983      0.000      0.000
REMARK INTER + INTRA:          -7.288
REMARK INTER:                  -7.032
REMARK INTRA:                  -0.255
REMARK UNBOUND:                -0.255
REMARK SMILES O=c1c(O)c(-c2ccc(O)c(O)c2)oc2cc(O)ccc12
REMARK SMILES IDX 5 1 3 2 2 3 1 4 21 5 15 6 14 7 16 8 17 9 19 10 20 11 6 12
REMARK SMILES IDX 7 13 8 14 9 15 13 16 11 17 10 18 12 20 4 22 18 24
REMARK H PARENT 10 19 12 21 4 23 18 25
REMARK Flexibility Score: inf
ROOT
ATOM      1  C   UNL     1       6.401  22.604  -9.260  1.00  0.00     0.180 A 
ATOM      2  C   UNL     1       6.756  23.638  -8.368  1.00  0.00     0.208 A 
ATOM      3  C   UNL     1       7.201  24.861  -8.892  1.00  0.00     0.235 A 
ATOM      4  O   UNL     1       7.535  25.796  -8.114  1.00  0.00    -0.285 OA
ATOM      5  C   UNL     1       7.262  25.034 -10.284  1.00  0.00     0.069 A 
ATOM      6  C   UNL     1       6.866  23.960 -11.110  1.00  0.00     0.142 A 
ATOM      7  O   UNL     1       6.459  22.814 -10.574  1.00  0.00    -0.452 OA
ATOM      8  C   UNL     1       6.903  24.097 -12.502  1.00  0.00     0.094 A 
ATOM      9  C   UNL     1       7.334  25.295 -13.082  1.00  0.00     0.119 A 
ATOM     10  C   UNL     1       7.729  26.363 -12.265  1.00  0.00     0.047 A 
ATOM     11  C   UNL     1       7.694  26.236 -10.873  1.00  0.00     0.020 A 
ENDROOT
BRANCH   1  12
ATOM     12  C   UNL     1       5.940  21.280  -8.785  1.00  0.00     0.025 A 
ATOM     13  C   UNL     1       4.632  21.138  -8.301  1.00  0.00     0.016 A 
ATOM     14  C   UNL     1       4.171  19.894  -7.867  1.00  0.00     0.051 A 
ATOM     15  C   UNL     1       4.997  18.766  -7.923  1.00  0.00     0.157 A 
ATOM     16  C   UNL     1       6.765  20.145  -8.865  1.00  0.00     0.062 A 
ATOM     17  C   UNL     1       6.310  18.893  -8.436  1.00  0.00     0.158 A 
BRANCH  15  18
ATOM     18  O   UNL     1       4.477  17.553  -7.468  1.00  0.00    -0.504 OA
ATOM     19  H   UNL     1       4.514  16.690  -7.993  1.00  0.00     0.293 HD
ENDBRANCH  15  18
BRANCH  17  20
ATOM     20  O   UNL     1       7.185  17.808  -8.543  1.00  0.00    -0.504 OA
ATOM     21  H   UNL     1       8.145  17.825  -8.232  1.00  0.00     0.293 HD
ENDBRANCH  17  20
ENDBRANCH   1  12
BRANCH   2  22
ATOM     22  O   UNL     1       6.638  23.452  -6.989  1.00  0.00    -0.502 OA
ATOM     23  H   UNL     1       6.999  22.629  -6.519  1.00  0.00     0.293 HD
ENDBRANCH   2  22
BRANCH   9  24
ATOM     24  O   UNL     1       7.364  25.414 -14.469  1.00  0.00    -0.508 OA
ATOM     25  H   UNL     1       6.623  25.037 -15.050  1.00  0.00     0.293 HD
ENDBRANCH   9  24
TORSDOF 5
ENDMDL
MODEL 2
REMARK VINA RESULT:    -5.861      5.024      6.531
REMARK INTER + INTRA:          -7.145
REMARK INTER:                  -6.839
REMARK INTRA:                  -0.306
REMARK UNBOUND:                -0.255
REMARK SMILES O=c1c(O)c(-c2ccc(O)c(O)c2)oc2cc(O)ccc12
REMARK SMILES IDX 5 1 3 2 2 3 1 4 21 5 15 6 14 7 16 8 17 9 19 10 20 11 6 12
REMARK SMILES IDX 7 13 8 14 9 15 13 16 11 17 10 18 12 20 4 22 18 24
REMARK H PARENT 10 19 12 21 4 23 18 25
REMARK Flexibility Score: inf
ROOT
ATOM      1  C   UNL     1       4.397  22.262 -15.124  1.00  0.00     0.180 A 
ATOM      2  C   UNL     1       4.116  23.257 -16.084  1.00  0.00     0.208 A 
ATOM      3  C   UNL     1       4.726  24.514 -15.955  1.00  0.00     0.235 A 
ATOM      4  O   UNL     1       4.481  25.423 -16.794  1.00  0.00    -0.285 OA
ATOM      5  C   UNL     1       5.612  24.745 -14.890  1.00  0.00     0.069 A 
ATOM      6  C   UNL     1       5.860  23.690 -13.986  1.00  0.00     0.142 A 
ATOM      7  O   UNL     1       5.255  22.516 -14.138  1.00  0.00    -0.452 OA
ATOM      8  C   UNL     1       6.745  23.877 -12.918  1.00  0.00     0.094 A 
ATOM      9  C   UNL     1       7.385  25.108 -12.740  1.00  0.00     0.119 A 
ATOM     10  C   UNL     1       7.141  26.157 -13.636  1.00  0.00     0.047 A 
ATOM     11  C   UNL     1       6.259  25.979 -14.707  1.00  0.00     0.020 A 
ENDROOT
BRANCH   1  12
ATOM     12  C   UNL     1       3.780  20.917 -15.182  1.00  0.00     0.025 A 
ATOM     13  C   UNL     1       2.495  20.724 -14.656  1.00  0.00     0.016 A 
ATOM     14  C   UNL     1       1.888  19.469 -14.718  1.00  0.00     0.051 A 
ATOM     15  C   UNL     1       2.542  18.388 -15.319  1.00  0.00     0.157 A 
ATOM     16  C   UNL     1       4.431  19.839 -15.807  1.00  0.00     0.062 A 
ATOM     17  C   UNL     1       3.828  18.578 -15.877  1.00  0.00     0.158 A 
BRANCH  15  18
ATOM     18  O   UNL     1       1.882  17.157 -15.342  1.00  0.00    -0.504 OA
ATOM     19  H   UNL     1       1.588  16.658 -14.514  1.00  0.00     0.293 HD
ENDBRANCH  15  18
BRANCH  17  20
ATOM     20  O   UNL     1       4.533  17.552 -16.512  1.00  0.00    -0.504 OA
ATOM     21  H   UNL     1       4.112  16.879 -17.137  1.00  0.00     0.293 HD
ENDBRANCH  17  20
ENDBRANCH   1  12
BRANCH   2  22
ATOM     22  O   UNL     1       3.268  22.982 -17.159  1.00  0.00    -0.502 OA
ATOM     23  H   UNL     1       2.590  22.228 -17.136  1.00  0.00     0.293 HD
ENDBRANCH   2  22
BRANCH   9  24
ATOM     24  O   UNL     1       8.263  25.277 -11.672  1.00  0.00    -0.508 OA
ATOM     25  H   UNL     1       8.099  25.976 -10.957  1.00  0.00     0.293 HD
ENDBRANCH   9  24
TORSDOF 5
ENDMDL
MODEL 3
REMARK VINA RESULT:    -5.754      1.704      6.832
REMARK INTER + INTRA:          -7.019
REMARK INTER:                  -6.698
REMARK INTRA:                  -0.321
REMARK UNBOUND:                -0.255
REMARK SMILES O=c1c(O)c(-c2ccc(O)c(O)c2)oc2cc(O)ccc12
REMARK SMILES IDX 5 1 3 2 2 3 1 4 21 5 15 6 14 7 16 8 17 9 19 10 20 11 6 12
REMARK SMILES IDX 7 13 8 14 9 15 13 16 11 17 10 18 12 20 4 22 18 24
REMARK H PARENT 10 19 12 21 4 23 18 25
REMARK Flexibility Score: inf
ROOT
ATOM      1  C   UNL     1       5.527  23.241  -9.997  1.00  0.00     0.180 A 
ATOM      2  C   UNL     1       4.152  23.432  -9.745  1.00  0.00     0.208 A 
ATOM      3  C   UNL     1       3.472  22.491  -8.957  1.00  0.00     0.235 A 
ATOM      4  O   UNL     1       2.240  22.635  -8.728  1.00  0.00    -0.285 OA
ATOM      5  C   UNL     1       4.174  21.399  -8.425  1.00  0.00     0.069 A 
ATOM      6  C   UNL     1       5.554  21.291  -8.702  1.00  0.00     0.142 A 
ATOM      7  O   UNL     1       6.160  22.199  -9.460  1.00  0.00    -0.452 OA
ATOM      8  C   UNL     1       6.292  20.223  -8.181  1.00  0.00     0.094 A 
ATOM      9  C   UNL     1       5.668  19.256  -7.386  1.00  0.00     0.119 A 
ATOM     10  C   UNL     1       4.298  19.359  -7.109  1.00  0.00     0.047 A 
ATOM     11  C   UNL     1       3.552  20.424  -7.624  1.00  0.00     0.020 A 
ENDROOT
BRANCH   1  12
ATOM     12  C   UNL     1       6.312  24.178 -10.832  1.00  0.00     0.025 A 
ATOM     13  C   UNL     1       7.071  25.183 -10.215  1.00  0.00     0.016 A 
ATOM     14  C   UNL     1       7.833  26.064 -10.983  1.00  0.00     0.051 A 
ATOM     15  C   UNL     1       7.866  25.953 -12.377  1.00  0.00     0.157 A 
ATOM     16  C   UNL     1       6.361  24.048 -12.230  1.00  0.00     0.062 A 
ATOM     17  C   UNL     1       7.126  24.926 -13.009  1.00  0.00     0.158 A 
BRANCH  15  18
ATOM     18  O   UNL     1       8.643  26.871 -13.087  1.00  0.00    -0.504 OA
ATOM     19  H   UNL     1       9.629  26.751 -13.272  1.00  0.00     0.293 HD
ENDBRANCH  15  18
BRANCH  17  20
ATOM     20  O   UNL     1       7.126  24.738 -14.393  1.00  0.00    -0.504 OA
ATOM     21  H   UNL     1       6.466  24.154 -14.885  1.00  0.00     0.293 HD
ENDBRANCH  17  20
ENDBRANCH   1  12
BRANCH   2  22
ATOM     22  O   UNL     1       3.492  24.554 -10.248  1.00  0.00    -0.502 OA
ATOM     23  H   UNL     1       2.493  24.563 -10.422  1.00  0.00     0.293 HD
ENDBRANCH   2  22
BRANCH   9  24
ATOM     24  O   UNL     1       6.417  18.199  -6.875  1.00  0.00    -0.508 OA
ATOM     25  H   UNL     1       7.187  17.795  -7.396  1.00  0.00     0.293 HD
ENDBRANCH   9  24
TORSDOF 5
ENDMDL
MODEL 4
REMARK VINA RESULT:    -5.611      3.896      5.936
REMARK INTER + INTRA:          -6.850
REMARK INTER:                  -6.555
REMARK INTRA:                  -0.295
REMARK UNBOUND:                -0.255
REMARK SMILES O=c1c(O)c(-c2ccc(O)c(O)c2)oc2cc(O)ccc12
REMARK SMILES IDX 5 1 3 2 2 3 1 4 21 5 15 6 14 7 16 8 17 9 19 10 20 11 6 12
REMARK SMILES IDX 7 13 8 14 9 15 13 16 11 17 10 18 12 20 4 22 18 24
REMARK H PARENT 10 19 12 21 4 23 18 25
REMARK Flexibility Score: inf
ROOT
ATOM      1  C   UNL     1       6.655  26.820 -12.336  1.00  0.00     0.180 A 
ATOM      2  C   UNL     1       5.332  27.265 -12.129  1.00  0.00     0.208 A 
ATOM      3  C   UNL     1       5.053  28.635 -12.243  1.00  0.00     0.235 A 
ATOM      4  O   UNL     1       3.880  29.058 -12.050  1.00  0.00    -0.285 OA
ATOM      5  C   UNL     1       6.086  29.525 -12.578  1.00  0.00     0.069 A 
ATOM      6  C   UNL     1       7.378  28.999 -12.794  1.00  0.00     0.142 A 
ATOM      7  O   UNL     1       7.603  27.695 -12.668  1.00  0.00    -0.452 OA
ATOM      8  C   UNL     1       8.432  29.851 -13.141  1.00  0.00     0.094 A 
ATOM      9  C   UNL     1       8.212  31.227 -13.272  1.00  0.00     0.119 A 
ATOM     10  C   UNL     1       6.931  31.753 -13.058  1.00  0.00     0.047 A 
ATOM     11  C   UNL     1       5.871  30.908 -12.713  1.00  0.00     0.020 A 
ENDROOT
BRANCH   1  12
ATOM     12  C   UNL     1       7.033  25.394 -12.217  1.00  0.00     0.025 A 
ATOM     13  C   UNL     1       7.569  24.920 -11.012  1.00  0.00     0.016 A 
ATOM     14  C   UNL     1       7.914  23.575 -10.872  1.00  0.00     0.051 A 
ATOM     15  C   UNL     1       7.716  22.674 -11.923  1.00  0.00     0.157 A 
ATOM     16  C   UNL     1       6.812  24.488 -13.268  1.00  0.00     0.062 A 
ATOM     17  C   UNL     1       7.150  23.136 -13.135  1.00  0.00     0.158 A 
BRANCH  15  18
ATOM     18  O   UNL     1       8.088  21.343 -11.721  1.00  0.00    -0.504 OA
ATOM     19  H   UNL     1       7.514  20.552 -11.977  1.00  0.00     0.293 HD
ENDBRANCH  15  18
BRANCH  17  20
ATOM     20  O   UNL     1       6.904  22.292 -14.222  1.00  0.00    -0.504 OA
ATOM     21  H   UNL     1       7.572  21.627 -14.583  1.00  0.00     0.293 HD
ENDBRANCH  17  20
ENDBRANCH   1  12
BRANCH   2  22
ATOM     22  O   UNL     1       4.316  26.350 -11.844  1.00  0.00    -0.502 OA
ATOM     23  H   UNL     1       4.274  25.434 -12.277  1.00  0.00     0.293 HD
ENDBRANCH   2  22
BRANCH   9  24
ATOM     24  O   UNL     1       9.273  32.061 -13.618  1.00  0.00    -0.508 OA
ATOM     25  H   UNL     1       9.337  32.484 -14.537  1.00  0.00     0.293 HD
ENDBRANCH   9  24
TORSDOF 5
ENDMDL
MODEL 5
REMARK VINA RESULT:    -5.525      7.117      8.244
REMARK INTER + INTRA:          -6.749
REMARK INTER:                  -6.453
REMARK INTRA:                  -0.296
REMARK UNBOUND:                -0.255
REMARK SMILES O=c1c(O)c(-c2ccc(O)c(O)c2)oc2cc(O)ccc12
REMARK SMILES IDX 5 1 3 2 2 3 1 4 21 5 15 6 14 7 16 8 17 9 19 10 20 11 6 12
REMARK SMILES IDX 7 13 8 14 9 15 13 16 11 17 10 18 12 20 4 22 18 24
REMARK H PARENT 10 19 12 21 4 23 18 25
REMARK Flexibility Score: inf
ROOT
ATOM      1  C   UNL     1       3.343  20.976 -16.652  1.00  0.00     0.180 A 
ATOM      2  C   UNL     1       3.672  22.097 -15.860  1.00  0.00     0.208 A 
ATOM      3  C   UNL     1       3.777  23.353 -16.476  1.00  0.00     0.235 A 
ATOM      4  O   UNL     1       4.082  24.368 -15.791  1.00  0.00    -0.285 OA
ATOM      5  C   UNL     1       3.534  23.469 -17.854  1.00  0.00     0.069 A 
ATOM      6  C   UNL     1       3.185  22.305 -18.572  1.00  0.00     0.142 A 
ATOM      7  O   UNL     1       3.105  21.132 -17.953  1.00  0.00    -0.452 OA
ATOM      8  C   UNL     1       2.924  22.382 -19.945  1.00  0.00     0.094 A 
ATOM      9  C   UNL     1       3.009  23.608 -20.612  1.00  0.00     0.119 A 
ATOM     10  C   UNL     1       3.356  24.766 -19.902  1.00  0.00     0.047 A 
ATOM     11  C   UNL     1       3.617  24.700 -18.530  1.00  0.00     0.020 A 
ENDROOT
BRANCH   1  12
ATOM     12  C   UNL     1       3.230  19.616 -16.081  1.00  0.00     0.025 A 
ATOM     13  C   UNL     1       2.036  19.224 -15.461  1.00  0.00     0.016 A 
ATOM     14  C   UNL     1       1.902  17.938 -14.933  1.00  0.00     0.051 A 
ATOM     15  C   UNL     1       2.949  17.015 -15.028  1.00  0.00     0.157 A 
ATOM     16  C   UNL     1       4.276  18.683 -16.198  1.00  0.00     0.062 A 
ATOM     17  C   UNL     1       4.149  17.390 -15.675  1.00  0.00     0.158 A 
BRANCH  15  18
ATOM     18  O   UNL     1       2.753  15.748 -14.474  1.00  0.00    -0.504 OA
ATOM     19  H   UNL     1       1.995  15.131 -14.731  1.00  0.00     0.293 HD
ENDBRANCH  15  18
BRANCH  17  20
ATOM     20  O   UNL     1       5.229  16.517 -15.827  1.00  0.00    -0.504 OA
ATOM     21  H   UNL     1       5.673  16.030 -15.061  1.00  0.00     0.293 HD
ENDBRANCH  17  20
ENDBRANCH   1  12
BRANCH   2  22
ATOM     22  O   UNL     1       3.861  21.958 -14.484  1.00  0.00    -0.502 OA
ATOM     23  H   UNL     1       3.218  21.437 -13.898  1.00  0.00     0.293 HD
ENDBRANCH   2  22
BRANCH   9  24
ATOM     24  O   UNL     1       2.746  23.666 -21.979  1.00  0.00    -0.508 OA
ATOM     25  H   UNL     1       2.641  22.824 -22.534  1.00  0.00     0.293 HD
ENDBRANCH   9  24
TORSDOF 5
ENDMDL
MODEL 6
REMARK VINA RESULT:    -5.505      2.348      7.417
REMARK INTER + INTRA:          -6.725
REMARK INTER:                  -6.435
REMARK INTRA:                  -0.290
REMARK UNBOUND:                -0.255
REMARK SMILES O=c1c(O)c(-c2ccc(O)c(O)c2)oc2cc(O)ccc12
REMARK SMILES IDX 5 1 3 2 2 3 1 4 21 5 15 6 14 7 16 8 17 9 19 10 20 11 6 12
REMARK SMILES IDX 7 13 8 14 9 15 13 16 11 17 10 18 12 20 4 22 18 24
REMARK H PARENT 10 19 12 21 4 23 18 25
REMARK Flexibility Score: inf
ROOT
ATOM      1  C   UNL     1       6.700  25.133 -10.434  1.00  0.00     0.180 A 
ATOM      2  C   UNL     1       5.339  24.823 -10.639  1.00  0.00     0.208 A 
ATOM      3  C   UNL     1       4.812  23.665 -10.047  1.00  0.00     0.235 A 
ATOM      4  O   UNL     1       3.601  23.360 -10.225  1.00  0.00    -0.285 OA
ATOM      5  C   UNL     1       5.641  22.858  -9.252  1.00  0.00     0.069 A 
ATOM      6  C   UNL     1       6.985  23.250  -9.075  1.00  0.00     0.142 A 
ATOM      7  O   UNL     1       7.448  24.349  -9.660  1.00  0.00    -0.452 OA
ATOM      8  C   UNL     1       7.841  22.478  -8.280  1.00  0.00     0.094 A 
ATOM      9  C   UNL     1       7.371  21.315  -7.662  1.00  0.00     0.119 A 
ATOM     10  C   UNL     1       6.037  20.922  -7.836  1.00  0.00     0.047 A 
ATOM     11  C   UNL     1       5.174  21.688  -8.627  1.00  0.00     0.020 A 
ENDROOT
BRANCH   1  12
ATOM     12  C   UNL     1       7.333  26.327 -11.038  1.00  0.00     0.025 A 
ATOM     13  C   UNL     1       8.049  26.196 -12.236  1.00  0.00     0.016 A 
ATOM     14  C   UNL     1       8.638  27.312 -12.833  1.00  0.00     0.051 A 
ATOM     15  C   UNL     1       8.511  28.580 -12.257  1.00  0.00     0.157 A 
ATOM     16  C   UNL     1       7.184  27.603 -10.469  1.00  0.00     0.062 A 
ATOM     17  C   UNL     1       7.768  28.729 -11.062  1.00  0.00     0.158 A 
BRANCH  15  18
ATOM     18  O   UNL     1       9.130  29.654 -12.901  1.00  0.00    -0.504 OA
ATOM     19  H   UNL     1       8.666  30.256 -13.567  1.00  0.00     0.293 HD
ENDBRANCH  15  18
BRANCH  17  20
ATOM     20  O   UNL     1       7.580  29.966 -10.441  1.00  0.00    -0.504 OA
ATOM     21  H   UNL     1       7.765  30.141  -9.464  1.00  0.00     0.293 HD
ENDBRANCH  17  20
ENDBRANCH   1  12
BRANCH   2  22
ATOM     22  O   UNL     1       4.527  25.671 -11.395  1.00  0.00    -0.502 OA
ATOM     23  H   UNL     1       3.669  26.069 -11.029  1.00  0.00     0.293 HD
ENDBRANCH   2  22
BRANCH   9  24
ATOM     24  O   UNL     1       8.236  20.558  -6.875  1.00  0.00    -0.508 OA
ATOM     25  H   UNL     1       7.898  20.011  -6.092  1.00  0.00     0.293 HD
ENDBRANCH   9  24
TORSDOF 5
ENDMDL
MODEL 7
REMARK VINA RESULT:    -5.443      3.877      6.138
REMARK INTER + INTRA:          -6.653
REMARK INTER:                  -6.333
REMARK INTRA:                  -0.320
REMARK UNBOUND:                -0.255
REMARK SMILES O=c1c(O)c(-c2ccc(O)c(O)c2)oc2cc(O)ccc12
REMARK SMILES IDX 5 1 3 2 2 3 1 4 21 5 15 6 14 7 16 8 17 9 19 10 20 11 6 12
REMARK SMILES IDX 7 13 8 14 9 15 13 16 11 17 10 18 12 20 4 22 18 24
REMARK H PARENT 10 19 12 21 4 23 18 25
REMARK Flexibility Score: inf
ROOT
ATOM      1  C   UNL     1       6.884  26.859 -12.366  1.00  0.00     0.180 A 
ATOM      2  C   UNL     1       7.836  27.791 -12.832  1.00  0.00     0.208 A 
ATOM      3  C   UNL     1       7.462  29.138 -12.951  1.00  0.00     0.235 A 
ATOM      4  O   UNL     1       8.292  29.987 -13.377  1.00  0.00    -0.285 OA
ATOM      5  C   UNL     1       6.163  29.529 -12.588  1.00  0.00     0.069 A 
ATOM      6  C   UNL     1       5.277  28.541 -12.107  1.00  0.00     0.142 A 
ATOM      7  O   UNL     1       5.667  27.274 -12.017  1.00  0.00    -0.452 OA
ATOM      8  C   UNL     1       3.978  28.892 -11.724  1.00  0.00     0.094 A 
ATOM      9  C   UNL     1       3.550  30.221 -11.818  1.00  0.00     0.119 A 
ATOM     10  C   UNL     1       4.426  31.204 -12.295  1.00  0.00     0.047 A 
ATOM     11  C   UNL     1       5.727  30.863 -12.679  1.00  0.00     0.020 A 
ENDROOT
BRANCH   1  12
ATOM     12  C   UNL     1       7.195  25.419 -12.229  1.00  0.00     0.025 A 
ATOM     13  C   UNL     1       7.724  24.938 -11.023  1.00  0.00     0.016 A 
ATOM     14  C   UNL     1       8.006  23.581 -10.866  1.00  0.00     0.051 A 
ATOM     15  C   UNL     1       7.752  22.674 -11.900  1.00  0.00     0.157 A 
ATOM     16  C   UNL     1       6.917  24.507 -13.263  1.00  0.00     0.062 A 
ATOM     17  C   UNL     1       7.193  23.143 -13.113  1.00  0.00     0.158 A 
BRANCH  15  18
ATOM     18  O   UNL     1       8.064  21.330 -11.682  1.00  0.00    -0.504 OA
ATOM     19  H   UNL     1       8.921  21.012 -11.252  1.00  0.00     0.293 HD
ENDBRANCH  15  18
BRANCH  17  20
ATOM     20  O   UNL     1       6.893  22.295 -14.182  1.00  0.00    -0.504 OA
ATOM     21  H   UNL     1       6.078  21.699 -14.218  1.00  0.00     0.293 HD
ENDBRANCH  17  20
ENDBRANCH   1  12
BRANCH   2  22
ATOM     22  O   UNL     1       9.134  27.380 -13.140  1.00  0.00    -0.502 OA
ATOM     23  H   UNL     1       9.474  26.449 -12.925  1.00  0.00     0.293 HD
ENDBRANCH   2  22
BRANCH   9  24
ATOM     24  O   UNL     1       2.253  30.553 -11.433  1.00  0.00    -0.508 OA
ATOM     25  H   UNL     1       1.522  30.715 -12.116  1.00  0.00     0.293 HD
ENDBRANCH   9  24
TORSDOF 5
ENDMDL
MODEL 8
REMARK VINA RESULT:    -5.329      4.208      7.493
REMARK INTER + INTRA:          -6.518
REMARK INTER:                  -6.322
REMARK INTRA:                  -0.196
REMARK UNBOUND:                -0.255
REMARK SMILES O=c1c(O)c(-c2ccc(O)c(O)c2)oc2cc(O)ccc12
REMARK SMILES IDX 5 1 3 2 2 3 1 4 21 5 15 6 14 7 16 8 17 9 19 10 20 11 6 12
REMARK SMILES IDX 7 13 8 14 9 15 13 16 11 17 10 18 12 20 4 22 18 24
REMARK H PARENT 10 19 12 21 4 23 18 25
REMARK Flexibility Score: inf
ROOT
ATOM      1  C   UNL     1       6.862  25.637 -12.748  1.00  0.00     0.180 A 
ATOM      2  C   UNL     1       7.393  24.471 -12.157  1.00  0.00     0.208 A 
ATOM      3  C   UNL     1       7.050  23.222 -12.697  1.00  0.00     0.235 A 
ATOM      4  O   UNL     1       7.503  22.165 -12.179  1.00  0.00    -0.285 OA
ATOM      5  C   UNL     1       6.206  23.163 -13.818  1.00  0.00     0.069 A 
ATOM      6  C   UNL     1       5.736  24.376 -14.366  1.00  0.00     0.142 A 
ATOM      7  O   UNL     1       6.078  25.538 -13.820  1.00  0.00    -0.452 OA
ATOM      8  C   UNL     1       4.902  24.359 -15.489  1.00  0.00     0.094 A 
ATOM      9  C   UNL     1       4.528  23.144 -16.073  1.00  0.00     0.119 A 
ATOM     10  C   UNL     1       4.993  21.938 -15.531  1.00  0.00     0.047 A 
ATOM     11  C   UNL     1       5.828  21.944 -14.409  1.00  0.00     0.020 A 
ENDROOT
BRANCH   1  12
ATOM     12  C   UNL     1       7.163  26.989 -12.226  1.00  0.00     0.025 A 
ATOM     13  C   UNL     1       6.667  27.372 -10.972  1.00  0.00     0.016 A 
ATOM     14  C   UNL     1       6.956  28.635 -10.454  1.00  0.00     0.051 A 
ATOM     15  C   UNL     1       7.757  29.534 -11.167  1.00  0.00     0.157 A 
ATOM     16  C   UNL     1       7.986  27.881 -12.935  1.00  0.00     0.062 A 
ATOM     17  C   UNL     1       8.285  29.148 -12.421  1.00  0.00     0.158 A 
BRANCH  15  18
ATOM     18  O   UNL     1       8.002  30.784 -10.595  1.00  0.00    -0.504 OA
ATOM     19  H   UNL     1       7.905  30.982  -9.609  1.00  0.00     0.293 HD
ENDBRANCH  15  18
BRANCH  17  20
ATOM     20  O   UNL     1       9.109  29.983 -13.181  1.00  0.00    -0.504 OA
ATOM     21  H   UNL     1       9.357  30.925 -12.915  1.00  0.00     0.293 HD
ENDBRANCH  17  20
ENDBRANCH   1  12
BRANCH   2  22
ATOM     22  O   UNL     1       8.268  24.564 -11.073  1.00  0.00    -0.502 OA
ATOM     23  H   UNL     1       8.618  23.746 -10.586  1.00  0.00     0.293 HD
ENDBRANCH   2  22
BRANCH   9  24
ATOM     24  O   UNL     1       3.697  23.146 -17.191  1.00  0.00    -0.508 OA
ATOM     25  H   UNL     1       3.235  23.991 -17.506  1.00  0.00     0.293 HD
ENDBRANCH   9  24
TORSDOF 5
ENDMDL
MODEL 9
REMARK VINA RESULT:    -5.297      4.399      6.044
REMARK INTER + INTRA:          -6.481
REMARK INTER:                  -6.408
REMARK INTRA:                  -0.073
REMARK UNBOUND:                -0.255
REMARK SMILES O=c1c(O)c(-c2ccc(O)c(O)c2)oc2cc(O)ccc12
REMARK SMILES IDX 5 1 3 2 2 3 1 4 21 5 15 6 14 7 16 8 17 9 19 10 20 11 6 12
REMARK SMILES IDX 7 13 8 14 9 15 13 16 11 17 10 18 12 20 4 22 18 24
REMARK H PARENT 10 19 12 21 4 23 18 25
REMARK Flexibility Score: inf
ROOT
ATOM      1  C   UNL     1       6.016  25.094 -13.191  1.00  0.00     0.180 A 
ATOM      2  C   UNL     1       5.659  24.998 -11.829  1.00  0.00     0.208 A 
ATOM      3  C   UNL     1       6.096  25.994 -10.943  1.00  0.00     0.235 A 
ATOM      4  O   UNL     1       5.800  25.923  -9.719  1.00  0.00    -0.285 OA
ATOM      5  C   UNL     1       6.856  27.069 -11.432  1.00  0.00     0.069 A 
ATOM      6  C   UNL     1       7.150  27.106 -12.812  1.00  0.00     0.142 A 
ATOM      7  O   UNL     1       6.725  26.138 -13.617  1.00  0.00    -0.452 OA
ATOM      8  C   UNL     1       7.896  28.166 -13.340  1.00  0.00     0.094 A 
ATOM      9  C   UNL     1       8.355  29.190 -12.506  1.00  0.00     0.119 A 
ATOM     10  C   UNL     1       8.065  29.156 -11.135  1.00  0.00     0.047 A 
ATOM     11  C   UNL     1       7.319  28.102 -10.598  1.00  0.00     0.020 A 
ENDROOT
BRANCH   1  12
ATOM     12  C   UNL     1       5.609  24.075 -14.184  1.00  0.00     0.025 A 
ATOM     13  C   UNL     1       5.964  22.734 -13.983  1.00  0.00     0.016 A 
ATOM     14  C   UNL     1       5.573  21.755 -14.897  1.00  0.00     0.051 A 
ATOM     15  C   UNL     1       4.809  22.090 -16.020  1.00  0.00     0.157 A 
ATOM     16  C   UNL     1       4.822  24.412 -15.299  1.00  0.00     0.062 A 
ATOM     17  C   UNL     1       4.422  23.436 -16.219  1.00  0.00     0.158 A 
BRANCH  15  18
ATOM     18  O   UNL     1       4.457  21.064 -16.899  1.00  0.00    -0.504 OA
ATOM     19  H   UNL     1       4.556  21.122 -17.903  1.00  0.00     0.293 HD
ENDBRANCH  15  18
BRANCH  17  20
ATOM     20  O   UNL     1       3.641  23.843 -17.304  1.00  0.00    -0.504 OA
ATOM     21  H   UNL     1       2.673  23.585 -17.432  1.00  0.00     0.293 HD
ENDBRANCH  17  20
ENDBRANCH   1  12
BRANCH   2  22
ATOM     22  O   UNL     1       4.862  23.943 -11.381  1.00  0.00    -0.502 OA
ATOM     23  H   UNL     1       4.083  24.083 -10.747  1.00  0.00     0.293 HD
ENDBRANCH   2  22
BRANCH   9  24
ATOM     24  O   UNL     1       9.096  30.238 -13.048  1.00  0.00    -0.508 OA
ATOM     25  H   UNL     1       8.987  31.190 -12.718  1.00  0.00     0.293 HD
ENDBRANCH   9  24
TORSDOF 5
ENDMDL
