MODEL 1
REMARK VINA RESULT:    -5.217      0.000      0.000
REMARK INTER + INTRA:          -5.614
REMARK INTER:                  -5.522
REMARK INTRA:                  -0.093
REMARK UNBOUND:                -0.093
REMARK SMILES C=C(C)[C@@H]1CC=C(C)C(=O)C1
REMARK SMILES IDX 8 1 7 2 6 3 5 4 4 5 11 6 9 7 10 8 2 9 1 10 3 11
REMARK H PARENT
REMARK Flexibility Score: inf
ROOT
ATOM      1  C   UNL     1      23.526  54.206   9.098  1.00  0.00     0.048 C 
ATOM      2  C   UNL     1      24.318  54.894   8.021  1.00  0.00    -0.012 C 
ATOM      3  C   UNL     1      24.470  56.229   8.050  1.00  0.00    -0.019 C 
ATOM      4  C   UNL     1      25.267  56.966   7.007  1.00  0.00     0.036 C 
ATOM      5  C   UNL     1      25.166  56.269   5.637  1.00  0.00     0.025 C 
ATOM      6  C   UNL     1      25.586  54.792   5.756  1.00  0.00     0.089 C 
ATOM      7  C   UNL     1      24.826  54.114   6.863  1.00  0.00     0.158 C 
ATOM      8  O   UNL     1      24.654  52.867   6.815  1.00  0.00    -0.295 OA
ENDROOT
BRANCH   5   9
ATOM      9  C   UNL     1      25.977  56.999   4.575  1.00  0.00    -0.077 C 
ATOM     10  C   UNL     1      25.705  58.272   4.239  1.00  0.00     0.008 C 
ATOM     11  C   UNL     1      27.112  56.296   3.875  1.00  0.00     0.039 C 
ENDBRANCH   5   9
TORSDOF 1
ENDMDL
MODEL 2
REMARK VINA RESULT:    -5.195      1.530      2.150
REMARK INTER + INTRA:          -5.591
REMARK INTER:                  -5.495
REMARK INTRA:                  -0.096
REMARK UNBOUND:                -0.093
REMARK SMILES C=C(C)[C@@H]1CC=C(C)C(=O)C1
REMARK SMILES IDX 8 1 7 2 6 3 5 4 4 5 11 6 9 7 10 8 2 9 1 10 3 11
REMARK H PARENT
REMARK Flexibility Score: inf
ROOT
ATOM      1  C   UNL     1      24.925  52.747   9.173  1.00  0.00     0.048 C 
ATOM      2  C   UNL     1      24.965  53.779   8.079  1.00  0.00    -0.012 C 
ATOM      3  C   UNL     1      25.212  53.403   6.813  1.00  0.00    -0.019 C 
ATOM      4  C   UNL     1      25.247  54.392   5.678  1.00  0.00     0.036 C 
ATOM      5  C   UNL     1      25.767  55.763   6.152  1.00  0.00     0.025 C 
ATOM      6  C   UNL     1      24.931  56.269   7.342  1.00  0.00     0.089 C 
ATOM      7  C   UNL     1      24.854  55.221   8.418  1.00  0.00     0.158 C 
ATOM      8  O   UNL     1      24.658  55.579   9.611  1.00  0.00    -0.295 OA
ENDROOT
BRANCH   5   9
ATOM      9  C   UNL     1      25.797  56.776   5.015  1.00  0.00    -0.077 C 
ATOM     10  C   UNL     1      24.969  57.834   5.000  1.00  0.00     0.008 C 
ATOM     11  C   UNL     1      26.769  56.604   3.876  1.00  0.00     0.039 C 
ENDBRANCH   5   9
TORSDOF 1
ENDMDL
MODEL 3
REMARK VINA RESULT:    -5.186      5.386      6.174
REMARK INTER + INTRA:          -5.582
REMARK INTER:                  -5.484
REMARK INTRA:                  -0.097
REMARK UNBOUND:                -0.093
REMARK SMILES C=C(C)[C@@H]1CC=C(C)C(=O)C1
REMARK SMILES IDX 8 1 7 2 6 3 5 4 4 5 11 6 9 7 10 8 2 9 1 10 3 11
REMARK H PARENT
REMARK Flexibility Score: inf
ROOT
ATOM      1  C   UNL     1      25.777  54.451  10.020  1.00  0.00     0.048 C 
ATOM      2  C   UNL     1      26.928  55.302  10.480  1.00  0.00    -0.012 C 
ATOM      3  C   UNL     1      26.762  56.627  10.630  1.00  0.00    -0.019 C 
ATOM      4  C   UNL     1      27.875  57.523  11.105  1.00  0.00     0.036 C 
ATOM      5  C   UNL     1      29.246  57.004  10.629  1.00  0.00     0.025 C 
ATOM      6  C   UNL     1      29.446  55.542  11.070  1.00  0.00     0.089 C 
ATOM      7  C   UNL     1      28.274  54.698  10.647  1.00  0.00     0.158 C 
ATOM      8  O   UNL     1      28.441  53.461  10.472  1.00  0.00    -0.295 OA
ENDROOT
BRANCH   5   9
ATOM      9  C   UNL     1      30.382  57.896  11.111  1.00  0.00    -0.077 C 
ATOM     10  C   UNL     1      31.668  57.555  10.921  1.00  0.00     0.008 C 
ATOM     11  C   UNL     1      30.077  59.193  11.817  1.00  0.00     0.039 C 
ENDBRANCH   5   9
TORSDOF 1
ENDMDL
MODEL 4
REMARK VINA RESULT:    -5.182      2.042      4.213
REMARK INTER + INTRA:          -5.577
REMARK INTER:                  -5.483
REMARK INTRA:                  -0.094
REMARK UNBOUND:                -0.093
REMARK SMILES C=C(C)[C@@H]1CC=C(C)C(=O)C1
REMARK SMILES IDX 8 1 7 2 6 3 5 4 4 5 11 6 9 7 10 8 2 9 1 10 3 11
REMARK H PARENT
REMARK Flexibility Score: inf
ROOT
ATOM      1  C   UNL     1      25.245  58.142   5.791  1.00  0.00     0.048 C 
ATOM      2  C   UNL     1      25.213  56.699   6.213  1.00  0.00    -0.012 C 
ATOM      3  C   UNL     1      24.727  56.365   7.421  1.00  0.00    -0.019 C 
ATOM      4  C   UNL     1      24.655  54.935   7.886  1.00  0.00     0.036 C 
ATOM      5  C   UNL     1      25.817  54.104   7.306  1.00  0.00     0.025 C 
ATOM      6  C   UNL     1      25.840  54.218   5.770  1.00  0.00     0.089 C 
ATOM      7  C   UNL     1      25.829  55.661   5.347  1.00  0.00     0.158 C 
ATOM      8  O   UNL     1      26.318  55.977   4.229  1.00  0.00    -0.295 OA
ENDROOT
BRANCH   5   9
ATOM      9  C   UNL     1      25.750  52.652   7.760  1.00  0.00    -0.077 C 
ATOM     10  C   UNL     1      24.573  52.038   7.969  1.00  0.00     0.008 C 
ATOM     11  C   UNL     1      27.020  51.872   7.985  1.00  0.00     0.039 C 
ENDBRANCH   5   9
TORSDOF 1
ENDMDL
MODEL 5
REMARK VINA RESULT:    -5.160     11.803     12.610
REMARK INTER + INTRA:          -5.554
REMARK INTER:                  -5.458
REMARK INTRA:                  -0.097
REMARK UNBOUND:                -0.093
REMARK SMILES C=C(C)[C@@H]1CC=C(C)C(=O)C1
REMARK SMILES IDX 8 1 7 2 6 3 5 4 4 5 11 6 9 7 10 8 2 9 1 10 3 11
REMARK H PARENT
REMARK Flexibility Score: inf
ROOT
ATOM      1  C   UNL     1      25.902  52.659  17.697  1.00  0.00     0.048 C 
ATOM      2  C   UNL     1      27.068  51.828  17.237  1.00  0.00    -0.012 C 
ATOM      3  C   UNL     1      26.937  50.496  17.123  1.00  0.00    -0.019 C 
ATOM      4  C   UNL     1      28.065  49.619  16.650  1.00  0.00     0.036 C 
ATOM      5  C   UNL     1      29.430  50.188  17.086  1.00  0.00     0.025 C 
ATOM      6  C   UNL     1      29.580  51.643  16.605  1.00  0.00     0.089 C 
ATOM      7  C   UNL     1      28.393  52.465  17.028  1.00  0.00     0.158 C 
ATOM      8  O   UNL     1      28.528  53.710  17.169  1.00  0.00    -0.295 OA
ENDROOT
BRANCH   5   9
ATOM      9  C   UNL     1      30.581  49.315  16.605  1.00  0.00    -0.077 C 
ATOM     10  C   UNL     1      31.860  49.649  16.847  1.00  0.00     0.008 C 
ATOM     11  C   UNL     1      30.300  48.047  15.841  1.00  0.00     0.039 C 
ENDBRANCH   5   9
TORSDOF 1
ENDMDL
MODEL 6
REMARK VINA RESULT:    -5.148      2.088      4.493
REMARK INTER + INTRA:          -5.541
REMARK INTER:                  -5.451
REMARK INTRA:                  -0.090
REMARK UNBOUND:                -0.093
REMARK SMILES C=C(C)[C@@H]1CC=C(C)C(=O)C1
REMARK SMILES IDX 8 1 7 2 6 3 5 4 4 5 11 6 9 7 10 8 2 9 1 10 3 11
REMARK H PARENT
REMARK Flexibility Score: inf
ROOT
ATOM      1  C   UNL     1      25.009  57.876   5.534  1.00  0.00     0.048 C 
ATOM      2  C   UNL     1      25.268  56.521   6.132  1.00  0.00    -0.012 C 
ATOM      3  C   UNL     1      25.599  55.490   5.336  1.00  0.00    -0.019 C 
ATOM      4  C   UNL     1      25.885  54.117   5.883  1.00  0.00     0.036 C 
ATOM      5  C   UNL     1      25.037  53.832   7.138  1.00  0.00     0.025 C 
ATOM      6  C   UNL     1      25.253  54.936   8.190  1.00  0.00     0.089 C 
ATOM      7  C   UNL     1      25.037  56.295   7.582  1.00  0.00     0.158 C 
ATOM      8  O   UNL     1      24.691  57.252   8.325  1.00  0.00    -0.295 OA
ENDROOT
BRANCH   5   9
ATOM      9  C   UNL     1      25.325  52.450   7.708  1.00  0.00    -0.077 C 
ATOM     10  C   UNL     1      24.331  51.611   8.046  1.00  0.00     0.008 C 
ATOM     11  C   UNL     1      26.749  51.994   7.903  1.00  0.00     0.039 C 
ENDBRANCH   5   9
TORSDOF 1
ENDMDL
MODEL 7
REMARK VINA RESULT:    -5.096      5.810      7.379
REMARK INTER + INTRA:          -5.487
REMARK INTER:                  -5.398
REMARK INTRA:                  -0.089
REMARK UNBOUND:                -0.093
REMARK SMILES C=C(C)[C@@H]1CC=C(C)C(=O)C1
REMARK SMILES IDX 8 1 7 2 6 3 5 4 4 5 11 6 9 7 10 8 2 9 1 10 3 11
REMARK H PARENT
REMARK Flexibility Score: inf
ROOT
ATOM      1  C   UNL     1      30.495  59.414  12.167  1.00  0.00     0.048 C 
ATOM      2  C   UNL     1      29.290  58.541  11.946  1.00  0.00    -0.012 C 
ATOM      3  C   UNL     1      29.224  57.754  10.859  1.00  0.00    -0.019 C 
ATOM      4  C   UNL     1      28.050  56.848  10.598  1.00  0.00     0.036 C 
ATOM      5  C   UNL     1      26.745  57.461  11.140  1.00  0.00     0.025 C 
ATOM      6  C   UNL     1      26.896  57.805  12.634  1.00  0.00     0.089 C 
ATOM      7  C   UNL     1      28.125  58.642  12.862  1.00  0.00     0.158 C 
ATOM      8  O   UNL     1      28.170  59.407  13.862  1.00  0.00    -0.295 OA
ENDROOT
BRANCH   5   9
ATOM      9  C   UNL     1      25.551  56.550  10.892  1.00  0.00    -0.077 C 
ATOM     10  C   UNL     1      24.730  56.741   9.845  1.00  0.00     0.008 C 
ATOM     11  C   UNL     1      25.268  55.403  11.828  1.00  0.00     0.039 C 
ENDBRANCH   5   9
TORSDOF 1
ENDMDL
MODEL 8
REMARK VINA RESULT:    -5.040      3.688      4.921
REMARK INTER + INTRA:          -5.427
REMARK INTER:                  -5.334
REMARK INTRA:                  -0.093
REMARK UNBOUND:                -0.093
REMARK SMILES C=C(C)[C@@H]1CC=C(C)C(=O)C1
REMARK SMILES IDX 8 1 7 2 6 3 5 4 4 5 11 6 9 7 10 8 2 9 1 10 3 11
REMARK H PARENT
REMARK Flexibility Score: inf
ROOT
ATOM      1  C   UNL     1      29.366  52.804  11.080  1.00  0.00     0.048 C 
ATOM      2  C   UNL     1      28.214  52.878  10.116  1.00  0.00    -0.012 C 
ATOM      3  C   UNL     1      28.231  52.135   8.996  1.00  0.00    -0.019 C 
ATOM      4  C   UNL     1      27.097  52.157   8.006  1.00  0.00     0.036 C 
ATOM      5  C   UNL     1      26.430  53.545   7.957  1.00  0.00     0.025 C 
ATOM      6  C   UNL     1      25.982  53.972   9.367  1.00  0.00     0.089 C 
ATOM      7  C   UNL     1      27.122  53.858  10.341  1.00  0.00     0.158 C 
ATOM      8  O   UNL     1      27.122  54.582  11.373  1.00  0.00    -0.295 OA
ENDROOT
BRANCH   5   9
ATOM      9  C   UNL     1      25.274  53.577   6.966  1.00  0.00    -0.077 C 
ATOM     10  C   UNL     1      24.136  52.900   7.196  1.00  0.00     0.008 C 
ATOM     11  C   UNL     1      25.390  54.381   5.696  1.00  0.00     0.039 C 
ENDBRANCH   5   9
TORSDOF 1
ENDMDL
MODEL 9
REMARK VINA RESULT:    -5.021      6.638      7.739
REMARK INTER + INTRA:          -5.407
REMARK INTER:                  -5.311
REMARK INTRA:                  -0.096
REMARK UNBOUND:                -0.093
REMARK SMILES C=C(C)[C@@H]1CC=C(C)C(=O)C1
REMARK SMILES IDX 8 1 7 2 6 3 5 4 4 5 11 6 9 7 10 8 2 9 1 10 3 11
REMARK H PARENT
REMARK Flexibility Score: inf
ROOT
ATOM      1  C   UNL     1      29.941  59.731  12.121  1.00  0.00     0.048 C 
ATOM      2  C   UNL     1      29.730  58.326  11.627  1.00  0.00    -0.012 C 
ATOM      3  C   UNL     1      28.483  57.862  11.440  1.00  0.00    -0.019 C 
ATOM      4  C   UNL     1      28.215  56.471  10.931  1.00  0.00     0.036 C 
ATOM      5  C   UNL     1      29.299  55.487  11.411  1.00  0.00     0.025 C 
ATOM      6  C   UNL     1      30.697  55.995  11.012  1.00  0.00     0.089 C 
ATOM      7  C   UNL     1      30.893  57.416  11.467  1.00  0.00     0.158 C 
ATOM      8  O   UNL     1      32.062  57.837  11.677  1.00  0.00    -0.295 OA
ENDROOT
BRANCH   5   9
ATOM      9  C   UNL     1      29.046  54.077  10.895  1.00  0.00    -0.077 C 
ATOM     10  C   UNL     1      27.878  53.741  10.322  1.00  0.00     0.008 C 
ATOM     11  C   UNL     1      30.117  53.023  11.020  1.00  0.00     0.039 C 
ENDBRANCH   5   9
TORSDOF 1
ENDMDL
