MODEL 1
REMARK VINA RESULT:    -3.132      0.000      0.000
REMARK INTER + INTRA:          -3.970
REMARK INTER:                  -3.865
REMARK INTRA:                  -0.105
REMARK UNBOUND:                -0.105
REMARK SMILES CCCCCC(=O)[O-]
REMARK SMILES IDX 4 1 5 2 6 3 7 4 8 5 3 6 2 7 1 8
REMARK H PARENT
REMARK Flexibility Score: inf
ROOT
ATOM      1  C   UNL     1     -93.895 148.291 238.848  1.00  0.00     0.006 C 
ENDROOT
BRANCH   1   2
ATOM      2  C   UNL     1     -93.668 146.874 238.308  1.00  0.00     0.053 C 
BRANCH   2   3
ATOM      3  C   UNL     1     -92.832 146.078 239.261  1.00  0.00     0.041 C 
ATOM      4  O   UNL     1     -91.588 145.990 239.091  1.00  0.00    -0.550 OA
ATOM      5  O   UNL     1     -93.421 145.477 240.367  1.00  0.00    -0.550 OA
ENDBRANCH   2   3
ENDBRANCH   1   2
BRANCH   1   6
ATOM      6  C   UNL     1     -95.266 148.462 239.525  1.00  0.00     0.000 C 
BRANCH   6   7
ATOM      7  C   UNL     1     -95.215 149.046 240.948  1.00  0.00    -0.003 C 
ATOM      8  C   UNL     1     -96.534 149.682 241.383  1.00  0.00     0.004 C 
ENDBRANCH   6   7
ENDBRANCH   1   6
TORSDOF 4
ENDMDL
MODEL 2
REMARK VINA RESULT:    -3.119      2.148      4.417
REMARK INTER + INTRA:          -3.954
REMARK INTER:                  -3.831
REMARK INTRA:                  -0.122
REMARK UNBOUND:                -0.105
REMARK SMILES CCCCCC(=O)[O-]
REMARK SMILES IDX 4 1 5 2 6 3 7 4 8 5 3 6 2 7 1 8
REMARK H PARENT
REMARK Flexibility Score: inf
ROOT
ATOM      1  C   UNL     1     -93.644 146.753 238.905  1.00  0.00     0.006 C 
ENDROOT
BRANCH   1   2
ATOM      2  C   UNL     1     -93.699 148.166 239.498  1.00  0.00     0.053 C 
BRANCH   2   3
ATOM      3  C   UNL     1     -94.639 148.209 240.663  1.00  0.00     0.041 C 
ATOM      4  O   UNL     1     -94.750 147.211 241.423  1.00  0.00    -0.550 OA
ATOM      5  O   UNL     1     -95.353 149.369 240.938  1.00  0.00    -0.550 OA
ENDBRANCH   2   3
ENDBRANCH   1   2
BRANCH   1   6
ATOM      6  C   UNL     1     -92.303 146.045 239.166  1.00  0.00     0.000 C 
BRANCH   6   7
ATOM      7  C   UNL     1     -91.512 145.673 237.899  1.00  0.00    -0.003 C 
ATOM      8  C   UNL     1     -92.347 145.769 236.623  1.00  0.00     0.004 C 
ENDBRANCH   6   7
ENDBRANCH   1   6
TORSDOF 4
ENDMDL
MODEL 3
REMARK VINA RESULT:    -3.063      2.570      4.493
REMARK INTER + INTRA:          -3.885
REMARK INTER:                  -3.788
REMARK INTRA:                  -0.097
REMARK UNBOUND:                -0.105
REMARK SMILES CCCCCC(=O)[O-]
REMARK SMILES IDX 4 1 5 2 6 3 7 4 8 5 3 6 2 7 1 8
REMARK H PARENT
REMARK Flexibility Score: inf
ROOT
ATOM      1  C   UNL     1     -93.917 148.242 238.941  1.00  0.00     0.006 C 
ENDROOT
BRANCH   1   2
ATOM      2  C   UNL     1     -94.308 148.233 240.424  1.00  0.00     0.053 C 
BRANCH   2   3
ATOM      3  C   UNL     1     -95.716 148.709 240.598  1.00  0.00     0.041 C 
ATOM      4  O   UNL     1     -96.669 148.069 240.080  1.00  0.00    -0.550 OA
ATOM      5  O   UNL     1     -95.980 149.831 241.374  1.00  0.00    -0.550 OA
ENDBRANCH   2   3
ENDBRANCH   1   2
BRANCH   1   6
ATOM      6  C   UNL     1     -93.595 146.839 238.398  1.00  0.00     0.000 C 
BRANCH   6   7
ATOM      7  C   UNL     1     -92.433 146.122 239.110  1.00  0.00    -0.003 C 
ATOM      8  C   UNL     1     -91.351 145.635 238.149  1.00  0.00     0.004 C 
ENDBRANCH   6   7
ENDBRANCH   1   6
TORSDOF 4
ENDMDL
MODEL 4
REMARK VINA RESULT:    -2.934      3.413      5.102
REMARK INTER + INTRA:          -3.725
REMARK INTER:                  -3.602
REMARK INTRA:                  -0.123
REMARK UNBOUND:                -0.105
REMARK SMILES CCCCCC(=O)[O-]
REMARK SMILES IDX 4 1 5 2 6 3 7 4 8 5 3 6 2 7 1 8
REMARK H PARENT
REMARK Flexibility Score: inf
ROOT
ATOM      1  C   UNL     1     -96.158 148.612 240.663  1.00  0.00     0.006 C 
ENDROOT
BRANCH   1   2
ATOM      2  C   UNL     1     -96.700 149.745 241.543  1.00  0.00     0.053 C 
BRANCH   2   3
ATOM      3  C   UNL     1     -97.514 149.189 242.669  1.00  0.00     0.041 C 
ATOM      4  O   UNL     1     -97.411 147.975 242.987  1.00  0.00    -0.550 OA
ATOM      5  O   UNL     1     -98.351 150.024 243.400  1.00  0.00    -0.550 OA
ENDBRANCH   2   3
ENDBRANCH   1   2
BRANCH   1   6
ATOM      6  C   UNL     1     -94.621 148.527 240.674  1.00  0.00     0.000 C 
BRANCH   6   7
ATOM      7  C   UNL     1     -93.987 148.152 239.322  1.00  0.00    -0.003 C 
ATOM      8  C   UNL     1     -94.719 148.760 238.127  1.00  0.00     0.004 C 
ENDBRANCH   6   7
ENDBRANCH   1   6
TORSDOF 4
ENDMDL
MODEL 5
REMARK VINA RESULT:    -2.894      1.844      2.700
REMARK INTER + INTRA:          -3.676
REMARK INTER:                  -3.613
REMARK INTRA:                  -0.063
REMARK UNBOUND:                -0.105
REMARK SMILES CCCCCC(=O)[O-]
REMARK SMILES IDX 4 1 5 2 6 3 7 4 8 5 3 6 2 7 1 8
REMARK H PARENT
REMARK Flexibility Score: inf
ROOT
ATOM      1  C   UNL     1     -95.906 148.703 240.454  1.00  0.00     0.006 C 
ENDROOT
BRANCH   1   2
ATOM      2  C   UNL     1     -94.435 148.291 240.599  1.00  0.00     0.053 C 
BRANCH   2   3
ATOM      3  C   UNL     1     -93.851 147.960 239.261  1.00  0.00     0.041 C 
ATOM      4  O   UNL     1     -94.218 148.591 238.236  1.00  0.00    -0.550 OA
ATOM      5  O   UNL     1     -92.862 146.989 239.156  1.00  0.00    -0.550 OA
ENDBRANCH   2   3
ENDBRANCH   1   2
BRANCH   1   6
ATOM      6  C   UNL     1     -96.314 149.820 241.432  1.00  0.00     0.000 C 
BRANCH   6   7
ATOM      7  C   UNL     1     -97.813 150.167 241.425  1.00  0.00    -0.003 C 
ATOM      8  C   UNL     1     -98.492 149.918 242.770  1.00  0.00     0.004 C 
ENDBRANCH   6   7
ENDBRANCH   1   6
TORSDOF 4
ENDMDL
MODEL 6
REMARK VINA RESULT:    -2.787      1.926      2.280
REMARK INTER + INTRA:          -3.544
REMARK INTER:                  -3.425
REMARK INTRA:                  -0.119
REMARK UNBOUND:                -0.105
REMARK SMILES CCCCCC(=O)[O-]
REMARK SMILES IDX 4 1 5 2 6 3 7 4 8 5 3 6 2 7 1 8
REMARK H PARENT
REMARK Flexibility Score: inf
ROOT
ATOM      1  C   UNL     1     -93.538 148.178 239.519  1.00  0.00     0.006 C 
ENDROOT
BRANCH   1   2
ATOM      2  C   UNL     1     -93.467 146.814 238.821  1.00  0.00     0.053 C 
BRANCH   2   3
ATOM      3  C   UNL     1     -93.707 146.965 237.351  1.00  0.00     0.041 C 
ATOM      4  O   UNL     1     -94.498 147.847 236.926  1.00  0.00    -0.550 OA
ATOM      5  O   UNL     1     -93.018 146.164 236.449  1.00  0.00    -0.550 OA
ENDBRANCH   2   3
ENDBRANCH   1   2
BRANCH   1   6
ATOM      6  C   UNL     1     -94.537 148.201 240.690  1.00  0.00     0.000 C 
BRANCH   6   7
ATOM      7  C   UNL     1     -95.921 148.779 240.346  1.00  0.00    -0.003 C 
ATOM      8  C   UNL     1     -96.450 149.739 241.410  1.00  0.00     0.004 C 
ENDBRANCH   6   7
ENDBRANCH   1   6
TORSDOF 4
ENDMDL
MODEL 7
REMARK VINA RESULT:    -2.604      2.758      4.009
REMARK INTER + INTRA:          -3.319
REMARK INTER:                  -3.087
REMARK INTRA:                  -0.232
REMARK UNBOUND:                -0.105
REMARK SMILES CCCCCC(=O)[O-]
REMARK SMILES IDX 4 1 5 2 6 3 7 4 8 5 3 6 2 7 1 8
REMARK H PARENT
REMARK Flexibility Score: inf
ROOT
ATOM      1  C   UNL     1     -94.735 148.529 238.509  1.00  0.00     0.006 C 
ENDROOT
BRANCH   1   2
ATOM      2  C   UNL     1     -95.221 147.475 237.505  1.00  0.00     0.053 C 
BRANCH   2   3
ATOM      3  C   UNL     1     -94.565 147.678 236.176  1.00  0.00     0.041 C 
ATOM      4  O   UNL     1     -94.964 148.590 235.405  1.00  0.00    -0.550 OA
ATOM      5  O   UNL     1     -93.479 146.892 235.810  1.00  0.00    -0.550 OA
ENDBRANCH   2   3
ENDBRANCH   1   2
BRANCH   1   6
ATOM      6  C   UNL     1     -93.546 148.043 239.358  1.00  0.00     0.000 C 
BRANCH   6   7
ATOM      7  C   UNL     1     -93.397 146.514 239.444  1.00  0.00    -0.003 C 
ATOM      8  C   UNL     1     -92.038 146.016 238.955  1.00  0.00     0.004 C 
ENDBRANCH   6   7
ENDBRANCH   1   6
TORSDOF 4
ENDMDL
MODEL 8
REMARK VINA RESULT:    -2.541      3.376      3.979
REMARK INTER + INTRA:          -3.241
REMARK INTER:                  -3.011
REMARK INTRA:                  -0.230
REMARK UNBOUND:                -0.105
REMARK SMILES CCCCCC(=O)[O-]
REMARK SMILES IDX 4 1 5 2 6 3 7 4 8 5 3 6 2 7 1 8
REMARK H PARENT
REMARK Flexibility Score: inf
ROOT
ATOM      1  C   UNL     1     -94.637 147.723 238.197  1.00  0.00     0.006 C 
ENDROOT
BRANCH   1   2
ATOM      2  C   UNL     1     -95.128 148.856 237.288  1.00  0.00     0.053 C 
BRANCH   2   3
ATOM      3  C   UNL     1     -96.624 148.890 237.256  1.00  0.00     0.041 C 
ATOM      4  O   UNL     1     -97.291 148.144 238.021  1.00  0.00    -0.550 OA
ATOM      5  O   UNL     1     -97.282 149.782 236.418  1.00  0.00    -0.550 OA
ENDBRANCH   2   3
ENDBRANCH   1   2
BRANCH   1   6
ATOM      6  C   UNL     1     -93.833 148.232 239.407  1.00  0.00     0.000 C 
BRANCH   6   7
ATOM      7  C   UNL     1     -94.569 148.138 240.756  1.00  0.00    -0.003 C 
ATOM      8  C   UNL     1     -95.598 149.248 240.956  1.00  0.00     0.004 C 
ENDBRANCH   6   7
ENDBRANCH   1   6
TORSDOF 4
ENDMDL
