MODEL 1
REMARK VINA RESULT:    -5.286      0.000      0.000
REMARK INTER + INTRA:          -6.195
REMARK INTER:                  -6.059
REMARK INTRA:                  -0.136
REMARK UNBOUND:                -0.136
REMARK SMILES O=C([O-])C=Cc1ccc(O)cc1
REMARK SMILES IDX 6 1 7 2 12 3 8 4 11 5 9 6 5 7 4 8 2 9 1 10 3 11 10 12
REMARK H PARENT 10 13
REMARK Flexibility Score: inf
ROOT
ATOM      1  C   UNL     1      10.009  -4.695  19.355  1.00  0.00    -0.025 A 
ATOM      2  C   UNL     1      11.089  -5.434  19.867  1.00  0.00     0.012 A 
ATOM      3  C   UNL     1       8.798  -5.364  19.081  1.00  0.00     0.012 A 
ATOM      4  C   UNL     1      10.958  -6.802  20.124  1.00  0.00     0.047 A 
ATOM      5  C   UNL     1       8.671  -6.732  19.339  1.00  0.00     0.047 A 
ATOM      6  C   UNL     1       9.750  -7.454  19.864  1.00  0.00     0.115 A 
ENDROOT
BRANCH   1   7
ATOM      7  C   UNL     1      10.201  -3.248  19.089  1.00  0.00     0.010 C 
ATOM      8  C   UNL     1      10.895  -2.768  18.048  1.00  0.00     0.025 C 
BRANCH   8   9
ATOM      9  C   UNL     1      11.053  -1.323  17.809  1.00  0.00     0.064 C 
ATOM     10  O   UNL     1      10.095  -0.623  17.386  1.00  0.00    -0.545 OA
ATOM     11  O   UNL     1      12.279  -0.721  18.055  1.00  0.00    -0.545 OA
ENDBRANCH   8   9
ENDBRANCH   1   7
BRANCH   6  12
ATOM     12  O   UNL     1       9.633  -8.818  20.125  1.00  0.00    -0.508 OA
ATOM     13  H   UNL     1       9.470  -9.487  19.382  1.00  0.00     0.293 HD
ENDBRANCH   6  12
TORSDOF 3
ENDMDL
MODEL 2
REMARK VINA RESULT:    -5.243     10.386     12.933
REMARK INTER + INTRA:          -6.146
REMARK INTER:                  -5.992
REMARK INTRA:                  -0.154
REMARK UNBOUND:                -0.136
REMARK SMILES O=C([O-])C=Cc1ccc(O)cc1
REMARK SMILES IDX 6 1 7 2 12 3 8 4 11 5 9 6 5 7 4 8 2 9 1 10 3 11 10 12
REMARK H PARENT 10 13
REMARK Flexibility Score: inf
ROOT
ATOM      1  C   UNL     1       7.206   4.196  10.282  1.00  0.00    -0.025 A 
ATOM      2  C   UNL     1       8.048   4.138  11.406  1.00  0.00     0.012 A 
ATOM      3  C   UNL     1       6.893   2.999   9.606  1.00  0.00     0.012 A 
ATOM      4  C   UNL     1       8.545   2.913  11.861  1.00  0.00     0.047 A 
ATOM      5  C   UNL     1       7.393   1.776  10.063  1.00  0.00     0.047 A 
ATOM      6  C   UNL     1       8.217   1.729  11.194  1.00  0.00     0.115 A 
ENDROOT
BRANCH   1   7
ATOM      7  C   UNL     1       6.713   5.521   9.832  1.00  0.00     0.010 C 
ATOM      8  C   UNL     1       6.998   6.673  10.455  1.00  0.00     0.025 C 
BRANCH   8   9
ATOM      9  C   UNL     1       6.501   7.973   9.971  1.00  0.00     0.064 C 
ATOM     10  O   UNL     1       5.875   8.066   8.881  1.00  0.00    -0.545 OA
ATOM     11  O   UNL     1       6.722   9.113  10.730  1.00  0.00    -0.545 OA
ENDBRANCH   8   9
ENDBRANCH   1   7
BRANCH   6  12
ATOM     12  O   UNL     1       8.719   0.516  11.658  1.00  0.00    -0.508 OA
ATOM     13  H   UNL     1       8.478  -0.362  11.214  1.00  0.00     0.293 HD
ENDBRANCH   6  12
TORSDOF 3
ENDMDL
MODEL 3
REMARK VINA RESULT:    -4.839      1.706      2.296
REMARK INTER + INTRA:          -5.683
REMARK INTER:                  -5.544
REMARK INTRA:                  -0.139
REMARK UNBOUND:                -0.136
REMARK SMILES O=C([O-])C=Cc1ccc(O)cc1
REMARK SMILES IDX 6 1 7 2 12 3 8 4 11 5 9 6 5 7 4 8 2 9 1 10 3 11 10 12
REMARK H PARENT 10 13
REMARK Flexibility Score: inf
ROOT
ATOM      1  C   UNL     1      11.047  -5.096  19.757  1.00  0.00    -0.025 A 
ATOM      2  C   UNL     1      11.186  -6.446  20.125  1.00  0.00     0.012 A 
ATOM      3  C   UNL     1       9.777  -4.628  19.362  1.00  0.00     0.012 A 
ATOM      4  C   UNL     1      10.080  -7.302  20.124  1.00  0.00     0.047 A 
ATOM      5  C   UNL     1       8.674  -5.488  19.362  1.00  0.00     0.047 A 
ATOM      6  C   UNL     1       8.822  -6.826  19.746  1.00  0.00     0.115 A 
ENDROOT
BRANCH   1   7
ATOM      7  C   UNL     1      12.252  -4.231  19.764  1.00  0.00     0.010 C 
ATOM      8  C   UNL     1      12.445  -3.217  18.909  1.00  0.00     0.025 C 
BRANCH   8   9
ATOM      9  C   UNL     1      13.650  -2.369  18.954  1.00  0.00     0.064 C 
ATOM     10  O   UNL     1      14.803  -2.877  18.969  1.00  0.00    -0.545 OA
ATOM     11  O   UNL     1      13.512  -0.989  18.977  1.00  0.00    -0.545 OA
ENDBRANCH   8   9
ENDBRANCH   1   7
BRANCH   6  12
ATOM     12  O   UNL     1       7.730  -7.690  19.750  1.00  0.00    -0.508 OA
ATOM     13  H   UNL     1       7.801  -8.632  20.118  1.00  0.00     0.293 HD
ENDBRANCH   6  12
TORSDOF 3
ENDMDL
MODEL 4
REMARK VINA RESULT:    -4.786      9.148     12.660
REMARK INTER + INTRA:          -5.622
REMARK INTER:                  -5.472
REMARK INTRA:                  -0.150
REMARK UNBOUND:                -0.136
REMARK SMILES O=C([O-])C=Cc1ccc(O)cc1
REMARK SMILES IDX 6 1 7 2 12 3 8 4 11 5 9 6 5 7 4 8 2 9 1 10 3 11 10 12
REMARK H PARENT 10 13
REMARK Flexibility Score: inf
ROOT
ATOM      1  C   UNL     1       7.811   3.409  10.472  1.00  0.00    -0.025 A 
ATOM      2  C   UNL     1       8.341   4.462  11.238  1.00  0.00     0.012 A 
ATOM      3  C   UNL     1       6.637   3.638   9.724  1.00  0.00     0.012 A 
ATOM      4  C   UNL     1       7.731   5.720  11.237  1.00  0.00     0.047 A 
ATOM      5  C   UNL     1       6.030   4.897   9.728  1.00  0.00     0.047 A 
ATOM      6  C   UNL     1       6.578   5.943  10.481  1.00  0.00     0.115 A 
ENDROOT
BRANCH   1   7
ATOM      7  C   UNL     1       8.487   2.089  10.514  1.00  0.00     0.010 C 
ATOM      8  C   UNL     1       9.251   1.675  11.535  1.00  0.00     0.025 C 
BRANCH   8   9
ATOM      9  C   UNL     1       9.898   0.352  11.547  1.00  0.00     0.064 C 
ATOM     10  O   UNL     1      10.075  -0.277  12.624  1.00  0.00    -0.545 OA
ATOM     11  O   UNL     1      10.316  -0.214  10.350  1.00  0.00    -0.545 OA
ENDBRANCH   8   9
ENDBRANCH   1   7
BRANCH   6  12
ATOM     12  O   UNL     1       5.981   7.201  10.490  1.00  0.00    -0.508 OA
ATOM     13  H   UNL     1       6.535   8.050  10.468  1.00  0.00     0.293 HD
ENDBRANCH   6  12
TORSDOF 3
ENDMDL
MODEL 5
REMARK VINA RESULT:    -4.643      8.964     12.507
REMARK INTER + INTRA:          -5.458
REMARK INTER:                  -5.319
REMARK INTRA:                  -0.139
REMARK UNBOUND:                -0.136
REMARK SMILES O=C([O-])C=Cc1ccc(O)cc1
REMARK SMILES IDX 6 1 7 2 12 3 8 4 11 5 9 6 5 7 4 8 2 9 1 10 3 11 10 12
REMARK H PARENT 10 13
REMARK Flexibility Score: inf
ROOT
ATOM      1  C   UNL     1       7.867   3.092  10.619  1.00  0.00    -0.025 A 
ATOM      2  C   UNL     1       6.878   3.318   9.646  1.00  0.00     0.012 A 
ATOM      3  C   UNL     1       8.247   4.156  11.462  1.00  0.00     0.012 A 
ATOM      4  C   UNL     1       6.264   4.569   9.534  1.00  0.00     0.047 A 
ATOM      5  C   UNL     1       7.631   5.406  11.345  1.00  0.00     0.047 A 
ATOM      6  C   UNL     1       6.635   5.614  10.383  1.00  0.00     0.115 A 
ENDROOT
BRANCH   1   7
ATOM      7  C   UNL     1       8.497   1.750  10.692  1.00  0.00     0.010 C 
ATOM      8  C   UNL     1       9.482   1.435  11.545  1.00  0.00     0.025 C 
BRANCH   8   9
ATOM      9  C   UNL     1      10.075   0.088  11.598  1.00  0.00     0.064 C 
ATOM     10  O   UNL     1      10.238  -0.510  12.695  1.00  0.00    -0.545 OA
ATOM     11  O   UNL     1      10.458  -0.536  10.418  1.00  0.00    -0.545 OA
ENDBRANCH   8   9
ENDBRANCH   1   7
BRANCH   6  12
ATOM     12  O   UNL     1       6.014   6.855  10.260  1.00  0.00    -0.508 OA
ATOM     13  H   UNL     1       5.008   6.937  10.170  1.00  0.00     0.293 HD
ENDBRANCH   6  12
TORSDOF 3
ENDMDL
MODEL 6
REMARK VINA RESULT:    -4.312      9.399     10.321
REMARK INTER + INTRA:          -5.079
REMARK INTER:                  -4.941
REMARK INTRA:                  -0.138
REMARK UNBOUND:                -0.136
REMARK SMILES O=C([O-])C=Cc1ccc(O)cc1
REMARK SMILES IDX 6 1 7 2 12 3 8 4 11 5 9 6 5 7 4 8 2 9 1 10 3 11 10 12
REMARK H PARENT 10 13
REMARK Flexibility Score: inf
ROOT
ATOM      1  C   UNL     1      19.799  -7.615  19.077  1.00  0.00    -0.025 A 
ATOM      2  C   UNL     1      20.405  -8.343  20.115  1.00  0.00     0.012 A 
ATOM      3  C   UNL     1      19.952  -8.068  17.750  1.00  0.00     0.012 A 
ATOM      4  C   UNL     1      21.125  -9.510  19.840  1.00  0.00     0.047 A 
ATOM      5  C   UNL     1      20.674  -9.235  17.480  1.00  0.00     0.047 A 
ATOM      6  C   UNL     1      21.259  -9.961  18.525  1.00  0.00     0.115 A 
ENDROOT
BRANCH   1   7
ATOM      7  C   UNL     1      19.055  -6.377  19.417  1.00  0.00     0.010 C 
ATOM      8  C   UNL     1      19.622  -5.166  19.500  1.00  0.00     0.025 C 
BRANCH   8   9
ATOM      9  C   UNL     1      18.848  -3.956  19.828  1.00  0.00     0.064 C 
ATOM     10  O   UNL     1      17.624  -4.024  20.117  1.00  0.00    -0.545 OA
ATOM     11  O   UNL     1      19.479  -2.720  19.823  1.00  0.00    -0.545 OA
ENDBRANCH   8   9
ENDBRANCH   1   7
BRANCH   6  12
ATOM     12  O   UNL     1      21.979 -11.125  18.266  1.00  0.00    -0.508 OA
ATOM     13  H   UNL     1      22.369 -11.683  19.016  1.00  0.00     0.293 HD
ENDBRANCH   6  12
TORSDOF 3
ENDMDL
MODEL 7
REMARK VINA RESULT:    -4.262      1.301      5.901
REMARK INTER + INTRA:          -5.022
REMARK INTER:                  -4.882
REMARK INTRA:                  -0.140
REMARK UNBOUND:                -0.136
REMARK SMILES O=C([O-])C=Cc1ccc(O)cc1
REMARK SMILES IDX 6 1 7 2 12 3 8 4 11 5 9 6 5 7 4 8 2 9 1 10 3 11 10 12
REMARK H PARENT 10 13
REMARK Flexibility Score: inf
ROOT
ATOM      1  C   UNL     1       9.633  -3.321  18.434  1.00  0.00    -0.025 A 
ATOM      2  C   UNL     1       9.382  -2.686  17.205  1.00  0.00     0.012 A 
ATOM      3  C   UNL     1      10.516  -2.709  19.347  1.00  0.00     0.012 A 
ATOM      4  C   UNL     1       9.976  -1.456  16.905  1.00  0.00     0.047 A 
ATOM      5  C   UNL     1      11.109  -1.479  19.042  1.00  0.00     0.047 A 
ATOM      6  C   UNL     1      10.838  -0.848  17.822  1.00  0.00     0.115 A 
ENDROOT
BRANCH   1   7
ATOM      7  C   UNL     1       8.987  -4.630  18.702  1.00  0.00     0.010 C 
ATOM      8  C   UNL     1       9.545  -5.598  19.442  1.00  0.00     0.025 C 
BRANCH   8   9
ATOM      9  C   UNL     1       8.867  -6.881  19.697  1.00  0.00     0.064 C 
ATOM     10  O   UNL     1       7.615  -6.944  19.814  1.00  0.00    -0.545 OA
ATOM     11  O   UNL     1       9.622  -8.041  19.808  1.00  0.00    -0.545 OA
ENDBRANCH   8   9
ENDBRANCH   1   7
BRANCH   6  12
ATOM     12  O   UNL     1      11.423   0.376  17.509  1.00  0.00    -0.508 OA
ATOM     13  H   UNL     1      12.345   0.432  17.092  1.00  0.00     0.293 HD
ENDBRANCH   6  12
TORSDOF 3
ENDMDL
MODEL 8
REMARK VINA RESULT:    -4.084      2.144      5.709
REMARK INTER + INTRA:          -4.817
REMARK INTER:                  -4.678
REMARK INTRA:                  -0.140
REMARK UNBOUND:                -0.136
REMARK SMILES O=C([O-])C=Cc1ccc(O)cc1
REMARK SMILES IDX 6 1 7 2 12 3 8 4 11 5 9 6 5 7 4 8 2 9 1 10 3 11 10 12
REMARK H PARENT 10 13
REMARK Flexibility Score: inf
ROOT
ATOM      1  C   UNL     1      12.125  -4.581  19.689  1.00  0.00    -0.025 A 
ATOM      2  C   UNL     1      13.475  -4.652  20.077  1.00  0.00     0.012 A 
ATOM      3  C   UNL     1      11.654  -3.396  19.086  1.00  0.00     0.012 A 
ATOM      4  C   UNL     1      14.340  -3.578  19.846  1.00  0.00     0.047 A 
ATOM      5  C   UNL     1      12.523  -2.324  18.858  1.00  0.00     0.047 A 
ATOM      6  C   UNL     1      13.868  -2.414  19.235  1.00  0.00     0.115 A 
ENDROOT
BRANCH   1   7
ATOM      7  C   UNL     1      11.245  -5.742  19.965  1.00  0.00     0.010 C 
ATOM      8  C   UNL     1      10.005  -5.871  19.471  1.00  0.00     0.025 C 
BRANCH   8   9
ATOM      9  C   UNL     1       9.163  -7.046  19.756  1.00  0.00     0.064 C 
ATOM     10  O   UNL     1       9.668  -8.194  19.881  1.00  0.00    -0.545 OA
ATOM     11  O   UNL     1       7.792  -6.885  19.893  1.00  0.00    -0.545 OA
ENDBRANCH   8   9
ENDBRANCH   1   7
BRANCH   6  12
ATOM     12  O   UNL     1      14.742  -1.352  19.011  1.00  0.00    -0.508 OA
ATOM     13  H   UNL     1      14.780  -0.557  19.638  1.00  0.00     0.293 HD
ENDBRANCH   6  12
TORSDOF 3
ENDMDL
