MODEL 1
REMARK VINA RESULT:    -4.786      0.000      0.000
REMARK INTER + INTRA:          -8.695
REMARK INTER:                  -7.304
REMARK INTRA:                  -1.392
REMARK UNBOUND:                -1.392
REMARK SMILES CCCCCCCCCC=CC(=O)[O-]
REMARK SMILES IDX 7 1 8 2 9 3 10 4 11 5 12 6 13 7 14 8 6 9 5 10 4 11 3 12 2 13
REMARK SMILES IDX 1 14
REMARK H PARENT
REMARK Flexibility Score: inf
ROOT
ATOM      1  C   UNL     1       6.077  45.120  22.717  1.00  0.00     0.000 C 
ENDROOT
BRANCH   1   2
ATOM      2  C   UNL     1       7.501  44.686  23.101  1.00  0.00     0.004 C 
BRANCH   2   3
ATOM      3  C   UNL     1       8.428  45.889  23.345  1.00  0.00     0.027 C 
BRANCH   3   4
ATOM      4  C   UNL     1       8.782  46.052  24.801  1.00  0.00    -0.025 C 
ATOM      5  C   UNL     1       9.501  47.055  25.331  1.00  0.00     0.020 C 
BRANCH   5   6
ATOM      6  C   UNL     1      10.148  48.158  24.591  1.00  0.00     0.064 C 
ATOM      7  O   UNL     1      11.392  48.122  24.408  1.00  0.00    -0.545 OA
ATOM      8  O   UNL     1       9.421  49.214  24.056  1.00  0.00    -0.545 OA
ENDBRANCH   5   6
ENDBRANCH   3   4
ENDBRANCH   2   3
ENDBRANCH   1   2
BRANCH   1   9
ATOM      9  C   UNL     1       5.004  44.161  23.276  1.00  0.00     0.000 C 
BRANCH   9  10
ATOM     10  C   UNL     1       4.280  44.703  24.524  1.00  0.00     0.000 C 
BRANCH  10  11
ATOM     11  C   UNL     1       4.517  46.197  24.812  1.00  0.00    -0.000 C 
BRANCH  11  12
ATOM     12  C   UNL     1       5.346  46.488  26.078  1.00  0.00    -0.000 C 
BRANCH  12  13
ATOM     13  C   UNL     1       5.705  47.978  26.256  1.00  0.00    -0.003 C 
ATOM     14  C   UNL     1       6.084  48.649  24.936  1.00  0.00     0.004 C 
ENDBRANCH  12  13
ENDBRANCH  11  12
ENDBRANCH  10  11
ENDBRANCH   9  10
ENDBRANCH   1   9
TORSDOF 9
ENDMDL
MODEL 2
REMARK VINA RESULT:    -4.735      2.017      3.126
REMARK INTER + INTRA:          -8.619
REMARK INTER:                  -7.008
REMARK INTRA:                  -1.611
REMARK UNBOUND:                -1.392
REMARK SMILES CCCCCCCCCC=CC(=O)[O-]
REMARK SMILES IDX 7 1 8 2 9 3 10 4 11 5 12 6 13 7 14 8 6 9 5 10 4 11 3 12 2 13
REMARK SMILES IDX 1 14
REMARK H PARENT
REMARK Flexibility Score: inf
ROOT
ATOM      1  C   UNL     1       8.602  46.082  23.325  1.00  0.00     0.000 C 
ENDROOT
BRANCH   1   2
ATOM      2  C   UNL     1       8.631  45.944  24.856  1.00  0.00     0.004 C 
BRANCH   2   3
ATOM      3  C   UNL     1       8.646  47.309  25.563  1.00  0.00     0.027 C 
BRANCH   3   4
ATOM      4  C   UNL     1       8.439  48.452  24.602  1.00  0.00    -0.025 C 
ATOM      5  C   UNL     1       7.644  49.516  24.801  1.00  0.00     0.020 C 
BRANCH   5   6
ATOM      6  C   UNL     1       6.763  49.749  25.963  1.00  0.00     0.064 C 
ATOM      7  O   UNL     1       7.265  49.760  27.117  1.00  0.00    -0.545 OA
ATOM      8  O   UNL     1       5.403  49.996  25.821  1.00  0.00    -0.545 OA
ENDBRANCH   5   6
ENDBRANCH   3   4
ENDBRANCH   2   3
ENDBRANCH   1   2
BRANCH   1   9
ATOM      9  C   UNL     1       7.717  45.008  22.658  1.00  0.00     0.000 C 
BRANCH   9  10
ATOM     10  C   UNL     1       6.228  45.108  23.045  1.00  0.00     0.000 C 
BRANCH  10  11
ATOM     11  C   UNL     1       5.627  46.521  22.945  1.00  0.00    -0.000 C 
BRANCH  11  12
ATOM     12  C   UNL     1       4.866  46.990  24.201  1.00  0.00    -0.000 C 
BRANCH  12  13
ATOM     13  C   UNL     1       4.824  45.939  25.330  1.00  0.00    -0.003 C 
ATOM     14  C   UNL     1       5.116  46.543  26.703  1.00  0.00     0.004 C 
ENDBRANCH  12  13
ENDBRANCH  11  12
ENDBRANCH  10  11
ENDBRANCH   9  10
ENDBRANCH   1   9
TORSDOF 9
ENDMDL
MODEL 3
REMARK VINA RESULT:    -4.633      1.952      3.274
REMARK INTER + INTRA:          -8.463
REMARK INTER:                  -6.886
REMARK INTRA:                  -1.577
REMARK UNBOUND:                -1.392
REMARK SMILES CCCCCCCCCC=CC(=O)[O-]
REMARK SMILES IDX 7 1 8 2 9 3 10 4 11 5 12 6 13 7 14 8 6 9 5 10 4 11 3 12 2 13
REMARK SMILES IDX 1 14
REMARK H PARENT
REMARK Flexibility Score: inf
ROOT
ATOM      1  C   UNL     1       8.736  45.755  24.661  1.00  0.00     0.000 C 
ENDROOT
BRANCH   1   2
ATOM      2  C   UNL     1       9.055  47.020  25.476  1.00  0.00     0.004 C 
BRANCH   2   3
ATOM      3  C   UNL     1       9.045  48.288  24.606  1.00  0.00     0.027 C 
BRANCH   3   4
ATOM      4  C   UNL     1       7.947  49.243  25.000  1.00  0.00    -0.025 C 
ATOM      5  C   UNL     1       7.398  50.181  24.213  1.00  0.00     0.020 C 
BRANCH   5   6
ATOM      6  C   UNL     1       7.802  50.516  22.831  1.00  0.00     0.064 C 
ATOM      7  O   UNL     1       8.459  51.569  22.626  1.00  0.00    -0.545 OA
ATOM      8  O   UNL     1       7.514  49.684  21.756  1.00  0.00    -0.545 OA
ENDBRANCH   5   6
ENDBRANCH   3   4
ENDBRANCH   2   3
ENDBRANCH   1   2
BRANCH   1   9
ATOM      9  C   UNL     1       8.196  46.087  23.254  1.00  0.00     0.000 C 
BRANCH   9  10
ATOM     10  C   UNL     1       6.703  45.751  23.071  1.00  0.00     0.000 C 
BRANCH  10  11
ATOM     11  C   UNL     1       5.765  46.970  23.027  1.00  0.00    -0.000 C 
BRANCH  11  12
ATOM     12  C   UNL     1       4.869  47.142  24.269  1.00  0.00    -0.000 C 
BRANCH  12  13
ATOM     13  C   UNL     1       5.237  46.200  25.435  1.00  0.00    -0.003 C 
ATOM     14  C   UNL     1       4.988  46.837  26.802  1.00  0.00     0.004 C 
ENDBRANCH  12  13
ENDBRANCH  11  12
ENDBRANCH  10  11
ENDBRANCH   9  10
ENDBRANCH   1   9
TORSDOF 9
ENDMDL
MODEL 4
REMARK VINA RESULT:    -4.628      2.100      4.038
REMARK INTER + INTRA:          -8.454
REMARK INTER:                  -6.929
REMARK INTRA:                  -1.525
REMARK UNBOUND:                -1.392
REMARK SMILES CCCCCCCCCC=CC(=O)[O-]
REMARK SMILES IDX 7 1 8 2 9 3 10 4 11 5 12 6 13 7 14 8 6 9 5 10 4 11 3 12 2 13
REMARK SMILES IDX 1 14
REMARK H PARENT
REMARK Flexibility Score: inf
ROOT
ATOM      1  C   UNL     1       6.020  46.749  23.024  1.00  0.00     0.000 C 
ENDROOT
BRANCH   1   2
ATOM      2  C   UNL     1       4.910  47.030  24.050  1.00  0.00     0.004 C 
BRANCH   2   3
ATOM      3  C   UNL     1       5.436  47.779  25.285  1.00  0.00     0.027 C 
BRANCH   3   4
ATOM      4  C   UNL     1       6.210  49.019  24.915  1.00  0.00    -0.025 C 
ATOM      5  C   UNL     1       6.899  49.800  25.761  1.00  0.00     0.020 C 
BRANCH   5   6
ATOM      6  C   UNL     1       6.983  49.647  27.228  1.00  0.00     0.064 C 
ATOM      7  O   UNL     1       7.904  48.942  27.716  1.00  0.00    -0.545 OA
ATOM      8  O   UNL     1       6.102  50.289  28.089  1.00  0.00    -0.545 OA
ENDBRANCH   5   6
ENDBRANCH   3   4
ENDBRANCH   2   3
ENDBRANCH   1   2
BRANCH   1   9
ATOM      9  C   UNL     1       6.677  45.369  23.238  1.00  0.00     0.000 C 
BRANCH   9  10
ATOM     10  C   UNL     1       8.188  45.444  23.537  1.00  0.00     0.000 C 
BRANCH  10  11
ATOM     11  C   UNL     1       8.544  45.782  24.996  1.00  0.00    -0.000 C 
BRANCH  11  12
ATOM     12  C   UNL     1       9.399  47.052  25.175  1.00  0.00    -0.000 C 
BRANCH  12  13
ATOM     13  C   UNL     1      10.055  47.547  23.869  1.00  0.00    -0.003 C 
ATOM     14  C   UNL     1       9.679  48.991  23.537  1.00  0.00     0.004 C 
ENDBRANCH  12  13
ENDBRANCH  11  12
ENDBRANCH  10  11
ENDBRANCH   9  10
ENDBRANCH   1   9
TORSDOF 9
ENDMDL
MODEL 5
REMARK VINA RESULT:    -4.620      6.188      7.828
REMARK INTER + INTRA:          -8.442
REMARK INTER:                  -7.040
REMARK INTRA:                  -1.402
REMARK UNBOUND:                -1.392
REMARK SMILES CCCCCCCCCC=CC(=O)[O-]
REMARK SMILES IDX 7 1 8 2 9 3 10 4 11 5 12 6 13 7 14 8 6 9 5 10 4 11 3 12 2 13
REMARK SMILES IDX 1 14
REMARK H PARENT
REMARK Flexibility Score: inf
ROOT
ATOM      1  C   UNL     1       7.835  50.177  17.676  1.00  0.00     0.000 C 
ENDROOT
BRANCH   1   2
ATOM      2  C   UNL     1       7.689  49.810  19.162  1.00  0.00     0.004 C 
BRANCH   2   3
ATOM      3  C   UNL     1       8.920  50.223  19.985  1.00  0.00     0.027 C 
BRANCH   3   4
ATOM      4  C   UNL     1      10.212  49.814  19.326  1.00  0.00    -0.025 C 
ATOM      5  C   UNL     1      10.940  48.725  19.624  1.00  0.00     0.020 C 
BRANCH   5   6
ATOM      6  C   UNL     1      10.663  47.751  20.699  1.00  0.00     0.064 C 
ATOM      7  O   UNL     1       9.797  46.859  20.505  1.00  0.00    -0.545 OA
ATOM      8  O   UNL     1      11.356  47.762  21.903  1.00  0.00    -0.545 OA
ENDBRANCH   5   6
ENDBRANCH   3   4
ENDBRANCH   2   3
ENDBRANCH   1   2
BRANCH   1   9
ATOM      9  C   UNL     1       7.577  48.969  16.749  1.00  0.00     0.000 C 
BRANCH   9  10
ATOM     10  C   UNL     1       7.467  47.627  17.499  1.00  0.00     0.000 C 
BRANCH  10  11
ATOM     11  C   UNL     1       8.584  46.616  17.185  1.00  0.00    -0.000 C 
BRANCH  11  12
ATOM     12  C   UNL     1       9.780  47.194  16.404  1.00  0.00    -0.000 C 
BRANCH  12  13
ATOM     13  C   UNL     1      10.126  46.403  15.125  1.00  0.00    -0.003 C 
ATOM     14  C   UNL     1       8.887  46.046  14.304  1.00  0.00     0.004 C 
ENDBRANCH  12  13
ENDBRANCH  11  12
ENDBRANCH  10  11
ENDBRANCH   9  10
ENDBRANCH   1   9
TORSDOF 9
ENDMDL
MODEL 6
REMARK VINA RESULT:    -4.614      3.848      6.046
REMARK INTER + INTRA:          -8.433
REMARK INTER:                  -6.789
REMARK INTRA:                  -1.644
REMARK UNBOUND:                -1.392
REMARK SMILES CCCCCCCCCC=CC(=O)[O-]
REMARK SMILES IDX 7 1 8 2 9 3 10 4 11 5 12 6 13 7 14 8 6 9 5 10 4 11 3 12 2 13
REMARK SMILES IDX 1 14
REMARK H PARENT
REMARK Flexibility Score: inf
ROOT
ATOM      1  C   UNL     1       7.701  50.574  20.048  1.00  0.00     0.000 C 
ENDROOT
BRANCH   1   2
ATOM      2  C   UNL     1       8.393  51.478  21.081  1.00  0.00     0.004 C 
BRANCH   2   3
ATOM      3  C   UNL     1       8.258  50.932  22.512  1.00  0.00     0.027 C 
BRANCH   3   4
ATOM      4  C   UNL     1       7.396  49.698  22.574  1.00  0.00    -0.025 C 
ATOM      5  C   UNL     1       7.297  48.856  23.616  1.00  0.00     0.020 C 
BRANCH   5   6
ATOM      6  C   UNL     1       8.060  48.928  24.879  1.00  0.00     0.064 C 
ATOM      7  O   UNL     1       9.225  48.455  24.915  1.00  0.00    -0.545 OA
ATOM      8  O   UNL     1       7.547  49.536  26.018  1.00  0.00    -0.545 OA
ENDBRANCH   5   6
ENDBRANCH   3   4
ENDBRANCH   2   3
ENDBRANCH   1   2
BRANCH   1   9
ATOM      9  C   UNL     1       8.707  49.930  19.069  1.00  0.00     0.000 C 
BRANCH   9  10
ATOM     10  C   UNL     1      10.170  50.005  19.550  1.00  0.00     0.000 C 
BRANCH  10  11
ATOM     11  C   UNL     1      10.792  48.654  19.947  1.00  0.00    -0.000 C 
BRANCH  11  12
ATOM     12  C   UNL     1      10.683  48.307  21.444  1.00  0.00    -0.000 C 
BRANCH  12  13
ATOM     13  C   UNL     1       9.934  46.987  21.722  1.00  0.00    -0.003 C 
ATOM     14  C   UNL     1       9.043  46.563  20.555  1.00  0.00     0.004 C 
ENDBRANCH  12  13
ENDBRANCH  11  12
ENDBRANCH  10  11
ENDBRANCH   9  10
ENDBRANCH   1   9
TORSDOF 9
ENDMDL
MODEL 7
REMARK VINA RESULT:    -4.556      1.851      3.686
REMARK INTER + INTRA:          -8.345
REMARK INTER:                  -6.900
REMARK INTRA:                  -1.445
REMARK UNBOUND:                -1.392
REMARK SMILES CCCCCCCCCC=CC(=O)[O-]
REMARK SMILES IDX 7 1 8 2 9 3 10 4 11 5 12 6 13 7 14 8 6 9 5 10 4 11 3 12 2 13
REMARK SMILES IDX 1 14
REMARK H PARENT
REMARK Flexibility Score: inf
ROOT
ATOM      1  C   UNL     1       4.940  47.033  24.291  1.00  0.00     0.000 C 
ENDROOT
BRANCH   1   2
ATOM      2  C   UNL     1       5.297  47.795  25.577  1.00  0.00     0.004 C 
BRANCH   2   3
ATOM      3  C   UNL     1       5.721  49.245  25.294  1.00  0.00     0.027 C 
BRANCH   3   4
ATOM      4  C   UNL     1       7.216  49.427  25.355  1.00  0.00    -0.025 C 
ATOM      5  C   UNL     1       8.013  49.756  24.325  1.00  0.00     0.020 C 
BRANCH   5   6
ATOM      6  C   UNL     1       7.601  49.939  22.919  1.00  0.00     0.064 C 
ATOM      7  O   UNL     1       7.716  51.075  22.392  1.00  0.00    -0.545 OA
ATOM      8  O   UNL     1       7.127  48.886  22.145  1.00  0.00    -0.545 OA
ENDBRANCH   5   6
ENDBRANCH   3   4
ENDBRANCH   2   3
ENDBRANCH   1   2
BRANCH   1   9
ATOM      9  C   UNL     1       4.806  45.514  24.530  1.00  0.00     0.000 C 
BRANCH   9  10
ATOM     10  C   UNL     1       5.372  44.655  23.382  1.00  0.00     0.000 C 
BRANCH  10  11
ATOM     11  C   UNL     1       6.478  45.332  22.552  1.00  0.00    -0.000 C 
BRANCH  11  12
ATOM     12  C   UNL     1       7.916  44.962  22.965  1.00  0.00    -0.000 C 
BRANCH  12  13
ATOM     13  C   UNL     1       8.680  46.113  23.650  1.00  0.00    -0.003 C 
ATOM     14  C   UNL     1       8.681  45.990  25.174  1.00  0.00     0.004 C 
ENDBRANCH  12  13
ENDBRANCH  11  12
ENDBRANCH  10  11
ENDBRANCH   9  10
ENDBRANCH   1   9
TORSDOF 9
ENDMDL
MODEL 8
REMARK VINA RESULT:    -4.540      1.784      3.060
REMARK INTER + INTRA:          -8.320
REMARK INTER:                  -6.922
REMARK INTRA:                  -1.398
REMARK UNBOUND:                -1.392
REMARK SMILES CCCCCCCCCC=CC(=O)[O-]
REMARK SMILES IDX 7 1 8 2 9 3 10 4 11 5 12 6 13 7 14 8 6 9 5 10 4 11 3 12 2 13
REMARK SMILES IDX 1 14
REMARK H PARENT
REMARK Flexibility Score: inf
ROOT
ATOM      1  C   UNL     1       5.979  46.247  25.233  1.00  0.00     0.000 C 
ENDROOT
BRANCH   1   2
ATOM      2  C   UNL     1       6.941  46.546  24.070  1.00  0.00     0.004 C 
BRANCH   2   3
ATOM      3  C   UNL     1       8.306  45.863  24.256  1.00  0.00     0.027 C 
BRANCH   3   4
ATOM      4  C   UNL     1       9.126  46.510  25.343  1.00  0.00    -0.025 C 
ATOM      5  C   UNL     1       9.878  47.614  25.212  1.00  0.00     0.020 C 
BRANCH   5   6
ATOM      6  C   UNL     1      10.111  48.376  23.968  1.00  0.00     0.064 C 
ATOM      7  O   UNL     1       9.471  49.442  23.777  1.00  0.00    -0.545 OA
ATOM      8  O   UNL     1      11.043  47.974  23.020  1.00  0.00    -0.545 OA
ENDBRANCH   5   6
ENDBRANCH   3   4
ENDBRANCH   2   3
ENDBRANCH   1   2
BRANCH   1   9
ATOM      9  C   UNL     1       5.545  47.530  25.975  1.00  0.00     0.000 C 
BRANCH   9  10
ATOM     10  C   UNL     1       6.026  48.828  25.296  1.00  0.00     0.000 C 
BRANCH  10  11
ATOM     11  C   UNL     1       6.892  49.740  26.183  1.00  0.00    -0.000 C 
BRANCH  11  12
ATOM     12  C   UNL     1       7.308  49.124  27.533  1.00  0.00    -0.000 C 
BRANCH  12  13
ATOM     13  C   UNL     1       7.188  50.098  28.723  1.00  0.00    -0.003 C 
ATOM     14  C   UNL     1       5.747  50.548  28.967  1.00  0.00     0.004 C 
ENDBRANCH  12  13
ENDBRANCH  11  12
ENDBRANCH  10  11
ENDBRANCH   9  10
ENDBRANCH   1   9
TORSDOF 9
ENDMDL
MODEL 9
REMARK VINA RESULT:    -4.530      3.267      4.816
REMARK INTER + INTRA:          -8.304
REMARK INTER:                  -6.870
REMARK INTRA:                  -1.434
REMARK UNBOUND:                -1.392
REMARK SMILES CCCCCCCCCC=CC(=O)[O-]
REMARK SMILES IDX 7 1 8 2 9 3 10 4 11 5 12 6 13 7 14 8 6 9 5 10 4 11 3 12 2 13
REMARK SMILES IDX 1 14
REMARK H PARENT
REMARK Flexibility Score: inf
ROOT
ATOM      1  C   UNL     1      10.146  47.295  21.953  1.00  0.00     0.000 C 
ENDROOT
BRANCH   1   2
ATOM      2  C   UNL     1      10.144  48.685  22.611  1.00  0.00     0.004 C 
BRANCH   2   3
ATOM      3  C   UNL     1       8.720  49.224  22.824  1.00  0.00     0.027 C 
BRANCH   3   4
ATOM      4  C   UNL     1       8.624  50.705  22.561  1.00  0.00    -0.025 C 
ATOM      5  C   UNL     1       8.382  51.280  21.372  1.00  0.00     0.020 C 
BRANCH   5   6
ATOM      6  C   UNL     1       8.233  50.588  20.075  1.00  0.00     0.064 C 
ATOM      7  O   UNL     1       7.081  50.446  19.589  1.00  0.00    -0.545 OA
ATOM      8  O   UNL     1       9.326  50.125  19.355  1.00  0.00    -0.545 OA
ENDBRANCH   5   6
ENDBRANCH   3   4
ENDBRANCH   2   3
ENDBRANCH   1   2
BRANCH   1   9
ATOM      9  C   UNL     1       8.862  47.033  21.137  1.00  0.00     0.000 C 
BRANCH   9  10
ATOM     10  C   UNL     1       8.383  45.569  21.192  1.00  0.00     0.000 C 
BRANCH  10  11
ATOM     11  C   UNL     1       7.988  45.068  22.592  1.00  0.00    -0.000 C 
BRANCH  11  12
ATOM     12  C   UNL     1       6.938  45.933  23.316  1.00  0.00    -0.000 C 
BRANCH  12  13
ATOM     13  C   UNL     1       7.236  46.147  24.815  1.00  0.00    -0.003 C 
ATOM     14  C   UNL     1       8.730  46.069  25.131  1.00  0.00     0.004 C 
ENDBRANCH  12  13
ENDBRANCH  11  12
ENDBRANCH  10  11
ENDBRANCH   9  10
ENDBRANCH   1   9
TORSDOF 9
ENDMDL
