MODEL 1
REMARK VINA RESULT:    -4.405      0.000      0.000
REMARK INTER + INTRA:          -7.373
REMARK INTER:                  -6.337
REMARK INTRA:                  -1.036
REMARK UNBOUND:                -1.036
REMARK SMILES O=C(CO)[C@@H](O)[C@H](O)[C@@H](O)CO
REMARK SMILES IDX 7 1 9 2 11 3 12 4 10 6 5 8 2 9 1 10 3 11 4 12 6 14 8 16
REMARK H PARENT 12 5 10 7 4 13 6 15 8 17
REMARK Flexibility Score: inf
ROOT
ATOM      1  C   UNL     1     -16.127   2.850  26.239  1.00  0.00     0.181 C 
ENDROOT
BRANCH   1   2
ATOM      2  C   UNL     1     -16.189   1.441  26.893  1.00  0.00     0.171 C 
BRANCH   2   3
ATOM      3  C   UNL     1     -14.888   0.636  26.716  1.00  0.00     0.190 C 
BRANCH   3   4
ATOM      4  O   UNL     1     -14.743   0.263  25.372  1.00  0.00    -0.394 OA
ATOM      5  H   UNL     1     -15.566   0.571  24.910  1.00  0.00     0.210 HD
ENDBRANCH   3   4
ENDBRANCH   2   3
BRANCH   2   6
ATOM      6  O   UNL     1     -17.275   0.714  26.372  1.00  0.00    -0.388 OA
ATOM      7  H   UNL     1     -17.841   1.349  25.860  1.00  0.00     0.211 HD
ENDBRANCH   2   6
ENDBRANCH   1   2
BRANCH   1   8
ATOM      8  C   UNL     1     -17.061   2.996  25.014  1.00  0.00     0.214 C 
BRANCH   8   9
ATOM      9  C   UNL     1     -17.073   4.427  24.522  1.00  0.00     0.189 C 
ATOM     10  O   UNL     1     -16.446   5.275  25.139  1.00  0.00    -0.294 OA
BRANCH   9  11
ATOM     11  C   UNL     1     -17.813   4.836  23.275  1.00  0.00     0.234 C 
BRANCH  11  12
ATOM     12  O   UNL     1     -19.157   5.099  23.571  1.00  0.00    -0.388 OA
ATOM     13  H   UNL     1     -19.187   5.396  24.518  1.00  0.00     0.211 HD
ENDBRANCH  11  12
ENDBRANCH   9  11
ENDBRANCH   8   9
BRANCH   8  14
ATOM     14  O   UNL     1     -16.656   2.142  23.973  1.00  0.00    -0.382 OA
ATOM     15  H   UNL     1     -16.234   2.708  23.276  1.00  0.00     0.211 HD
ENDBRANCH   8  14
ENDBRANCH   1   8
BRANCH   1  16
ATOM     16  O   UNL     1     -14.803   3.111  25.840  1.00  0.00    -0.387 OA
ATOM     17  H   UNL     1     -14.548   2.406  25.189  1.00  0.00     0.211 HD
ENDBRANCH   1  16
TORSDOF 10
ENDMDL
MODEL 2
REMARK VINA RESULT:    -4.191      3.999      5.561
REMARK INTER + INTRA:          -7.065
REMARK INTER:                  -6.430
REMARK INTRA:                  -0.635
REMARK UNBOUND:                -1.036
REMARK SMILES O=C(CO)[C@@H](O)[C@H](O)[C@@H](O)CO
REMARK SMILES IDX 7 1 9 2 11 3 12 4 10 6 5 8 2 9 1 10 3 11 4 12 6 14 8 16
REMARK H PARENT 12 5 10 7 4 13 6 15 8 17
REMARK Flexibility Score: inf
ROOT
ATOM      1  C   UNL     1     -15.507  -0.294  22.772  1.00  0.00     0.181 C 
ENDROOT
BRANCH   1   2
ATOM      2  C   UNL     1     -16.246   0.353  23.977  1.00  0.00     0.171 C 
BRANCH   2   3
ATOM      3  C   UNL     1     -17.631  -0.269  24.238  1.00  0.00     0.190 C 
BRANCH   3   4
ATOM      4  O   UNL     1     -17.811  -0.459  25.616  1.00  0.00    -0.394 OA
ATOM      5  H   UNL     1     -18.105   0.417  25.979  1.00  0.00     0.210 HD
ENDBRANCH   3   4
ENDBRANCH   2   3
BRANCH   2   6
ATOM      6  O   UNL     1     -16.376   1.739  23.776  1.00  0.00    -0.388 OA
ATOM      7  H   UNL     1     -17.240   2.020  24.177  1.00  0.00     0.211 HD
ENDBRANCH   2   6
ENDBRANCH   1   2
BRANCH   1   8
ATOM      8  C   UNL     1     -14.410   0.615  22.168  1.00  0.00     0.214 C 
BRANCH   8   9
ATOM      9  C   UNL     1     -13.258  -0.216  21.647  1.00  0.00     0.189 C 
ATOM     10  O   UNL     1     -13.492  -1.287  21.105  1.00  0.00    -0.294 OA
BRANCH   9  11
ATOM     11  C   UNL     1     -11.828   0.249  21.748  1.00  0.00     0.234 C 
BRANCH  11  12
ATOM     12  O   UNL     1     -11.783   1.627  21.999  1.00  0.00    -0.388 OA
ATOM     13  H   UNL     1     -10.830   1.857  22.156  1.00  0.00     0.211 HD
ENDBRANCH  11  12
ENDBRANCH   9  11
ENDBRANCH   8   9
BRANCH   8  14
ATOM     14  O   UNL     1     -14.932   1.404  21.129  1.00  0.00    -0.382 OA
ATOM     15  H   UNL     1     -15.627   0.864  20.670  1.00  0.00     0.211 HD
ENDBRANCH   8  14
ENDBRANCH   1   8
BRANCH   1  16
ATOM     16  O   UNL     1     -16.447  -0.604  21.772  1.00  0.00    -0.387 OA
ATOM     17  H   UNL     1     -17.341  -0.342  22.116  1.00  0.00     0.211 HD
ENDBRANCH   1  16
TORSDOF 10
ENDMDL
MODEL 3
REMARK VINA RESULT:    -4.138      1.956      2.896
REMARK INTER + INTRA:          -6.989
REMARK INTER:                  -5.748
REMARK INTRA:                  -1.242
REMARK UNBOUND:                -1.036
REMARK SMILES O=C(CO)[C@@H](O)[C@H](O)[C@@H](O)CO
REMARK SMILES IDX 7 1 9 2 11 3 12 4 10 6 5 8 2 9 1 10 3 11 4 12 6 14 8 16
REMARK H PARENT 12 5 10 7 4 13 6 15 8 17
REMARK Flexibility Score: inf
ROOT
ATOM      1  C   UNL     1     -15.618   0.451  25.261  1.00  0.00     0.181 C 
ENDROOT
BRANCH   1   2
ATOM      2  C   UNL     1     -16.593  -0.741  25.049  1.00  0.00     0.171 C 
BRANCH   2   3
ATOM      3  C   UNL     1     -16.568  -1.291  23.610  1.00  0.00     0.190 C 
BRANCH   3   4
ATOM      4  O   UNL     1     -17.119  -0.346  22.733  1.00  0.00    -0.394 OA
ATOM      5  H   UNL     1     -18.079  -0.272  22.975  1.00  0.00     0.210 HD
ENDBRANCH   3   4
ENDBRANCH   2   3
BRANCH   2   6
ATOM      6  O   UNL     1     -17.903  -0.359  25.391  1.00  0.00    -0.388 OA
ATOM      7  H   UNL     1     -18.125   0.453  24.864  1.00  0.00     0.211 HD
ENDBRANCH   2   6
ENDBRANCH   1   2
BRANCH   1   8
ATOM      8  C   UNL     1     -16.335   1.817  25.363  1.00  0.00     0.214 C 
BRANCH   8   9
ATOM      9  C   UNL     1     -15.396   2.873  25.905  1.00  0.00     0.189 C 
ATOM     10  O   UNL     1     -14.293   2.538  26.310  1.00  0.00    -0.294 OA
BRANCH   9  11
ATOM     11  C   UNL     1     -15.768   4.333  25.933  1.00  0.00     0.234 C 
BRANCH  11  12
ATOM     12  O   UNL     1     -17.161   4.480  25.915  1.00  0.00    -0.388 OA
ATOM     13  H   UNL     1     -17.538   3.682  26.369  1.00  0.00     0.211 HD
ENDBRANCH  11  12
ENDBRANCH   9  11
ENDBRANCH   8   9
BRANCH   8  14
ATOM     14  O   UNL     1     -16.824   2.219  24.108  1.00  0.00    -0.382 OA
ATOM     15  H   UNL     1     -17.771   2.488  24.233  1.00  0.00     0.211 HD
ENDBRANCH   8  14
ENDBRANCH   1   8
BRANCH   1  16
ATOM     16  O   UNL     1     -14.705   0.491  24.191  1.00  0.00    -0.387 OA
ATOM     17  H   UNL     1     -13.824   0.200  24.544  1.00  0.00     0.211 HD
ENDBRANCH   1  16
TORSDOF 10
ENDMDL
MODEL 4
REMARK VINA RESULT:    -4.108      2.689      4.120
REMARK INTER + INTRA:          -6.946
REMARK INTER:                  -5.670
REMARK INTRA:                  -1.275
REMARK UNBOUND:                -1.036
REMARK SMILES O=C(CO)[C@@H](O)[C@H](O)[C@@H](O)CO
REMARK SMILES IDX 7 1 9 2 11 3 12 4 10 6 5 8 2 9 1 10 3 11 4 12 6 14 8 16
REMARK H PARENT 12 5 10 7 4 13 6 15 8 17
REMARK Flexibility Score: inf
ROOT
ATOM      1  C   UNL     1     -15.284   0.167  23.903  1.00  0.00     0.181 C 
ENDROOT
BRANCH   1   2
ATOM      2  C   UNL     1     -15.461  -0.484  22.503  1.00  0.00     0.171 C 
BRANCH   2   3
ATOM      3  C   UNL     1     -14.567   0.155  21.424  1.00  0.00     0.190 C 
BRANCH   3   4
ATOM      4  O   UNL     1     -15.029   1.447  21.132  1.00  0.00    -0.394 OA
ATOM      5  H   UNL     1     -15.634   1.353  20.350  1.00  0.00     0.210 HD
ENDBRANCH   3   4
ENDBRANCH   2   3
BRANCH   2   6
ATOM      6  O   UNL     1     -16.809  -0.418  22.106  1.00  0.00    -0.388 OA
ATOM      7  H   UNL     1     -17.366  -0.598  22.909  1.00  0.00     0.211 HD
ENDBRANCH   2   6
ENDBRANCH   1   2
BRANCH   1   8
ATOM      8  C   UNL     1     -16.551   0.901  24.401  1.00  0.00     0.214 C 
BRANCH   8   9
ATOM      9  C   UNL     1     -16.473   1.148  25.891  1.00  0.00     0.189 C 
ATOM     10  O   UNL     1     -16.545   0.199  26.658  1.00  0.00    -0.294 OA
BRANCH   9  11
ATOM     11  C   UNL     1     -16.279   2.529  26.463  1.00  0.00     0.234 C 
BRANCH  11  12
ATOM     12  O   UNL     1     -15.065   3.071  26.020  1.00  0.00    -0.388 OA
ATOM     13  H   UNL     1     -15.248   4.016  25.774  1.00  0.00     0.211 HD
ENDBRANCH  11  12
ENDBRANCH   9  11
ENDBRANCH   8   9
BRANCH   8  14
ATOM     14  O   UNL     1     -16.716   2.124  23.727  1.00  0.00    -0.382 OA
ATOM     15  H   UNL     1     -17.271   1.946  22.924  1.00  0.00     0.211 HD
ENDBRANCH   8  14
ENDBRANCH   1   8
BRANCH   1  16
ATOM     16  O   UNL     1     -14.215   1.081  23.851  1.00  0.00    -0.387 OA
ATOM     17  H   UNL     1     -13.736   1.023  24.718  1.00  0.00     0.211 HD
ENDBRANCH   1  16
TORSDOF 10
ENDMDL
MODEL 5
REMARK VINA RESULT:    -4.091      2.076      3.587
REMARK INTER + INTRA:          -6.920
REMARK INTER:                  -6.697
REMARK INTRA:                  -0.223
REMARK UNBOUND:                -1.036
REMARK SMILES O=C(CO)[C@@H](O)[C@H](O)[C@@H](O)CO
REMARK SMILES IDX 7 1 9 2 11 3 12 4 10 6 5 8 2 9 1 10 3 11 4 12 6 14 8 16
REMARK H PARENT 12 5 10 7 4 13 6 15 8 17
REMARK Flexibility Score: inf
ROOT
ATOM      1  C   UNL     1     -16.295   1.954  24.900  1.00  0.00     0.181 C 
ENDROOT
BRANCH   1   2
ATOM      2  C   UNL     1     -16.734   0.519  25.308  1.00  0.00     0.171 C 
BRANCH   2   3
ATOM      3  C   UNL     1     -17.760  -0.096  24.338  1.00  0.00     0.190 C 
BRANCH   3   4
ATOM      4  O   UNL     1     -18.672  -0.885  25.053  1.00  0.00    -0.394 OA
ATOM      5  H   UNL     1     -19.413  -0.278  25.317  1.00  0.00     0.210 HD
ENDBRANCH   3   4
ENDBRANCH   2   3
BRANCH   2   6
ATOM      6  O   UNL     1     -17.258   0.528  26.614  1.00  0.00    -0.388 OA
ATOM      7  H   UNL     1     -17.098   1.432  26.994  1.00  0.00     0.211 HD
ENDBRANCH   2   6
ENDBRANCH   1   2
BRANCH   1   8
ATOM      8  C   UNL     1     -16.349   2.965  26.069  1.00  0.00     0.214 C 
BRANCH   8   9
ATOM      9  C   UNL     1     -14.967   3.502  26.373  1.00  0.00     0.189 C 
ATOM     10  O   UNL     1     -14.811   4.706  26.505  1.00  0.00    -0.294 OA
BRANCH   9  11
ATOM     11  C   UNL     1     -13.779   2.592  26.549  1.00  0.00     0.234 C 
BRANCH  11  12
ATOM     12  O   UNL     1     -12.615   3.217  26.080  1.00  0.00    -0.388 OA
ATOM     13  H   UNL     1     -12.220   2.611  25.401  1.00  0.00     0.211 HD
ENDBRANCH  11  12
ENDBRANCH   9  11
ENDBRANCH   8   9
BRANCH   8  14
ATOM     14  O   UNL     1     -17.213   4.032  25.766  1.00  0.00    -0.382 OA
ATOM     15  H   UNL     1     -16.732   4.632  25.138  1.00  0.00     0.211 HD
ENDBRANCH   8  14
ENDBRANCH   1   8
BRANCH   1  16
ATOM     16  O   UNL     1     -17.128   2.408  23.861  1.00  0.00    -0.387 OA
ATOM     17  H   UNL     1     -18.037   2.522  24.241  1.00  0.00     0.211 HD
ENDBRANCH   1  16
TORSDOF 10
ENDMDL
MODEL 6
REMARK VINA RESULT:    -4.081      2.735      4.718
REMARK INTER + INTRA:          -6.907
REMARK INTER:                  -6.601
REMARK INTRA:                  -0.305
REMARK UNBOUND:                -1.036
REMARK SMILES O=C(CO)[C@@H](O)[C@H](O)[C@@H](O)CO
REMARK SMILES IDX 7 1 9 2 11 3 12 4 10 6 5 8 2 9 1 10 3 11 4 12 6 14 8 16
REMARK H PARENT 12 5 10 7 4 13 6 15 8 17
REMARK Flexibility Score: inf
ROOT
ATOM      1  C   UNL     1     -16.624   0.403  25.441  1.00  0.00     0.181 C 
ENDROOT
BRANCH   1   2
ATOM      2  C   UNL     1     -16.272   1.857  25.020  1.00  0.00     0.171 C 
BRANCH   2   3
ATOM      3  C   UNL     1     -16.475   2.879  26.155  1.00  0.00     0.190 C 
BRANCH   3   4
ATOM      4  O   UNL     1     -17.131   4.014  25.658  1.00  0.00    -0.394 OA
ATOM      5  H   UNL     1     -17.379   3.800  24.720  1.00  0.00     0.210 HD
ENDBRANCH   3   4
ENDBRANCH   2   3
BRANCH   2   6
ATOM      6  O   UNL     1     -17.034   2.234  23.899  1.00  0.00    -0.388 OA
ATOM      7  H   UNL     1     -16.411   2.623  23.231  1.00  0.00     0.211 HD
ENDBRANCH   2   6
ENDBRANCH   1   2
BRANCH   1   8
ATOM      8  C   UNL     1     -17.547  -0.319  24.431  1.00  0.00     0.214 C 
BRANCH   8   9
ATOM      9  C   UNL     1     -16.827  -1.485  23.790  1.00  0.00     0.189 C 
ATOM     10  O   UNL     1     -16.990  -2.608  24.243  1.00  0.00    -0.294 OA
BRANCH   9  11
ATOM     11  C   UNL     1     -15.935  -1.310  22.589  1.00  0.00     0.234 C 
BRANCH  11  12
ATOM     12  O   UNL     1     -16.474  -0.352  21.719  1.00  0.00    -0.388 OA
ATOM     13  H   UNL     1     -16.122   0.529  22.012  1.00  0.00     0.211 HD
ENDBRANCH  11  12
ENDBRANCH   9  11
ENDBRANCH   8   9
BRANCH   8  14
ATOM     14  O   UNL     1     -18.717  -0.776  25.063  1.00  0.00    -0.382 OA
ATOM     15  H   UNL     1     -18.582  -0.676  26.041  1.00  0.00     0.211 HD
ENDBRANCH   8  14
ENDBRANCH   1   8
BRANCH   1  16
ATOM     16  O   UNL     1     -17.254   0.431  26.699  1.00  0.00    -0.387 OA
ATOM     17  H   UNL     1     -17.518  -0.501  26.917  1.00  0.00     0.211 HD
ENDBRANCH   1  16
TORSDOF 10
ENDMDL
MODEL 7
REMARK VINA RESULT:    -4.072      2.269      3.771
REMARK INTER + INTRA:          -6.893
REMARK INTER:                  -5.684
REMARK INTRA:                  -1.209
REMARK UNBOUND:                -1.036
REMARK SMILES O=C(CO)[C@@H](O)[C@H](O)[C@@H](O)CO
REMARK SMILES IDX 7 1 9 2 11 3 12 4 10 6 5 8 2 9 1 10 3 11 4 12 6 14 8 16
REMARK H PARENT 12 5 10 7 4 13 6 15 8 17
REMARK Flexibility Score: inf
ROOT
ATOM      1  C   UNL     1     -15.537   0.150  24.858  1.00  0.00     0.181 C 
ENDROOT
BRANCH   1   2
ATOM      2  C   UNL     1     -16.773  -0.414  24.104  1.00  0.00     0.171 C 
BRANCH   2   3
ATOM      3  C   UNL     1     -16.396  -1.230  22.853  1.00  0.00     0.190 C 
BRANCH   3   4
ATOM      4  O   UNL     1     -16.279  -0.374  21.748  1.00  0.00    -0.394 OA
ATOM      5  H   UNL     1     -15.367  -0.518  21.384  1.00  0.00     0.210 HD
ENDBRANCH   3   4
ENDBRANCH   2   3
BRANCH   2   6
ATOM      6  O   UNL     1     -17.640   0.635  23.745  1.00  0.00    -0.388 OA
ATOM      7  H   UNL     1     -17.078   1.408  23.476  1.00  0.00     0.211 HD
ENDBRANCH   2   6
ENDBRANCH   1   2
BRANCH   1   8
ATOM      8  C   UNL     1     -15.898   0.835  26.197  1.00  0.00     0.214 C 
BRANCH   8   9
ATOM      9  C   UNL     1     -15.829   2.341  26.060  1.00  0.00     0.189 C 
ATOM     10  O   UNL     1     -16.709   2.925  25.446  1.00  0.00    -0.294 OA
BRANCH   9  11
ATOM     11  C   UNL     1     -14.721   3.149  26.685  1.00  0.00     0.234 C 
BRANCH  11  12
ATOM     12  O   UNL     1     -13.503   2.881  26.044  1.00  0.00    -0.388 OA
ATOM     13  H   UNL     1     -13.476   1.902  25.882  1.00  0.00     0.211 HD
ENDBRANCH  11  12
ENDBRANCH   9  11
ENDBRANCH   8   9
BRANCH   8  14
ATOM     14  O   UNL     1     -17.184   0.458  26.620  1.00  0.00    -0.382 OA
ATOM     15  H   UNL     1     -17.581  -0.096  25.898  1.00  0.00     0.211 HD
ENDBRANCH   8  14
ENDBRANCH   1   8
BRANCH   1  16
ATOM     16  O   UNL     1     -14.881   1.080  24.029  1.00  0.00    -0.387 OA
ATOM     17  H   UNL     1     -15.317   1.039  23.138  1.00  0.00     0.211 HD
ENDBRANCH   1  16
TORSDOF 10
ENDMDL
MODEL 8
REMARK VINA RESULT:    -4.054      2.391      3.864
REMARK INTER + INTRA:          -6.868
REMARK INTER:                  -5.410
REMARK INTRA:                  -1.458
REMARK UNBOUND:                -1.036
REMARK SMILES O=C(CO)[C@@H](O)[C@H](O)[C@@H](O)CO
REMARK SMILES IDX 7 1 9 2 11 3 12 4 10 6 5 8 2 9 1 10 3 11 4 12 6 14 8 16
REMARK H PARENT 12 5 10 7 4 13 6 15 8 17
REMARK Flexibility Score: inf
ROOT
ATOM      1  C   UNL     1     -15.803   0.807  23.881  1.00  0.00     0.181 C 
ENDROOT
BRANCH   1   2
ATOM      2  C   UNL     1     -15.645  -0.739  23.871  1.00  0.00     0.171 C 
BRANCH   2   3
ATOM      3  C   UNL     1     -15.919  -1.364  22.490  1.00  0.00     0.190 C 
BRANCH   3   4
ATOM      4  O   UNL     1     -16.317  -0.365  21.590  1.00  0.00    -0.394 OA
ATOM      5  H   UNL     1     -16.479   0.449  22.135  1.00  0.00     0.210 HD
ENDBRANCH   3   4
ENDBRANCH   2   3
BRANCH   2   6
ATOM      6  O   UNL     1     -16.493  -1.317  24.833  1.00  0.00    -0.388 OA
ATOM      7  H   UNL     1     -16.319  -0.861  25.698  1.00  0.00     0.211 HD
ENDBRANCH   2   6
ENDBRANCH   1   2
BRANCH   1   8
ATOM      8  C   UNL     1     -15.086   1.487  25.072  1.00  0.00     0.214 C 
BRANCH   8   9
ATOM      9  C   UNL     1     -16.084   2.203  25.956  1.00  0.00     0.189 C 
ATOM     10  O   UNL     1     -16.526   3.285  25.601  1.00  0.00    -0.294 OA
BRANCH   9  11
ATOM     11  C   UNL     1     -16.574   1.607  27.250  1.00  0.00     0.234 C 
BRANCH  11  12
ATOM     12  O   UNL     1     -17.259   0.409  27.006  1.00  0.00    -0.388 OA
ATOM     13  H   UNL     1     -17.334  -0.059  27.878  1.00  0.00     0.211 HD
ENDBRANCH  11  12
ENDBRANCH   9  11
ENDBRANCH   8   9
BRANCH   8  14
ATOM     14  O   UNL     1     -14.375   0.541  25.832  1.00  0.00    -0.382 OA
ATOM     15  H   UNL     1     -13.873  -0.031  25.195  1.00  0.00     0.211 HD
ENDBRANCH   8  14
ENDBRANCH   1   8
BRANCH   1  16
ATOM     16  O   UNL     1     -17.172   1.127  23.928  1.00  0.00    -0.387 OA
ATOM     17  H   UNL     1     -17.331   1.620  24.774  1.00  0.00     0.211 HD
ENDBRANCH   1  16
TORSDOF 10
ENDMDL
MODEL 9
REMARK VINA RESULT:    -3.993      2.018      4.088
REMARK INTER + INTRA:          -6.780
REMARK INTER:                  -5.740
REMARK INTRA:                  -1.040
REMARK UNBOUND:                -1.036
REMARK SMILES O=C(CO)[C@@H](O)[C@H](O)[C@@H](O)CO
REMARK SMILES IDX 7 1 9 2 11 3 12 4 10 6 5 8 2 9 1 10 3 11 4 12 6 14 8 16
REMARK H PARENT 12 5 10 7 4 13 6 15 8 17
REMARK Flexibility Score: inf
ROOT
ATOM      1  C   UNL     1     -16.604   2.310  25.799  1.00  0.00     0.181 C 
ENDROOT
BRANCH   1   2
ATOM      2  C   UNL     1     -15.224   2.825  26.295  1.00  0.00     0.171 C 
BRANCH   2   3
ATOM      3  C   UNL     1     -15.105   4.360  26.260  1.00  0.00     0.190 C 
BRANCH   3   4
ATOM      4  O   UNL     1     -16.352   4.924  25.957  1.00  0.00    -0.394 OA
ATOM      5  H   UNL     1     -16.849   4.972  26.815  1.00  0.00     0.210 HD
ENDBRANCH   3   4
ENDBRANCH   2   3
BRANCH   2   6
ATOM      6  O   UNL     1     -14.192   2.249  25.531  1.00  0.00    -0.388 OA
ATOM      7  H   UNL     1     -13.858   1.457  26.030  1.00  0.00     0.211 HD
ENDBRANCH   2   6
ENDBRANCH   1   2
BRANCH   1   8
ATOM      8  C   UNL     1     -16.822   0.800  26.056  1.00  0.00     0.214 C 
BRANCH   8   9
ATOM      9  C   UNL     1     -16.786   0.028  24.755  1.00  0.00     0.189 C 
ATOM     10  O   UNL     1     -15.722  -0.105  24.170  1.00  0.00    -0.294 OA
BRANCH   9  11
ATOM     11  C   UNL     1     -18.021  -0.610  24.172  1.00  0.00     0.234 C 
BRANCH  11  12
ATOM     12  O   UNL     1     -18.889  -1.013  25.195  1.00  0.00    -0.388 OA
ATOM     13  H   UNL     1     -19.498  -1.691  24.801  1.00  0.00     0.211 HD
ENDBRANCH  11  12
ENDBRANCH   9  11
ENDBRANCH   8   9
BRANCH   8  14
ATOM     14  O   UNL     1     -15.843   0.297  26.931  1.00  0.00    -0.382 OA
ATOM     15  H   UNL     1     -15.829   0.888  27.729  1.00  0.00     0.211 HD
ENDBRANCH   8  14
ENDBRANCH   1   8
BRANCH   1  16
ATOM     16  O   UNL     1     -16.717   2.561  24.419  1.00  0.00    -0.387 OA
ATOM     17  H   UNL     1     -17.399   3.273  24.304  1.00  0.00     0.211 HD
ENDBRANCH   1  16
TORSDOF 10
ENDMDL
