MODEL 1
REMARK VINA RESULT:    -4.643      0.000      0.000
REMARK INTER + INTRA:          -6.754
REMARK INTER:                  -6.543
REMARK INTRA:                  -0.211
REMARK UNBOUND:                -0.211
REMARK SMILES CC1=CCC(=C(C)C)C(=O)CC(C)=CCC1
REMARK SMILES IDX 12 1 14 2 13 3 15 4 16 5 2 6 1 7 3 8 11 10 9 11 10 12 5 13
REMARK SMILES IDX 6 14 7 15 8 16 4 17
REMARK H PARENT
REMARK Flexibility Score: 60.00
ROOT
ATOM      1  C   UNL     1     -17.675 -52.279  31.982  1.00  0.00    -0.070 C 
ATOM      2  C   UNL     1     -17.056 -51.189  31.448  1.00  0.00    -0.027 C 
ATOM      3  C   UNL     1     -17.673 -52.373  33.490  1.00  0.00     0.039 C 
ENDROOT
BRANCH   2   4
ATOM      4  C   UNL     1     -16.919 -50.812  29.988  1.00  0.00     0.032 C 
BRANCH   4   5
ATOM      5  C   UNL     1     -17.832 -49.660  29.505  1.00  0.00     0.034 C 
BRANCH   5   6
ATOM      6  C   UNL     1     -19.032 -50.101  28.693  1.00  0.00    -0.077 C 
ATOM      7  C   UNL     1     -18.908 -50.139  27.190  1.00  0.00     0.039 C 
ATOM      8  C   UNL     1     -20.227 -50.412  29.239  1.00  0.00    -0.023 CG0
ATOM      9  G   UNL     1     -20.569 -50.466  30.711  1.00  0.00     0.000 G0
ENDBRANCH   5   6
ENDBRANCH   4   5
ENDBRANCH   2   4
BRANCH   1  10
ATOM     10  C   UNL     1     -18.467 -53.359  31.240  1.00  0.00     0.111 C 
BRANCH  10  11
ATOM     11  C   UNL     1     -19.850 -52.988  30.769  1.00  0.00     0.163 C 
ATOM     12  O   UNL     1     -20.322 -53.699  29.841  1.00  0.00    -0.294 OA
BRANCH  11  13
ATOM     13  C   UNL     1     -20.667 -51.858  31.361  1.00  0.00    -0.002 C 
ATOM     14  C   UNL     1     -21.385 -52.022  32.527  1.00  0.00    -0.069 C 
ATOM     15  C   UNL     1     -22.113 -50.867  33.185  1.00  0.00     0.039 C 
ATOM     16  C   UNL     1     -21.508 -53.357  33.234  1.00  0.00     0.039 C 
BRANCH  13  17
ATOM     17  C   UNL     1     -20.595 -50.472  30.702  1.00  0.00     0.066 CG0
ATOM     18  G   UNL     1     -20.218 -50.422  29.238  1.00  0.00     0.000 G0
ENDBRANCH  13  17
ENDBRANCH  11  13
ENDBRANCH  10  11
ENDBRANCH   1  10
TORSDOF 0
ENDMDL
MODEL 2
REMARK VINA RESULT:    -4.519      6.499      8.427
REMARK INTER + INTRA:          -6.579
REMARK INTER:                  -6.369
REMARK INTRA:                  -0.210
REMARK UNBOUND:                -0.211
REMARK SMILES CC1=CCC(=C(C)C)C(=O)CC(C)=CCC1
REMARK SMILES IDX 12 1 14 2 13 3 15 4 16 5 2 6 1 7 3 8 11 10 9 11 10 12 5 13
REMARK SMILES IDX 6 14 7 15 8 16 4 17
REMARK H PARENT
REMARK Flexibility Score: 60.00
ROOT
ATOM      1  C   UNL     1     -27.843 -53.321  26.780  1.00  0.00    -0.070 C 
ATOM      2  C   UNL     1     -28.266 -52.099  27.213  1.00  0.00    -0.027 C 
ATOM      3  C   UNL     1     -28.129 -53.649  25.333  1.00  0.00     0.039 C 
ENDROOT
BRANCH   2   4
ATOM      4  C   UNL     1     -28.103 -51.486  28.587  1.00  0.00     0.032 C 
BRANCH   4   5
ATOM      5  C   UNL     1     -27.038 -50.367  28.699  1.00  0.00     0.034 C 
BRANCH   5   6
ATOM      6  C   UNL     1     -25.749 -50.786  29.374  1.00  0.00    -0.077 C 
ATOM      7  C   UNL     1     -25.609 -50.562  30.859  1.00  0.00     0.039 C 
ATOM      8  C   UNL     1     -24.694 -51.301  28.708  1.00  0.00    -0.023 CG0
ATOM      9  G   UNL     1     -24.620 -51.632  27.234  1.00  0.00     0.000 G0
ENDBRANCH   5   6
ENDBRANCH   4   5
ENDBRANCH   2   4
BRANCH   1  10
ATOM     10  C   UNL     1     -27.014 -54.349  27.554  1.00  0.00     0.111 C 
BRANCH  10  11
ATOM     11  C   UNL     1     -25.550 -54.045  27.740  1.00  0.00     0.163 C 
ATOM     12  O   UNL     1     -24.987 -54.631  28.704  1.00  0.00    -0.294 OA
BRANCH  11  13
ATOM     13  C   UNL     1     -24.760 -53.122  26.835  1.00  0.00    -0.002 C 
ATOM     14  C   UNL     1     -24.268 -53.551  25.621  1.00  0.00    -0.069 C 
ATOM     15  C   UNL     1     -23.574 -52.605  24.661  1.00  0.00     0.039 C 
ATOM     16  C   UNL     1     -24.374 -54.990  25.154  1.00  0.00     0.039 C 
BRANCH  13  17
ATOM     17  C   UNL     1     -24.607 -51.648  27.238  1.00  0.00     0.066 CG0
ATOM     18  G   UNL     1     -24.691 -51.322  28.712  1.00  0.00     0.000 G0
ENDBRANCH  13  17
ENDBRANCH  11  13
ENDBRANCH  10  11
ENDBRANCH   1  10
TORSDOF 0
ENDMDL
MODEL 3
REMARK VINA RESULT:    -4.411      6.971      8.274
REMARK INTER + INTRA:          -6.427
REMARK INTER:                  -6.278
REMARK INTRA:                  -0.150
REMARK UNBOUND:                -0.211
REMARK SMILES CC1=CCC(=C(C)C)C(=O)CC(C)=CCC1
REMARK SMILES IDX 12 1 14 2 13 3 15 4 16 5 2 6 1 7 3 8 11 10 9 11 10 12 5 13
REMARK SMILES IDX 6 14 7 15 8 16 4 17
REMARK H PARENT
REMARK Flexibility Score: 60.00
ROOT
ATOM      1  C   UNL     1     -25.145 -54.949  25.535  1.00  0.00    -0.070 C 
ATOM      2  C   UNL     1     -26.184 -54.678  24.695  1.00  0.00    -0.027 C 
ATOM      3  C   UNL     1     -23.913 -55.548  24.897  1.00  0.00     0.039 C 
ENDROOT
BRANCH   2   4
ATOM      4  C   UNL     1     -27.523 -54.060  25.033  1.00  0.00     0.032 C 
BRANCH   4   5
ATOM      5  C   UNL     1     -27.490 -52.562  25.425  1.00  0.00     0.034 C 
BRANCH   5   6
ATOM      6  C   UNL     1     -28.173 -52.237  26.737  1.00  0.00    -0.077 C 
ATOM      7  C   UNL     1     -29.644 -52.543  26.877  1.00  0.00     0.039 C 
ATOM      8  C   UNL     1     -27.550 -51.637  27.773  1.00  0.00    -0.023 CG0
ATOM      9  G   UNL     1     -26.086 -51.265  27.863  1.00  0.00     0.000 G0
ENDBRANCH   5   6
ENDBRANCH   4   5
ENDBRANCH   2   4
BRANCH   1  10
ATOM     10  C   UNL     1     -25.038 -54.614  27.025  1.00  0.00     0.111 C 
BRANCH  10  11
ATOM     11  C   UNL     1     -24.459 -53.269  27.383  1.00  0.00     0.163 C 
ATOM     12  O   UNL     1     -23.402 -52.949  26.776  1.00  0.00    -0.294 OA
BRANCH  11  13
ATOM     13  C   UNL     1     -25.089 -52.320  28.382  1.00  0.00    -0.002 C 
ATOM     14  C   UNL     1     -24.723 -52.327  29.711  1.00  0.00    -0.069 C 
ATOM     15  C   UNL     1     -25.266 -51.309  30.694  1.00  0.00     0.039 C 
ATOM     16  C   UNL     1     -23.763 -53.346  30.293  1.00  0.00     0.039 C 
BRANCH  13  17
ATOM     17  C   UNL     1     -26.073 -51.257  27.871  1.00  0.00     0.066 CG0
ATOM     18  G   UNL     1     -27.530 -51.650  27.781  1.00  0.00     0.000 G0
ENDBRANCH  13  17
ENDBRANCH  11  13
ENDBRANCH  10  11
ENDBRANCH   1  10
TORSDOF 0
ENDMDL
MODEL 4
REMARK VINA RESULT:    -4.359      6.733      8.299
REMARK INTER + INTRA:          -6.354
REMARK INTER:                  -6.098
REMARK INTRA:                  -0.255
REMARK UNBOUND:                -0.211
REMARK SMILES CC1=CCC(=C(C)C)C(=O)CC(C)=CCC1
REMARK SMILES IDX 12 1 14 2 13 3 15 4 16 5 2 6 1 7 3 8 11 10 9 11 10 12 5 13
REMARK SMILES IDX 6 14 7 15 8 16 4 17
REMARK H PARENT
REMARK Flexibility Score: 60.00
ROOT
ATOM      1  C   UNL     1     -27.286 -51.786  27.991  1.00  0.00    -0.070 C 
ATOM      2  C   UNL     1     -27.820 -51.649  26.745  1.00  0.00    -0.027 C 
ATOM      3  C   UNL     1     -27.117 -50.513  28.787  1.00  0.00     0.039 C 
ENDROOT
BRANCH   2   4
ATOM      4  C   UNL     1     -28.130 -52.732  25.734  1.00  0.00     0.032 C 
BRANCH   4   5
ATOM      5  C   UNL     1     -26.980 -53.088  24.760  1.00  0.00     0.034 C 
BRANCH   5   6
ATOM      6  C   UNL     1     -26.259 -54.381  25.079  1.00  0.00    -0.077 C 
ATOM      7  C   UNL     1     -26.876 -55.680  24.623  1.00  0.00     0.039 C 
ATOM      8  C   UNL     1     -25.119 -54.439  25.798  1.00  0.00    -0.023 CG0
ATOM      9  G   UNL     1     -24.317 -53.273  26.331  1.00  0.00     0.000 G0
ENDBRANCH   5   6
ENDBRANCH   4   5
ENDBRANCH   2   4
BRANCH   1  10
ATOM     10  C   UNL     1     -26.945 -53.088  28.721  1.00  0.00     0.111 C 
BRANCH  10  11
ATOM     11  C   UNL     1     -25.523 -53.575  28.619  1.00  0.00     0.163 C 
ATOM     12  O   UNL     1     -25.256 -54.629  29.259  1.00  0.00    -0.294 OA
BRANCH  11  13
ATOM     13  C   UNL     1     -24.455 -52.889  27.792  1.00  0.00    -0.002 C 
ATOM     14  C   UNL     1     -23.556 -52.012  28.362  1.00  0.00    -0.069 C 
ATOM     15  C   UNL     1     -22.417 -51.407  27.565  1.00  0.00     0.039 C 
ATOM     16  C   UNL     1     -23.635 -51.582  29.813  1.00  0.00     0.039 C 
BRANCH  13  17
ATOM     17  C   UNL     1     -24.309 -53.271  26.312  1.00  0.00     0.066 CG0
ATOM     18  G   UNL     1     -25.114 -54.453  25.820  1.00  0.00     0.000 G0
ENDBRANCH  13  17
ENDBRANCH  11  13
ENDBRANCH  10  11
ENDBRANCH   1  10
TORSDOF 0
ENDMDL
MODEL 5
REMARK VINA RESULT:    -4.359      4.599      6.865
REMARK INTER + INTRA:          -6.354
REMARK INTER:                  -6.232
REMARK INTRA:                  -0.122
REMARK UNBOUND:                -0.211
REMARK SMILES CC1=CCC(=C(C)C)C(=O)CC(C)=CCC1
REMARK SMILES IDX 12 1 14 2 13 3 15 4 16 5 2 6 1 7 3 8 11 10 9 11 10 12 5 13
REMARK SMILES IDX 6 14 7 15 8 16 4 17
REMARK H PARENT
REMARK Flexibility Score: 60.00
ROOT
ATOM      1  C   UNL     1     -20.571 -52.000  23.885  1.00  0.00    -0.070 C 
ATOM      2  C   UNL     1     -20.913 -53.251  23.468  1.00  0.00    -0.027 C 
ATOM      3  C   UNL     1     -19.141 -51.582  23.635  1.00  0.00     0.039 C 
ENDROOT
BRANCH   2   4
ATOM      4  C   UNL     1     -22.262 -53.932  23.557  1.00  0.00     0.032 C 
BRANCH   4   5
ATOM      5  C   UNL     1     -22.413 -54.976  24.691  1.00  0.00     0.034 C 
BRANCH   5   6
ATOM      6  C   UNL     1     -23.310 -54.545  25.832  1.00  0.00    -0.077 C 
ATOM      7  C   UNL     1     -24.775 -54.897  25.766  1.00  0.00     0.039 C 
ATOM      8  C   UNL     1     -22.880 -53.816  26.883  1.00  0.00    -0.023 CG0
ATOM      9  G   UNL     1     -21.461 -53.376  27.167  1.00  0.00     0.000 G0
ENDBRANCH   5   6
ENDBRANCH   4   5
ENDBRANCH   2   4
BRANCH   1  10
ATOM     10  C   UNL     1     -21.494 -50.928  24.473  1.00  0.00     0.111 C 
BRANCH  10  11
ATOM     11  C   UNL     1     -21.933 -51.116  25.903  1.00  0.00     0.163 C 
ATOM     12  O   UNL     1     -23.046 -50.607  26.205  1.00  0.00    -0.294 OA
BRANCH  11  13
ATOM     13  C   UNL     1     -21.132 -51.881  26.936  1.00  0.00    -0.002 C 
ATOM     14  C   UNL     1     -20.189 -51.256  27.724  1.00  0.00    -0.069 C 
ATOM     15  C   UNL     1     -19.464 -51.989  28.835  1.00  0.00     0.039 C 
ATOM     16  C   UNL     1     -19.801 -49.802  27.543  1.00  0.00     0.039 C 
BRANCH  13  17
ATOM     17  C   UNL     1     -21.465 -53.361  27.180  1.00  0.00     0.066 CG0
ATOM     18  G   UNL     1     -22.873 -53.814  26.861  1.00  0.00     0.000 G0
ENDBRANCH  13  17
ENDBRANCH  11  13
ENDBRANCH  10  11
ENDBRANCH   1  10
TORSDOF 0
ENDMDL
MODEL 6
REMARK VINA RESULT:    -4.345      5.102      7.181
REMARK INTER + INTRA:          -6.334
REMARK INTER:                  -6.198
REMARK INTRA:                  -0.136
REMARK UNBOUND:                -0.211
REMARK SMILES CC1=CCC(=C(C)C)C(=O)CC(C)=CCC1
REMARK SMILES IDX 12 1 14 2 13 3 15 4 16 5 2 6 1 7 3 8 11 10 9 11 10 12 5 13
REMARK SMILES IDX 6 14 7 15 8 16 4 17
REMARK H PARENT
REMARK Flexibility Score: 60.00
ROOT
ATOM      1  C   UNL     1     -20.659 -53.137  24.067  1.00  0.00    -0.070 C 
ATOM      2  C   UNL     1     -21.756 -53.763  23.555  1.00  0.00    -0.027 C 
ATOM      3  C   UNL     1     -19.884 -52.261  23.110  1.00  0.00     0.039 C 
ENDROOT
BRANCH   2   4
ATOM      4  C   UNL     1     -22.732 -54.673  24.268  1.00  0.00     0.032 C 
BRANCH   4   5
ATOM      5  C   UNL     1     -24.150 -54.091  24.491  1.00  0.00     0.034 C 
BRANCH   5   6
ATOM      6  C   UNL     1     -24.458 -53.709  25.923  1.00  0.00    -0.077 C 
ATOM      7  C   UNL     1     -25.213 -54.692  26.783  1.00  0.00     0.039 C 
ATOM      8  C   UNL     1     -24.141 -52.511  26.459  1.00  0.00    -0.023 CG0
ATOM      9  G   UNL     1     -23.369 -51.392  25.797  1.00  0.00     0.000 G0
ENDBRANCH   5   6
ENDBRANCH   4   5
ENDBRANCH   2   4
BRANCH   1  10
ATOM     10  C   UNL     1     -20.186 -53.126  25.523  1.00  0.00     0.111 C 
BRANCH  10  11
ATOM     11  C   UNL     1     -21.074 -52.432  26.524  1.00  0.00     0.163 C 
ATOM     12  O   UNL     1     -21.087 -52.928  27.683  1.00  0.00    -0.294 OA
BRANCH  11  13
ATOM     13  C   UNL     1     -21.897 -51.200  26.208  1.00  0.00    -0.002 C 
ATOM     14  C   UNL     1     -21.328 -49.944  26.173  1.00  0.00    -0.069 C 
ATOM     15  C   UNL     1     -22.118 -48.722  25.749  1.00  0.00     0.039 C 
ATOM     16  C   UNL     1     -19.884 -49.685  26.556  1.00  0.00     0.039 C 
BRANCH  13  17
ATOM     17  C   UNL     1     -23.369 -51.378  25.809  1.00  0.00     0.066 CG0
ATOM     18  G   UNL     1     -24.133 -52.504  26.469  1.00  0.00     0.000 G0
ENDBRANCH  13  17
ENDBRANCH  11  13
ENDBRANCH  10  11
ENDBRANCH   1  10
TORSDOF 0
ENDMDL
MODEL 7
REMARK VINA RESULT:    -4.302      3.926      6.127
REMARK INTER + INTRA:          -6.273
REMARK INTER:                  -6.230
REMARK INTRA:                  -0.042
REMARK UNBOUND:                -0.211
REMARK SMILES CC1=CCC(=C(C)C)C(=O)CC(C)=CCC1
REMARK SMILES IDX 12 1 14 2 13 3 15 4 16 5 2 6 1 7 3 8 11 10 9 11 10 12 5 13
REMARK SMILES IDX 6 14 7 15 8 16 4 17
REMARK H PARENT
REMARK Flexibility Score: 60.00
ROOT
ATOM      1  C   UNL     1     -20.062 -51.278  24.469  1.00  0.00    -0.070 C 
ATOM      2  C   UNL     1     -18.944 -51.191  25.245  1.00  0.00    -0.027 C 
ATOM      3  C   UNL     1     -19.889 -51.947  23.126  1.00  0.00     0.039 C 
ENDROOT
BRANCH   2   4
ATOM      4  C   UNL     1     -18.812 -50.603  26.633  1.00  0.00     0.032 C 
BRANCH   4   5
ATOM      5  C   UNL     1     -18.449 -51.608  27.754  1.00  0.00     0.034 C 
BRANCH   5   6
ATOM      6  C   UNL     1     -19.601 -51.988  28.660  1.00  0.00    -0.077 C 
ATOM      7  C   UNL     1     -19.655 -51.387  30.043  1.00  0.00     0.039 C 
ATOM      8  C   UNL     1     -20.555 -52.878  28.318  1.00  0.00    -0.023 CG0
ATOM      9  G   UNL     1     -20.712 -53.578  26.987  1.00  0.00     0.000 G0
ENDBRANCH   5   6
ENDBRANCH   4   5
ENDBRANCH   2   4
BRANCH   1  10
ATOM     10  C   UNL     1     -21.491 -50.880  24.846  1.00  0.00     0.111 C 
BRANCH  10  11
ATOM     11  C   UNL     1     -22.183 -51.723  25.886  1.00  0.00     0.163 C 
ATOM     12  O   UNL     1     -23.055 -51.132  26.579  1.00  0.00    -0.294 OA
BRANCH  11  13
ATOM     13  C   UNL     1     -21.898 -53.195  26.103  1.00  0.00    -0.002 C 
ATOM     14  C   UNL     1     -22.614 -54.172  25.444  1.00  0.00    -0.069 C 
ATOM     15  C   UNL     1     -22.262 -55.640  25.570  1.00  0.00     0.039 C 
ATOM     16  C   UNL     1     -23.802 -53.860  24.555  1.00  0.00     0.039 C 
BRANCH  13  17
ATOM     17  C   UNL     1     -20.710 -53.593  26.991  1.00  0.00     0.066 CG0
ATOM     18  G   UNL     1     -20.565 -52.875  28.315  1.00  0.00     0.000 G0
ENDBRANCH  13  17
ENDBRANCH  11  13
ENDBRANCH  10  11
ENDBRANCH   1  10
TORSDOF 0
ENDMDL
MODEL 8
REMARK VINA RESULT:    -4.284      6.891      8.399
REMARK INTER + INTRA:          -6.248
REMARK INTER:                  -6.236
REMARK INTRA:                  -0.013
REMARK UNBOUND:                -0.211
REMARK SMILES CC1=CCC(=C(C)C)C(=O)CC(C)=CCC1
REMARK SMILES IDX 12 1 14 2 13 3 15 4 16 5 2 6 1 7 3 8 11 10 9 11 10 12 5 13
REMARK SMILES IDX 6 14 7 15 8 16 4 17
REMARK H PARENT
REMARK Flexibility Score: 60.00
ROOT
ATOM      1  C   UNL     1     -28.164 -52.801  26.250  1.00  0.00    -0.070 C 
ATOM      2  C   UNL     1     -28.050 -53.649  25.189  1.00  0.00    -0.027 C 
ATOM      3  C   UNL     1     -29.540 -52.679  26.860  1.00  0.00     0.039 C 
ENDROOT
BRANCH   2   4
ATOM      4  C   UNL     1     -26.808 -53.994  24.396  1.00  0.00     0.032 C 
BRANCH   4   5
ATOM      5  C   UNL     1     -25.757 -54.857  25.137  1.00  0.00     0.034 C 
BRANCH   5   6
ATOM      6  C   UNL     1     -24.385 -54.226  25.248  1.00  0.00    -0.077 C 
ATOM      7  C   UNL     1     -23.625 -53.932  23.978  1.00  0.00     0.039 C 
ATOM      8  C   UNL     1     -23.780 -53.960  26.425  1.00  0.00    -0.023 CG0
ATOM      9  G   UNL     1     -24.360 -54.147  27.809  1.00  0.00     0.000 G0
ENDBRANCH   5   6
ENDBRANCH   4   5
ENDBRANCH   2   4
BRANCH   1  10
ATOM     10  C   UNL     1     -27.039 -52.047  26.966  1.00  0.00     0.111 C 
BRANCH  10  11
ATOM     11  C   UNL     1     -26.494 -52.670  28.226  1.00  0.00     0.163 C 
ATOM     12  O   UNL     1     -27.352 -53.004  29.087  1.00  0.00    -0.294 OA
BRANCH  11  13
ATOM     13  C   UNL     1     -25.020 -52.920  28.472  1.00  0.00    -0.002 C 
ATOM     14  C   UNL     1     -24.293 -52.136  29.342  1.00  0.00    -0.069 C 
ATOM     15  C   UNL     1     -22.848 -52.447  29.678  1.00  0.00     0.039 C 
ATOM     16  C   UNL     1     -24.869 -50.910  30.022  1.00  0.00     0.039 C 
BRANCH  13  17
ATOM     17  C   UNL     1     -24.361 -54.144  27.819  1.00  0.00     0.066 CG0
ATOM     18  G   UNL     1     -23.783 -53.961  26.434  1.00  0.00     0.000 G0
ENDBRANCH  13  17
ENDBRANCH  11  13
ENDBRANCH  10  11
ENDBRANCH   1  10
TORSDOF 0
ENDMDL
MODEL 9
REMARK VINA RESULT:    -4.186      4.617      6.870
REMARK INTER + INTRA:          -6.111
REMARK INTER:                  -5.991
REMARK INTRA:                  -0.120
REMARK UNBOUND:                -0.211
REMARK SMILES CC1=CCC(=C(C)C)C(=O)CC(C)=CCC1
REMARK SMILES IDX 12 1 14 2 13 3 15 4 16 5 2 6 1 7 3 8 11 10 9 11 10 12 5 13
REMARK SMILES IDX 6 14 7 15 8 16 4 17
REMARK H PARENT
REMARK Flexibility Score: 60.00
ROOT
ATOM      1  C   UNL     1     -22.335 -54.209  24.341  1.00  0.00    -0.070 C 
ATOM      2  C   UNL     1     -23.543 -54.685  24.755  1.00  0.00    -0.027 C 
ATOM      3  C   UNL     1     -22.073 -54.261  22.854  1.00  0.00     0.039 C 
ENDROOT
BRANCH   2   4
ATOM      4  C   UNL     1     -24.094 -54.740  26.164  1.00  0.00     0.032 C 
BRANCH   4   5
ATOM      5  C   UNL     1     -24.608 -53.395  26.735  1.00  0.00     0.034 C 
BRANCH   5   6
ATOM      6  C   UNL     1     -24.126 -53.078  28.135  1.00  0.00    -0.077 C 
ATOM      7  C   UNL     1     -24.590 -53.955  29.271  1.00  0.00     0.039 C 
ATOM      8  C   UNL     1     -23.344 -52.018  28.431  1.00  0.00    -0.023 CG0
ATOM      9  G   UNL     1     -22.745 -51.028  27.457  1.00  0.00     0.000 G0
ENDBRANCH   5   6
ENDBRANCH   4   5
ENDBRANCH   2   4
BRANCH   1  10
ATOM     10  C   UNL     1     -21.261 -53.525  25.192  1.00  0.00     0.111 C 
BRANCH  10  11
ATOM     11  C   UNL     1     -21.417 -52.044  25.428  1.00  0.00     0.163 C 
ATOM     12  O   UNL     1     -21.589 -51.340  24.396  1.00  0.00    -0.294 OA
BRANCH  11  13
ATOM     13  C   UNL     1     -21.402 -51.404  26.801  1.00  0.00    -0.002 C 
ATOM     14  C   UNL     1     -20.219 -51.067  27.425  1.00  0.00    -0.069 C 
ATOM     15  C   UNL     1     -20.197 -50.327  28.747  1.00  0.00     0.039 C 
ATOM     16  C   UNL     1     -18.860 -51.411  26.849  1.00  0.00     0.039 C 
BRANCH  13  17
ATOM     17  C   UNL     1     -22.739 -51.024  27.453  1.00  0.00     0.066 CG0
ATOM     18  G   UNL     1     -23.339 -52.014  28.427  1.00  0.00     0.000 G0
ENDBRANCH  13  17
ENDBRANCH  11  13
ENDBRANCH  10  11
ENDBRANCH   1  10
TORSDOF 0
ENDMDL
