MODEL 1
REMARK VINA RESULT:    -4.125      0.000      0.000
REMARK INTER + INTRA:          -8.813
REMARK INTER:                  -6.295
REMARK INTRA:                  -2.518
REMARK UNBOUND:                -2.518
REMARK SMILES CC(=O)CCC=C(C)CCC=C(C)CCC=C(C)C
REMARK SMILES IDX 10 1 11 2 12 3 13 4 14 5 15 6 16 7 18 8 17 9 19 10 9 11 7 12
REMARK SMILES IDX 6 13 8 14 5 15 4 16 2 17 3 18 1 19
REMARK H PARENT
REMARK Flexibility Score: inf
ROOT
ATOM      1  C   UNL     1      70.860  70.921  31.878  1.00  0.00     0.032 C 
ENDROOT
BRANCH   1   2
ATOM      2  C   UNL     1      70.744  71.185  30.399  1.00  0.00    -0.028 C 
ATOM      3  C   UNL     1      69.653  71.715  29.800  1.00  0.00    -0.077 C 
ATOM      4  C   UNL     1      68.401  72.052  30.577  1.00  0.00     0.039 C 
BRANCH   3   5
ATOM      5  C   UNL     1      69.678  71.958  28.305  1.00  0.00     0.034 C 
BRANCH   5   6
ATOM      6  C   UNL     1      70.131  70.714  27.528  1.00  0.00     0.032 C 
BRANCH   6   7
ATOM      7  C   UNL     1      69.053  69.656  27.484  1.00  0.00    -0.028 C 
ATOM      8  C   UNL     1      70.404  67.981  28.767  1.00  0.00     0.039 C 
ATOM      9  C   UNL     1      69.179  68.412  28.000  1.00  0.00    -0.080 C 
ATOM     10  C   UNL     1      68.045  67.430  27.866  1.00  0.00     0.039 C 
ENDBRANCH   6   7
ENDBRANCH   5   6
ENDBRANCH   3   5
ENDBRANCH   1   2
BRANCH   1  11
ATOM     11  C   UNL     1      71.224  69.456  32.143  1.00  0.00     0.034 C 
BRANCH  11  12
ATOM     12  C   UNL     1      70.043  68.703  32.714  1.00  0.00    -0.077 C 
ATOM     13  C   UNL     1      68.873  68.710  32.035  1.00  0.00    -0.028 C 
ATOM     14  C   UNL     1      70.193  67.986  34.035  1.00  0.00     0.039 C 
BRANCH  13  15
ATOM     15  C   UNL     1      67.635  67.964  32.463  1.00  0.00     0.035 C 
BRANCH  15  16
ATOM     16  C   UNL     1      67.298  66.854  31.462  1.00  0.00     0.079 C 
BRANCH  16  17
ATOM     17  C   UNL     1      68.109  65.619  31.745  1.00  0.00     0.130 C 
ATOM     18  O   UNL     1      67.906  64.986  32.770  1.00  0.00    -0.300 OA
ATOM     19  C   UNL     1      69.160  65.138  30.788  1.00  0.00     0.087 C 
ENDBRANCH  16  17
ENDBRANCH  15  16
ENDBRANCH  13  15
ENDBRANCH  11  12
ENDBRANCH   1  11
TORSDOF 9
ENDMDL
MODEL 2
REMARK VINA RESULT:    -4.048     14.338     15.624
REMARK INTER + INTRA:          -8.696
REMARK INTER:                  -7.413
REMARK INTRA:                  -1.283
REMARK UNBOUND:                -2.518
REMARK SMILES CC(=O)CCC=C(C)CCC=C(C)CCC=C(C)C
REMARK SMILES IDX 10 1 11 2 12 3 13 4 14 5 15 6 16 7 18 8 17 9 19 10 9 11 7 12
REMARK SMILES IDX 6 13 8 14 5 15 4 16 2 17 3 18 1 19
REMARK H PARENT
REMARK Flexibility Score: inf
ROOT
ATOM      1  C   UNL     1      54.450  70.915  32.750  1.00  0.00     0.032 C 
ENDROOT
BRANCH   1   2
ATOM      2  C   UNL     1      54.415  70.818  31.246  1.00  0.00    -0.028 C 
ATOM      3  C   UNL     1      53.397  70.273  30.539  1.00  0.00    -0.077 C 
ATOM      4  C   UNL     1      52.197  69.653  31.216  1.00  0.00     0.039 C 
BRANCH   3   5
ATOM      5  C   UNL     1      53.474  70.266  29.026  1.00  0.00     0.034 C 
BRANCH   5   6
ATOM      6  C   UNL     1      54.490  71.288  28.497  1.00  0.00     0.032 C 
BRANCH   6   7
ATOM      7  C   UNL     1      53.842  72.619  28.195  1.00  0.00    -0.028 C 
ATOM      8  C   UNL     1      55.454  73.917  29.607  1.00  0.00     0.039 C 
ATOM      9  C   UNL     1      54.240  73.801  28.720  1.00  0.00    -0.080 C 
ATOM     10  C   UNL     1      53.494  75.062  28.370  1.00  0.00     0.039 C 
ENDBRANCH   6   7
ENDBRANCH   5   6
ENDBRANCH   3   5
ENDBRANCH   1   2
BRANCH   1  11
ATOM     11  C   UNL     1      55.488  69.952  33.334  1.00  0.00     0.034 C 
BRANCH  11  12
ATOM     12  C   UNL     1      54.856  69.041  34.364  1.00  0.00    -0.077 C 
ATOM     13  C   UNL     1      53.985  68.091  33.951  1.00  0.00    -0.028 C 
ATOM     14  C   UNL     1      55.195  69.231  35.824  1.00  0.00     0.039 C 
BRANCH  13  15
ATOM     15  C   UNL     1      53.323  67.088  34.861  1.00  0.00     0.035 C 
BRANCH  15  16
ATOM     16  C   UNL     1      53.654  65.658  34.424  1.00  0.00     0.079 C 
BRANCH  16  17
ATOM     17  C   UNL     1      53.989  64.801  35.614  1.00  0.00     0.130 C 
ATOM     18  O   UNL     1      55.144  64.745  36.009  1.00  0.00    -0.300 OA
ATOM     19  C   UNL     1      52.932  64.018  36.336  1.00  0.00     0.087 C 
ENDBRANCH  16  17
ENDBRANCH  15  16
ENDBRANCH  13  15
ENDBRANCH  11  12
ENDBRANCH   1  11
TORSDOF 9
ENDMDL
MODEL 3
REMARK VINA RESULT:    -3.843     14.512     16.189
REMARK INTER + INTRA:          -8.383
REMARK INTER:                  -7.029
REMARK INTRA:                  -1.354
REMARK UNBOUND:                -2.518
REMARK SMILES CC(=O)CCC=C(C)CCC=C(C)CCC=C(C)C
REMARK SMILES IDX 10 1 11 2 12 3 13 4 14 5 15 6 16 7 18 8 17 9 19 10 9 11 7 12
REMARK SMILES IDX 6 13 8 14 5 15 4 16 2 17 3 18 1 19
REMARK H PARENT
REMARK Flexibility Score: inf
ROOT
ATOM      1  C   UNL     1      52.707  69.427  31.418  1.00  0.00     0.032 C 
ENDROOT
BRANCH   1   2
ATOM      2  C   UNL     1      52.139  70.441  30.459  1.00  0.00    -0.028 C 
ATOM      3  C   UNL     1      52.635  70.689  29.224  1.00  0.00    -0.077 C 
ATOM      4  C   UNL     1      53.868  69.985  28.704  1.00  0.00     0.039 C 
BRANCH   3   5
ATOM      5  C   UNL     1      51.949  71.715  28.347  1.00  0.00     0.034 C 
BRANCH   5   6
ATOM      6  C   UNL     1      52.784  72.996  28.203  1.00  0.00     0.032 C 
BRANCH   6   7
ATOM      7  C   UNL     1      52.813  73.794  29.486  1.00  0.00    -0.028 C 
ATOM      8  C   UNL     1      55.193  73.204  29.999  1.00  0.00     0.039 C 
ATOM      9  C   UNL     1      53.875  73.861  30.322  1.00  0.00    -0.080 C 
ATOM     10  C   UNL     1      53.775  74.665  31.592  1.00  0.00     0.039 C 
ENDBRANCH   6   7
ENDBRANCH   5   6
ENDBRANCH   3   5
ENDBRANCH   1   2
BRANCH   1  11
ATOM     11  C   UNL     1      53.698  70.085  32.382  1.00  0.00     0.034 C 
BRANCH  11  12
ATOM     12  C   UNL     1      54.055  69.144  33.513  1.00  0.00    -0.077 C 
ATOM     13  C   UNL     1      53.201  68.141  33.821  1.00  0.00    -0.028 C 
ATOM     14  C   UNL     1      55.337  69.364  34.280  1.00  0.00     0.039 C 
BRANCH  13  15
ATOM     15  C   UNL     1      53.454  67.105  34.887  1.00  0.00     0.035 C 
BRANCH  15  16
ATOM     16  C   UNL     1      54.026  65.824  34.273  1.00  0.00     0.079 C 
BRANCH  16  17
ATOM     17  C   UNL     1      54.241  64.776  35.331  1.00  0.00     0.130 C 
ATOM     18  O   UNL     1      55.343  64.657  35.845  1.00  0.00    -0.300 OA
ATOM     19  C   UNL     1      53.127  63.876  35.779  1.00  0.00     0.087 C 
ENDBRANCH  16  17
ENDBRANCH  15  16
ENDBRANCH  13  15
ENDBRANCH  11  12
ENDBRANCH   1  11
TORSDOF 9
ENDMDL
MODEL 4
REMARK VINA RESULT:    -3.819      6.685      9.387
REMARK INTER + INTRA:          -8.345
REMARK INTER:                  -7.179
REMARK INTRA:                  -1.166
REMARK UNBOUND:                -2.518
REMARK SMILES CC(=O)CCC=C(C)CCC=C(C)CCC=C(C)C
REMARK SMILES IDX 10 1 11 2 12 3 13 4 14 5 15 6 16 7 18 8 17 9 19 10 9 11 7 12
REMARK SMILES IDX 6 13 8 14 5 15 4 16 2 17 3 18 1 19
REMARK H PARENT
REMARK Flexibility Score: inf
ROOT
ATOM      1  C   UNL     1      67.234  64.427  39.006  1.00  0.00     0.032 C 
ENDROOT
BRANCH   1   2
ATOM      2  C   UNL     1      67.577  64.287  37.544  1.00  0.00    -0.028 C 
ATOM      3  C   UNL     1      68.252  65.213  36.825  1.00  0.00    -0.077 C 
ATOM      4  C   UNL     1      68.690  66.528  37.427  1.00  0.00     0.039 C 
BRANCH   3   5
ATOM      5  C   UNL     1      68.558  64.933  35.368  1.00  0.00     0.034 C 
BRANCH   5   6
ATOM      6  C   UNL     1      67.426  65.403  34.443  1.00  0.00     0.032 C 
BRANCH   6   7
ATOM      7  C   UNL     1      67.707  66.768  33.860  1.00  0.00    -0.028 C 
ATOM      8  C   UNL     1      66.736  66.200  31.621  1.00  0.00     0.039 C 
ATOM      9  C   UNL     1      67.440  67.124  32.582  1.00  0.00    -0.080 C 
ATOM     10  C   UNL     1      67.794  68.508  32.104  1.00  0.00     0.039 C 
ENDBRANCH   6   7
ENDBRANCH   5   6
ENDBRANCH   3   5
ENDBRANCH   1   2
BRANCH   1  11
ATOM     11  C   UNL     1      65.794  64.919  39.182  1.00  0.00     0.034 C 
BRANCH  11  12
ATOM     12  C   UNL     1      65.763  66.233  39.933  1.00  0.00    -0.077 C 
ATOM     13  C   UNL     1      66.865  66.622  40.616  1.00  0.00    -0.028 C 
ATOM     14  C   UNL     1      64.500  67.061  39.919  1.00  0.00     0.039 C 
BRANCH  13  15
ATOM     15  C   UNL     1      66.988  67.925  41.363  1.00  0.00     0.035 C 
BRANCH  15  16
ATOM     16  C   UNL     1      67.050  67.680  42.873  1.00  0.00     0.079 C 
BRANCH  16  17
ATOM     17  C   UNL     1      68.450  67.876  43.387  1.00  0.00     0.130 C 
ATOM     18  O   UNL     1      69.021  68.939  43.190  1.00  0.00    -0.300 OA
ATOM     19  C   UNL     1      69.163  66.796  44.147  1.00  0.00     0.087 C 
ENDBRANCH  16  17
ENDBRANCH  15  16
ENDBRANCH  13  15
ENDBRANCH  11  12
ENDBRANCH   1  11
TORSDOF 9
ENDMDL
MODEL 5
REMARK VINA RESULT:    -3.816      1.213      3.987
REMARK INTER + INTRA:          -8.341
REMARK INTER:                  -6.176
REMARK INTRA:                  -2.165
REMARK UNBOUND:                -2.518
REMARK SMILES CC(=O)CCC=C(C)CCC=C(C)CCC=C(C)C
REMARK SMILES IDX 10 1 11 2 12 3 13 4 14 5 15 6 16 7 18 8 17 9 19 10 9 11 7 12
REMARK SMILES IDX 6 13 8 14 5 15 4 16 2 17 3 18 1 19
REMARK H PARENT
REMARK Flexibility Score: inf
ROOT
ATOM      1  C   UNL     1      69.532  70.579  27.928  1.00  0.00     0.032 C 
ENDROOT
BRANCH   1   2
ATOM      2  C   UNL     1      70.482  71.037  29.005  1.00  0.00    -0.028 C 
ATOM      3  C   UNL     1      70.100  71.453  30.235  1.00  0.00    -0.077 C 
ATOM      4  C   UNL     1      68.644  71.545  30.630  1.00  0.00     0.039 C 
BRANCH   3   5
ATOM      5  C   UNL     1      71.161  71.859  31.238  1.00  0.00     0.034 C 
BRANCH   5   6
ATOM      6  C   UNL     1      71.202  70.911  32.445  1.00  0.00     0.032 C 
BRANCH   6   7
ATOM      7  C   UNL     1      71.298  69.464  32.020  1.00  0.00    -0.028 C 
ATOM      8  C   UNL     1      70.736  68.580  34.296  1.00  0.00     0.039 C 
ATOM      9  C   UNL     1      71.132  68.409  32.850  1.00  0.00    -0.080 C 
ATOM     10  C   UNL     1      71.283  67.008  32.317  1.00  0.00     0.039 C 
ENDBRANCH   6   7
ENDBRANCH   5   6
ENDBRANCH   3   5
ENDBRANCH   1   2
BRANCH   1  11
ATOM     11  C   UNL     1      69.810  69.124  27.540  1.00  0.00     0.034 C 
BRANCH  11  12
ATOM     12  C   UNL     1      68.805  68.194  28.184  1.00  0.00    -0.077 C 
ATOM     13  C   UNL     1      68.958  67.869  29.489  1.00  0.00    -0.028 C 
ATOM     14  C   UNL     1      67.674  67.637  27.351  1.00  0.00     0.039 C 
BRANCH  13  15
ATOM     15  C   UNL     1      68.006  66.996  30.266  1.00  0.00     0.035 C 
BRANCH  15  16
ATOM     16  C   UNL     1      67.628  67.657  31.595  1.00  0.00     0.079 C 
BRANCH  16  17
ATOM     17  C   UNL     1      67.124  66.632  32.575  1.00  0.00     0.130 C 
ATOM     18  O   UNL     1      66.202  65.896  32.256  1.00  0.00    -0.300 OA
ATOM     19  C   UNL     1      67.736  66.485  33.937  1.00  0.00     0.087 C 
ENDBRANCH  16  17
ENDBRANCH  15  16
ENDBRANCH  13  15
ENDBRANCH  11  12
ENDBRANCH   1  11
TORSDOF 9
ENDMDL
MODEL 6
REMARK VINA RESULT:    -3.762     14.900     17.521
REMARK INTER + INTRA:          -8.259
REMARK INTER:                  -6.856
REMARK INTRA:                  -1.403
REMARK UNBOUND:                -2.518
REMARK SMILES CC(=O)CCC=C(C)CCC=C(C)CCC=C(C)C
REMARK SMILES IDX 10 1 11 2 12 3 13 4 14 5 15 6 16 7 18 8 17 9 19 10 9 11 7 12
REMARK SMILES IDX 6 13 8 14 5 15 4 16 2 17 3 18 1 19
REMARK H PARENT
REMARK Flexibility Score: inf
ROOT
ATOM      1  C   UNL     1      54.459  67.600  34.433  1.00  0.00     0.032 C 
ENDROOT
BRANCH   1   2
ATOM      2  C   UNL     1      53.554  66.401  34.552  1.00  0.00    -0.028 C 
ATOM      3  C   UNL     1      53.945  65.191  35.015  1.00  0.00    -0.077 C 
ATOM      4  C   UNL     1      55.376  64.915  35.416  1.00  0.00     0.039 C 
BRANCH   3   5
ATOM      5  C   UNL     1      52.926  64.074  35.113  1.00  0.00     0.034 C 
BRANCH   5   6
ATOM      6  C   UNL     1      51.876  64.350  36.199  1.00  0.00     0.032 C 
BRANCH   6   7
ATOM      7  C   UNL     1      52.454  64.209  37.588  1.00  0.00    -0.028 C 
ATOM      8  C   UNL     1      52.229  66.648  38.114  1.00  0.00     0.039 C 
ATOM      9  C   UNL     1      52.656  65.239  38.441  1.00  0.00    -0.080 C 
ATOM     10  C   UNL     1      53.271  64.980  39.791  1.00  0.00     0.039 C 
ENDBRANCH   6   7
ENDBRANCH   5   6
ENDBRANCH   3   5
ENDBRANCH   1   2
BRANCH   1  11
ATOM     11  C   UNL     1      54.024  68.708  35.397  1.00  0.00     0.034 C 
BRANCH  11  12
ATOM     12  C   UNL     1      53.819  70.013  34.659  1.00  0.00    -0.077 C 
ATOM     13  C   UNL     1      54.235  70.110  33.375  1.00  0.00    -0.028 C 
ATOM     14  C   UNL     1      53.179  71.176  35.380  1.00  0.00     0.039 C 
BRANCH  13  15
ATOM     15  C   UNL     1      54.049  71.331  32.510  1.00  0.00     0.035 C 
BRANCH  15  16
ATOM     16  C   UNL     1      54.879  71.217  31.227  1.00  0.00     0.079 C 
BRANCH  16  17
ATOM     17  C   UNL     1      53.986  71.179  30.017  1.00  0.00     0.130 C 
ATOM     18  O   UNL     1      52.906  71.749  30.047  1.00  0.00    -0.300 OA
ATOM     19  C   UNL     1      54.397  70.462  28.765  1.00  0.00     0.087 C 
ENDBRANCH  16  17
ENDBRANCH  15  16
ENDBRANCH  13  15
ENDBRANCH  11  12
ENDBRANCH   1  11
TORSDOF 9
ENDMDL
MODEL 7
REMARK VINA RESULT:    -3.759      2.485      5.991
REMARK INTER + INTRA:          -8.254
REMARK INTER:                  -5.886
REMARK INTRA:                  -2.368
REMARK UNBOUND:                -2.518
REMARK SMILES CC(=O)CCC=C(C)CCC=C(C)CCC=C(C)C
REMARK SMILES IDX 10 1 11 2 12 3 13 4 14 5 15 6 16 7 18 8 17 9 19 10 9 11 7 12
REMARK SMILES IDX 6 13 8 14 5 15 4 16 2 17 3 18 1 19
REMARK H PARENT
REMARK Flexibility Score: inf
ROOT
ATOM      1  C   UNL     1      67.160  66.753  29.644  1.00  0.00     0.032 C 
ENDROOT
BRANCH   1   2
ATOM      2  C   UNL     1      67.128  66.369  31.101  1.00  0.00    -0.028 C 
ATOM      3  C   UNL     1      67.441  67.204  32.119  1.00  0.00    -0.077 C 
ATOM      4  C   UNL     1      67.912  68.619  31.874  1.00  0.00     0.039 C 
BRANCH   3   5
ATOM      5  C   UNL     1      67.339  66.699  33.544  1.00  0.00     0.034 C 
BRANCH   5   6
ATOM      6  C   UNL     1      68.720  66.453  34.166  1.00  0.00     0.032 C 
BRANCH   6   7
ATOM      7  C   UNL     1      69.476  65.363  33.443  1.00  0.00    -0.028 C 
ATOM      8  C   UNL     1      71.159  66.941  32.467  1.00  0.00     0.039 C 
ATOM      9  C   UNL     1      70.547  65.575  32.644  1.00  0.00    -0.080 C 
ATOM     10  C   UNL     1      71.200  64.410  31.947  1.00  0.00     0.039 C 
ENDBRANCH   6   7
ENDBRANCH   5   6
ENDBRANCH   3   5
ENDBRANCH   1   2
BRANCH   1  11
ATOM     11  C   UNL     1      68.327  66.067  28.926  1.00  0.00     0.034 C 
BRANCH  11  12
ATOM     12  C   UNL     1      69.484  67.026  28.744  1.00  0.00    -0.077 C 
ATOM     13  C   UNL     1      69.220  68.331  28.504  1.00  0.00    -0.028 C 
ATOM     14  C   UNL     1      70.897  66.498  28.813  1.00  0.00     0.039 C 
BRANCH  13  15
ATOM     15  C   UNL     1      70.273  69.399  28.352  1.00  0.00     0.035 C 
BRANCH  15  16
ATOM     16  C   UNL     1      70.353  70.263  29.615  1.00  0.00     0.079 C 
BRANCH  16  17
ATOM     17  C   UNL     1      69.505  71.497  29.470  1.00  0.00     0.130 C 
ATOM     18  O   UNL     1      69.517  72.116  28.417  1.00  0.00    -0.300 OA
ATOM     19  C   UNL     1      68.633  71.982  30.591  1.00  0.00     0.087 C 
ENDBRANCH  16  17
ENDBRANCH  15  16
ENDBRANCH  13  15
ENDBRANCH  11  12
ENDBRANCH   1  11
TORSDOF 9
ENDMDL
MODEL 8
REMARK VINA RESULT:    -3.701      2.511      6.397
REMARK INTER + INTRA:          -8.166
REMARK INTER:                  -6.509
REMARK INTRA:                  -1.657
REMARK UNBOUND:                -2.518
REMARK SMILES CC(=O)CCC=C(C)CCC=C(C)CCC=C(C)C
REMARK SMILES IDX 10 1 11 2 12 3 13 4 14 5 15 6 16 7 18 8 17 9 19 10 9 11 7 12
REMARK SMILES IDX 6 13 8 14 5 15 4 16 2 17 3 18 1 19
REMARK H PARENT
REMARK Flexibility Score: inf
ROOT
ATOM      1  C   UNL     1      67.052  66.495  28.578  1.00  0.00     0.032 C 
ENDROOT
BRANCH   1   2
ATOM      2  C   UNL     1      67.526  67.247  29.795  1.00  0.00    -0.028 C 
ATOM      3  C   UNL     1      68.496  66.813  30.633  1.00  0.00    -0.077 C 
ATOM      4  C   UNL     1      69.173  65.475  30.444  1.00  0.00     0.039 C 
BRANCH   3   5
ATOM      5  C   UNL     1      68.900  67.683  31.805  1.00  0.00     0.034 C 
BRANCH   5   6
ATOM      6  C   UNL     1      67.757  67.850  32.817  1.00  0.00     0.032 C 
BRANCH   6   7
ATOM      7  C   UNL     1      67.238  66.517  33.302  1.00  0.00    -0.028 C 
ATOM      8  C   UNL     1      68.934  66.332  35.137  1.00  0.00     0.039 C 
ATOM      9  C   UNL     1      67.784  65.806  34.316  1.00  0.00    -0.080 C 
ATOM     10  C   UNL     1      67.198  64.470  34.691  1.00  0.00     0.039 C 
ENDBRANCH   6   7
ENDBRANCH   5   6
ENDBRANCH   3   5
ENDBRANCH   1   2
BRANCH   1  11
ATOM     11  C   UNL     1      67.294  67.312  27.305  1.00  0.00     0.034 C 
BRANCH  11  12
ATOM     12  C   UNL     1      68.737  67.760  27.220  1.00  0.00    -0.077 C 
ATOM     13  C   UNL     1      69.025  69.071  27.392  1.00  0.00    -0.028 C 
ATOM     14  C   UNL     1      69.810  66.740  26.922  1.00  0.00     0.039 C 
BRANCH  13  15
ATOM     15  C   UNL     1      70.419  69.645  27.382  1.00  0.00     0.035 C 
BRANCH  15  16
ATOM     16  C   UNL     1      70.797  70.173  28.768  1.00  0.00     0.079 C 
BRANCH  16  17
ATOM     17  C   UNL     1      69.818  71.220  29.224  1.00  0.00     0.130 C 
ATOM     18  O   UNL     1      69.589  72.183  28.508  1.00  0.00    -0.300 OA
ATOM     19  C   UNL     1      69.106  71.105  30.540  1.00  0.00     0.087 C 
ENDBRANCH  16  17
ENDBRANCH  15  16
ENDBRANCH  13  15
ENDBRANCH  11  12
ENDBRANCH   1  11
TORSDOF 9
ENDMDL
MODEL 9
REMARK VINA RESULT:    -3.677      1.581      4.314
REMARK INTER + INTRA:          -8.129
REMARK INTER:                  -5.979
REMARK INTRA:                  -2.150
REMARK UNBOUND:                -2.518
REMARK SMILES CC(=O)CCC=C(C)CCC=C(C)CCC=C(C)C
REMARK SMILES IDX 10 1 11 2 12 3 13 4 14 5 15 6 16 7 18 8 17 9 19 10 9 11 7 12
REMARK SMILES IDX 6 13 8 14 5 15 4 16 2 17 3 18 1 19
REMARK H PARENT
REMARK Flexibility Score: inf
ROOT
ATOM      1  C   UNL     1      69.176  64.703  27.932  1.00  0.00     0.032 C 
ENDROOT
BRANCH   1   2
ATOM      2  C   UNL     1      69.095  66.086  27.338  1.00  0.00    -0.028 C 
ATOM      3  C   UNL     1      68.161  67.007  27.671  1.00  0.00    -0.077 C 
ATOM      4  C   UNL     1      67.057  66.704  28.658  1.00  0.00     0.039 C 
BRANCH   3   5
ATOM      5  C   UNL     1      68.210  68.374  27.021  1.00  0.00     0.034 C 
BRANCH   5   6
ATOM      6  C   UNL     1      69.504  69.126  27.361  1.00  0.00     0.032 C 
BRANCH   6   7
ATOM      7  C   UNL     1      69.589  69.460  28.832  1.00  0.00    -0.028 C 
ATOM      8  C   UNL     1      69.501  71.935  28.450  1.00  0.00     0.039 C 
ATOM      9  C   UNL     1      69.630  70.717  29.330  1.00  0.00    -0.080 C 
ATOM     10  C   UNL     1      69.748  70.927  30.817  1.00  0.00     0.039 C 
ENDBRANCH   6   7
ENDBRANCH   5   6
ENDBRANCH   3   5
ENDBRANCH   1   2
BRANCH   1  11
ATOM     11  C   UNL     1      70.428  64.558  28.804  1.00  0.00     0.034 C 
BRANCH  11  12
ATOM     12  C   UNL     1      70.151  65.013  30.221  1.00  0.00    -0.077 C 
ATOM     13  C   UNL     1      69.149  64.422  30.913  1.00  0.00    -0.028 C 
ATOM     14  C   UNL     1      70.981  66.127  30.814  1.00  0.00     0.039 C 
BRANCH  13  15
ATOM     15  C   UNL     1      68.798  64.743  32.344  1.00  0.00     0.035 C 
BRANCH  15  16
ATOM     16  C   UNL     1      67.406  65.374  32.432  1.00  0.00     0.079 C 
BRANCH  16  17
ATOM     17  C   UNL     1      67.480  66.745  33.049  1.00  0.00     0.130 C 
ATOM     18  O   UNL     1      67.249  66.881  34.241  1.00  0.00    -0.300 OA
ATOM     19  C   UNL     1      67.842  67.951  32.234  1.00  0.00     0.087 C 
ENDBRANCH  16  17
ENDBRANCH  15  16
ENDBRANCH  13  15
ENDBRANCH  11  12
ENDBRANCH   1  11
TORSDOF 9
ENDMDL
