MODEL 1
REMARK VINA RESULT:    -5.560      0.000      0.000
REMARK INTER + INTRA:          -8.937
REMARK INTER:                  -8.486
REMARK INTRA:                  -0.451
REMARK UNBOUND:                -0.451
REMARK SMILES O=C([O-])CCCCCCCCC(=O)[O-]
REMARK SMILES IDX 7 1 6 2 5 3 4 4 2 5 1 6 3 7 8 8 9 9 10 10 11 11 12 12 13 13
REMARK SMILES IDX 14 14
REMARK H PARENT
REMARK Flexibility Score: inf
ROOT
ATOM      1  C   UNL     1      17.850   9.293 -19.345  1.00  0.00     0.000 C 
ENDROOT
BRANCH   1   2
ATOM      2  C   UNL     1      18.992   9.477 -20.367  1.00  0.00     0.000 C 
BRANCH   2   3
ATOM      3  C   UNL     1      19.208  10.920 -20.853  1.00  0.00     0.006 C 
BRANCH   3   4
ATOM      4  C   UNL     1      17.898  11.710 -20.974  1.00  0.00     0.053 C 
BRANCH   4   5
ATOM      5  C   UNL     1      17.926  12.908 -20.078  1.00  0.00     0.041 C 
ATOM      6  O   UNL     1      19.026  13.375 -19.681  1.00  0.00    -0.550 OA
ATOM      7  O   UNL     1      16.741  13.536 -19.721  1.00  0.00    -0.550 OA
ENDBRANCH   4   5
ENDBRANCH   3   4
ENDBRANCH   2   3
ENDBRANCH   1   2
BRANCH   1   8
ATOM      8  C   UNL     1      16.756   8.291 -19.757  1.00  0.00     0.000 C 
BRANCH   8   9
ATOM      9  C   UNL     1      16.444   8.333 -21.263  1.00  0.00     0.000 C 
BRANCH   9  10
ATOM     10  C   UNL     1      15.274   7.415 -21.649  1.00  0.00     0.006 C 
BRANCH  10  11
ATOM     11  C   UNL     1      14.732   6.614 -20.457  1.00  0.00     0.053 C 
BRANCH  11  12
ATOM     12  C   UNL     1      13.534   7.295 -19.873  1.00  0.00     0.041 C 
ATOM     13  O   UNL     1      12.735   7.921 -20.618  1.00  0.00    -0.550 OA
ATOM     14  O   UNL     1      13.273   7.196 -18.512  1.00  0.00    -0.550 OA
ENDBRANCH  11  12
ENDBRANCH  10  11
ENDBRANCH   9  10
ENDBRANCH   8   9
ENDBRANCH   1   8
TORSDOF 9
ENDMDL
MODEL 2
REMARK VINA RESULT:    -5.512      0.142      6.015
REMARK INTER + INTRA:          -8.864
REMARK INTER:                  -8.426
REMARK INTRA:                  -0.438
REMARK UNBOUND:                -0.451
REMARK SMILES O=C([O-])CCCCCCCCC(=O)[O-]
REMARK SMILES IDX 7 1 6 2 5 3 4 4 2 5 1 6 3 7 8 8 9 9 10 10 11 11 12 12 13 13
REMARK SMILES IDX 14 14
REMARK H PARENT
REMARK Flexibility Score: inf
ROOT
ATOM      1  C   UNL     1      16.717   8.484 -19.768  1.00  0.00     0.000 C 
ENDROOT
BRANCH   1   2
ATOM      2  C   UNL     1      16.439   8.407 -21.284  1.00  0.00     0.000 C 
BRANCH   2   3
ATOM      3  C   UNL     1      15.324   7.430 -21.695  1.00  0.00     0.006 C 
BRANCH   3   4
ATOM      4  C   UNL     1      14.793   6.603 -20.517  1.00  0.00     0.053 C 
BRANCH   4   5
ATOM      5  C   UNL     1      13.590   7.260 -19.918  1.00  0.00     0.041 C 
ATOM      6  O   UNL     1      12.797   7.913 -20.647  1.00  0.00    -0.550 OA
ATOM      7  O   UNL     1      13.318   7.111 -18.564  1.00  0.00    -0.550 OA
ENDBRANCH   4   5
ENDBRANCH   3   4
ENDBRANCH   2   3
ENDBRANCH   1   2
BRANCH   1   8
ATOM      8  C   UNL     1      17.886   9.400 -19.361  1.00  0.00     0.000 C 
BRANCH   8   9
ATOM      9  C   UNL     1      18.954   9.530 -20.461  1.00  0.00     0.000 C 
BRANCH   9  10
ATOM     10  C   UNL     1      19.343  10.991 -20.736  1.00  0.00     0.006 C 
BRANCH  10  11
ATOM     11  C   UNL     1      18.135  11.870 -21.083  1.00  0.00     0.053 C 
BRANCH  11  12
ATOM     12  C   UNL     1      17.990  12.975 -20.085  1.00  0.00     0.041 C 
ATOM     13  O   UNL     1      19.011  13.501 -19.569  1.00  0.00    -0.550 OA
ATOM     14  O   UNL     1      16.729  13.459 -19.761  1.00  0.00    -0.550 OA
ENDBRANCH  11  12
ENDBRANCH  10  11
ENDBRANCH   9  10
ENDBRANCH   8   9
ENDBRANCH   1   8
TORSDOF 9
ENDMDL
MODEL 3
REMARK VINA RESULT:    -4.873      2.607      3.059
REMARK INTER + INTRA:          -7.888
REMARK INTER:                  -7.402
REMARK INTRA:                  -0.486
REMARK UNBOUND:                -0.451
REMARK SMILES O=C([O-])CCCCCCCCC(=O)[O-]
REMARK SMILES IDX 7 1 6 2 5 3 4 4 2 5 1 6 3 7 8 8 9 9 10 10 11 11 12 12 13 13
REMARK SMILES IDX 14 14
REMARK H PARENT
REMARK Flexibility Score: inf
ROOT
ATOM      1  C   UNL     1      19.170   9.462 -20.258  1.00  0.00     0.000 C 
ENDROOT
BRANCH   1   2
ATOM      2  C   UNL     1      19.721  10.822 -20.735  1.00  0.00     0.000 C 
BRANCH   2   3
ATOM      3  C   UNL     1      18.979  11.444 -21.931  1.00  0.00     0.006 C 
BRANCH   3   4
ATOM      4  C   UNL     1      19.874  11.606 -23.167  1.00  0.00     0.053 C 
BRANCH   4   5
ATOM      5  C   UNL     1      19.050  11.574 -24.415  1.00  0.00     0.041 C 
ATOM      6  O   UNL     1      17.859  11.166 -24.377  1.00  0.00    -0.550 OA
ATOM      7  O   UNL     1      19.581  12.038 -25.611  1.00  0.00    -0.550 OA
ENDBRANCH   4   5
ENDBRANCH   3   4
ENDBRANCH   2   3
ENDBRANCH   1   2
BRANCH   1   8
ATOM      8  C   UNL     1      17.849   9.529 -19.471  1.00  0.00     0.000 C 
BRANCH   8   9
ATOM      9  C   UNL     1      16.852   8.432 -19.883  1.00  0.00     0.000 C 
BRANCH   9  10
ATOM     10  C   UNL     1      16.310   8.631 -21.307  1.00  0.00     0.006 C 
BRANCH  10  11
ATOM     11  C   UNL     1      15.573   7.394 -21.838  1.00  0.00     0.053 C 
BRANCH  11  12
ATOM     12  C   UNL     1      14.546   6.936 -20.850  1.00  0.00     0.041 C 
ATOM     13  O   UNL     1      13.507   7.619 -20.653  1.00  0.00    -0.550 OA
ATOM     14  O   UNL     1      14.713   5.728 -20.184  1.00  0.00    -0.550 OA
ENDBRANCH  11  12
ENDBRANCH  10  11
ENDBRANCH   9  10
ENDBRANCH   8   9
ENDBRANCH   1   8
TORSDOF 9
ENDMDL
MODEL 4
REMARK VINA RESULT:    -4.862      2.934      4.362
REMARK INTER + INTRA:          -7.871
REMARK INTER:                  -7.402
REMARK INTRA:                  -0.470
REMARK UNBOUND:                -0.451
REMARK SMILES O=C([O-])CCCCCCCCC(=O)[O-]
REMARK SMILES IDX 7 1 6 2 5 3 4 4 2 5 1 6 3 7 8 8 9 9 10 10 11 11 12 12 13 13
REMARK SMILES IDX 14 14
REMARK H PARENT
REMARK Flexibility Score: inf
ROOT
ATOM      1  C   UNL     1      14.746   6.810 -20.506  1.00  0.00     0.000 C 
ENDROOT
BRANCH   1   2
ATOM      2  C   UNL     1      15.510   7.671 -21.533  1.00  0.00     0.000 C 
BRANCH   2   3
ATOM      3  C   UNL     1      16.568   8.615 -20.937  1.00  0.00     0.006 C 
BRANCH   3   4
ATOM      4  C   UNL     1      16.797   8.382 -19.438  1.00  0.00     0.053 C 
BRANCH   4   5
ATOM      5  C   UNL     1      17.725   9.416 -18.885  1.00  0.00     0.041 C 
ATOM      6  O   UNL     1      17.699  10.593 -19.330  1.00  0.00    -0.550 OA
ATOM      7  O   UNL     1      18.586   9.092 -17.844  1.00  0.00    -0.550 OA
ENDBRANCH   4   5
ENDBRANCH   3   4
ENDBRANCH   2   3
ENDBRANCH   1   2
BRANCH   1   8
ATOM      8  C   UNL     1      13.215   6.967 -20.527  1.00  0.00     0.000 C 
BRANCH   8   9
ATOM      9  C   UNL     1      12.685   7.807 -19.352  1.00  0.00     0.000 C 
BRANCH   9  10
ATOM     10  C   UNL     1      11.917   9.054 -19.817  1.00  0.00     0.006 C 
BRANCH  10  11
ATOM     11  C   UNL     1      11.109   9.707 -18.688  1.00  0.00     0.053 C 
BRANCH  11  12
ATOM     12  C   UNL     1      10.570  11.031 -19.131  1.00  0.00     0.041 C 
ATOM     13  O   UNL     1      10.697  12.045 -18.395  1.00  0.00    -0.550 OA
ATOM     14  O   UNL     1       9.972  11.157 -20.379  1.00  0.00    -0.550 OA
ENDBRANCH  11  12
ENDBRANCH  10  11
ENDBRANCH   9  10
ENDBRANCH   8   9
ENDBRANCH   1   8
TORSDOF 9
ENDMDL
MODEL 5
REMARK VINA RESULT:    -4.804      2.930      5.901
REMARK INTER + INTRA:          -7.783
REMARK INTER:                  -7.370
REMARK INTRA:                  -0.413
REMARK UNBOUND:                -0.451
REMARK SMILES O=C([O-])CCCCCCCCC(=O)[O-]
REMARK SMILES IDX 7 1 6 2 5 3 4 4 2 5 1 6 3 7 8 8 9 9 10 10 11 11 12 12 13 13
REMARK SMILES IDX 14 14
REMARK H PARENT
REMARK Flexibility Score: inf
ROOT
ATOM      1  C   UNL     1      13.287   7.065 -20.511  1.00  0.00     0.000 C 
ENDROOT
BRANCH   1   2
ATOM      2  C   UNL     1      12.646   7.813 -19.323  1.00  0.00     0.000 C 
BRANCH   2   3
ATOM      3  C   UNL     1      11.757   9.008 -19.707  1.00  0.00     0.006 C 
BRANCH   3   4
ATOM      4  C   UNL     1      11.110   9.683 -18.491  1.00  0.00     0.053 C 
BRANCH   4   5
ATOM      5  C   UNL     1      10.662  11.067 -18.840  1.00  0.00     0.041 C 
ATOM      6  O   UNL     1      10.297  11.337 -20.014  1.00  0.00    -0.550 OA
ATOM      7  O   UNL     1      10.601  12.047 -17.857  1.00  0.00    -0.550 OA
ENDBRANCH   4   5
ENDBRANCH   3   4
ENDBRANCH   2   3
ENDBRANCH   1   2
BRANCH   1   8
ATOM      8  C   UNL     1      14.816   6.904 -20.437  1.00  0.00     0.000 C 
BRANCH   8   9
ATOM      9  C   UNL     1      15.540   7.506 -21.653  1.00  0.00     0.000 C 
BRANCH   9  10
ATOM     10  C   UNL     1      16.672   8.465 -21.252  1.00  0.00     0.006 C 
BRANCH  10  11
ATOM     11  C   UNL     1      16.797   8.630 -19.732  1.00  0.00     0.053 C 
BRANCH  11  12
ATOM     12  C   UNL     1      17.923   9.557 -19.398  1.00  0.00     0.041 C 
ATOM     13  O   UNL     1      17.733  10.801 -19.369  1.00  0.00    -0.550 OA
ATOM     14  O   UNL     1      19.172   9.044 -19.071  1.00  0.00    -0.550 OA
ENDBRANCH  11  12
ENDBRANCH  10  11
ENDBRANCH   9  10
ENDBRANCH   8   9
ENDBRANCH   1   8
TORSDOF 9
ENDMDL
MODEL 6
REMARK VINA RESULT:    -4.802      1.385      5.776
REMARK INTER + INTRA:          -7.780
REMARK INTER:                  -7.055
REMARK INTRA:                  -0.725
REMARK UNBOUND:                -0.451
REMARK SMILES O=C([O-])CCCCCCCCC(=O)[O-]
REMARK SMILES IDX 7 1 6 2 5 3 4 4 2 5 1 6 3 7 8 8 9 9 10 10 11 11 12 12 13 13
REMARK SMILES IDX 14 14
REMARK H PARENT
REMARK Flexibility Score: inf
ROOT
ATOM      1  C   UNL     1      19.151   9.126 -20.060  1.00  0.00     0.000 C 
ENDROOT
BRANCH   1   2
ATOM      2  C   UNL     1      17.858   9.260 -19.230  1.00  0.00     0.000 C 
BRANCH   2   3
ATOM      3  C   UNL     1      16.677   8.403 -19.717  1.00  0.00     0.006 C 
BRANCH   3   4
ATOM      4  C   UNL     1      16.665   8.217 -21.240  1.00  0.00     0.053 C 
BRANCH   4   5
ATOM      5  C   UNL     1      15.259   8.116 -21.742  1.00  0.00     0.041 C 
ATOM      6  O   UNL     1      14.896   8.782 -22.747  1.00  0.00    -0.550 OA
ATOM      7  O   UNL     1      14.364   7.249 -21.129  1.00  0.00    -0.550 OA
ENDBRANCH   4   5
ENDBRANCH   3   4
ENDBRANCH   2   3
ENDBRANCH   1   2
BRANCH   1   8
ATOM      8  C   UNL     1      19.774  10.456 -20.523  1.00  0.00     0.000 C 
BRANCH   8   9
ATOM      9  C   UNL     1      19.202  10.948 -21.864  1.00  0.00     0.000 C 
BRANCH   9  10
ATOM     10  C   UNL     1      18.590  12.354 -21.764  1.00  0.00     0.006 C 
BRANCH  10  11
ATOM     11  C   UNL     1      17.551  12.468 -20.642  1.00  0.00     0.053 C 
BRANCH  11  12
ATOM     12  C   UNL     1      17.918  13.573 -19.702  1.00  0.00     0.041 C 
ATOM     13  O   UNL     1      17.019  14.229 -19.112  1.00  0.00    -0.550 OA
ATOM     14  O   UNL     1      19.255  13.846 -19.438  1.00  0.00    -0.550 OA
ENDBRANCH  11  12
ENDBRANCH  10  11
ENDBRANCH   9  10
ENDBRANCH   8   9
ENDBRANCH   1   8
TORSDOF 9
ENDMDL
MODEL 7
REMARK VINA RESULT:    -4.794      2.483      6.203
REMARK INTER + INTRA:          -7.767
REMARK INTER:                  -7.226
REMARK INTRA:                  -0.541
REMARK UNBOUND:                -0.451
REMARK SMILES O=C([O-])CCCCCCCCC(=O)[O-]
REMARK SMILES IDX 7 1 6 2 5 3 4 4 2 5 1 6 3 7 8 8 9 9 10 10 11 11 12 12 13 13
REMARK SMILES IDX 14 14
REMARK H PARENT
REMARK Flexibility Score: inf
ROOT
ATOM      1  C   UNL     1      17.934   9.113 -19.155  1.00  0.00     0.000 C 
ENDROOT
BRANCH   1   2
ATOM      2  C   UNL     1      16.573   8.570 -19.639  1.00  0.00     0.000 C 
BRANCH   2   3
ATOM      3  C   UNL     1      16.566   8.010 -21.072  1.00  0.00     0.006 C 
BRANCH   3   4
ATOM      4  C   UNL     1      15.152   7.883 -21.655  1.00  0.00     0.053 C 
BRANCH   4   5
ATOM      5  C   UNL     1      14.284   7.073 -20.745  1.00  0.00     0.041 C 
ATOM      6  O   UNL     1      13.199   7.548 -20.317  1.00  0.00    -0.550 OA
ATOM      7  O   UNL     1      14.649   5.776 -20.409  1.00  0.00    -0.550 OA
ENDBRANCH   4   5
ENDBRANCH   3   4
ENDBRANCH   2   3
ENDBRANCH   1   2
BRANCH   1   8
ATOM      8  C   UNL     1      19.049   9.129 -20.217  1.00  0.00     0.000 C 
BRANCH   8   9
ATOM      9  C   UNL     1      19.410  10.550 -20.682  1.00  0.00     0.000 C 
BRANCH   9  10
ATOM     10  C   UNL     1      18.394  11.119 -21.686  1.00  0.00     0.006 C 
BRANCH  10  11
ATOM     11  C   UNL     1      19.043  12.040 -22.727  1.00  0.00     0.053 C 
BRANCH  11  12
ATOM     12  C   UNL     1      18.677  11.603 -24.111  1.00  0.00     0.041 C 
ATOM     13  O   UNL     1      17.574  11.035 -24.325  1.00  0.00    -0.550 OA
ATOM     14  O   UNL     1      19.533  11.866 -25.173  1.00  0.00    -0.550 OA
ENDBRANCH  11  12
ENDBRANCH  10  11
ENDBRANCH   9  10
ENDBRANCH   8   9
ENDBRANCH   1   8
TORSDOF 9
ENDMDL
MODEL 8
REMARK VINA RESULT:    -4.713      4.435      6.658
REMARK INTER + INTRA:          -7.644
REMARK INTER:                  -7.273
REMARK INTRA:                  -0.371
REMARK UNBOUND:                -0.451
REMARK SMILES O=C([O-])CCCCCCCCC(=O)[O-]
REMARK SMILES IDX 7 1 6 2 5 3 4 4 2 5 1 6 3 7 8 8 9 9 10 10 11 11 12 12 13 13
REMARK SMILES IDX 14 14
REMARK H PARENT
REMARK Flexibility Score: inf
ROOT
ATOM      1  C   UNL     1      11.135   9.678 -19.411  1.00  0.00     0.000 C 
ENDROOT
BRANCH   1   2
ATOM      2  C   UNL     1      10.815  10.645 -18.253  1.00  0.00     0.000 C 
BRANCH   2   3
ATOM      3  C   UNL     1      10.406  12.065 -18.682  1.00  0.00     0.006 C 
BRANCH   3   4
ATOM      4  C   UNL     1      10.329  12.228 -20.205  1.00  0.00     0.053 C 
BRANCH   4   5
ATOM      5  C   UNL     1       8.957  12.656 -20.616  1.00  0.00     0.041 C 
ATOM      6  O   UNL     1       8.068  11.794 -20.850  1.00  0.00    -0.550 OA
ATOM      7  O   UNL     1       8.644  14.007 -20.695  1.00  0.00    -0.550 OA
ENDBRANCH   4   5
ENDBRANCH   3   4
ENDBRANCH   2   3
ENDBRANCH   1   2
BRANCH   1   8
ATOM      8  C   UNL     1      12.003   8.464 -19.031  1.00  0.00     0.000 C 
BRANCH   8   9
ATOM      9  C   UNL     1      12.755   7.867 -20.233  1.00  0.00     0.000 C 
BRANCH   9  10
ATOM     10  C   UNL     1      13.996   7.063 -19.813  1.00  0.00     0.006 C 
BRANCH  10  11
ATOM     11  C   UNL     1      14.873   6.663 -21.007  1.00  0.00     0.053 C 
BRANCH  11  12
ATOM     12  C   UNL     1      15.632   7.847 -21.516  1.00  0.00     0.041 C 
ATOM     13  O   UNL     1      16.600   8.310 -20.858  1.00  0.00    -0.550 OA
ATOM     14  O   UNL     1      15.302   8.409 -22.743  1.00  0.00    -0.550 OA
ENDBRANCH  11  12
ENDBRANCH  10  11
ENDBRANCH   9  10
ENDBRANCH   8   9
ENDBRANCH   1   8
TORSDOF 9
ENDMDL
MODEL 9
REMARK VINA RESULT:    -4.543     16.487     19.013
REMARK INTER + INTRA:          -7.384
REMARK INTER:                  -6.770
REMARK INTRA:                  -0.614
REMARK UNBOUND:                -0.451
REMARK SMILES O=C([O-])CCCCCCCCC(=O)[O-]
REMARK SMILES IDX 7 1 6 2 5 3 4 4 2 5 1 6 3 7 8 8 9 9 10 10 11 11 12 12 13 13
REMARK SMILES IDX 14 14
REMARK H PARENT
REMARK Flexibility Score: inf
ROOT
ATOM      1  C   UNL     1       4.269  -0.504 -28.378  1.00  0.00     0.000 C 
ENDROOT
BRANCH   1   2
ATOM      2  C   UNL     1       3.750  -1.950 -28.235  1.00  0.00     0.000 C 
BRANCH   2   3
ATOM      3  C   UNL     1       2.837  -2.432 -29.375  1.00  0.00     0.006 C 
BRANCH   3   4
ATOM      4  C   UNL     1       2.632  -1.370 -30.464  1.00  0.00     0.053 C 
BRANCH   4   5
ATOM      5  C   UNL     1       1.192  -0.974 -30.542  1.00  0.00     0.041 C 
ATOM      6  O   UNL     1       0.768   0.003 -29.870  1.00  0.00    -0.550 OA
ATOM      7  O   UNL     1       0.329  -1.653 -31.392  1.00  0.00    -0.550 OA
ENDBRANCH   4   5
ENDBRANCH   3   4
ENDBRANCH   2   3
ENDBRANCH   1   2
BRANCH   1   8
ATOM      8  C   UNL     1       5.800  -0.362 -28.453  1.00  0.00     0.000 C 
BRANCH   8   9
ATOM      9  C   UNL     1       6.507  -1.685 -28.791  1.00  0.00     0.000 C 
BRANCH   9  10
ATOM     10  C   UNL     1       7.597  -2.050 -27.771  1.00  0.00     0.006 C 
BRANCH  10  11
ATOM     11  C   UNL     1       7.192  -3.220 -26.865  1.00  0.00     0.053 C 
BRANCH  11  12
ATOM     12  C   UNL     1       8.046  -3.248 -25.636  1.00  0.00     0.041 C 
ATOM     13  O   UNL     1       7.552  -2.961 -24.514  1.00  0.00    -0.550 OA
ATOM     14  O   UNL     1       9.376  -3.640 -25.723  1.00  0.00    -0.550 OA
ENDBRANCH  11  12
ENDBRANCH  10  11
ENDBRANCH   9  10
ENDBRANCH   8   9
ENDBRANCH   1   8
TORSDOF 9
ENDMDL
