MODEL 1
REMARK VINA RESULT:    -3.331      0.000      0.000
REMARK INTER + INTRA:          -5.544
REMARK INTER:                  -4.889
REMARK INTRA:                  -0.655
REMARK UNBOUND:                -0.655
REMARK SMILES O=C([O-])CCCCCCCC(=O)[O-]
REMARK SMILES IDX 7 1 6 2 5 3 4 4 2 5 1 6 3 7 8 8 9 9 10 10 11 11 12 12 13 13
REMARK H PARENT
REMARK Flexibility Score: inf
ROOT
ATOM      1  C   UNL     1     -95.339 148.335 240.153  1.00  0.00     0.000 C 
ENDROOT
BRANCH   1   2
ATOM      2  C   UNL     1     -95.382 149.869 240.089  1.00  0.00     0.000 C 
BRANCH   2   3
ATOM      3  C   UNL     1     -96.775 150.437 240.415  1.00  0.00     0.006 C 
BRANCH   3   4
ATOM      4  C   UNL     1     -97.766 149.340 240.823  1.00  0.00     0.053 C 
BRANCH   4   5
ATOM      5  C   UNL     1     -98.184 149.469 242.255  1.00  0.00     0.041 C 
ATOM      6  O   UNL     1     -98.601 150.573 242.696  1.00  0.00    -0.550 OA
ATOM      7  O   UNL     1     -98.085 148.380 243.111  1.00  0.00    -0.550 OA
ENDBRANCH   4   5
ENDBRANCH   3   4
ENDBRANCH   2   3
ENDBRANCH   1   2
BRANCH   1   8
ATOM      8  C   UNL     1     -94.587 147.713 238.966  1.00  0.00     0.000 C 
BRANCH   8   9
ATOM      9  C   UNL     1     -94.177 148.789 237.953  1.00  0.00     0.006 C 
BRANCH   9  10
ATOM     10  C   UNL     1     -94.798 148.516 236.579  1.00  0.00     0.053 C 
BRANCH  10  11
ATOM     11  C   UNL     1     -95.900 149.490 236.302  1.00  0.00     0.041 C 
ATOM     12  O   UNL     1     -96.975 149.434 236.955  1.00  0.00    -0.550 OA
ATOM     13  O   UNL     1     -95.759 150.429 235.287  1.00  0.00    -0.550 OA
ENDBRANCH  10  11
ENDBRANCH   9  10
ENDBRANCH   8   9
ENDBRANCH   1   8
TORSDOF 8
ENDMDL
MODEL 2
REMARK VINA RESULT:    -3.317      0.144      5.538
REMARK INTER + INTRA:          -5.523
REMARK INTER:                  -4.914
REMARK INTRA:                  -0.610
REMARK UNBOUND:                -0.655
REMARK SMILES O=C([O-])CCCCCCCC(=O)[O-]
REMARK SMILES IDX 7 1 6 2 5 3 4 4 2 5 1 6 3 7 8 8 9 9 10 10 11 11 12 12 13 13
REMARK H PARENT
REMARK Flexibility Score: inf
ROOT
ATOM      1  C   UNL     1     -95.259 148.375 240.111  1.00  0.00     0.000 C 
ENDROOT
BRANCH   1   2
ATOM      2  C   UNL     1     -94.457 147.791 238.937  1.00  0.00     0.000 C 
BRANCH   2   3
ATOM      3  C   UNL     1     -94.126 148.844 237.864  1.00  0.00     0.006 C 
BRANCH   3   4
ATOM      4  C   UNL     1     -94.820 148.548 236.529  1.00  0.00     0.053 C 
BRANCH   4   5
ATOM      5  C   UNL     1     -95.882 149.558 236.216  1.00  0.00     0.041 C 
ATOM      6  O   UNL     1     -96.965 149.558 236.858  1.00  0.00    -0.550 OA
ATOM      7  O   UNL     1     -95.687 150.479 235.195  1.00  0.00    -0.550 OA
ENDBRANCH   4   5
ENDBRANCH   3   4
ENDBRANCH   2   3
ENDBRANCH   1   2
BRANCH   1   8
ATOM      8  C   UNL     1     -95.418 149.900 240.020  1.00  0.00     0.000 C 
BRANCH   8   9
ATOM      9  C   UNL     1     -96.817 150.334 240.476  1.00  0.00     0.006 C 
BRANCH   9  10
ATOM     10  C   UNL     1     -97.632 149.133 240.967  1.00  0.00     0.053 C 
BRANCH  10  11
ATOM     11  C   UNL     1     -98.152 149.383 242.347  1.00  0.00     0.041 C 
ATOM     12  O   UNL     1     -98.250 148.434 243.169  1.00  0.00    -0.550 OA
ATOM     13  O   UNL     1     -98.572 150.656 242.712  1.00  0.00    -0.550 OA
ENDBRANCH  10  11
ENDBRANCH   9  10
ENDBRANCH   8   9
ENDBRANCH   1   8
TORSDOF 8
ENDMDL
MODEL 3
REMARK VINA RESULT:    -3.303      1.423      4.780
REMARK INTER + INTRA:          -5.502
REMARK INTER:                  -4.648
REMARK INTRA:                  -0.854
REMARK UNBOUND:                -0.655
REMARK SMILES O=C([O-])CCCCCCCC(=O)[O-]
REMARK SMILES IDX 7 1 6 2 5 3 4 4 2 5 1 6 3 7 8 8 9 9 10 10 11 11 12 12 13 13
REMARK H PARENT
REMARK Flexibility Score: inf
ROOT
ATOM      1  C   UNL     1     -94.610 149.161 239.396  1.00  0.00     0.000 C 
ENDROOT
BRANCH   1   2
ATOM      2  C   UNL     1     -93.913 148.458 238.221  1.00  0.00     0.000 C 
BRANCH   2   3
ATOM      3  C   UNL     1     -94.835 148.288 237.001  1.00  0.00     0.006 C 
BRANCH   3   4
ATOM      4  C   UNL     1     -95.556 149.591 236.634  1.00  0.00     0.053 C 
BRANCH   4   5
ATOM      5  C   UNL     1     -97.046 149.436 236.674  1.00  0.00     0.041 C 
ATOM      6  O   UNL     1     -97.568 148.505 237.343  1.00  0.00    -0.550 OA
ATOM      7  O   UNL     1     -97.856 150.299 235.948  1.00  0.00    -0.550 OA
ENDBRANCH   4   5
ENDBRANCH   3   4
ENDBRANCH   2   3
ENDBRANCH   1   2
BRANCH   1   8
ATOM      8  C   UNL     1     -95.350 148.181 240.319  1.00  0.00     0.000 C 
BRANCH   8   9
ATOM      9  C   UNL     1     -96.699 148.759 240.763  1.00  0.00     0.006 C 
BRANCH   9  10
ATOM     10  C   UNL     1     -96.789 150.254 240.441  1.00  0.00     0.053 C 
BRANCH  10  11
ATOM     11  C   UNL     1     -98.219 150.693 240.389  1.00  0.00     0.041 C 
ATOM     12  O   UNL     1     -98.672 151.259 239.359  1.00  0.00    -0.550 OA
ATOM     13  O   UNL     1     -99.040 150.519 241.496  1.00  0.00    -0.550 OA
ENDBRANCH  10  11
ENDBRANCH   9  10
ENDBRANCH   8   9
ENDBRANCH   1   8
TORSDOF 8
ENDMDL
MODEL 4
REMARK VINA RESULT:    -3.292      1.413      1.905
REMARK INTER + INTRA:          -5.487
REMARK INTER:                  -4.627
REMARK INTRA:                  -0.860
REMARK UNBOUND:                -0.655
REMARK SMILES O=C([O-])CCCCCCCC(=O)[O-]
REMARK SMILES IDX 7 1 6 2 5 3 4 4 2 5 1 6 3 7 8 8 9 9 10 10 11 11 12 12 13 13
REMARK H PARENT
REMARK Flexibility Score: inf
ROOT
ATOM      1  C   UNL     1     -94.487 149.060 239.241  1.00  0.00     0.000 C 
ENDROOT
BRANCH   1   2
ATOM      2  C   UNL     1     -95.309 148.075 240.087  1.00  0.00     0.000 C 
BRANCH   2   3
ATOM      3  C   UNL     1     -96.533 148.737 240.745  1.00  0.00     0.006 C 
BRANCH   3   4
ATOM      4  C   UNL     1     -96.656 150.221 240.378  1.00  0.00     0.053 C 
BRANCH   4   5
ATOM      5  C   UNL     1     -98.068 150.710 240.492  1.00  0.00     0.041 C 
ATOM      6  O   UNL     1     -98.663 151.166 239.479  1.00  0.00    -0.550 OA
ATOM      7  O   UNL     1     -98.714 150.690 241.720  1.00  0.00    -0.550 OA
ENDBRANCH   4   5
ENDBRANCH   3   4
ENDBRANCH   2   3
ENDBRANCH   1   2
BRANCH   1   8
ATOM      8  C   UNL     1     -93.865 148.401 238.001  1.00  0.00     0.000 C 
BRANCH   8   9
ATOM      9  C   UNL     1     -94.888 148.297 236.863  1.00  0.00     0.006 C 
BRANCH   9  10
ATOM     10  C   UNL     1     -95.602 149.635 236.642  1.00  0.00     0.053 C 
BRANCH  10  11
ATOM     11  C   UNL     1     -97.086 149.444 236.657  1.00  0.00     0.041 C 
ATOM     12  O   UNL     1     -97.603 148.549 237.376  1.00  0.00    -0.550 OA
ATOM     13  O   UNL     1     -97.895 150.223 235.839  1.00  0.00    -0.550 OA
ENDBRANCH  10  11
ENDBRANCH   9  10
ENDBRANCH   8   9
ENDBRANCH   1   8
TORSDOF 8
ENDMDL
MODEL 5
REMARK VINA RESULT:    -3.288      2.335      6.706
REMARK INTER + INTRA:          -5.481
REMARK INTER:                  -5.134
REMARK INTRA:                  -0.347
REMARK UNBOUND:                -0.655
REMARK SMILES O=C([O-])CCCCCCCC(=O)[O-]
REMARK SMILES IDX 7 1 6 2 5 3 4 4 2 5 1 6 3 7 8 8 9 9 10 10 11 11 12 12 13 13
REMARK H PARENT
REMARK Flexibility Score: inf
ROOT
ATOM      1  C   UNL     1     -97.643 148.937 241.471  1.00  0.00     0.000 C 
ENDROOT
BRANCH   1   2
ATOM      2  C   UNL     1     -97.289 150.265 240.784  1.00  0.00     0.000 C 
BRANCH   2   3
ATOM      3  C   UNL     1     -95.900 150.237 240.121  1.00  0.00     0.006 C 
BRANCH   3   4
ATOM      4  C   UNL     1     -95.309 148.822 240.073  1.00  0.00     0.053 C 
BRANCH   4   5
ATOM      5  C   UNL     1     -94.898 148.436 238.685  1.00  0.00     0.041 C 
ATOM      6  O   UNL     1     -93.975 149.063 238.100  1.00  0.00    -0.550 OA
ATOM      7  O   UNL     1     -95.554 147.404 238.026  1.00  0.00    -0.550 OA
ENDBRANCH   4   5
ENDBRANCH   3   4
ENDBRANCH   2   3
ENDBRANCH   1   2
BRANCH   1   8
ATOM      8  C   UNL     1     -98.361 149.137 242.814  1.00  0.00     0.000 C 
BRANCH   8   9
ATOM      9  C   UNL     1     -98.731 150.610 243.023  1.00  0.00     0.006 C 
BRANCH   9  10
ATOM     10  C   UNL     1     -99.504 150.802 244.332  1.00  0.00     0.053 C 
BRANCH  10  11
ATOM     11  C   UNL     1     -99.091 152.075 245.002  1.00  0.00     0.041 C 
ATOM     12  O   UNL     1     -98.059 152.108 245.721  1.00  0.00    -0.550 OA
ATOM     13  O   UNL     1     -99.875 153.215 244.869  1.00  0.00    -0.550 OA
ENDBRANCH  10  11
ENDBRANCH   9  10
ENDBRANCH   8   9
ENDBRANCH   1   8
TORSDOF 8
ENDMDL
MODEL 6
REMARK VINA RESULT:    -3.286      1.306      1.503
REMARK INTER + INTRA:          -5.478
REMARK INTER:                  -4.711
REMARK INTRA:                  -0.767
REMARK UNBOUND:                -0.655
REMARK SMILES O=C([O-])CCCCCCCC(=O)[O-]
REMARK SMILES IDX 7 1 6 2 5 3 4 4 2 5 1 6 3 7 8 8 9 9 10 10 11 11 12 12 13 13
REMARK H PARENT
REMARK Flexibility Score: inf
ROOT
ATOM      1  C   UNL     1     -95.058 148.196 239.989  1.00  0.00     0.000 C 
ENDROOT
BRANCH   1   2
ATOM      2  C   UNL     1     -96.417 148.755 240.439  1.00  0.00     0.000 C 
BRANCH   2   3
ATOM      3  C   UNL     1     -96.478 150.292 240.369  1.00  0.00     0.006 C 
BRANCH   3   4
ATOM      4  C   UNL     1     -97.919 150.811 240.291  1.00  0.00     0.053 C 
BRANCH   4   5
ATOM      5  C   UNL     1     -98.764 150.284 241.411  1.00  0.00     0.041 C 
ATOM      6  O   UNL     1     -98.505 150.601 242.603  1.00  0.00    -0.550 OA
ATOM      7  O   UNL     1     -99.817 149.419 241.142  1.00  0.00    -0.550 OA
ENDBRANCH   4   5
ENDBRANCH   3   4
ENDBRANCH   2   3
ENDBRANCH   1   2
BRANCH   1   8
ATOM      8  C   UNL     1     -94.331 149.124 239.005  1.00  0.00     0.000 C 
BRANCH   8   9
ATOM      9  C   UNL     1     -94.440 148.595 237.570  1.00  0.00     0.006 C 
BRANCH   9  10
ATOM     10  C   UNL     1     -95.356 149.485 236.723  1.00  0.00     0.053 C 
BRANCH  10  11
ATOM     11  C   UNL     1     -96.767 148.989 236.783  1.00  0.00     0.041 C 
ATOM     12  O   UNL     1     -97.006 147.754 236.761  1.00  0.00    -0.550 OA
ATOM     13  O   UNL     1     -97.820 149.894 236.816  1.00  0.00    -0.550 OA
ENDBRANCH  10  11
ENDBRANCH   9  10
ENDBRANCH   8   9
ENDBRANCH   1   8
TORSDOF 8
ENDMDL
MODEL 7
REMARK VINA RESULT:    -3.221      1.873      2.795
REMARK INTER + INTRA:          -5.382
REMARK INTER:                  -5.092
REMARK INTRA:                  -0.290
REMARK UNBOUND:                -0.655
REMARK SMILES O=C([O-])CCCCCCCC(=O)[O-]
REMARK SMILES IDX 7 1 6 2 5 3 4 4 2 5 1 6 3 7 8 8 9 9 10 10 11 11 12 12 13 13
REMARK H PARENT
REMARK Flexibility Score: inf
ROOT
ATOM      1  C   UNL     1     -97.491 150.164 240.764  1.00  0.00     0.000 C 
ENDROOT
BRANCH   1   2
ATOM      2  C   UNL     1     -97.684 148.904 241.623  1.00  0.00     0.000 C 
BRANCH   2   3
ATOM      3  C   UNL     1     -98.341 149.208 242.982  1.00  0.00     0.006 C 
BRANCH   3   4
ATOM      4  C   UNL     1     -98.814 150.664 243.083  1.00  0.00     0.053 C 
BRANCH   4   5
ATOM      5  C   UNL     1     -99.085 151.066 244.501  1.00  0.00     0.041 C 
ATOM      6  O   UNL     1     -98.648 152.162 244.943  1.00  0.00    -0.550 OA
ATOM      7  O   UNL     1     -99.793 150.218 245.342  1.00  0.00    -0.550 OA
ENDBRANCH   4   5
ENDBRANCH   3   4
ENDBRANCH   2   3
ENDBRANCH   1   2
BRANCH   1   8
ATOM      8  C   UNL     1     -96.088 150.249 240.144  1.00  0.00     0.000 C 
BRANCH   8   9
ATOM      9  C   UNL     1     -95.547 148.852 239.819  1.00  0.00     0.006 C 
BRANCH   9  10
ATOM     10  C   UNL     1     -94.321 148.936 238.904  1.00  0.00     0.053 C 
BRANCH  10  11
ATOM     11  C   UNL     1     -94.698 148.611 237.493  1.00  0.00     0.041 C 
ATOM     12  O   UNL     1     -95.793 149.014 237.020  1.00  0.00    -0.550 OA
ATOM     13  O   UNL     1     -93.861 147.822 236.714  1.00  0.00    -0.550 OA
ENDBRANCH  10  11
ENDBRANCH   9  10
ENDBRANCH   8   9
ENDBRANCH   1   8
TORSDOF 8
ENDMDL
MODEL 8
REMARK VINA RESULT:    -3.192      1.498      5.759
REMARK INTER + INTRA:          -5.340
REMARK INTER:                  -4.805
REMARK INTRA:                  -0.535
REMARK UNBOUND:                -0.655
REMARK SMILES O=C([O-])CCCCCCCC(=O)[O-]
REMARK SMILES IDX 7 1 6 2 5 3 4 4 2 5 1 6 3 7 8 8 9 9 10 10 11 11 12 12 13 13
REMARK H PARENT
REMARK Flexibility Score: inf
ROOT
ATOM      1  C   UNL     1     -95.121 147.727 240.169  1.00  0.00     0.000 C 
ENDROOT
BRANCH   1   2
ATOM      2  C   UNL     1     -94.179 146.887 239.292  1.00  0.00     0.000 C 
BRANCH   2   3
ATOM      3  C   UNL     1     -93.502 147.717 238.187  1.00  0.00     0.006 C 
BRANCH   3   4
ATOM      4  C   UNL     1     -93.585 147.034 236.816  1.00  0.00     0.053 C 
BRANCH   4   5
ATOM      5  C   UNL     1     -94.290 147.889 235.808  1.00  0.00     0.041 C 
ATOM      6  O   UNL     1     -94.142 147.668 234.576  1.00  0.00    -0.550 OA
ATOM      7  O   UNL     1     -95.086 148.947 236.226  1.00  0.00    -0.550 OA
ENDBRANCH   4   5
ENDBRANCH   3   4
ENDBRANCH   2   3
ENDBRANCH   1   2
BRANCH   1   8
ATOM      8  C   UNL     1     -95.118 149.215 239.787  1.00  0.00     0.000 C 
BRANCH   8   9
ATOM      9  C   UNL     1     -96.534 149.698 239.452  1.00  0.00     0.006 C 
BRANCH   9  10
ATOM     10  C   UNL     1     -97.056 150.658 240.525  1.00  0.00     0.053 C 
BRANCH  10  11
ATOM     11  C   UNL     1     -98.094 149.986 241.368  1.00  0.00     0.041 C 
ATOM     12  O   UNL     1     -99.304 150.321 241.270  1.00  0.00    -0.550 OA
ATOM     13  O   UNL     1     -97.719 149.022 242.295  1.00  0.00    -0.550 OA
ENDBRANCH  10  11
ENDBRANCH   9  10
ENDBRANCH   8   9
ENDBRANCH   1   8
TORSDOF 8
ENDMDL
MODEL 9
REMARK VINA RESULT:    -3.159      2.630      3.995
REMARK INTER + INTRA:          -5.292
REMARK INTER:                  -4.916
REMARK INTRA:                  -0.376
REMARK UNBOUND:                -0.655
REMARK SMILES O=C([O-])CCCCCCCC(=O)[O-]
REMARK SMILES IDX 7 1 6 2 5 3 4 4 2 5 1 6 3 7 8 8 9 9 10 10 11 11 12 12 13 13
REMARK H PARENT
REMARK Flexibility Score: inf
ROOT
ATOM      1  C   UNL     1     -97.939 148.899 241.376  1.00  0.00     0.000 C 
ENDROOT
BRANCH   1   2
ATOM      2  C   UNL     1     -98.567 149.172 242.751  1.00  0.00     0.000 C 
BRANCH   2   3
ATOM      3  C   UNL     1     -98.526 150.662 243.136  1.00  0.00     0.006 C 
BRANCH   3   4
ATOM      4  C   UNL     1     -99.655 151.041 244.104  1.00  0.00     0.053 C 
BRANCH   4   5
ATOM      5  C   UNL     1     -99.234 152.116 245.059  1.00  0.00     0.041 C 
ATOM      6  O   UNL     1     -98.152 152.010 245.695  1.00  0.00    -0.550 OA
ATOM      7  O   UNL     1    -100.050 153.219 245.269  1.00  0.00    -0.550 OA
ENDBRANCH   4   5
ENDBRANCH   3   4
ENDBRANCH   2   3
ENDBRANCH   1   2
BRANCH   1   8
ATOM      8  C   UNL     1     -97.599 150.188 240.613  1.00  0.00     0.000 C 
BRANCH   8   9
ATOM      9  C   UNL     1     -96.104 150.246 240.273  1.00  0.00     0.006 C 
BRANCH   9  10
ATOM     10  C   UNL     1     -95.808 149.503 238.966  1.00  0.00     0.053 C 
BRANCH  10  11
ATOM     11  C   UNL     1     -94.745 148.473 239.180  1.00  0.00     0.041 C 
ATOM     12  O   UNL     1     -93.787 148.372 238.369  1.00  0.00    -0.550 OA
ATOM     13  O   UNL     1     -94.836 147.591 240.250  1.00  0.00    -0.550 OA
ENDBRANCH  10  11
ENDBRANCH   9  10
ENDBRANCH   8   9
ENDBRANCH   1   8
TORSDOF 8
ENDMDL
