MODEL 1
REMARK VINA RESULT:    -6.251      0.000      0.000
REMARK INTER + INTRA:         -19.101
REMARK INTER:                 -16.482
REMARK INTRA:                  -2.619
REMARK UNBOUND:                -2.619
REMARK SMILES CCCCCCCCCCCCCCCCCCCCCCCCCCCCCC(=O)[O-]
REMARK SMILES IDX 16 1 17 2 18 3 19 4 20 5 21 6 22 7 23 8 24 9 25 10 26 11
REMARK SMILES IDX 27 12 28 13 29 14 30 15 31 16 32 17 15 18 14 19 13 20 12 21
REMARK SMILES IDX 11 22 10 23 9 24 8 25 7 26 6 27 5 28 4 29 3 30 2 31 1 32
REMARK H PARENT
REMARK Flexibility Score: inf
ROOT
ATOM      1  C   UNL     1     -22.597 -23.770  31.139  1.00  0.00     0.000 C 
ENDROOT
BRANCH   1   2
ATOM      2  C   UNL     1     -22.692 -22.353  31.723  1.00  0.00     0.000 C 
BRANCH   2   3
ATOM      3  C   UNL     1     -21.315 -21.751  32.045  1.00  0.00     0.000 C 
BRANCH   3   4
ATOM      4  C   UNL     1     -21.073 -20.409  31.330  1.00  0.00     0.000 C 
BRANCH   4   5
ATOM      5  C   UNL     1     -22.004 -20.209  30.125  1.00  0.00     0.000 C 
BRANCH   5   6
ATOM      6  C   UNL     1     -21.243 -20.172  28.789  1.00  0.00     0.000 C 
BRANCH   6   7
ATOM      7  C   UNL     1     -21.140 -18.754  28.197  1.00  0.00     0.000 C 
BRANCH   7   8
ATOM      8  C   UNL     1     -20.440 -17.725  29.103  1.00  0.00     0.000 C 
BRANCH   8   9
ATOM      9  C   UNL     1     -19.050 -18.189  29.570  1.00  0.00     0.000 C 
BRANCH   9  10
ATOM     10  C   UNL     1     -18.438 -17.246  30.617  1.00  0.00     0.000 C 
BRANCH  10  11
ATOM     11  C   UNL     1     -18.441 -15.777  30.158  1.00  0.00     0.000 C 
BRANCH  11  12
ATOM     12  C   UNL     1     -17.415 -15.495  29.045  1.00  0.00     0.000 C 
BRANCH  12  13
ATOM     13  C   UNL     1     -18.019 -15.297  27.643  1.00  0.00     0.006 C 
BRANCH  13  14
ATOM     14  C   UNL     1     -17.425 -16.250  26.598  1.00  0.00     0.053 C 
BRANCH  14  15
ATOM     15  C   UNL     1     -17.280 -15.555  25.281  1.00  0.00     0.041 C 
ATOM     16  O   UNL     1     -18.298 -15.138  24.669  1.00  0.00    -0.550 OA
ATOM     17  O   UNL     1     -16.024 -15.413  24.705  1.00  0.00    -0.550 OA
ENDBRANCH  14  15
ENDBRANCH  13  14
ENDBRANCH  12  13
ENDBRANCH  11  12
ENDBRANCH  10  11
ENDBRANCH   9  10
ENDBRANCH   8   9
ENDBRANCH   7   8
ENDBRANCH   6   7
ENDBRANCH   5   6
ENDBRANCH   4   5
ENDBRANCH   3   4
ENDBRANCH   2   3
ENDBRANCH   1   2
BRANCH   1  18
ATOM     18  C   UNL     1     -21.783 -23.774  29.839  1.00  0.00     0.000 C 
BRANCH  18  19
ATOM     19  C   UNL     1     -22.704 -23.827  28.612  1.00  0.00     0.000 C 
BRANCH  19  20
ATOM     20  C   UNL     1     -22.926 -25.261  28.103  1.00  0.00     0.000 C 
BRANCH  20  21
ATOM     21  C   UNL     1     -23.789 -26.101  29.059  1.00  0.00     0.000 C 
BRANCH  21  22
ATOM     22  C   UNL     1     -25.091 -25.388  29.462  1.00  0.00     0.000 C 
BRANCH  22  23
ATOM     23  C   UNL     1     -25.463 -25.628  30.933  1.00  0.00     0.000 C 
BRANCH  23  24
ATOM     24  C   UNL     1     -25.189 -27.085  31.337  1.00  0.00    -0.000 C 
BRANCH  24  25
ATOM     25  C   UNL     1     -26.390 -28.006  31.073  1.00  0.00    -0.000 C 
BRANCH  25  26
ATOM     26  C   UNL     1     -26.026 -29.214  30.190  1.00  0.00    -0.000 C 
BRANCH  26  27
ATOM     27  C   UNL     1     -26.893 -29.307  28.924  1.00  0.00    -0.000 C 
BRANCH  27  28
ATOM     28  C   UNL     1     -26.711 -28.094  27.995  1.00  0.00    -0.000 C 
BRANCH  28  29
ATOM     29  C   UNL     1     -26.340 -28.501  26.560  1.00  0.00    -0.000 C 
BRANCH  29  30
ATOM     30  C   UNL     1     -27.493 -29.216  25.831  1.00  0.00    -0.000 C 
BRANCH  30  31
ATOM     31  C   UNL     1     -27.576 -28.832  24.345  1.00  0.00    -0.003 C 
ATOM     32  C   UNL     1     -28.735 -27.883  24.045  1.00  0.00     0.004 C 
ENDBRANCH  30  31
ENDBRANCH  29  30
ENDBRANCH  28  29
ENDBRANCH  27  28
ENDBRANCH  26  27
ENDBRANCH  25  26
ENDBRANCH  24  25
ENDBRANCH  23  24
ENDBRANCH  22  23
ENDBRANCH  21  22
ENDBRANCH  20  21
ENDBRANCH  19  20
ENDBRANCH  18  19
ENDBRANCH   1  18
TORSDOF 28
ENDMDL
MODEL 2
REMARK VINA RESULT:    -6.212      4.187     12.323
REMARK INTER + INTRA:         -19.000
REMARK INTER:                 -15.989
REMARK INTRA:                  -3.011
REMARK UNBOUND:                -2.619
REMARK SMILES CCCCCCCCCCCCCCCCCCCCCCCCCCCCCC(=O)[O-]
REMARK SMILES IDX 16 1 17 2 18 3 19 4 20 5 21 6 22 7 23 8 24 9 25 10 26 11
REMARK SMILES IDX 27 12 28 13 29 14 30 15 31 16 32 17 15 18 14 19 13 20 12 21
REMARK SMILES IDX 11 22 10 23 9 24 8 25 7 26 6 27 5 28 4 29 3 30 2 31 1 32
REMARK H PARENT
REMARK Flexibility Score: inf
ROOT
ATOM      1  C   UNL     1     -22.838 -23.600  31.350  1.00  0.00     0.000 C 
ENDROOT
BRANCH   1   2
ATOM      2  C   UNL     1     -21.715 -23.953  30.363  1.00  0.00     0.000 C 
BRANCH   2   3
ATOM      3  C   UNL     1     -21.985 -23.425  28.944  1.00  0.00     0.000 C 
BRANCH   3   4
ATOM      4  C   UNL     1     -22.807 -24.410  28.093  1.00  0.00     0.000 C 
BRANCH   4   5
ATOM      5  C   UNL     1     -22.887 -25.808  28.724  1.00  0.00     0.000 C 
BRANCH   5   6
ATOM      6  C   UNL     1     -24.295 -26.422  28.627  1.00  0.00     0.000 C 
BRANCH   6   7
ATOM      7  C   UNL     1     -25.371 -25.565  29.318  1.00  0.00     0.000 C 
BRANCH   7   8
ATOM      8  C   UNL     1     -25.416 -25.698  30.852  1.00  0.00     0.000 C 
BRANCH   8   9
ATOM      9  C   UNL     1     -25.181 -27.140  31.333  1.00  0.00     0.000 C 
BRANCH   9  10
ATOM     10  C   UNL     1     -26.353 -28.071  30.987  1.00  0.00     0.000 C 
BRANCH  10  11
ATOM     11  C   UNL     1     -25.928 -29.234  30.072  1.00  0.00     0.000 C 
BRANCH  11  12
ATOM     12  C   UNL     1     -26.976 -29.561  28.993  1.00  0.00     0.000 C 
BRANCH  12  13
ATOM     13  C   UNL     1     -27.204 -28.450  27.954  1.00  0.00     0.006 C 
BRANCH  13  14
ATOM     14  C   UNL     1     -26.393 -28.660  26.669  1.00  0.00     0.053 C 
BRANCH  14  15
ATOM     15  C   UNL     1     -27.290 -28.619  25.473  1.00  0.00     0.041 C 
ATOM     16  O   UNL     1     -27.741 -27.520  25.056  1.00  0.00    -0.550 OA
ATOM     17  O   UNL     1     -27.671 -29.800  24.848  1.00  0.00    -0.550 OA
ENDBRANCH  14  15
ENDBRANCH  13  14
ENDBRANCH  12  13
ENDBRANCH  11  12
ENDBRANCH  10  11
ENDBRANCH   9  10
ENDBRANCH   8   9
ENDBRANCH   7   8
ENDBRANCH   6   7
ENDBRANCH   5   6
ENDBRANCH   4   5
ENDBRANCH   3   4
ENDBRANCH   2   3
ENDBRANCH   1   2
BRANCH   1  18
ATOM     18  C   UNL     1     -22.749 -22.130  31.777  1.00  0.00     0.000 C 
BRANCH  18  19
ATOM     19  C   UNL     1     -21.286 -21.677  31.896  1.00  0.00     0.000 C 
BRANCH  19  20
ATOM     20  C   UNL     1     -21.057 -20.268  31.327  1.00  0.00     0.000 C 
BRANCH  20  21
ATOM     21  C   UNL     1     -22.004 -19.941  30.160  1.00  0.00     0.000 C 
BRANCH  21  22
ATOM     22  C   UNL     1     -21.267 -19.812  28.817  1.00  0.00     0.000 C 
BRANCH  22  23
ATOM     23  C   UNL     1     -20.018 -18.922  28.914  1.00  0.00     0.000 C 
BRANCH  23  24
ATOM     24  C   UNL     1     -20.407 -17.454  29.143  1.00  0.00    -0.000 C 
BRANCH  24  25
ATOM     25  C   UNL     1     -19.759 -16.863  30.405  1.00  0.00    -0.000 C 
BRANCH  25  26
ATOM     26  C   UNL     1     -18.262 -16.561  30.217  1.00  0.00    -0.000 C 
BRANCH  26  27
ATOM     27  C   UNL     1     -18.005 -15.141  29.686  1.00  0.00    -0.000 C 
BRANCH  27  28
ATOM     28  C   UNL     1     -17.173 -15.138  28.392  1.00  0.00    -0.000 C 
BRANCH  28  29
ATOM     29  C   UNL     1     -17.692 -16.145  27.354  1.00  0.00    -0.000 C 
BRANCH  29  30
ATOM     30  C   UNL     1     -17.848 -15.525  25.953  1.00  0.00    -0.000 C 
BRANCH  30  31
ATOM     31  C   UNL     1     -16.497 -15.155  25.321  1.00  0.00    -0.003 C 
ATOM     32  C   UNL     1     -16.044 -16.163  24.265  1.00  0.00     0.004 C 
ENDBRANCH  30  31
ENDBRANCH  29  30
ENDBRANCH  28  29
ENDBRANCH  27  28
ENDBRANCH  26  27
ENDBRANCH  25  26
ENDBRANCH  24  25
ENDBRANCH  23  24
ENDBRANCH  22  23
ENDBRANCH  21  22
ENDBRANCH  20  21
ENDBRANCH  19  20
ENDBRANCH  18  19
ENDBRANCH   1  18
TORSDOF 28
ENDMDL
MODEL 3
REMARK VINA RESULT:    -6.067      4.191     12.499
REMARK INTER + INTRA:         -18.617
REMARK INTER:                 -16.243
REMARK INTRA:                  -2.374
REMARK UNBOUND:                -2.619
REMARK SMILES CCCCCCCCCCCCCCCCCCCCCCCCCCCCCC(=O)[O-]
REMARK SMILES IDX 16 1 17 2 18 3 19 4 20 5 21 6 22 7 23 8 24 9 25 10 26 11
REMARK SMILES IDX 27 12 28 13 29 14 30 15 31 16 32 17 15 18 14 19 13 20 12 21
REMARK SMILES IDX 11 22 10 23 9 24 8 25 7 26 6 27 5 28 4 29 3 30 2 31 1 32
REMARK H PARENT
REMARK Flexibility Score: inf
ROOT
ATOM      1  C   UNL     1     -22.319 -20.398  30.642  1.00  0.00     0.000 C 
ENDROOT
BRANCH   1   2
ATOM      2  C   UNL     1     -21.705 -21.661  31.263  1.00  0.00     0.000 C 
BRANCH   2   3
ATOM      3  C   UNL     1     -22.765 -22.697  31.673  1.00  0.00     0.000 C 
BRANCH   3   4
ATOM      4  C   UNL     1     -22.598 -24.039  30.938  1.00  0.00     0.000 C 
BRANCH   4   5
ATOM      5  C   UNL     1     -22.082 -23.861  29.502  1.00  0.00     0.000 C 
BRANCH   5   6
ATOM      6  C   UNL     1     -22.995 -24.529  28.459  1.00  0.00     0.000 C 
BRANCH   6   7
ATOM      7  C   UNL     1     -23.660 -25.816  28.981  1.00  0.00     0.000 C 
BRANCH   7   8
ATOM      8  C   UNL     1     -25.113 -25.644  29.459  1.00  0.00     0.000 C 
BRANCH   8   9
ATOM      9  C   UNL     1     -25.323 -26.111  30.909  1.00  0.00     0.000 C 
BRANCH   9  10
ATOM     10  C   UNL     1     -26.057 -27.458  30.991  1.00  0.00     0.000 C 
BRANCH  10  11
ATOM     11  C   UNL     1     -25.593 -28.447  29.906  1.00  0.00     0.000 C 
BRANCH  11  12
ATOM     12  C   UNL     1     -26.745 -29.291  29.332  1.00  0.00     0.000 C 
BRANCH  12  13
ATOM     13  C   UNL     1     -27.325 -28.775  28.003  1.00  0.00     0.006 C 
BRANCH  13  14
ATOM     14  C   UNL     1     -26.242 -28.309  27.021  1.00  0.00     0.053 C 
BRANCH  14  15
ATOM     15  C   UNL     1     -26.656 -28.597  25.613  1.00  0.00     0.041 C 
ATOM     16  O   UNL     1     -25.834 -29.095  24.800  1.00  0.00    -0.550 OA
ATOM     17  O   UNL     1     -27.936 -28.268  25.183  1.00  0.00    -0.550 OA
ENDBRANCH  14  15
ENDBRANCH  13  14
ENDBRANCH  12  13
ENDBRANCH  11  12
ENDBRANCH  10  11
ENDBRANCH   9  10
ENDBRANCH   8   9
ENDBRANCH   7   8
ENDBRANCH   6   7
ENDBRANCH   5   6
ENDBRANCH   4   5
ENDBRANCH   3   4
ENDBRANCH   2   3
ENDBRANCH   1   2
BRANCH   1  18
ATOM     18  C   UNL     1     -22.541 -20.581  29.136  1.00  0.00     0.000 C 
BRANCH  18  19
ATOM     19  C   UNL     1     -21.331 -20.079  28.335  1.00  0.00     0.000 C 
BRANCH  19  20
ATOM     20  C   UNL     1     -20.867 -18.683  28.782  1.00  0.00     0.000 C 
BRANCH  20  21
ATOM     21  C   UNL     1     -19.387 -18.658  29.202  1.00  0.00     0.000 C 
BRANCH  21  22
ATOM     22  C   UNL     1     -19.207 -18.622  30.729  1.00  0.00     0.000 C 
BRANCH  22  23
ATOM     23  C   UNL     1     -19.053 -17.192  31.270  1.00  0.00     0.000 C 
BRANCH  23  24
ATOM     24  C   UNL     1     -17.900 -16.460  30.567  1.00  0.00    -0.000 C 
BRANCH  24  25
ATOM     25  C   UNL     1     -18.240 -14.997  30.244  1.00  0.00    -0.000 C 
BRANCH  25  26
ATOM     26  C   UNL     1     -17.566 -14.504  28.951  1.00  0.00    -0.000 C 
BRANCH  26  27
ATOM     27  C   UNL     1     -17.171 -15.654  28.011  1.00  0.00    -0.000 C 
BRANCH  27  28
ATOM     28  C   UNL     1     -18.293 -16.021  27.025  1.00  0.00    -0.000 C 
BRANCH  28  29
ATOM     29  C   UNL     1     -17.914 -15.728  25.564  1.00  0.00    -0.000 C 
BRANCH  29  30
ATOM     30  C   UNL     1     -16.779 -14.694  25.443  1.00  0.00    -0.000 C 
BRANCH  30  31
ATOM     31  C   UNL     1     -15.500 -15.293  24.838  1.00  0.00    -0.003 C 
ATOM     32  C   UNL     1     -15.788 -16.421  23.848  1.00  0.00     0.004 C 
ENDBRANCH  30  31
ENDBRANCH  29  30
ENDBRANCH  28  29
ENDBRANCH  27  28
ENDBRANCH  26  27
ENDBRANCH  25  26
ENDBRANCH  24  25
ENDBRANCH  23  24
ENDBRANCH  22  23
ENDBRANCH  21  22
ENDBRANCH  20  21
ENDBRANCH  19  20
ENDBRANCH  18  19
ENDBRANCH   1  18
TORSDOF 28
ENDMDL
MODEL 4
REMARK VINA RESULT:    -5.762      4.257     12.414
REMARK INTER + INTRA:         -17.813
REMARK INTER:                 -15.196
REMARK INTRA:                  -2.617
REMARK UNBOUND:                -2.619
REMARK SMILES CCCCCCCCCCCCCCCCCCCCCCCCCCCCCC(=O)[O-]
REMARK SMILES IDX 16 1 17 2 18 3 19 4 20 5 21 6 22 7 23 8 24 9 25 10 26 11
REMARK SMILES IDX 27 12 28 13 29 14 30 15 31 16 32 17 15 18 14 19 13 20 12 21
REMARK SMILES IDX 11 22 10 23 9 24 8 25 7 26 6 27 5 28 4 29 3 30 2 31 1 32
REMARK H PARENT
REMARK Flexibility Score: inf
ROOT
ATOM      1  C   UNL     1     -22.200 -22.362  28.376  1.00  0.00     0.000 C 
ENDROOT
BRANCH   1   2
ATOM      2  C   UNL     1     -21.738 -23.221  29.562  1.00  0.00     0.000 C 
BRANCH   2   3
ATOM      3  C   UNL     1     -21.928 -22.515  30.914  1.00  0.00     0.000 C 
BRANCH   3   4
ATOM      4  C   UNL     1     -23.145 -23.045  31.694  1.00  0.00     0.000 C 
BRANCH   4   5
ATOM      5  C   UNL     1     -23.332 -24.561  31.530  1.00  0.00     0.000 C 
BRANCH   5   6
ATOM      6  C   UNL     1     -24.721 -24.928  30.978  1.00  0.00     0.000 C 
BRANCH   6   7
ATOM      7  C   UNL     1     -24.681 -25.381  29.507  1.00  0.00     0.000 C 
BRANCH   7   8
ATOM      8  C   UNL     1     -24.209 -26.830  29.290  1.00  0.00     0.000 C 
BRANCH   8   9
ATOM      9  C   UNL     1     -24.562 -27.756  30.466  1.00  0.00     0.000 C 
BRANCH   9  10
ATOM     10  C   UNL     1     -26.079 -27.909  30.657  1.00  0.00     0.000 C 
BRANCH  10  11
ATOM     11  C   UNL     1     -26.577 -29.319  30.294  1.00  0.00     0.000 C 
BRANCH  11  12
ATOM     12  C   UNL     1     -26.434 -29.637  28.795  1.00  0.00     0.000 C 
BRANCH  12  13
ATOM     13  C   UNL     1     -27.178 -28.671  27.855  1.00  0.00     0.006 C 
BRANCH  13  14
ATOM     14  C   UNL     1     -26.310 -28.189  26.686  1.00  0.00     0.053 C 
BRANCH  14  15
ATOM     15  C   UNL     1     -26.785 -28.787  25.401  1.00  0.00     0.041 C 
ATOM     16  O   UNL     1     -25.980 -28.971  24.451  1.00  0.00    -0.550 OA
ATOM     17  O   UNL     1     -28.129 -29.096  25.233  1.00  0.00    -0.550 OA
ENDBRANCH  14  15
ENDBRANCH  13  14
ENDBRANCH  12  13
ENDBRANCH  11  12
ENDBRANCH  10  11
ENDBRANCH   9  10
ENDBRANCH   8   9
ENDBRANCH   7   8
ENDBRANCH   6   7
ENDBRANCH   5   6
ENDBRANCH   4   5
ENDBRANCH   3   4
ENDBRANCH   2   3
ENDBRANCH   1   2
BRANCH   1  18
ATOM     18  C   UNL     1     -22.414 -20.906  28.804  1.00  0.00     0.000 C 
BRANCH  18  19
ATOM     19  C   UNL     1     -21.283 -20.006  28.283  1.00  0.00     0.000 C 
BRANCH  19  20
ATOM     20  C   UNL     1     -20.979 -18.834  29.230  1.00  0.00     0.000 C 
BRANCH  20  21
ATOM     21  C   UNL     1     -21.330 -19.149  30.694  1.00  0.00     0.000 C 
BRANCH  21  22
ATOM     22  C   UNL     1     -20.249 -18.672  31.677  1.00  0.00     0.000 C 
BRANCH  22  23
ATOM     23  C   UNL     1     -18.826 -18.915  31.152  1.00  0.00     0.000 C 
BRANCH  23  24
ATOM     24  C   UNL     1     -17.954 -17.663  31.331  1.00  0.00    -0.000 C 
BRANCH  24  25
ATOM     25  C   UNL     1     -18.726 -16.362  31.060  1.00  0.00    -0.000 C 
BRANCH  25  26
ATOM     26  C   UNL     1     -18.131 -15.553  29.893  1.00  0.00    -0.000 C 
BRANCH  26  27
ATOM     27  C   UNL     1     -18.066 -16.357  28.585  1.00  0.00    -0.000 C 
BRANCH  27  28
ATOM     28  C   UNL     1     -17.396 -15.572  27.444  1.00  0.00    -0.000 C 
BRANCH  28  29
ATOM     29  C   UNL     1     -17.955 -15.948  26.062  1.00  0.00    -0.000 C 
BRANCH  29  30
ATOM     30  C   UNL     1     -17.408 -15.050  24.937  1.00  0.00    -0.000 C 
BRANCH  30  31
ATOM     31  C   UNL     1     -15.897 -15.234  24.722  1.00  0.00    -0.003 C 
ATOM     32  C   UNL     1     -15.571 -16.407  23.799  1.00  0.00     0.004 C 
ENDBRANCH  30  31
ENDBRANCH  29  30
ENDBRANCH  28  29
ENDBRANCH  27  28
ENDBRANCH  26  27
ENDBRANCH  25  26
ENDBRANCH  24  25
ENDBRANCH  23  24
ENDBRANCH  22  23
ENDBRANCH  21  22
ENDBRANCH  20  21
ENDBRANCH  19  20
ENDBRANCH  18  19
ENDBRANCH   1  18
TORSDOF 28
ENDMDL
MODEL 5
REMARK VINA RESULT:    -4.917      3.151      5.307
REMARK INTER + INTRA:         -15.585
REMARK INTER:                 -13.907
REMARK INTRA:                  -1.678
REMARK UNBOUND:                -2.619
REMARK SMILES CCCCCCCCCCCCCCCCCCCCCCCCCCCCCC(=O)[O-]
REMARK SMILES IDX 16 1 17 2 18 3 19 4 20 5 21 6 22 7 23 8 24 9 25 10 26 11
REMARK SMILES IDX 27 12 28 13 29 14 30 15 31 16 32 17 15 18 14 19 13 20 12 21
REMARK SMILES IDX 11 22 10 23 9 24 8 25 7 26 6 27 5 28 4 29 3 30 2 31 1 32
REMARK H PARENT
REMARK Flexibility Score: inf
ROOT
ATOM      1  C   UNL     1     -20.845 -19.007  30.081  1.00  0.00     0.000 C 
ENDROOT
BRANCH   1   2
ATOM      2  C   UNL     1     -19.390 -18.633  29.761  1.00  0.00     0.000 C 
BRANCH   2   3
ATOM      3  C   UNL     1     -18.701 -17.891  30.918  1.00  0.00     0.000 C 
BRANCH   3   4
ATOM      4  C   UNL     1     -18.334 -16.439  30.556  1.00  0.00     0.000 C 
BRANCH   4   5
ATOM      5  C   UNL     1     -18.634 -16.107  29.087  1.00  0.00     0.000 C 
BRANCH   5   6
ATOM      6  C   UNL     1     -17.456 -15.408  28.386  1.00  0.00     0.000 C 
BRANCH   6   7
ATOM      7  C   UNL     1     -17.095 -16.052  27.035  1.00  0.00     0.000 C 
BRANCH   7   8
ATOM      8  C   UNL     1     -17.661 -15.325  25.801  1.00  0.00     0.000 C 
BRANCH   8   9
ATOM      9  C   UNL     1     -16.616 -15.134  24.689  1.00  0.00     0.000 C 
BRANCH   9  10
ATOM     10  C   UNL     1     -15.988 -16.463  24.241  1.00  0.00     0.000 C 
BRANCH  10  11
ATOM     11  C   UNL     1     -14.863 -16.262  23.210  1.00  0.00     0.000 C 
BRANCH  11  12
ATOM     12  C   UNL     1     -15.262 -16.715  21.793  1.00  0.00     0.000 C 
BRANCH  12  13
ATOM     13  C   UNL     1     -14.149 -16.592  20.738  1.00  0.00     0.006 C 
BRANCH  13  14
ATOM     14  C   UNL     1     -14.209 -17.698  19.676  1.00  0.00     0.053 C 
BRANCH  14  15
ATOM     15  C   UNL     1     -13.496 -17.268  18.433  1.00  0.00     0.041 C 
ATOM     16  O   UNL     1     -13.024 -16.104  18.345  1.00  0.00    -0.550 OA
ATOM     17  O   UNL     1     -13.398 -18.135  17.353  1.00  0.00    -0.550 OA
ENDBRANCH  14  15
ENDBRANCH  13  14
ENDBRANCH  12  13
ENDBRANCH  11  12
ENDBRANCH  10  11
ENDBRANCH   9  10
ENDBRANCH   8   9
ENDBRANCH   7   8
ENDBRANCH   6   7
ENDBRANCH   5   6
ENDBRANCH   4   5
ENDBRANCH   3   4
ENDBRANCH   2   3
ENDBRANCH   1   2
BRANCH   1  18
ATOM     18  C   UNL     1     -20.917 -19.931  31.302  1.00  0.00     0.000 C 
BRANCH  18  19
ATOM     19  C   UNL     1     -21.710 -21.207  30.982  1.00  0.00     0.000 C 
BRANCH  19  20
ATOM     20  C   UNL     1     -22.604 -21.049  29.741  1.00  0.00     0.000 C 
BRANCH  20  21
ATOM     21  C   UNL     1     -22.281 -22.080  28.645  1.00  0.00     0.000 C 
BRANCH  21  22
ATOM     22  C   UNL     1     -21.806 -23.425  29.219  1.00  0.00     0.000 C 
BRANCH  22  23
ATOM     23  C   UNL     1     -22.912 -24.490  29.219  1.00  0.00     0.000 C 
BRANCH  23  24
ATOM     24  C   UNL     1     -23.260 -24.920  30.653  1.00  0.00    -0.000 C 
BRANCH  24  25
ATOM     25  C   UNL     1     -24.739 -25.308  30.809  1.00  0.00    -0.000 C 
BRANCH  25  26
ATOM     26  C   UNL     1     -24.922 -26.725  31.383  1.00  0.00    -0.000 C 
BRANCH  26  27
ATOM     27  C   UNL     1     -25.681 -27.659  30.427  1.00  0.00    -0.000 C 
BRANCH  27  28
ATOM     28  C   UNL     1     -25.264 -27.466  28.959  1.00  0.00    -0.000 C 
BRANCH  28  29
ATOM     29  C   UNL     1     -26.467 -27.437  28.003  1.00  0.00    -0.000 C 
BRANCH  29  30
ATOM     30  C   UNL     1     -26.663 -28.769  27.256  1.00  0.00    -0.000 C 
BRANCH  30  31
ATOM     31  C   UNL     1     -27.116 -28.566  25.802  1.00  0.00    -0.003 C 
ATOM     32  C   UNL     1     -26.086 -29.064  24.788  1.00  0.00     0.004 C 
ENDBRANCH  30  31
ENDBRANCH  29  30
ENDBRANCH  28  29
ENDBRANCH  27  28
ENDBRANCH  26  27
ENDBRANCH  25  26
ENDBRANCH  24  25
ENDBRANCH  23  24
ENDBRANCH  22  23
ENDBRANCH  21  22
ENDBRANCH  20  21
ENDBRANCH  19  20
ENDBRANCH  18  19
ENDBRANCH   1  18
TORSDOF 28
ENDMDL
MODEL 6
REMARK VINA RESULT:    -4.859      5.730     13.921
REMARK INTER + INTRA:         -15.431
REMARK INTER:                 -14.377
REMARK INTRA:                  -1.054
REMARK UNBOUND:                -2.619
REMARK SMILES CCCCCCCCCCCCCCCCCCCCCCCCCCCCCC(=O)[O-]
REMARK SMILES IDX 16 1 17 2 18 3 19 4 20 5 21 6 22 7 23 8 24 9 25 10 26 11
REMARK SMILES IDX 27 12 28 13 29 14 30 15 31 16 32 17 15 18 14 19 13 20 12 21
REMARK SMILES IDX 11 22 10 23 9 24 8 25 7 26 6 27 5 28 4 29 3 30 2 31 1 32
REMARK H PARENT
REMARK Flexibility Score: inf
ROOT
ATOM      1  C   UNL     1     -20.235 -17.989  30.313  1.00  0.00     0.000 C 
ENDROOT
BRANCH   1   2
ATOM      2  C   UNL     1     -20.555 -19.368  30.910  1.00  0.00     0.000 C 
BRANCH   2   3
ATOM      3  C   UNL     1     -21.923 -19.905  30.461  1.00  0.00     0.000 C 
BRANCH   3   4
ATOM      4  C   UNL     1     -22.021 -21.439  30.567  1.00  0.00     0.000 C 
BRANCH   4   5
ATOM      5  C   UNL     1     -22.166 -22.114  29.196  1.00  0.00     0.000 C 
BRANCH   5   6
ATOM      6  C   UNL     1     -22.031 -23.645  29.273  1.00  0.00     0.000 C 
BRANCH   6   7
ATOM      7  C   UNL     1     -22.704 -24.243  30.522  1.00  0.00     0.000 C 
BRANCH   7   8
ATOM      8  C   UNL     1     -24.055 -24.934  30.259  1.00  0.00     0.000 C 
BRANCH   8   9
ATOM      9  C   UNL     1     -23.979 -26.464  30.393  1.00  0.00     0.000 C 
BRANCH   9  10
ATOM     10  C   UNL     1     -25.202 -27.052  31.113  1.00  0.00     0.000 C 
BRANCH  10  11
ATOM     11  C   UNL     1     -26.010 -28.006  30.215  1.00  0.00     0.000 C 
BRANCH  11  12
ATOM     12  C   UNL     1     -25.754 -27.777  28.714  1.00  0.00     0.000 C 
BRANCH  12  13
ATOM     13  C   UNL     1     -26.644 -28.606  27.773  1.00  0.00     0.006 C 
BRANCH  13  14
ATOM     14  C   UNL     1     -26.976 -27.873  26.466  1.00  0.00     0.053 C 
BRANCH  14  15
ATOM     15  C   UNL     1     -26.945 -28.825  25.312  1.00  0.00     0.041 C 
ATOM     16  O   UNL     1     -25.853 -29.103  24.750  1.00  0.00    -0.550 OA
ATOM     17  O   UNL     1     -28.128 -29.365  24.824  1.00  0.00    -0.550 OA
ENDBRANCH  14  15
ENDBRANCH  13  14
ENDBRANCH  12  13
ENDBRANCH  11  12
ENDBRANCH  10  11
ENDBRANCH   9  10
ENDBRANCH   8   9
ENDBRANCH   7   8
ENDBRANCH   6   7
ENDBRANCH   5   6
ENDBRANCH   4   5
ENDBRANCH   3   4
ENDBRANCH   2   3
ENDBRANCH   1   2
BRANCH   1  18
ATOM     18  C   UNL     1     -19.988 -18.090  28.803  1.00  0.00     0.000 C 
BRANCH  18  19
ATOM     19  C   UNL     1     -18.566 -17.634  28.445  1.00  0.00     0.000 C 
BRANCH  19  20
ATOM     20  C   UNL     1     -18.476 -16.119  28.204  1.00  0.00     0.000 C 
BRANCH  20  21
ATOM     21  C   UNL     1     -17.273 -15.729  27.329  1.00  0.00     0.000 C 
BRANCH  21  22
ATOM     22  C   UNL     1     -17.622 -15.673  25.833  1.00  0.00     0.000 C 
BRANCH  22  23
ATOM     23  C   UNL     1     -16.419 -15.280  24.962  1.00  0.00     0.000 C 
BRANCH  23  24
ATOM     24  C   UNL     1     -15.936 -16.473  24.123  1.00  0.00    -0.000 C 
BRANCH  24  25
ATOM     25  C   UNL     1     -14.904 -16.067  23.059  1.00  0.00    -0.000 C 
BRANCH  25  26
ATOM     26  C   UNL     1     -15.101 -16.813  21.727  1.00  0.00    -0.000 C 
BRANCH  26  27
ATOM     27  C   UNL     1     -13.943 -16.586  20.743  1.00  0.00    -0.000 C 
BRANCH  27  28
ATOM     28  C   UNL     1     -13.981 -17.561  19.553  1.00  0.00    -0.000 C 
BRANCH  28  29
ATOM     29  C   UNL     1     -13.782 -16.853  18.203  1.00  0.00    -0.000 C 
BRANCH  29  30
ATOM     30  C   UNL     1     -12.332 -16.945  17.693  1.00  0.00    -0.000 C 
BRANCH  30  31
ATOM     31  C   UNL     1     -12.116 -18.138  16.749  1.00  0.00    -0.003 C 
ATOM     32  C   UNL     1     -13.422 -18.663  16.154  1.00  0.00     0.004 C 
ENDBRANCH  30  31
ENDBRANCH  29  30
ENDBRANCH  28  29
ENDBRANCH  27  28
ENDBRANCH  26  27
ENDBRANCH  25  26
ENDBRANCH  24  25
ENDBRANCH  23  24
ENDBRANCH  22  23
ENDBRANCH  21  22
ENDBRANCH  20  21
ENDBRANCH  19  20
ENDBRANCH  18  19
ENDBRANCH   1  18
TORSDOF 28
ENDMDL
MODEL 7
REMARK VINA RESULT:    -4.790      5.074     13.364
REMARK INTER + INTRA:         -15.248
REMARK INTER:                 -13.823
REMARK INTRA:                  -1.425
REMARK UNBOUND:                -2.619
REMARK SMILES CCCCCCCCCCCCCCCCCCCCCCCCCCCCCC(=O)[O-]
REMARK SMILES IDX 16 1 17 2 18 3 19 4 20 5 21 6 22 7 23 8 24 9 25 10 26 11
REMARK SMILES IDX 27 12 28 13 29 14 30 15 31 16 32 17 15 18 14 19 13 20 12 21
REMARK SMILES IDX 11 22 10 23 9 24 8 25 7 26 6 27 5 28 4 29 3 30 2 31 1 32
REMARK H PARENT
REMARK Flexibility Score: inf
ROOT
ATOM      1  C   UNL     1     -23.120 -24.252  29.206  1.00  0.00     0.000 C 
ENDROOT
BRANCH   1   2
ATOM      2  C   UNL     1     -23.454 -25.520  28.406  1.00  0.00     0.000 C 
BRANCH   2   3
ATOM      3  C   UNL     1     -24.203 -26.569  29.243  1.00  0.00     0.000 C 
BRANCH   3   4
ATOM      4  C   UNL     1     -25.635 -26.821  28.735  1.00  0.00     0.000 C 
BRANCH   4   5
ATOM      5  C   UNL     1     -26.096 -28.267  28.970  1.00  0.00     0.000 C 
BRANCH   5   6
ATOM      6  C   UNL     1     -27.062 -28.764  27.881  1.00  0.00     0.000 C 
BRANCH   6   7
ATOM      7  C   UNL     1     -26.744 -28.187  26.489  1.00  0.00     0.000 C 
BRANCH   7   8
ATOM      8  C   UNL     1     -26.939 -29.172  25.322  1.00  0.00     0.000 C 
BRANCH   8   9
ATOM      9  C   UNL     1     -28.323 -29.050  24.662  1.00  0.00     0.000 C 
BRANCH   9  10
ATOM     10  C   UNL     1     -28.397 -27.880  23.669  1.00  0.00     0.000 C 
BRANCH  10  11
ATOM     11  C   UNL     1     -29.557 -28.032  22.669  1.00  0.00     0.000 C 
BRANCH  11  12
ATOM     12  C   UNL     1     -29.300 -27.301  21.338  1.00  0.00     0.000 C 
BRANCH  12  13
ATOM     13  C   UNL     1     -30.304 -27.626  20.218  1.00  0.00     0.006 C 
BRANCH  13  14
ATOM     14  C   UNL     1     -30.725 -26.387  19.416  1.00  0.00     0.053 C 
BRANCH  14  15
ATOM     15  C   UNL     1     -30.924 -26.740  17.977  1.00  0.00     0.041 C 
ATOM     16  O   UNL     1     -31.460 -27.835  17.661  1.00  0.00    -0.550 OA
ATOM     17  O   UNL     1     -30.472 -25.883  16.982  1.00  0.00    -0.550 OA
ENDBRANCH  14  15
ENDBRANCH  13  14
ENDBRANCH  12  13
ENDBRANCH  11  12
ENDBRANCH  10  11
ENDBRANCH   9  10
ENDBRANCH   8   9
ENDBRANCH   7   8
ENDBRANCH   6   7
ENDBRANCH   5   6
ENDBRANCH   4   5
ENDBRANCH   3   4
ENDBRANCH   2   3
ENDBRANCH   1   2
BRANCH   1  18
ATOM     18  C   UNL     1     -22.544 -24.608  30.581  1.00  0.00     0.000 C 
BRANCH  18  19
ATOM     19  C   UNL     1     -23.395 -24.004  31.708  1.00  0.00     0.000 C 
BRANCH  19  20
ATOM     20  C   UNL     1     -23.281 -22.473  31.778  1.00  0.00     0.000 C 
BRANCH  20  21
ATOM     21  C   UNL     1     -21.837 -21.979  31.584  1.00  0.00     0.000 C 
BRANCH  21  22
ATOM     22  C   UNL     1     -21.770 -20.594  30.919  1.00  0.00     0.000 C 
BRANCH  22  23
ATOM     23  C   UNL     1     -21.703 -20.679  29.386  1.00  0.00     0.000 C 
BRANCH  23  24
ATOM     24  C   UNL     1     -20.967 -19.464  28.801  1.00  0.00    -0.000 C 
BRANCH  24  25
ATOM     25  C   UNL     1     -20.205 -18.665  29.869  1.00  0.00    -0.000 C 
BRANCH  25  26
ATOM     26  C   UNL     1     -18.992 -17.912  29.293  1.00  0.00    -0.000 C 
BRANCH  26  27
ATOM     27  C   UNL     1     -18.785 -16.535  29.943  1.00  0.00    -0.000 C 
BRANCH  27  28
ATOM     28  C   UNL     1     -17.917 -15.601  29.081  1.00  0.00    -0.000 C 
BRANCH  28  29
ATOM     29  C   UNL     1     -18.062 -15.883  27.577  1.00  0.00    -0.000 C 
BRANCH  29  30
ATOM     30  C   UNL     1     -16.804 -15.494  26.778  1.00  0.00    -0.000 C 
BRANCH  30  31
ATOM     31  C   UNL     1     -17.112 -15.218  25.298  1.00  0.00    -0.003 C 
ATOM     32  C   UNL     1     -16.438 -16.219  24.359  1.00  0.00     0.004 C 
ENDBRANCH  30  31
ENDBRANCH  29  30
ENDBRANCH  28  29
ENDBRANCH  27  28
ENDBRANCH  26  27
ENDBRANCH  25  26
ENDBRANCH  24  25
ENDBRANCH  23  24
ENDBRANCH  22  23
ENDBRANCH  21  22
ENDBRANCH  20  21
ENDBRANCH  19  20
ENDBRANCH  18  19
ENDBRANCH   1  18
TORSDOF 28
ENDMDL
MODEL 8
REMARK VINA RESULT:    -4.758      1.554      4.640
REMARK INTER + INTRA:         -15.165
REMARK INTER:                 -12.866
REMARK INTRA:                  -2.299
REMARK UNBOUND:                -2.619
REMARK SMILES CCCCCCCCCCCCCCCCCCCCCCCCCCCCCC(=O)[O-]
REMARK SMILES IDX 16 1 17 2 18 3 19 4 20 5 21 6 22 7 23 8 24 9 25 10 26 11
REMARK SMILES IDX 27 12 28 13 29 14 30 15 31 16 32 17 15 18 14 19 13 20 12 21
REMARK SMILES IDX 11 22 10 23 9 24 8 25 7 26 6 27 5 28 4 29 3 30 2 31 1 32
REMARK H PARENT
REMARK Flexibility Score: inf
ROOT
ATOM      1  C   UNL     1     -21.932 -24.761  28.390  1.00  0.00     0.000 C 
ENDROOT
BRANCH   1   2
ATOM      2  C   UNL     1     -21.513 -23.292  28.549  1.00  0.00     0.000 C 
BRANCH   2   3
ATOM      3  C   UNL     1     -22.618 -22.311  28.126  1.00  0.00     0.000 C 
BRANCH   3   4
ATOM      4  C   UNL     1     -22.497 -20.945  28.827  1.00  0.00     0.000 C 
BRANCH   4   5
ATOM      5  C   UNL     1     -21.640 -19.950  28.030  1.00  0.00     0.000 C 
BRANCH   5   6
ATOM      6  C   UNL     1     -20.692 -19.135  28.928  1.00  0.00     0.000 C 
BRANCH   6   7
ATOM      7  C   UNL     1     -21.040 -19.247  30.423  1.00  0.00     0.000 C 
BRANCH   7   8
ATOM      8  C   UNL     1     -20.352 -18.206  31.326  1.00  0.00     0.000 C 
BRANCH   8   9
ATOM      9  C   UNL     1     -18.819 -18.228  31.202  1.00  0.00     0.000 C 
BRANCH   9  10
ATOM     10  C   UNL     1     -18.199 -16.830  31.350  1.00  0.00     0.000 C 
BRANCH  10  11
ATOM     11  C   UNL     1     -18.352 -15.981  30.076  1.00  0.00     0.000 C 
BRANCH  11  12
ATOM     12  C   UNL     1     -17.976 -16.749  28.795  1.00  0.00     0.000 C 
BRANCH  12  13
ATOM     13  C   UNL     1     -18.288 -16.010  27.482  1.00  0.00     0.006 C 
BRANCH  13  14
ATOM     14  C   UNL     1     -17.030 -15.493  26.774  1.00  0.00     0.053 C 
BRANCH  14  15
ATOM     15  C   UNL     1     -17.203 -15.556  25.290  1.00  0.00     0.041 C 
ATOM     16  O   UNL     1     -16.239 -15.892  24.553  1.00  0.00    -0.550 OA
ATOM     17  O   UNL     1     -18.414 -15.194  24.716  1.00  0.00    -0.550 OA
ENDBRANCH  14  15
ENDBRANCH  13  14
ENDBRANCH  12  13
ENDBRANCH  11  12
ENDBRANCH  10  11
ENDBRANCH   9  10
ENDBRANCH   8   9
ENDBRANCH   7   8
ENDBRANCH   6   7
ENDBRANCH   5   6
ENDBRANCH   4   5
ENDBRANCH   3   4
ENDBRANCH   2   3
ENDBRANCH   1   2
BRANCH   1  18
ATOM     18  C   UNL     1     -23.459 -24.898  28.393  1.00  0.00     0.000 C 
BRANCH  18  19
ATOM     19  C   UNL     1     -23.881 -26.374  28.366  1.00  0.00     0.000 C 
BRANCH  19  20
ATOM     20  C   UNL     1     -25.380 -26.554  28.079  1.00  0.00     0.000 C 
BRANCH  20  21
ATOM     21  C   UNL     1     -25.742 -28.004  27.714  1.00  0.00     0.000 C 
BRANCH  21  22
ATOM     22  C   UNL     1     -26.948 -28.531  28.511  1.00  0.00     0.000 C 
BRANCH  22  23
ATOM     23  C   UNL     1     -26.537 -29.175  29.843  1.00  0.00     0.000 C 
BRANCH  23  24
ATOM     24  C   UNL     1     -25.571 -28.266  30.618  1.00  0.00    -0.000 C 
BRANCH  24  25
ATOM     25  C   UNL     1     -26.300 -27.181  31.424  1.00  0.00    -0.000 C 
BRANCH  25  26
ATOM     26  C   UNL     1     -25.498 -25.870  31.515  1.00  0.00    -0.000 C 
BRANCH  26  27
ATOM     27  C   UNL     1     -23.999 -26.108  31.761  1.00  0.00    -0.000 C 
BRANCH  27  28
ATOM     28  C   UNL     1     -23.165 -24.825  31.598  1.00  0.00    -0.000 C 
BRANCH  28  29
ATOM     29  C   UNL     1     -23.903 -23.574  32.100  1.00  0.00    -0.000 C 
BRANCH  29  30
ATOM     30  C   UNL     1     -23.101 -22.280  31.869  1.00  0.00    -0.000 C 
BRANCH  30  31
ATOM     31  C   UNL     1     -21.603 -22.547  31.658  1.00  0.00    -0.003 C 
ATOM     32  C   UNL     1     -20.717 -21.682  32.555  1.00  0.00     0.004 C 
ENDBRANCH  30  31
ENDBRANCH  29  30
ENDBRANCH  28  29
ENDBRANCH  27  28
ENDBRANCH  26  27
ENDBRANCH  25  26
ENDBRANCH  24  25
ENDBRANCH  23  24
ENDBRANCH  22  23
ENDBRANCH  21  22
ENDBRANCH  20  21
ENDBRANCH  19  20
ENDBRANCH  18  19
ENDBRANCH   1  18
TORSDOF 28
ENDMDL
MODEL 9
REMARK VINA RESULT:    -4.661      6.171     14.216
REMARK INTER + INTRA:         -14.909
REMARK INTER:                 -13.832
REMARK INTRA:                  -1.077
REMARK UNBOUND:                -2.619
REMARK SMILES CCCCCCCCCCCCCCCCCCCCCCCCCCCCCC(=O)[O-]
REMARK SMILES IDX 16 1 17 2 18 3 19 4 20 5 21 6 22 7 23 8 24 9 25 10 26 11
REMARK SMILES IDX 27 12 28 13 29 14 30 15 31 16 32 17 15 18 14 19 13 20 12 21
REMARK SMILES IDX 11 22 10 23 9 24 8 25 7 26 6 27 5 28 4 29 3 30 2 31 1 32
REMARK H PARENT
REMARK Flexibility Score: inf
ROOT
ATOM      1  C   UNL     1     -18.049 -16.422  30.296  1.00  0.00     0.000 C 
ENDROOT
BRANCH   1   2
ATOM      2  C   UNL     1     -19.509 -16.897  30.333  1.00  0.00     0.000 C 
BRANCH   2   3
ATOM      3  C   UNL     1     -19.672 -18.262  31.022  1.00  0.00     0.000 C 
BRANCH   3   4
ATOM      4  C   UNL     1     -20.492 -19.257  30.180  1.00  0.00     0.000 C 
BRANCH   4   5
ATOM      5  C   UNL     1     -21.256 -20.269  31.047  1.00  0.00     0.000 C 
BRANCH   5   6
ATOM      6  C   UNL     1     -22.261 -21.103  30.234  1.00  0.00     0.000 C 
BRANCH   6   7
ATOM      7  C   UNL     1     -21.987 -22.616  30.313  1.00  0.00     0.000 C 
BRANCH   7   8
ATOM      8  C   UNL     1     -22.376 -23.410  29.053  1.00  0.00     0.000 C 
BRANCH   8   9
ATOM      9  C   UNL     1     -23.004 -24.776  29.377  1.00  0.00     0.000 C 
BRANCH   9  10
ATOM     10  C   UNL     1     -23.446 -24.884  30.845  1.00  0.00     0.000 C 
BRANCH  10  11
ATOM     11  C   UNL     1     -24.913 -25.328  30.985  1.00  0.00     0.000 C 
BRANCH  11  12
ATOM     12  C   UNL     1     -25.078 -26.859  30.983  1.00  0.00     0.000 C 
BRANCH  12  13
ATOM     13  C   UNL     1     -24.738 -27.544  29.648  1.00  0.00     0.006 C 
BRANCH  13  14
ATOM     14  C   UNL     1     -25.695 -27.153  28.515  1.00  0.00     0.053 C 
BRANCH  14  15
ATOM     15  C   UNL     1     -26.478 -28.343  28.059  1.00  0.00     0.041 C 
ATOM     16  O   UNL     1     -26.847 -28.437  26.859  1.00  0.00    -0.550 OA
ATOM     17  O   UNL     1     -26.846 -29.324  28.971  1.00  0.00    -0.550 OA
ENDBRANCH  14  15
ENDBRANCH  13  14
ENDBRANCH  12  13
ENDBRANCH  11  12
ENDBRANCH  10  11
ENDBRANCH   9  10
ENDBRANCH   8   9
ENDBRANCH   7   8
ENDBRANCH   6   7
ENDBRANCH   5   6
ENDBRANCH   4   5
ENDBRANCH   3   4
ENDBRANCH   2   3
ENDBRANCH   1   2
BRANCH   1  18
ATOM     18  C   UNL     1     -17.801 -15.509  29.090  1.00  0.00     0.000 C 
BRANCH  18  19
ATOM     19  C   UNL     1     -18.338 -16.143  27.798  1.00  0.00     0.000 C 
BRANCH  19  20
ATOM     20  C   UNL     1     -17.251 -16.305  26.724  1.00  0.00     0.000 C 
BRANCH  20  21
ATOM     21  C   UNL     1     -17.456 -15.360  25.528  1.00  0.00     0.000 C 
BRANCH  21  22
ATOM     22  C   UNL     1     -16.189 -15.209  24.669  1.00  0.00     0.000 C 
BRANCH  22  23
ATOM     23  C   UNL     1     -15.969 -16.405  23.730  1.00  0.00     0.000 C 
BRANCH  23  24
ATOM     24  C   UNL     1     -14.751 -16.172  22.822  1.00  0.00    -0.000 C 
BRANCH  24  25
ATOM     25  C   UNL     1     -14.926 -16.800  21.430  1.00  0.00    -0.000 C 
BRANCH  25  26
ATOM     26  C   UNL     1     -13.636 -16.747  20.591  1.00  0.00    -0.000 C 
BRANCH  26  27
ATOM     27  C   UNL     1     -13.885 -17.033  19.101  1.00  0.00    -0.000 C 
BRANCH  27  28
ATOM     28  C   UNL     1     -13.275 -15.957  18.185  1.00  0.00    -0.000 C 
BRANCH  28  29
ATOM     29  C   UNL     1     -11.979 -16.427  17.506  1.00  0.00    -0.000 C 
BRANCH  29  30
ATOM     30  C   UNL     1     -11.997 -16.213  15.981  1.00  0.00    -0.000 C 
BRANCH  30  31
ATOM     31  C   UNL     1     -12.366 -17.492  15.213  1.00  0.00    -0.003 C 
ATOM     32  C   UNL     1     -12.281 -18.746  16.082  1.00  0.00     0.004 C 
ENDBRANCH  30  31
ENDBRANCH  29  30
ENDBRANCH  28  29
ENDBRANCH  27  28
ENDBRANCH  26  27
ENDBRANCH  25  26
ENDBRANCH  24  25
ENDBRANCH  23  24
ENDBRANCH  22  23
ENDBRANCH  21  22
ENDBRANCH  20  21
ENDBRANCH  19  20
ENDBRANCH  18  19
ENDBRANCH   1  18
TORSDOF 28
ENDMDL
