MODEL 1
REMARK VINA RESULT:    -6.553      0.000      0.000
REMARK INTER + INTRA:          -6.553
REMARK INTER:                  -6.553
REMARK INTRA:                   0.000
REMARK UNBOUND:                 0.000
REMARK SMILES CC1=CC(=O)[C@@H]2C[C@H]1C2(C)C
REMARK SMILES IDX 1 1 2 2 3 3 4 4 5 5 6 6 7 7 8 8 9 9 10 10 11 11
REMARK H PARENT
REMARK Flexibility Score: inf
ROOT
ATOM      1  C   UNL     1       0.783  16.778  23.057  1.00  0.00     0.040 C 
ATOM      2  C   UNL     1      -0.440  16.159  22.457  1.00  0.00    -0.066 C 
ATOM      3  C   UNL     1      -1.153  16.769  21.468  1.00  0.00     0.047 C 
ATOM      4  C   UNL     1      -2.354  16.028  20.963  1.00  0.00     0.159 C 
ATOM      5  O   UNL     1      -3.069  16.466  20.024  1.00  0.00    -0.295 OA
ATOM      6  C   UNL     1      -2.650  14.704  21.669  1.00  0.00     0.067 C 
ATOM      7  C   UNL     1      -2.500  15.035  23.170  1.00  0.00     0.021 C 
ATOM      8  C   UNL     1      -0.982  14.813  22.978  1.00  0.00     0.022 C 
ATOM      9  C   UNL     1      -1.327  13.891  21.773  1.00  0.00    -0.019 C 
ATOM     10  C   UNL     1      -1.570  12.423  22.204  1.00  0.00     0.012 C 
ATOM     11  C   UNL     1      -0.365  13.888  20.552  1.00  0.00     0.012 C 
ENDROOT
TORSDOF 0
ENDMDL
MODEL 2
REMARK VINA RESULT:    -6.547      5.029      6.973
REMARK INTER + INTRA:          -6.547
REMARK INTER:                  -6.547
REMARK INTRA:                   0.000
REMARK UNBOUND:                 0.000
REMARK SMILES CC1=CC(=O)[C@@H]2C[C@H]1C2(C)C
REMARK SMILES IDX 1 1 2 2 3 3 4 4 5 5 6 6 7 7 8 8 9 9 10 10 11 11
REMARK H PARENT
REMARK Flexibility Score: inf
ROOT
ATOM      1  C   UNL     1      -0.755   8.327  23.232  1.00  0.00     0.040 C 
ATOM      2  C   UNL     1       0.468   8.909  22.597  1.00  0.00    -0.066 C 
ATOM      3  C   UNL     1       1.147   8.268  21.604  1.00  0.00     0.047 C 
ATOM      4  C   UNL     1       2.353   8.975  21.062  1.00  0.00     0.159 C 
ATOM      5  O   UNL     1       3.038   8.507  20.116  1.00  0.00    -0.295 OA
ATOM      6  C   UNL     1       2.693  10.303  21.741  1.00  0.00     0.067 C 
ATOM      7  C   UNL     1       2.567   9.998  23.250  1.00  0.00     0.021 C 
ATOM      8  C   UNL     1       1.050  10.250  23.086  1.00  0.00     0.022 C 
ATOM      9  C   UNL     1       1.390  11.146  21.859  1.00  0.00    -0.019 C 
ATOM     10  C   UNL     1       1.673  12.615  22.262  1.00  0.00     0.012 C 
ATOM     11  C   UNL     1       0.402  11.151  20.658  1.00  0.00     0.012 C 
ENDROOT
TORSDOF 0
ENDMDL
MODEL 3
REMARK VINA RESULT:    -6.170      4.365      5.560
REMARK INTER + INTRA:          -6.170
REMARK INTER:                  -6.170
REMARK INTRA:                   0.000
REMARK UNBOUND:                 0.000
REMARK SMILES CC1=CC(=O)[C@@H]2C[C@H]1C2(C)C
REMARK SMILES IDX 1 1 2 2 3 3 4 4 5 5 6 6 7 7 8 8 9 9 10 10 11 11
REMARK H PARENT
REMARK Flexibility Score: inf
ROOT
ATOM      1  C   UNL     1       3.078  13.525  22.124  1.00  0.00     0.040 C 
ATOM      2  C   UNL     1       2.272  12.265  22.067  1.00  0.00    -0.066 C 
ATOM      3  C   UNL     1       0.921  12.258  22.248  1.00  0.00     0.047 C 
ATOM      4  C   UNL     1       0.248  10.921  22.161  1.00  0.00     0.159 C 
ATOM      5  O   UNL     1      -0.998  10.787  22.269  1.00  0.00    -0.295 OA
ATOM      6  C   UNL     1       1.183   9.732  21.935  1.00  0.00     0.067 C 
ATOM      7  C   UNL     1       2.342   9.969  22.927  1.00  0.00     0.021 C 
ATOM      8  C   UNL     1       2.954  10.899  21.854  1.00  0.00     0.022 C 
ATOM      9  C   UNL     1       2.167  10.088  20.784  1.00  0.00    -0.019 C 
ATOM     10  C   UNL     1       2.958   8.854  20.281  1.00  0.00     0.012 C 
ATOM     11  C   UNL     1       1.613  10.849  19.547  1.00  0.00     0.012 C 
ENDROOT
TORSDOF 0
ENDMDL
MODEL 4
REMARK VINA RESULT:    -6.135      2.025      3.620
REMARK INTER + INTRA:          -6.135
REMARK INTER:                  -6.135
REMARK INTRA:                   0.000
REMARK UNBOUND:                 0.000
REMARK SMILES CC1=CC(=O)[C@@H]2C[C@H]1C2(C)C
REMARK SMILES IDX 1 1 2 2 3 3 4 4 5 5 6 6 7 7 8 8 9 9 10 10 11 11
REMARK H PARENT
REMARK Flexibility Score: inf
ROOT
ATOM      1  C   UNL     1      -3.008  11.514  22.127  1.00  0.00     0.040 C 
ATOM      2  C   UNL     1      -2.202  12.769  22.015  1.00  0.00    -0.066 C 
ATOM      3  C   UNL     1      -0.846  12.777  22.152  1.00  0.00     0.047 C 
ATOM      4  C   UNL     1      -0.173  14.109  22.012  1.00  0.00     0.159 C 
ATOM      5  O   UNL     1       1.077  14.241  22.075  1.00  0.00    -0.295 OA
ATOM      6  C   UNL     1      -1.112  15.296  21.789  1.00  0.00     0.067 C 
ATOM      7  C   UNL     1      -2.239  15.085  22.823  1.00  0.00     0.021 C 
ATOM      8  C   UNL     1      -2.888  14.132  21.793  1.00  0.00     0.022 C 
ATOM      9  C   UNL     1      -2.134  14.916  20.679  1.00  0.00    -0.019 C 
ATOM     10  C   UNL     1      -2.938  16.140  20.174  1.00  0.00     0.012 C 
ATOM     11  C   UNL     1      -1.623  14.124  19.443  1.00  0.00     0.012 C 
ENDROOT
TORSDOF 0
ENDMDL
MODEL 5
REMARK VINA RESULT:    -6.114      5.226      6.148
REMARK INTER + INTRA:          -6.114
REMARK INTER:                  -6.114
REMARK INTRA:                   0.000
REMARK UNBOUND:                 0.000
REMARK SMILES CC1=CC(=O)[C@@H]2C[C@H]1C2(C)C
REMARK SMILES IDX 1 1 2 2 3 3 4 4 5 5 6 6 7 7 8 8 9 9 10 10 11 11
REMARK H PARENT
REMARK Flexibility Score: inf
ROOT
ATOM      1  C   UNL     1       3.195  13.277  22.018  1.00  0.00     0.040 C 
ATOM      2  C   UNL     1       2.619  11.940  21.671  1.00  0.00    -0.066 C 
ATOM      3  C   UNL     1       3.316  11.011  20.957  1.00  0.00     0.047 C 
ATOM      4  C   UNL     1       2.610   9.716  20.688  1.00  0.00     0.159 C 
ATOM      5  O   UNL     1       3.162   8.764  20.077  1.00  0.00    -0.295 OA
ATOM      6  C   UNL     1       1.174   9.634  21.206  1.00  0.00     0.067 C 
ATOM      7  C   UNL     1       0.543  10.979  20.785  1.00  0.00     0.021 C 
ATOM      8  C   UNL     1       1.174  11.576  22.065  1.00  0.00     0.022 C 
ATOM      9  C   UNL     1       1.148  10.145  22.676  1.00  0.00    -0.019 C 
ATOM     10  C   UNL     1      -0.193   9.831  23.386  1.00  0.00     0.012 C 
ATOM     11  C   UNL     1       2.309   9.730  23.623  1.00  0.00     0.012 C 
ENDROOT
TORSDOF 0
ENDMDL
MODEL 6
REMARK VINA RESULT:    -6.063      1.003      3.234
REMARK INTER + INTRA:          -6.063
REMARK INTER:                  -6.063
REMARK INTRA:                   0.000
REMARK UNBOUND:                 0.000
REMARK SMILES CC1=CC(=O)[C@@H]2C[C@H]1C2(C)C
REMARK SMILES IDX 1 1 2 2 3 3 4 4 5 5 6 6 7 7 8 8 9 9 10 10 11 11
REMARK H PARENT
REMARK Flexibility Score: inf
ROOT
ATOM      1  C   UNL     1      -3.011  11.719  22.082  1.00  0.00     0.040 C 
ATOM      2  C   UNL     1      -2.480  13.064  21.695  1.00  0.00    -0.066 C 
ATOM      3  C   UNL     1      -3.196  13.936  20.930  1.00  0.00     0.047 C 
ATOM      4  C   UNL     1      -2.535  15.246  20.625  1.00  0.00     0.159 C 
ATOM      5  O   UNL     1      -3.109  16.151  19.964  1.00  0.00    -0.295 OA
ATOM      6  C   UNL     1      -1.116  15.407  21.171  1.00  0.00     0.067 C 
ATOM      7  C   UNL     1      -0.423  14.073  20.818  1.00  0.00     0.021 C 
ATOM      8  C   UNL     1      -1.059  13.501  22.106  1.00  0.00     0.022 C 
ATOM      9  C   UNL     1      -1.105  14.955  22.660  1.00  0.00    -0.019 C 
ATOM     10  C   UNL     1       0.206  15.350  23.387  1.00  0.00     0.012 C 
ATOM     11  C   UNL     1      -2.304  15.359  23.564  1.00  0.00     0.012 C 
ENDROOT
TORSDOF 0
ENDMDL
MODEL 7
REMARK VINA RESULT:    -5.875      4.649      6.071
REMARK INTER + INTRA:          -5.875
REMARK INTER:                  -5.875
REMARK INTRA:                   0.000
REMARK UNBOUND:                 0.000
REMARK SMILES CC1=CC(=O)[C@@H]2C[C@H]1C2(C)C
REMARK SMILES IDX 1 1 2 2 3 3 4 4 5 5 6 6 7 7 8 8 9 9 10 10 11 11
REMARK H PARENT
REMARK Flexibility Score: inf
ROOT
ATOM      1  C   UNL     1      -0.088  12.854  22.586  1.00  0.00     0.040 C 
ATOM      2  C   UNL     1       1.031  12.044  22.010  1.00  0.00    -0.066 C 
ATOM      3  C   UNL     1       2.326  12.472  22.035  1.00  0.00     0.047 C 
ATOM      4  C   UNL     1       3.339  11.553  21.421  1.00  0.00     0.159 C 
ATOM      5  O   UNL     1       4.570  11.814  21.420  1.00  0.00    -0.295 OA
ATOM      6  C   UNL     1       2.772  10.277  20.797  1.00  0.00     0.067 C 
ATOM      7  C   UNL     1       1.553  10.765  19.983  1.00  0.00     0.021 C 
ATOM      8  C   UNL     1       0.754  10.701  21.306  1.00  0.00     0.022 C 
ATOM      9  C   UNL     1       1.774   9.635  21.804  1.00  0.00    -0.019 C 
ATOM     10  C   UNL     1       1.368   8.196  21.395  1.00  0.00     0.012 C 
ATOM     11  C   UNL     1       2.149   9.626  23.312  1.00  0.00     0.012 C 
ENDROOT
TORSDOF 0
ENDMDL
MODEL 8
REMARK VINA RESULT:    -5.822      1.901      3.471
REMARK INTER + INTRA:          -5.822
REMARK INTER:                  -5.822
REMARK INTRA:                   0.000
REMARK UNBOUND:                 0.000
REMARK SMILES CC1=CC(=O)[C@@H]2C[C@H]1C2(C)C
REMARK SMILES IDX 1 1 2 2 3 3 4 4 5 5 6 6 7 7 8 8 9 9 10 10 11 11
REMARK H PARENT
REMARK Flexibility Score: inf
ROOT
ATOM      1  C   UNL     1       0.377  10.957  22.919  1.00  0.00     0.040 C 
ATOM      2  C   UNL     1      -0.077  12.160  22.153  1.00  0.00    -0.066 C 
ATOM      3  C   UNL     1      -0.228  12.145  20.798  1.00  0.00     0.047 C 
ATOM      4  C   UNL     1      -0.691  13.424  20.169  1.00  0.00     0.159 C 
ATOM      5  O   UNL     1      -0.908  13.526  18.933  1.00  0.00    -0.295 OA
ATOM      6  C   UNL     1      -0.881  14.597  21.133  1.00  0.00     0.067 C 
ATOM      7  C   UNL     1       0.384  14.565  22.018  1.00  0.00     0.021 C 
ATOM      8  C   UNL     1      -0.343  13.499  22.869  1.00  0.00     0.022 C 
ATOM      9  C   UNL     1      -1.689  14.098  22.365  1.00  0.00    -0.019 C 
ATOM     10  C   UNL     1      -2.185  15.265  23.256  1.00  0.00     0.012 C 
ATOM     11  C   UNL     1      -2.879  13.128  22.125  1.00  0.00     0.012 C 
ENDROOT
TORSDOF 0
ENDMDL
MODEL 9
REMARK VINA RESULT:    -5.790      3.501      4.712
REMARK INTER + INTRA:          -5.790
REMARK INTER:                  -5.790
REMARK INTRA:                   0.000
REMARK UNBOUND:                 0.000
REMARK SMILES CC1=CC(=O)[C@@H]2C[C@H]1C2(C)C
REMARK SMILES IDX 1 1 2 2 3 3 4 4 5 5 6 6 7 7 8 8 9 9 10 10 11 11
REMARK H PARENT
REMARK Flexibility Score: inf
ROOT
ATOM      1  C   UNL     1      -0.157  14.081  22.932  1.00  0.00     0.040 C 
ATOM      2  C   UNL     1       0.267  12.871  22.161  1.00  0.00    -0.066 C 
ATOM      3  C   UNL     1       0.422  12.889  20.807  1.00  0.00     0.047 C 
ATOM      4  C   UNL     1       0.853  11.601  20.172  1.00  0.00     0.159 C 
ATOM      5  O   UNL     1       1.071  11.500  18.937  1.00  0.00    -0.295 OA
ATOM      6  C   UNL     1       1.008  10.419  21.130  1.00  0.00     0.067 C 
ATOM      7  C   UNL     1      -0.259  10.479  22.012  1.00  0.00     0.021 C 
ATOM      8  C   UNL     1       0.494  11.521  22.871  1.00  0.00     0.022 C 
ATOM      9  C   UNL     1       1.825  10.890  22.368  1.00  0.00    -0.019 C 
ATOM     10  C   UNL     1       2.287   9.705  23.254  1.00  0.00     0.012 C 
ATOM     11  C   UNL     1       3.042  11.829  22.136  1.00  0.00     0.012 C 
ENDROOT
TORSDOF 0
ENDMDL
