MODEL 1
REMARK VINA RESULT:    -4.424      0.000      0.000
REMARK INTER + INTRA:          -8.508
REMARK INTER:                  -7.527
REMARK INTRA:                  -0.981
REMARK UNBOUND:                -0.981
REMARK SMILES CCCCCCCCCCCCCC(=O)[O-]
REMARK SMILES IDX 8 1 9 2 10 3 11 4 12 5 13 6 14 7 15 8 16 9 7 10 6 11 5 12
REMARK SMILES IDX 4 13 3 14 2 15 1 16
REMARK H PARENT
REMARK Flexibility Score: inf
ROOT
ATOM      1  C   UNL     1      31.988  77.632  10.935  1.00  0.00     0.000 C 
ENDROOT
BRANCH   1   2
ATOM      2  C   UNL     1      32.703  78.775  11.671  1.00  0.00     0.000 C 
BRANCH   2   3
ATOM      3  C   UNL     1      32.951  78.456  13.154  1.00  0.00     0.000 C 
BRANCH   3   4
ATOM      4  C   UNL     1      31.794  78.960  14.025  1.00  0.00     0.000 C 
BRANCH   4   5
ATOM      5  C   UNL     1      32.320  79.677  15.277  1.00  0.00     0.006 C 
BRANCH   5   6
ATOM      6  C   UNL     1      31.791  81.113  15.390  1.00  0.00     0.053 C 
BRANCH   6   7
ATOM      7  C   UNL     1      32.488  81.878  16.473  1.00  0.00     0.041 C 
ATOM      8  O   UNL     1      33.100  82.945  16.201  1.00  0.00    -0.550 OA
ATOM      9  O   UNL     1      32.432  81.431  17.787  1.00  0.00    -0.550 OA
ENDBRANCH   6   7
ENDBRANCH   5   6
ENDBRANCH   4   5
ENDBRANCH   3   4
ENDBRANCH   2   3
ENDBRANCH   1   2
BRANCH   1  10
ATOM     10  C   UNL     1      32.196  77.688   9.411  1.00  0.00     0.000 C 
BRANCH  10  11
ATOM     11  C   UNL     1      33.677  77.902   9.033  1.00  0.00    -0.000 C 
BRANCH  11  12
ATOM     12  C   UNL     1      34.226  76.843   8.057  1.00  0.00    -0.000 C 
BRANCH  12  13
ATOM     13  C   UNL     1      35.029  75.709   8.718  1.00  0.00    -0.000 C 
BRANCH  13  14
ATOM     14  C   UNL     1      35.221  75.918  10.227  1.00  0.00    -0.000 C 
BRANCH  14  15
ATOM     15  C   UNL     1      36.588  76.545  10.522  1.00  0.00    -0.003 C 
ATOM     16  C   UNL     1      36.471  77.669  11.547  1.00  0.00     0.004 C 
ENDBRANCH  14  15
ENDBRANCH  13  14
ENDBRANCH  12  13
ENDBRANCH  11  12
ENDBRANCH  10  11
ENDBRANCH   1  10
TORSDOF 12
ENDMDL
MODEL 2
REMARK VINA RESULT:    -4.306      0.977      1.935
REMARK INTER + INTRA:          -8.308
REMARK INTER:                  -6.844
REMARK INTRA:                  -1.464
REMARK UNBOUND:                -0.981
REMARK SMILES CCCCCCCCCCCCCC(=O)[O-]
REMARK SMILES IDX 8 1 9 2 10 3 11 4 12 5 13 6 14 7 15 8 16 9 7 10 6 11 5 12
REMARK SMILES IDX 4 13 3 14 2 15 1 16
REMARK H PARENT
REMARK Flexibility Score: inf
ROOT
ATOM      1  C   UNL     1      33.306  78.170  12.614  1.00  0.00     0.000 C 
ENDROOT
BRANCH   1   2
ATOM      2  C   UNL     1      32.149  77.467  13.341  1.00  0.00     0.000 C 
BRANCH   2   3
ATOM      3  C   UNL     1      31.787  78.151  14.669  1.00  0.00     0.000 C 
BRANCH   3   4
ATOM      4  C   UNL     1      30.722  79.234  14.456  1.00  0.00     0.000 C 
BRANCH   4   5
ATOM      5  C   UNL     1      31.295  80.631  14.736  1.00  0.00     0.006 C 
BRANCH   5   6
ATOM      6  C   UNL     1      32.460  80.593  15.734  1.00  0.00     0.053 C 
BRANCH   6   7
ATOM      7  C   UNL     1      32.496  81.820  16.593  1.00  0.00     0.041 C 
ATOM      8  O   UNL     1      33.171  82.822  16.239  1.00  0.00    -0.550 OA
ATOM      9  O   UNL     1      31.757  81.867  17.770  1.00  0.00    -0.550 OA
ENDBRANCH   6   7
ENDBRANCH   5   6
ENDBRANCH   4   5
ENDBRANCH   3   4
ENDBRANCH   2   3
ENDBRANCH   1   2
BRANCH   1  10
ATOM     10  C   UNL     1      32.836  78.959  11.379  1.00  0.00     0.000 C 
BRANCH  10  11
ATOM     11  C   UNL     1      31.673  78.257  10.648  1.00  0.00    -0.000 C 
BRANCH  11  12
ATOM     12  C   UNL     1      32.026  77.794   9.221  1.00  0.00    -0.000 C 
BRANCH  12  13
ATOM     13  C   UNL     1      33.498  77.997   8.822  1.00  0.00    -0.000 C 
BRANCH  13  14
ATOM     14  C   UNL     1      34.269  76.674   8.702  1.00  0.00    -0.000 C 
BRANCH  14  15
ATOM     15  C   UNL     1      35.299  76.539   9.830  1.00  0.00    -0.003 C 
ATOM     16  C   UNL     1      34.911  75.427  10.802  1.00  0.00     0.004 C 
ENDBRANCH  14  15
ENDBRANCH  13  14
ENDBRANCH  12  13
ENDBRANCH  11  12
ENDBRANCH  10  11
ENDBRANCH   1  10
TORSDOF 12
ENDMDL
MODEL 3
REMARK VINA RESULT:    -4.274     12.085     14.888
REMARK INTER + INTRA:          -8.254
REMARK INTER:                  -6.847
REMARK INTRA:                  -1.407
REMARK UNBOUND:                -0.981
REMARK SMILES CCCCCCCCCCCCCC(=O)[O-]
REMARK SMILES IDX 8 1 9 2 10 3 11 4 12 5 13 6 14 7 15 8 16 9 7 10 6 11 5 12
REMARK SMILES IDX 4 13 3 14 2 15 1 16
REMARK H PARENT
REMARK Flexibility Score: inf
ROOT
ATOM      1  C   UNL     1      46.239  71.859  12.130  1.00  0.00     0.000 C 
ENDROOT
BRANCH   1   2
ATOM      2  C   UNL     1      45.895  72.213  10.675  1.00  0.00     0.000 C 
BRANCH   2   3
ATOM      3  C   UNL     1      45.703  73.724  10.467  1.00  0.00     0.000 C 
BRANCH   3   4
ATOM      4  C   UNL     1      44.375  74.017   9.760  1.00  0.00     0.000 C 
BRANCH   4   5
ATOM      5  C   UNL     1      43.804  72.746   9.112  1.00  0.00     0.006 C 
BRANCH   5   6
ATOM      6  C   UNL     1      43.404  72.971   7.648  1.00  0.00     0.053 C 
BRANCH   6   7
ATOM      7  C   UNL     1      44.553  72.736   6.716  1.00  0.00     0.041 C 
ATOM      8  O   UNL     1      44.691  71.621   6.148  1.00  0.00    -0.550 OA
ATOM      9  O   UNL     1      45.453  73.762   6.449  1.00  0.00    -0.550 OA
ENDBRANCH   6   7
ENDBRANCH   5   6
ENDBRANCH   4   5
ENDBRANCH   3   4
ENDBRANCH   2   3
ENDBRANCH   1   2
BRANCH   1  10
ATOM     10  C   UNL     1      47.489  72.598  12.638  1.00  0.00     0.000 C 
BRANCH  10  11
ATOM     11  C   UNL     1      47.679  72.442  14.162  1.00  0.00    -0.000 C 
BRANCH  11  12
ATOM     12  C   UNL     1      46.615  73.178  14.999  1.00  0.00    -0.000 C 
BRANCH  12  13
ATOM     13  C   UNL     1      46.746  74.711  15.010  1.00  0.00    -0.000 C 
BRANCH  13  14
ATOM     14  C   UNL     1      45.470  75.420  14.534  1.00  0.00    -0.000 C 
BRANCH  14  15
ATOM     15  C   UNL     1      44.458  74.410  13.980  1.00  0.00    -0.003 C 
ATOM     16  C   UNL     1      43.276  75.117  13.323  1.00  0.00     0.004 C 
ENDBRANCH  14  15
ENDBRANCH  13  14
ENDBRANCH  12  13
ENDBRANCH  11  12
ENDBRANCH  10  11
ENDBRANCH   1  10
TORSDOF 12
ENDMDL
MODEL 4
REMARK VINA RESULT:    -4.270      1.040      2.113
REMARK INTER + INTRA:          -8.247
REMARK INTER:                  -7.157
REMARK INTRA:                  -1.090
REMARK UNBOUND:                -0.981
REMARK SMILES CCCCCCCCCCCCCC(=O)[O-]
REMARK SMILES IDX 8 1 9 2 10 3 11 4 12 5 13 6 14 7 15 8 16 9 7 10 6 11 5 12
REMARK SMILES IDX 4 13 3 14 2 15 1 16
REMARK H PARENT
REMARK Flexibility Score: inf
ROOT
ATOM      1  C   UNL     1      32.021  77.701  12.205  1.00  0.00     0.000 C 
ENDROOT
BRANCH   1   2
ATOM      2  C   UNL     1      32.237  77.632  13.725  1.00  0.00     0.000 C 
BRANCH   2   3
ATOM      3  C   UNL     1      33.400  78.521  14.195  1.00  0.00     0.000 C 
BRANCH   3   4
ATOM      4  C   UNL     1      33.018  79.303  15.457  1.00  0.00     0.000 C 
BRANCH   4   5
ATOM      5  C   UNL     1      31.605  79.891  15.334  1.00  0.00     0.006 C 
BRANCH   5   6
ATOM      6  C   UNL     1      31.617  81.425  15.278  1.00  0.00     0.053 C 
BRANCH   6   7
ATOM      7  C   UNL     1      32.375  82.017  16.427  1.00  0.00     0.041 C 
ATOM      8  O   UNL     1      33.350  82.785  16.214  1.00  0.00    -0.550 OA
ATOM      9  O   UNL     1      31.984  81.745  17.733  1.00  0.00    -0.550 OA
ENDBRANCH   6   7
ENDBRANCH   5   6
ENDBRANCH   4   5
ENDBRANCH   3   4
ENDBRANCH   2   3
ENDBRANCH   1   2
BRANCH   1  10
ATOM     10  C   UNL     1      32.939  78.732  11.525  1.00  0.00     0.000 C 
BRANCH  10  11
ATOM     11  C   UNL     1      33.896  78.076  10.506  1.00  0.00    -0.000 C 
BRANCH  11  12
ATOM     12  C   UNL     1      35.285  77.744  11.086  1.00  0.00    -0.000 C 
BRANCH  12  13
ATOM     13  C   UNL     1      35.842  76.368  10.682  1.00  0.00    -0.000 C 
BRANCH  13  14
ATOM     14  C   UNL     1      34.891  75.589   9.761  1.00  0.00    -0.000 C 
BRANCH  14  15
ATOM     15  C   UNL     1      35.436  75.540   8.329  1.00  0.00    -0.003 C 
ATOM     16  C   UNL     1      34.334  75.814   7.309  1.00  0.00     0.004 C 
ENDBRANCH  14  15
ENDBRANCH  13  14
ENDBRANCH  12  13
ENDBRANCH  11  12
ENDBRANCH  10  11
ENDBRANCH   1  10
TORSDOF 12
ENDMDL
MODEL 5
REMARK VINA RESULT:    -4.264      1.967      3.468
REMARK INTER + INTRA:          -8.236
REMARK INTER:                  -6.341
REMARK INTRA:                  -1.895
REMARK UNBOUND:                -0.981
REMARK SMILES CCCCCCCCCCCCCC(=O)[O-]
REMARK SMILES IDX 8 1 9 2 10 3 11 4 12 5 13 6 14 7 15 8 16 9 7 10 6 11 5 12
REMARK SMILES IDX 4 13 3 14 2 15 1 16
REMARK H PARENT
REMARK Flexibility Score: inf
ROOT
ATOM      1  C   UNL     1      33.811  77.716   9.147  1.00  0.00     0.000 C 
ENDROOT
BRANCH   1   2
ATOM      2  C   UNL     1      32.292  77.560   8.983  1.00  0.00     0.000 C 
BRANCH   2   3
ATOM      3  C   UNL     1      31.502  78.369  10.025  1.00  0.00     0.000 C 
BRANCH   3   4
ATOM      4  C   UNL     1      32.401  78.781  11.197  1.00  0.00     0.000 C 
BRANCH   4   5
ATOM      5  C   UNL     1      31.695  78.549  12.541  1.00  0.00     0.006 C 
BRANCH   5   6
ATOM      6  C   UNL     1      32.664  78.624  13.727  1.00  0.00     0.053 C 
BRANCH   6   7
ATOM      7  C   UNL     1      32.158  79.537  14.802  1.00  0.00     0.041 C 
ATOM      8  O   UNL     1      31.034  80.092  14.684  1.00  0.00    -0.550 OA
ATOM      9  O   UNL     1      32.914  79.748  15.949  1.00  0.00    -0.550 OA
ENDBRANCH   6   7
ENDBRANCH   5   6
ENDBRANCH   4   5
ENDBRANCH   3   4
ENDBRANCH   2   3
ENDBRANCH   1   2
BRANCH   1  10
ATOM     10  C   UNL     1      34.600  76.596   8.447  1.00  0.00     0.000 C 
BRANCH  10  11
ATOM     11  C   UNL     1      35.521  75.834   9.423  1.00  0.00    -0.000 C 
BRANCH  11  12
ATOM     12  C   UNL     1      35.105  75.967  10.900  1.00  0.00    -0.000 C 
BRANCH  12  13
ATOM     13  C   UNL     1      34.269  74.796  11.445  1.00  0.00    -0.000 C 
BRANCH  13  14
ATOM     14  C   UNL     1      33.007  75.260  12.187  1.00  0.00    -0.000 C 
BRANCH  14  15
ATOM     15  C   UNL     1      31.789  74.434  11.761  1.00  0.00    -0.003 C 
ATOM     16  C   UNL     1      31.868  74.051  10.286  1.00  0.00     0.004 C 
ENDBRANCH  14  15
ENDBRANCH  13  14
ENDBRANCH  12  13
ENDBRANCH  11  12
ENDBRANCH  10  11
ENDBRANCH   1  10
TORSDOF 12
ENDMDL
MODEL 6
REMARK VINA RESULT:    -4.263      1.372      2.157
REMARK INTER + INTRA:          -8.235
REMARK INTER:                  -6.969
REMARK INTRA:                  -1.266
REMARK UNBOUND:                -0.981
REMARK SMILES CCCCCCCCCCCCCC(=O)[O-]
REMARK SMILES IDX 8 1 9 2 10 3 11 4 12 5 13 6 14 7 15 8 16 9 7 10 6 11 5 12
REMARK SMILES IDX 4 13 3 14 2 15 1 16
REMARK H PARENT
REMARK Flexibility Score: inf
ROOT
ATOM      1  C   UNL     1      32.455  79.042  11.294  1.00  0.00     0.000 C 
ENDROOT
BRANCH   1   2
ATOM      2  C   UNL     1      31.875  78.424  12.576  1.00  0.00     0.000 C 
BRANCH   2   3
ATOM      3  C   UNL     1      32.948  78.183  13.650  1.00  0.00     0.000 C 
BRANCH   3   4
ATOM      4  C   UNL     1      32.365  78.354  15.057  1.00  0.00     0.000 C 
BRANCH   4   5
ATOM      5  C   UNL     1      32.886  79.640  15.717  1.00  0.00     0.006 C 
BRANCH   5   6
ATOM      6  C   UNL     1      31.798  80.716  15.833  1.00  0.00     0.053 C 
BRANCH   6   7
ATOM      7  C   UNL     1      32.234  81.856  16.703  1.00  0.00     0.041 C 
ATOM      8  O   UNL     1      31.793  81.961  17.877  1.00  0.00    -0.550 OA
ATOM      9  O   UNL     1      33.154  82.782  16.226  1.00  0.00    -0.550 OA
ENDBRANCH   6   7
ENDBRANCH   5   6
ENDBRANCH   4   5
ENDBRANCH   3   4
ENDBRANCH   2   3
ENDBRANCH   1   2
BRANCH   1  10
ATOM     10  C   UNL     1      32.262  78.138  10.064  1.00  0.00     0.000 C 
BRANCH  10  11
ATOM     11  C   UNL     1      33.605  77.622   9.504  1.00  0.00    -0.000 C 
BRANCH  11  12
ATOM     12  C   UNL     1      34.807  77.887  10.432  1.00  0.00    -0.000 C 
BRANCH  12  13
ATOM     13  C   UNL     1      35.394  76.633  11.103  1.00  0.00    -0.000 C 
BRANCH  13  14
ATOM     14  C   UNL     1      34.623  75.353  10.749  1.00  0.00    -0.000 C 
BRANCH  14  15
ATOM     15  C   UNL     1      33.687  74.946  11.892  1.00  0.00    -0.003 C 
ATOM     16  C   UNL     1      32.761  73.809  11.470  1.00  0.00     0.004 C 
ENDBRANCH  14  15
ENDBRANCH  13  14
ENDBRANCH  12  13
ENDBRANCH  11  12
ENDBRANCH  10  11
ENDBRANCH   1  10
TORSDOF 12
ENDMDL
MODEL 7
REMARK VINA RESULT:    -4.209     12.209     14.570
REMARK INTER + INTRA:          -8.143
REMARK INTER:                  -6.335
REMARK INTRA:                  -1.808
REMARK UNBOUND:                -0.981
REMARK SMILES CCCCCCCCCCCCCC(=O)[O-]
REMARK SMILES IDX 8 1 9 2 10 3 11 4 12 5 13 6 14 7 15 8 16 9 7 10 6 11 5 12
REMARK SMILES IDX 4 13 3 14 2 15 1 16
REMARK H PARENT
REMARK Flexibility Score: inf
ROOT
ATOM      1  C   UNL     1      47.475  72.390  13.651  1.00  0.00     0.000 C 
ENDROOT
BRANCH   1   2
ATOM      2  C   UNL     1      47.427  72.309  12.117  1.00  0.00     0.000 C 
BRANCH   2   3
ATOM      3  C   UNL     1      45.993  72.174  11.580  1.00  0.00     0.000 C 
BRANCH   3   4
ATOM      4  C   UNL     1      45.996  71.812  10.090  1.00  0.00     0.000 C 
BRANCH   4   5
ATOM      5  C   UNL     1      45.445  72.967   9.242  1.00  0.00     0.006 C 
BRANCH   5   6
ATOM      6  C   UNL     1      43.913  72.945   9.155  1.00  0.00     0.053 C 
BRANCH   6   7
ATOM      7  C   UNL     1      43.438  72.892   7.734  1.00  0.00     0.041 C 
ATOM      8  O   UNL     1      44.267  72.784   6.793  1.00  0.00    -0.550 OA
ATOM      9  O   UNL     1      42.077  72.928   7.454  1.00  0.00    -0.550 OA
ENDBRANCH   6   7
ENDBRANCH   5   6
ENDBRANCH   4   5
ENDBRANCH   3   4
ENDBRANCH   2   3
ENDBRANCH   1   2
BRANCH   1  10
ATOM     10  C   UNL     1      46.116  72.769  14.265  1.00  0.00     0.000 C 
BRANCH  10  11
ATOM     11  C   UNL     1      46.207  74.033  15.147  1.00  0.00    -0.000 C 
BRANCH  11  12
ATOM     12  C   UNL     1      45.319  75.194  14.660  1.00  0.00    -0.000 C 
BRANCH  12  13
ATOM     13  C   UNL     1      44.207  74.790  13.677  1.00  0.00    -0.000 C 
BRANCH  13  14
ATOM     14  C   UNL     1      44.423  75.359  12.267  1.00  0.00    -0.000 C 
BRANCH  14  15
ATOM     15  C   UNL     1      45.656  76.268  12.229  1.00  0.00    -0.003 C 
ATOM     16  C   UNL     1      46.629  75.833  11.136  1.00  0.00     0.004 C 
ENDBRANCH  14  15
ENDBRANCH  13  14
ENDBRANCH  12  13
ENDBRANCH  11  12
ENDBRANCH  10  11
ENDBRANCH   1  10
TORSDOF 12
ENDMDL
MODEL 8
REMARK VINA RESULT:    -4.191      3.989      5.496
REMARK INTER + INTRA:          -8.113
REMARK INTER:                  -6.390
REMARK INTRA:                  -1.722
REMARK UNBOUND:                -0.981
REMARK SMILES CCCCCCCCCCCCCC(=O)[O-]
REMARK SMILES IDX 8 1 9 2 10 3 11 4 12 5 13 6 14 7 15 8 16 9 7 10 6 11 5 12
REMARK SMILES IDX 4 13 3 14 2 15 1 16
REMARK H PARENT
REMARK Flexibility Score: inf
ROOT
ATOM      1  C   UNL     1      33.650  78.511  10.536  1.00  0.00     0.000 C 
ENDROOT
BRANCH   1   2
ATOM      2  C   UNL     1      32.138  78.292  10.702  1.00  0.00     0.000 C 
BRANCH   2   3
ATOM      3  C   UNL     1      31.428  78.057   9.360  1.00  0.00     0.000 C 
BRANCH   3   4
ATOM      4  C   UNL     1      31.468  76.574   8.970  1.00  0.00     0.000 C 
BRANCH   4   5
ATOM      5  C   UNL     1      31.184  75.678  10.185  1.00  0.00     0.006 C 
BRANCH   5   6
ATOM      6  C   UNL     1      32.321  74.682  10.450  1.00  0.00     0.053 C 
BRANCH   6   7
ATOM      7  C   UNL     1      32.690  74.633  11.902  1.00  0.00     0.041 C 
ATOM      8  O   UNL     1      32.074  75.348  12.736  1.00  0.00    -0.550 OA
ATOM      9  O   UNL     1      33.691  73.773  12.337  1.00  0.00    -0.550 OA
ENDBRANCH   6   7
ENDBRANCH   5   6
ENDBRANCH   4   5
ENDBRANCH   3   4
ENDBRANCH   2   3
ENDBRANCH   1   2
BRANCH   1  10
ATOM     10  C   UNL     1      34.473  77.809  11.630  1.00  0.00     0.000 C 
BRANCH  10  11
ATOM     11  C   UNL     1      35.841  77.320  11.107  1.00  0.00    -0.000 C 
BRANCH  11  12
ATOM     12  C   UNL     1      35.802  75.905  10.499  1.00  0.00    -0.000 C 
BRANCH  12  13
ATOM     13  C   UNL     1      36.145  75.836   9.000  1.00  0.00    -0.000 C 
BRANCH  13  14
ATOM     14  C   UNL     1      34.943  76.160   8.100  1.00  0.00    -0.000 C 
BRANCH  14  15
ATOM     15  C   UNL     1      34.858  75.176   6.928  1.00  0.00    -0.003 C 
ATOM     16  C   UNL     1      36.206  74.506   6.670  1.00  0.00     0.004 C 
ENDBRANCH  14  15
ENDBRANCH  13  14
ENDBRANCH  12  13
ENDBRANCH  11  12
ENDBRANCH  10  11
ENDBRANCH   1  10
TORSDOF 12
ENDMDL
MODEL 9
REMARK VINA RESULT:    -4.137      2.144      3.632
REMARK INTER + INTRA:          -8.020
REMARK INTER:                  -6.004
REMARK INTRA:                  -2.017
REMARK UNBOUND:                -0.981
REMARK SMILES CCCCCCCCCCCCCC(=O)[O-]
REMARK SMILES IDX 8 1 9 2 10 3 11 4 12 5 13 6 14 7 15 8 16 9 7 10 6 11 5 12
REMARK SMILES IDX 4 13 3 14 2 15 1 16
REMARK H PARENT
REMARK Flexibility Score: inf
ROOT
ATOM      1  C   UNL     1      35.721  76.076   9.667  1.00  0.00     0.000 C 
ENDROOT
BRANCH   1   2
ATOM      2  C   UNL     1      35.187  76.943  10.817  1.00  0.00     0.000 C 
BRANCH   2   3
ATOM      3  C   UNL     1      34.297  78.094  10.321  1.00  0.00     0.000 C 
BRANCH   3   4
ATOM      4  C   UNL     1      33.097  78.300  11.253  1.00  0.00     0.000 C 
BRANCH   4   5
ATOM      5  C   UNL     1      33.502  78.110  12.723  1.00  0.00     0.006 C 
BRANCH   5   6
ATOM      6  C   UNL     1      32.287  77.934  13.642  1.00  0.00     0.053 C 
BRANCH   6   7
ATOM      7  C   UNL     1      32.455  78.675  14.934  1.00  0.00     0.041 C 
ATOM      8  O   UNL     1      32.937  78.093  15.941  1.00  0.00    -0.550 OA
ATOM      9  O   UNL     1      32.109  80.019  15.014  1.00  0.00    -0.550 OA
ENDBRANCH   6   7
ENDBRANCH   5   6
ENDBRANCH   4   5
ENDBRANCH   3   4
ENDBRANCH   2   3
ENDBRANCH   1   2
BRANCH   1  10
ATOM     10  C   UNL     1      34.932  76.274   8.362  1.00  0.00     0.000 C 
BRANCH  10  11
ATOM     11  C   UNL     1      34.572  74.932   7.688  1.00  0.00    -0.000 C 
BRANCH  11  12
ATOM     12  C   UNL     1      33.186  74.390   8.088  1.00  0.00    -0.000 C 
BRANCH  12  13
ATOM     13  C   UNL     1      32.246  75.426   8.729  1.00  0.00    -0.000 C 
BRANCH  13  14
ATOM     14  C   UNL     1      31.799  75.028  10.143  1.00  0.00    -0.000 C 
BRANCH  14  15
ATOM     15  C   UNL     1      32.770  74.015  10.758  1.00  0.00    -0.003 C 
ATOM     16  C   UNL     1      33.092  74.368  12.208  1.00  0.00     0.004 C 
ENDBRANCH  14  15
ENDBRANCH  13  14
ENDBRANCH  12  13
ENDBRANCH  11  12
ENDBRANCH  10  11
ENDBRANCH   1  10
TORSDOF 12
ENDMDL
