MODEL 1
REMARK VINA RESULT:     6.624      0.000      0.000
REMARK INTER + INTRA:          12.056
REMARK INTER:                  12.046
REMARK INTRA:                   0.011
REMARK UNBOUND:                 0.011
REMARK SMILES CCCCCCCCCCCCCCCC(=O)[O-]
REMARK SMILES IDX 9 1 10 2 11 3 12 4 13 5 14 6 15 7 16 8 17 9 18 10 8 11 7 12
REMARK SMILES IDX 6 13 5 14 4 15 3 16 2 17 1 18
REMARK H PARENT
REMARK Flexibility Score: inf
ROOT
ATOM      1  C   UNL     1      -3.801 -16.701   6.587  1.00  0.00     0.000 C 
ENDROOT
BRANCH   1   2
ATOM      2  C   UNL     1      -5.127 -16.789   7.359  1.00  0.00     0.000 C 
BRANCH   2   3
ATOM      3  C   UNL     1      -6.252 -16.068   6.600  1.00  0.00     0.000 C 
BRANCH   3   4
ATOM      4  C   UNL     1      -6.633 -14.716   7.231  1.00  0.00     0.000 C 
BRANCH   4   5
ATOM      5  C   UNL     1      -6.901 -13.581   6.225  1.00  0.00     0.000 C 
BRANCH   5   6
ATOM      6  C   UNL     1      -5.916 -12.411   6.366  1.00  0.00     0.006 C 
BRANCH   6   7
ATOM      7  C   UNL     1      -4.490 -12.920   6.598  1.00  0.00     0.053 C 
BRANCH   7   8
ATOM      8  C   UNL     1      -3.846 -12.178   7.727  1.00  0.00     0.041 C 
ATOM      9  O   UNL     1      -3.788 -10.920   7.706  1.00  0.00    -0.550 OA
ATOM     10  O   UNL     1      -3.356 -12.872   8.825  1.00  0.00    -0.550 OA
ENDBRANCH   7   8
ENDBRANCH   6   7
ENDBRANCH   5   6
ENDBRANCH   4   5
ENDBRANCH   3   4
ENDBRANCH   2   3
ENDBRANCH   1   2
BRANCH   1  11
ATOM     11  C   UNL     1      -2.859 -15.624   7.150  1.00  0.00     0.000 C 
BRANCH  11  12
ATOM     12  C   UNL     1      -2.179 -14.798   6.045  1.00  0.00    -0.000 C 
BRANCH  12  13
ATOM     13  C   UNL     1      -1.015 -13.941   6.572  1.00  0.00    -0.000 C 
BRANCH  13  14
ATOM     14  C   UNL     1      -0.793 -14.067   8.095  1.00  0.00    -0.000 C 
BRANCH  14  15
ATOM     15  C   UNL     1       0.645 -13.703   8.504  1.00  0.00    -0.000 C 
BRANCH  15  16
ATOM     16  C   UNL     1       1.499 -14.951   8.814  1.00  0.00    -0.000 C 
BRANCH  16  17
ATOM     17  C   UNL     1       2.182 -14.904  10.191  1.00  0.00    -0.003 C 
ATOM     18  C   UNL     1       1.206 -15.087  11.350  1.00  0.00     0.004 C 
ENDBRANCH  16  17
ENDBRANCH  15  16
ENDBRANCH  14  15
ENDBRANCH  13  14
ENDBRANCH  12  13
ENDBRANCH  11  12
ENDBRANCH   1  11
TORSDOF 14
ENDMDL
MODEL 2
REMARK VINA RESULT:     7.556      2.347      5.547
REMARK INTER + INTRA:          13.751
REMARK INTER:                  14.616
REMARK INTRA:                  -0.864
REMARK UNBOUND:                 0.011
REMARK SMILES CCCCCCCCCCCCCCCC(=O)[O-]
REMARK SMILES IDX 9 1 10 2 11 3 12 4 13 5 14 6 15 7 16 8 17 9 18 10 8 11 7 12
REMARK SMILES IDX 6 13 5 14 4 15 3 16 2 17 1 18
REMARK H PARENT
REMARK Flexibility Score: inf
ROOT
ATOM      1  C   UNL     1      -5.484 -16.547   6.322  1.00  0.00     0.000 C 
ENDROOT
BRANCH   1   2
ATOM      2  C   UNL     1      -4.180 -16.850   7.076  1.00  0.00     0.000 C 
BRANCH   2   3
ATOM      3  C   UNL     1      -3.044 -15.935   6.598  1.00  0.00     0.000 C 
BRANCH   3   4
ATOM      4  C   UNL     1      -2.466 -15.054   7.721  1.00  0.00     0.000 C 
BRANCH   4   5
ATOM      5  C   UNL     1      -1.128 -14.369   7.388  1.00  0.00     0.000 C 
BRANCH   5   6
ATOM      6  C   UNL     1      -0.479 -13.697   8.606  1.00  0.00     0.006 C 
BRANCH   6   7
ATOM      7  C   UNL     1       1.048 -13.692   8.481  1.00  0.00     0.053 C 
BRANCH   7   8
ATOM      8  C   UNL     1       1.634 -14.882   9.173  1.00  0.00     0.041 C 
ATOM      9  O   UNL     1       2.238 -15.766   8.510  1.00  0.00    -0.550 OA
ATOM     10  O   UNL     1       1.559 -14.990  10.556  1.00  0.00    -0.550 OA
ENDBRANCH   7   8
ENDBRANCH   6   7
ENDBRANCH   5   6
ENDBRANCH   4   5
ENDBRANCH   3   4
ENDBRANCH   2   3
ENDBRANCH   1   2
BRANCH   1  11
ATOM     11  C   UNL     1      -6.676 -16.320   7.266  1.00  0.00     0.000 C 
BRANCH  11  12
ATOM     12  C   UNL     1      -7.040 -14.832   7.410  1.00  0.00    -0.000 C 
BRANCH  12  13
ATOM     13  C   UNL     1      -7.069 -14.093   6.062  1.00  0.00    -0.000 C 
BRANCH  13  14
ATOM     14  C   UNL     1      -6.234 -12.794   6.049  1.00  0.00    -0.000 C 
BRANCH  14  15
ATOM     15  C   UNL     1      -4.731 -13.068   6.243  1.00  0.00    -0.000 C 
BRANCH  15  16
ATOM     16  C   UNL     1      -4.231 -12.631   7.636  1.00  0.00    -0.000 C 
BRANCH  16  17
ATOM     17  C   UNL     1      -3.338 -11.378   7.605  1.00  0.00    -0.003 C 
ATOM     18  C   UNL     1      -3.391 -10.573   8.902  1.00  0.00     0.004 C 
ENDBRANCH  16  17
ENDBRANCH  15  16
ENDBRANCH  14  15
ENDBRANCH  13  14
ENDBRANCH  12  13
ENDBRANCH  11  12
ENDBRANCH   1  11
TORSDOF 14
ENDMDL
MODEL 3
REMARK VINA RESULT:     7.947      2.357      6.454
REMARK INTER + INTRA:          14.462
REMARK INTER:                  14.742
REMARK INTRA:                  -0.281
REMARK UNBOUND:                 0.011
REMARK SMILES CCCCCCCCCCCCCCCC(=O)[O-]
REMARK SMILES IDX 9 1 10 2 11 3 12 4 13 5 14 6 15 7 16 8 17 9 18 10 8 11 7 12
REMARK SMILES IDX 6 13 5 14 4 15 3 16 2 17 1 18
REMARK H PARENT
REMARK Flexibility Score: inf
ROOT
ATOM      1  C   UNL     1      -3.081 -12.636   8.372  1.00  0.00     0.000 C 
ENDROOT
BRANCH   1   2
ATOM      2  C   UNL     1      -2.804 -14.135   8.184  1.00  0.00     0.000 C 
BRANCH   2   3
ATOM      3  C   UNL     1      -1.894 -14.377   6.970  1.00  0.00     0.000 C 
BRANCH   3   4
ATOM      4  C   UNL     1      -0.585 -13.570   7.029  1.00  0.00     0.000 C 
BRANCH   4   5
ATOM      5  C   UNL     1       0.174 -13.657   8.366  1.00  0.00     0.000 C 
BRANCH   5   6
ATOM      6  C   UNL     1       0.717 -15.064   8.656  1.00  0.00     0.006 C 
BRANCH   6   7
ATOM      7  C   UNL     1       2.190 -15.008   9.074  1.00  0.00     0.053 C 
BRANCH   7   8
ATOM      8  C   UNL     1       2.309 -14.933  10.564  1.00  0.00     0.041 C 
ATOM      9  O   UNL     1       1.288 -15.071  11.289  1.00  0.00    -0.550 OA
ATOM     10  O   UNL     1       3.554 -14.762  11.154  1.00  0.00    -0.550 OA
ENDBRANCH   7   8
ENDBRANCH   6   7
ENDBRANCH   5   6
ENDBRANCH   4   5
ENDBRANCH   3   4
ENDBRANCH   2   3
ENDBRANCH   1   2
BRANCH   1  11
ATOM     11  C   UNL     1      -4.111 -12.093   7.368  1.00  0.00     0.000 C 
BRANCH  11  12
ATOM     12  C   UNL     1      -4.624 -13.177   6.405  1.00  0.00    -0.000 C 
BRANCH  12  13
ATOM     13  C   UNL     1      -6.041 -12.887   5.882  1.00  0.00    -0.000 C 
BRANCH  13  14
ATOM     14  C   UNL     1      -7.038 -14.043   6.116  1.00  0.00    -0.000 C 
BRANCH  14  15
ATOM     15  C   UNL     1      -6.649 -14.909   7.328  1.00  0.00    -0.000 C 
BRANCH  15  16
ATOM     16  C   UNL     1      -6.158 -16.311   6.912  1.00  0.00    -0.000 C 
BRANCH  16  17
ATOM     17  C   UNL     1      -4.690 -16.340   6.453  1.00  0.00    -0.003 C 
ATOM     18  C   UNL     1      -3.857 -17.395   7.177  1.00  0.00     0.004 C 
ENDBRANCH  16  17
ENDBRANCH  15  16
ENDBRANCH  14  15
ENDBRANCH  13  14
ENDBRANCH  12  13
ENDBRANCH  11  12
ENDBRANCH   1  11
TORSDOF 14
ENDMDL
MODEL 4
REMARK VINA RESULT:     8.112      2.248      6.137
REMARK INTER + INTRA:          14.762
REMARK INTER:                  15.017
REMARK INTRA:                  -0.255
REMARK UNBOUND:                 0.011
REMARK SMILES CCCCCCCCCCCCCCCC(=O)[O-]
REMARK SMILES IDX 9 1 10 2 11 3 12 4 13 5 14 6 15 7 16 8 17 9 18 10 8 11 7 12
REMARK SMILES IDX 6 13 5 14 4 15 3 16 2 17 1 18
REMARK H PARENT
REMARK Flexibility Score: inf
ROOT
ATOM      1  C   UNL     1      -3.002 -15.979   7.102  1.00  0.00     0.000 C 
ENDROOT
BRANCH   1   2
ATOM      2  C   UNL     1      -2.437 -15.109   5.968  1.00  0.00     0.000 C 
BRANCH   2   3
ATOM      3  C   UNL     1      -1.554 -13.983   6.529  1.00  0.00     0.000 C 
BRANCH   3   4
ATOM      4  C   UNL     1      -1.680 -13.823   8.054  1.00  0.00     0.000 C 
BRANCH   4   5
ATOM      5  C   UNL     1      -0.577 -14.516   8.875  1.00  0.00     0.000 C 
BRANCH   5   6
ATOM      6  C   UNL     1       0.834 -14.020   8.524  1.00  0.00     0.006 C 
BRANCH   6   7
ATOM      7  C   UNL     1       1.894 -15.044   8.939  1.00  0.00     0.053 C 
BRANCH   7   8
ATOM      8  C   UNL     1       2.185 -14.933  10.402  1.00  0.00     0.041 C 
ATOM      9  O   UNL     1       3.374 -14.831  10.805  1.00  0.00    -0.550 OA
ATOM     10  O   UNL     1       1.142 -14.891  11.318  1.00  0.00    -0.550 OA
ENDBRANCH   7   8
ENDBRANCH   6   7
ENDBRANCH   5   6
ENDBRANCH   4   5
ENDBRANCH   3   4
ENDBRANCH   2   3
ENDBRANCH   1   2
BRANCH   1  11
ATOM     11  C   UNL     1      -4.104 -16.936   6.621  1.00  0.00     0.000 C 
BRANCH  11  12
ATOM     12  C   UNL     1      -5.508 -16.491   7.063  1.00  0.00    -0.000 C 
BRANCH  12  13
ATOM     13  C   UNL     1      -6.142 -15.474   6.099  1.00  0.00    -0.000 C 
BRANCH  13  14
ATOM     14  C   UNL     1      -6.910 -14.339   6.812  1.00  0.00    -0.000 C 
BRANCH  14  15
ATOM     15  C   UNL     1      -6.534 -12.950   6.266  1.00  0.00    -0.000 C 
BRANCH  15  16
ATOM     16  C   UNL     1      -5.008 -12.717   6.260  1.00  0.00    -0.000 C 
BRANCH  16  17
ATOM     17  C   UNL     1      -4.399 -12.583   7.666  1.00  0.00    -0.003 C 
ATOM     18  C   UNL     1      -3.640 -11.274   7.868  1.00  0.00     0.004 C 
ENDBRANCH  16  17
ENDBRANCH  15  16
ENDBRANCH  14  15
ENDBRANCH  13  14
ENDBRANCH  12  13
ENDBRANCH  11  12
ENDBRANCH   1  11
TORSDOF 14
ENDMDL
MODEL 5
REMARK VINA RESULT:     8.341     13.655     16.179
REMARK INTER + INTRA:          15.178
REMARK INTER:                  15.922
REMARK INTRA:                  -0.744
REMARK UNBOUND:                 0.011
REMARK SMILES CCCCCCCCCCCCCCCC(=O)[O-]
REMARK SMILES IDX 9 1 10 2 11 3 12 4 13 5 14 6 15 7 16 8 17 9 18 10 8 11 7 12
REMARK SMILES IDX 6 13 5 14 4 15 3 16 2 17 1 18
REMARK H PARENT
REMARK Flexibility Score: inf
ROOT
ATOM      1  C   UNL     1      -0.987  -8.494  20.345  1.00  0.00     0.000 C 
ENDROOT
BRANCH   1   2
ATOM      2  C   UNL     1      -2.317  -8.037  19.725  1.00  0.00     0.000 C 
BRANCH   2   3
ATOM      3  C   UNL     1      -3.479  -8.914  20.215  1.00  0.00     0.000 C 
BRANCH   3   4
ATOM      4  C   UNL     1      -3.381 -10.371  19.727  1.00  0.00     0.000 C 
BRANCH   4   5
ATOM      5  C   UNL     1      -4.179 -11.392  20.560  1.00  0.00     0.000 C 
BRANCH   5   6
ATOM      6  C   UNL     1      -4.494 -12.681  19.788  1.00  0.00     0.006 C 
BRANCH   6   7
ATOM      7  C   UNL     1      -4.121 -13.918  20.611  1.00  0.00     0.053 C 
BRANCH   7   8
ATOM      8  C   UNL     1      -3.407 -14.919  19.759  1.00  0.00     0.041 C 
ATOM      9  O   UNL     1      -2.313 -14.619  19.211  1.00  0.00    -0.550 OA
ATOM     10  O   UNL     1      -3.921 -16.200  19.611  1.00  0.00    -0.550 OA
ENDBRANCH   7   8
ENDBRANCH   6   7
ENDBRANCH   5   6
ENDBRANCH   4   5
ENDBRANCH   3   4
ENDBRANCH   2   3
ENDBRANCH   1   2
BRANCH   1  11
ATOM     11  C   UNL     1      -0.776  -7.943  21.764  1.00  0.00     0.000 C 
BRANCH  11  12
ATOM     12  C   UNL     1      -1.558  -6.643  22.016  1.00  0.00    -0.000 C 
BRANCH  12  13
ATOM     13  C   UNL     1      -1.970  -6.472  23.488  1.00  0.00    -0.000 C 
BRANCH  13  14
ATOM     14  C   UNL     1      -1.663  -5.070  24.058  1.00  0.00    -0.000 C 
BRANCH  14  15
ATOM     15  C   UNL     1      -2.941  -4.315  24.466  1.00  0.00    -0.000 C 
BRANCH  15  16
ATOM     16  C   UNL     1      -3.448  -4.733  25.863  1.00  0.00    -0.000 C 
BRANCH  16  17
ATOM     17  C   UNL     1      -4.933  -5.132  25.885  1.00  0.00    -0.003 C 
ATOM     18  C   UNL     1      -5.446  -5.608  24.528  1.00  0.00     0.004 C 
ENDBRANCH  16  17
ENDBRANCH  15  16
ENDBRANCH  14  15
ENDBRANCH  13  14
ENDBRANCH  12  13
ENDBRANCH  11  12
ENDBRANCH   1  11
TORSDOF 14
ENDMDL
MODEL 6
REMARK VINA RESULT:     8.639      1.726      2.670
REMARK INTER + INTRA:          15.720
REMARK INTER:                  15.420
REMARK INTRA:                   0.300
REMARK UNBOUND:                 0.011
REMARK SMILES CCCCCCCCCCCCCCCC(=O)[O-]
REMARK SMILES IDX 9 1 10 2 11 3 12 4 13 5 14 6 15 7 16 8 17 9 18 10 8 11 7 12
REMARK SMILES IDX 6 13 5 14 4 15 3 16 2 17 1 18
REMARK H PARENT
REMARK Flexibility Score: inf
ROOT
ATOM      1  C   UNL     1      -2.815 -15.011   6.241  1.00  0.00     0.000 C 
ENDROOT
BRANCH   1   2
ATOM      2  C   UNL     1      -3.157 -16.293   7.016  1.00  0.00     0.000 C 
BRANCH   2   3
ATOM      3  C   UNL     1      -4.674 -16.535   7.031  1.00  0.00     0.000 C 
BRANCH   3   4
ATOM      4  C   UNL     1      -5.460 -15.486   6.224  1.00  0.00     0.000 C 
BRANCH   4   5
ATOM      5  C   UNL     1      -6.331 -14.536   7.066  1.00  0.00     0.000 C 
BRANCH   5   6
ATOM      6  C   UNL     1      -6.043 -13.053   6.788  1.00  0.00     0.006 C 
BRANCH   6   7
ATOM      7  C   UNL     1      -4.547 -12.821   6.552  1.00  0.00     0.053 C 
BRANCH   7   8
ATOM      8  C   UNL     1      -3.912 -12.221   7.766  1.00  0.00     0.041 C 
ATOM      9  O   UNL     1      -3.496 -12.963   8.696  1.00  0.00    -0.550 OA
ATOM     10  O   UNL     1      -3.731 -10.847   7.850  1.00  0.00    -0.550 OA
ENDBRANCH   7   8
ENDBRANCH   6   7
ENDBRANCH   5   6
ENDBRANCH   4   5
ENDBRANCH   3   4
ENDBRANCH   2   3
ENDBRANCH   1   2
BRANCH   1  11
ATOM     11  C   UNL     1      -1.365 -14.553   6.466  1.00  0.00     0.000 C 
BRANCH  11  12
ATOM     12  C   UNL     1      -1.082 -14.183   7.932  1.00  0.00    -0.000 C 
BRANCH  12  13
ATOM     13  C   UNL     1       0.404 -13.889   8.197  1.00  0.00    -0.000 C 
BRANCH  13  14
ATOM     14  C   UNL     1       1.167 -15.074   8.828  1.00  0.00    -0.000 C 
BRANCH  14  15
ATOM     15  C   UNL     1       2.142 -15.732   7.836  1.00  0.00    -0.000 C 
BRANCH  15  16
ATOM     16  C   UNL     1       1.917 -17.255   7.716  1.00  0.00    -0.000 C 
BRANCH  16  17
ATOM     17  C   UNL     1       1.925 -17.767   6.266  1.00  0.00    -0.003 C 
ATOM     18  C   UNL     1       1.956 -19.290   6.169  1.00  0.00     0.004 C 
ENDBRANCH  16  17
ENDBRANCH  15  16
ENDBRANCH  14  15
ENDBRANCH  13  14
ENDBRANCH  12  13
ENDBRANCH  11  12
ENDBRANCH   1  11
TORSDOF 14
ENDMDL
MODEL 7
REMARK VINA RESULT:     8.651     14.029     16.529
REMARK INTER + INTRA:          15.742
REMARK INTER:                  16.495
REMARK INTRA:                  -0.753
REMARK UNBOUND:                 0.011
REMARK SMILES CCCCCCCCCCCCCCCC(=O)[O-]
REMARK SMILES IDX 9 1 10 2 11 3 12 4 13 5 14 6 15 7 16 8 17 9 18 10 8 11 7 12
REMARK SMILES IDX 6 13 5 14 4 15 3 16 2 17 1 18
REMARK H PARENT
REMARK Flexibility Score: inf
ROOT
ATOM      1  C   UNL     1      -1.168  -8.530  20.223  1.00  0.00     0.000 C 
ENDROOT
BRANCH   1   2
ATOM      2  C   UNL     1      -0.765  -8.042  21.623  1.00  0.00     0.000 C 
BRANCH   2   3
ATOM      3  C   UNL     1      -1.603  -6.825  22.042  1.00  0.00     0.000 C 
BRANCH   3   4
ATOM      4  C   UNL     1      -1.284  -6.334  23.466  1.00  0.00     0.000 C 
BRANCH   4   5
ATOM      5  C   UNL     1      -1.940  -4.996  23.856  1.00  0.00     0.000 C 
BRANCH   5   6
ATOM      6  C   UNL     1      -2.625  -5.042  25.229  1.00  0.00     0.006 C 
BRANCH   6   7
ATOM      7  C   UNL     1      -3.945  -4.265  25.209  1.00  0.00     0.053 C 
BRANCH   7   8
ATOM      8  C   UNL     1      -5.106  -5.205  25.133  1.00  0.00     0.041 C 
ATOM      9  O   UNL     1      -5.143  -6.094  24.242  1.00  0.00    -0.550 OA
ATOM     10  O   UNL     1      -6.123  -5.133  26.076  1.00  0.00    -0.550 OA
ENDBRANCH   7   8
ENDBRANCH   6   7
ENDBRANCH   5   6
ENDBRANCH   4   5
ENDBRANCH   3   4
ENDBRANCH   2   3
ENDBRANCH   1   2
BRANCH   1  11
ATOM     11  C   UNL     1      -2.529  -7.975  19.772  1.00  0.00     0.000 C 
BRANCH  11  12
ATOM     12  C   UNL     1      -3.666  -9.000  19.926  1.00  0.00    -0.000 C 
BRANCH  12  13
ATOM     13  C   UNL     1      -3.151 -10.437  20.113  1.00  0.00    -0.000 C 
BRANCH  13  14
ATOM     14  C   UNL     1      -4.088 -11.326  20.960  1.00  0.00    -0.000 C 
BRANCH  14  15
ATOM     15  C   UNL     1      -4.937 -12.270  20.089  1.00  0.00    -0.000 C 
BRANCH  15  16
ATOM     16  C   UNL     1      -4.100 -13.414  19.479  1.00  0.00    -0.000 C 
BRANCH  16  17
ATOM     17  C   UNL     1      -3.872 -14.592  20.441  1.00  0.00    -0.003 C 
ATOM     18  C   UNL     1      -3.720 -15.931  19.724  1.00  0.00     0.004 C 
ENDBRANCH  16  17
ENDBRANCH  15  16
ENDBRANCH  14  15
ENDBRANCH  13  14
ENDBRANCH  12  13
ENDBRANCH  11  12
ENDBRANCH   1  11
TORSDOF 14
ENDMDL
MODEL 8
REMARK VINA RESULT:     8.933     14.136     16.524
REMARK INTER + INTRA:          16.254
REMARK INTER:                  17.044
REMARK INTRA:                  -0.790
REMARK UNBOUND:                 0.011
REMARK SMILES CCCCCCCCCCCCCCCC(=O)[O-]
REMARK SMILES IDX 9 1 10 2 11 3 12 4 13 5 14 6 15 7 16 8 17 9 18 10 8 11 7 12
REMARK SMILES IDX 6 13 5 14 4 15 3 16 2 17 1 18
REMARK H PARENT
REMARK Flexibility Score: inf
ROOT
ATOM      1  C   UNL     1      -1.044  -8.370  20.682  1.00  0.00     0.000 C 
ENDROOT
BRANCH   1   2
ATOM      2  C   UNL     1      -2.150  -7.638  19.906  1.00  0.00     0.000 C 
BRANCH   2   3
ATOM      3  C   UNL     1      -3.379  -8.540  19.723  1.00  0.00     0.000 C 
BRANCH   3   4
ATOM      4  C   UNL     1      -3.090 -10.021  20.028  1.00  0.00     0.000 C 
BRANCH   4   5
ATOM      5  C   UNL     1      -3.491 -11.006  18.913  1.00  0.00     0.000 C 
BRANCH   5   6
ATOM      6  C   UNL     1      -3.826 -12.408  19.443  1.00  0.00     0.006 C 
BRANCH   6   7
ATOM      7  C   UNL     1      -5.234 -12.445  20.044  1.00  0.00     0.053 C 
BRANCH   7   8
ATOM      8  C   UNL     1      -5.200 -12.045  21.485  1.00  0.00     0.041 C 
ATOM      9  O   UNL     1      -6.153 -11.388  21.983  1.00  0.00    -0.550 OA
ATOM     10  O   UNL     1      -4.141 -12.440  22.292  1.00  0.00    -0.550 OA
ENDBRANCH   7   8
ENDBRANCH   6   7
ENDBRANCH   5   6
ENDBRANCH   4   5
ENDBRANCH   3   4
ENDBRANCH   2   3
ENDBRANCH   1   2
BRANCH   1  11
ATOM     11  C   UNL     1      -0.768  -7.740  22.057  1.00  0.00     0.000 C 
BRANCH  11  12
ATOM     12  C   UNL     1      -1.521  -6.414  22.260  1.00  0.00    -0.000 C 
BRANCH  12  13
ATOM     13  C   UNL     1      -1.954  -6.192  23.719  1.00  0.00    -0.000 C 
BRANCH  13  14
ATOM     14  C   UNL     1      -1.821  -4.727  24.189  1.00  0.00    -0.000 C 
BRANCH  14  15
ATOM     15  C   UNL     1      -3.151  -4.163  24.718  1.00  0.00    -0.000 C 
BRANCH  15  16
ATOM     16  C   UNL     1      -3.601  -4.850  26.025  1.00  0.00    -0.000 C 
BRANCH  16  17
ATOM     17  C   UNL     1      -5.096  -5.208  26.051  1.00  0.00    -0.003 C 
ATOM     18  C   UNL     1      -5.691  -5.396  24.657  1.00  0.00     0.004 C 
ENDBRANCH  16  17
ENDBRANCH  15  16
ENDBRANCH  14  15
ENDBRANCH  13  14
ENDBRANCH  12  13
ENDBRANCH  11  12
ENDBRANCH   1  11
TORSDOF 14
ENDMDL
