MODEL 1
REMARK VINA RESULT:    -4.748      0.000      0.000
REMARK INTER + INTRA:          -8.280
REMARK INTER:                  -7.246
REMARK INTRA:                  -1.035
REMARK UNBOUND:                -1.035
REMARK SMILES CCCCCCCCCCC(=O)[O-]
REMARK SMILES IDX 7 1 8 2 9 3 10 4 11 5 12 6 13 7 6 8 5 9 4 10 3 11 2 12 1 13
REMARK H PARENT
REMARK Flexibility Score: inf
ROOT
ATOM      1  C   UNL     1      16.697  -0.080  -6.663  1.00  0.00     0.000 C 
ENDROOT
BRANCH   1   2
ATOM      2  C   UNL     1      16.031   0.662  -5.498  1.00  0.00     0.000 C 
BRANCH   2   3
ATOM      3  C   UNL     1      15.565  -0.319  -4.415  1.00  0.00     0.006 C 
BRANCH   3   4
ATOM      4  C   UNL     1      16.681  -1.300  -4.046  1.00  0.00     0.053 C 
BRANCH   4   5
ATOM      5  C   UNL     1      16.993  -1.213  -2.585  1.00  0.00     0.041 C 
ATOM      6  O   UNL     1      16.103  -0.862  -1.766  1.00  0.00    -0.550 OA
ATOM      7  O   UNL     1      18.280  -1.473  -2.132  1.00  0.00    -0.550 OA
ENDBRANCH   4   5
ENDBRANCH   3   4
ENDBRANCH   2   3
ENDBRANCH   1   2
BRANCH   1   8
ATOM      8  C   UNL     1      17.875   0.723  -7.226  1.00  0.00     0.000 C 
BRANCH   8   9
ATOM      9  C   UNL     1      18.976   0.900  -6.171  1.00  0.00    -0.000 C 
BRANCH   9  10
ATOM     10  C   UNL     1      20.115  -0.120  -6.327  1.00  0.00    -0.000 C 
BRANCH  10  11
ATOM     11  C   UNL     1      20.290  -1.006  -5.080  1.00  0.00    -0.000 C 
BRANCH  11  12
ATOM     12  C   UNL     1      19.604  -2.372  -5.228  1.00  0.00    -0.003 C 
ATOM     13  C   UNL     1      19.266  -2.709  -6.681  1.00  0.00     0.004 C 
ENDBRANCH  11  12
ENDBRANCH  10  11
ENDBRANCH   9  10
ENDBRANCH   8   9
ENDBRANCH   1   8
TORSDOF 9
ENDMDL
MODEL 2
REMARK VINA RESULT:    -4.430      0.873      3.352
REMARK INTER + INTRA:          -7.796
REMARK INTER:                  -6.702
REMARK INTRA:                  -1.094
REMARK UNBOUND:                -1.035
REMARK SMILES CCCCCCCCCCC(=O)[O-]
REMARK SMILES IDX 7 1 8 2 9 3 10 4 11 5 12 6 13 7 6 8 5 9 4 10 3 11 2 12 1 13
REMARK H PARENT
REMARK Flexibility Score: inf
ROOT
ATOM      1  C   UNL     1      20.646  -1.218  -4.818  1.00  0.00     0.000 C 
ENDROOT
BRANCH   1   2
ATOM      2  C   UNL     1      19.607  -2.281  -5.195  1.00  0.00     0.000 C 
BRANCH   2   3
ATOM      3  C   UNL     1      18.921  -2.848  -3.946  1.00  0.00     0.006 C 
BRANCH   3   4
ATOM      4  C   UNL     1      17.492  -2.315  -3.815  1.00  0.00     0.053 C 
BRANCH   4   5
ATOM      5  C   UNL     1      17.371  -1.429  -2.615  1.00  0.00     0.041 C 
ATOM      6  O   UNL     1      18.386  -1.160  -1.921  1.00  0.00    -0.550 OA
ATOM      7  O   UNL     1      16.128  -0.940  -2.235  1.00  0.00    -0.550 OA
ENDBRANCH   4   5
ENDBRANCH   3   4
ENDBRANCH   2   3
ENDBRANCH   1   2
BRANCH   1   8
ATOM      8  C   UNL     1      20.344   0.117  -5.508  1.00  0.00     0.000 C 
BRANCH   8   9
ATOM      9  C   UNL     1      19.583  -0.103  -6.824  1.00  0.00    -0.000 C 
BRANCH   9  10
ATOM     10  C   UNL     1      18.761   1.125  -7.246  1.00  0.00    -0.000 C 
BRANCH  10  11
ATOM     11  C   UNL     1      17.314   0.764  -7.630  1.00  0.00    -0.000 C 
BRANCH  11  12
ATOM     12  C   UNL     1      16.604  -0.053  -6.540  1.00  0.00    -0.003 C 
ATOM     13  C   UNL     1      16.104   0.814  -5.384  1.00  0.00     0.004 C 
ENDBRANCH  11  12
ENDBRANCH  10  11
ENDBRANCH   9  10
ENDBRANCH   8   9
ENDBRANCH   1   8
TORSDOF 9
ENDMDL
MODEL 3
REMARK VINA RESULT:    -4.427      2.852      5.189
REMARK INTER + INTRA:          -7.792
REMARK INTER:                  -6.691
REMARK INTRA:                  -1.100
REMARK UNBOUND:                -1.035
REMARK SMILES CCCCCCCCCCC(=O)[O-]
REMARK SMILES IDX 7 1 8 2 9 3 10 4 11 5 12 6 13 7 6 8 5 9 4 10 3 11 2 12 1 13
REMARK H PARENT
REMARK Flexibility Score: inf
ROOT
ATOM      1  C   UNL     1      19.594  -2.183  -4.970  1.00  0.00     0.000 C 
ENDROOT
BRANCH   1   2
ATOM      2  C   UNL     1      20.293  -0.993  -4.303  1.00  0.00     0.000 C 
BRANCH   2   3
ATOM      3  C   UNL     1      20.236   0.251  -5.198  1.00  0.00     0.006 C 
BRANCH   3   4
ATOM      4  C   UNL     1      21.348   0.220  -6.251  1.00  0.00     0.053 C 
BRANCH   4   5
ATOM      5  C   UNL     1      20.764   0.247  -7.628  1.00  0.00     0.041 C 
ATOM      6  O   UNL     1      19.675   0.841  -7.844  1.00  0.00    -0.550 OA
ATOM      7  O   UNL     1      21.399  -0.425  -8.665  1.00  0.00    -0.550 OA
ENDBRANCH   4   5
ENDBRANCH   3   4
ENDBRANCH   2   3
ENDBRANCH   1   2
BRANCH   1   8
ATOM      8  C   UNL     1      18.401  -2.661  -4.134  1.00  0.00     0.000 C 
BRANCH   8   9
ATOM      9  C   UNL     1      18.262  -1.832  -2.849  1.00  0.00    -0.000 C 
BRANCH   9  10
ATOM     10  C   UNL     1      16.916  -1.095  -2.762  1.00  0.00    -0.000 C 
BRANCH  10  11
ATOM     11  C   UNL     1      16.172  -1.062  -4.110  1.00  0.00    -0.000 C 
BRANCH  11  12
ATOM     12  C   UNL     1      16.455   0.221  -4.906  1.00  0.00    -0.003 C 
ATOM     13  C   UNL     1      16.732  -0.052  -6.385  1.00  0.00     0.004 C 
ENDBRANCH  11  12
ENDBRANCH  10  11
ENDBRANCH   9  10
ENDBRANCH   8   9
ENDBRANCH   1   8
TORSDOF 9
ENDMDL
MODEL 4
REMARK VINA RESULT:    -4.409      2.963      5.113
REMARK INTER + INTRA:          -7.764
REMARK INTER:                  -6.680
REMARK INTRA:                  -1.084
REMARK UNBOUND:                -1.035
REMARK SMILES CCCCCCCCCCC(=O)[O-]
REMARK SMILES IDX 7 1 8 2 9 3 10 4 11 5 12 6 13 7 6 8 5 9 4 10 3 11 2 12 1 13
REMARK H PARENT
REMARK Flexibility Score: inf
ROOT
ATOM      1  C   UNL     1      19.217  -2.441  -6.242  1.00  0.00     0.000 C 
ENDROOT
BRANCH   1   2
ATOM      2  C   UNL     1      18.410  -1.286  -6.847  1.00  0.00     0.000 C 
BRANCH   2   3
ATOM      3  C   UNL     1      19.017   0.069  -6.464  1.00  0.00     0.006 C 
BRANCH   3   4
ATOM      4  C   UNL     1      19.685   0.732  -7.672  1.00  0.00     0.053 C 
BRANCH   4   5
ATOM      5  C   UNL     1      21.151   0.434  -7.688  1.00  0.00     0.041 C 
ATOM      6  O   UNL     1      21.838   0.570  -6.642  1.00  0.00    -0.550 OA
ATOM      7  O   UNL     1      21.769   0.052  -8.873  1.00  0.00    -0.550 OA
ENDBRANCH   4   5
ENDBRANCH   3   4
ENDBRANCH   2   3
ENDBRANCH   1   2
BRANCH   1   8
ATOM      8  C   UNL     1      19.650  -2.119  -4.807  1.00  0.00     0.000 C 
BRANCH   8   9
ATOM      9  C   UNL     1      18.804  -2.899  -3.789  1.00  0.00    -0.000 C 
BRANCH   9  10
ATOM     10  C   UNL     1      18.155  -1.987  -2.736  1.00  0.00    -0.000 C 
BRANCH  10  11
ATOM     11  C   UNL     1      17.544  -0.715  -3.352  1.00  0.00    -0.000 C 
BRANCH  11  12
ATOM     12  C   UNL     1      16.110  -0.936  -3.856  1.00  0.00    -0.003 C 
ATOM     13  C   UNL     1      15.638   0.172  -4.797  1.00  0.00     0.004 C 
ENDBRANCH  11  12
ENDBRANCH  10  11
ENDBRANCH   9  10
ENDBRANCH   8   9
ENDBRANCH   1   8
TORSDOF 9
ENDMDL
MODEL 5
REMARK VINA RESULT:    -4.403      1.267      1.898
REMARK INTER + INTRA:          -7.755
REMARK INTER:                  -6.839
REMARK INTRA:                  -0.916
REMARK UNBOUND:                -1.035
REMARK SMILES CCCCCCCCCCC(=O)[O-]
REMARK SMILES IDX 7 1 8 2 9 3 10 4 11 5 12 6 13 7 6 8 5 9 4 10 3 11 2 12 1 13
REMARK H PARENT
REMARK Flexibility Score: inf
ROOT
ATOM      1  C   UNL     1      18.331  -0.259  -7.076  1.00  0.00     0.000 C 
ENDROOT
BRANCH   1   2
ATOM      2  C   UNL     1      17.320   0.894  -7.076  1.00  0.00     0.000 C 
BRANCH   2   3
ATOM      3  C   UNL     1      16.284   0.718  -5.959  1.00  0.00     0.006 C 
BRANCH   3   4
ATOM      4  C   UNL     1      16.939   0.182  -4.683  1.00  0.00     0.053 C 
BRANCH   4   5
ATOM      5  C   UNL     1      15.949  -0.592  -3.872  1.00  0.00     0.041 C 
ATOM      6  O   UNL     1      14.785  -0.789  -4.311  1.00  0.00    -0.550 OA
ATOM      7  O   UNL     1      16.295  -1.056  -2.609  1.00  0.00    -0.550 OA
ENDBRANCH   4   5
ENDBRANCH   3   4
ENDBRANCH   2   3
ENDBRANCH   1   2
BRANCH   1   8
ATOM      8  C   UNL     1      19.751   0.254  -7.342  1.00  0.00     0.000 C 
BRANCH   8   9
ATOM      9  C   UNL     1      20.375   0.833  -6.064  1.00  0.00    -0.000 C 
BRANCH   9  10
ATOM     10  C   UNL     1      21.152  -0.217  -5.255  1.00  0.00    -0.000 C 
BRANCH  10  11
ATOM     11  C   UNL     1      20.261  -0.960  -4.242  1.00  0.00    -0.000 C 
BRANCH  11  12
ATOM     12  C   UNL     1      19.942  -2.397  -4.682  1.00  0.00    -0.003 C 
ATOM     13  C   UNL     1      18.836  -3.039  -3.844  1.00  0.00     0.004 C 
ENDBRANCH  11  12
ENDBRANCH  10  11
ENDBRANCH   9  10
ENDBRANCH   8   9
ENDBRANCH   1   8
TORSDOF 9
ENDMDL
MODEL 6
REMARK VINA RESULT:    -4.390      1.566      2.892
REMARK INTER + INTRA:          -7.735
REMARK INTER:                  -6.714
REMARK INTRA:                  -1.021
REMARK UNBOUND:                -1.035
REMARK SMILES CCCCCCCCCCC(=O)[O-]
REMARK SMILES IDX 7 1 8 2 9 3 10 4 11 5 12 6 13 7 6 8 5 9 4 10 3 11 2 12 1 13
REMARK H PARENT
REMARK Flexibility Score: inf
ROOT
ATOM      1  C   UNL     1      19.247  -2.247  -6.135  1.00  0.00     0.000 C 
ENDROOT
BRANCH   1   2
ATOM      2  C   UNL     1      19.545  -2.516  -4.656  1.00  0.00     0.000 C 
BRANCH   2   3
ATOM      3  C   UNL     1      18.248  -2.654  -3.849  1.00  0.00     0.006 C 
BRANCH   3   4
ATOM      4  C   UNL     1      18.173  -1.595  -2.745  1.00  0.00     0.053 C 
BRANCH   4   5
ATOM      5  C   UNL     1      16.769  -1.104  -2.585  1.00  0.00     0.041 C 
ATOM      6  O   UNL     1      16.296  -0.896  -1.437  1.00  0.00    -0.550 OA
ATOM      7  O   UNL     1      15.964  -0.924  -3.703  1.00  0.00    -0.550 OA
ENDBRANCH   4   5
ENDBRANCH   3   4
ENDBRANCH   2   3
ENDBRANCH   1   2
BRANCH   1   8
ATOM      8  C   UNL     1      18.212  -1.126  -6.294  1.00  0.00     0.000 C 
BRANCH   8   9
ATOM      9  C   UNL     1      18.743  -0.014  -7.212  1.00  0.00    -0.000 C 
BRANCH   9  10
ATOM     10  C   UNL     1      19.627   0.997  -6.466  1.00  0.00    -0.000 C 
BRANCH  10  11
ATOM     11  C   UNL     1      21.130   0.710  -6.642  1.00  0.00    -0.000 C 
BRANCH  11  12
ATOM     12  C   UNL     1      21.830   0.405  -5.309  1.00  0.00    -0.003 C 
ATOM     13  C   UNL     1      20.998   0.821  -4.096  1.00  0.00     0.004 C 
ENDBRANCH  11  12
ENDBRANCH  10  11
ENDBRANCH   9  10
ENDBRANCH   8   9
ENDBRANCH   1   8
TORSDOF 9
ENDMDL
MODEL 7
REMARK VINA RESULT:    -4.331      2.436      3.957
REMARK INTER + INTRA:          -7.645
REMARK INTER:                  -6.730
REMARK INTRA:                  -0.915
REMARK UNBOUND:                -1.035
REMARK SMILES CCCCCCCCCCC(=O)[O-]
REMARK SMILES IDX 7 1 8 2 9 3 10 4 11 5 12 6 13 7 6 8 5 9 4 10 3 11 2 12 1 13
REMARK H PARENT
REMARK Flexibility Score: inf
ROOT
ATOM      1  C   UNL     1      15.457   0.233  -4.661  1.00  0.00     0.000 C 
ENDROOT
BRANCH   1   2
ATOM      2  C   UNL     1      16.008   0.998  -5.869  1.00  0.00     0.000 C 
BRANCH   2   3
ATOM      3  C   UNL     1      17.539   1.084  -5.815  1.00  0.00     0.006 C 
BRANCH   3   4
ATOM      4  C   UNL     1      18.156   0.749  -7.176  1.00  0.00     0.053 C 
BRANCH   4   5
ATOM      5  C   UNL     1      19.648   0.704  -7.078  1.00  0.00     0.041 C 
ATOM      6  O   UNL     1      20.339   0.339  -8.065  1.00  0.00    -0.550 OA
ATOM      7  O   UNL     1      20.274   1.019  -5.878  1.00  0.00    -0.550 OA
ENDBRANCH   4   5
ENDBRANCH   3   4
ENDBRANCH   2   3
ENDBRANCH   1   2
BRANCH   1   8
ATOM      8  C   UNL     1      16.294  -1.020  -4.374  1.00  0.00     0.000 C 
BRANCH   8   9
ATOM      9  C   UNL     1      16.695  -1.086  -2.893  1.00  0.00    -0.000 C 
BRANCH   9  10
ATOM     10  C   UNL     1      17.994  -1.873  -2.665  1.00  0.00    -0.000 C 
BRANCH  10  11
ATOM     11  C   UNL     1      18.993  -1.714  -3.826  1.00  0.00    -0.000 C 
BRANCH  11  12
ATOM     12  C   UNL     1      19.109  -2.985  -4.681  1.00  0.00    -0.003 C 
ATOM     13  C   UNL     1      19.115  -2.689  -6.181  1.00  0.00     0.004 C 
ENDBRANCH  11  12
ENDBRANCH  10  11
ENDBRANCH   9  10
ENDBRANCH   8   9
ENDBRANCH   1   8
TORSDOF 9
ENDMDL
MODEL 8
REMARK VINA RESULT:    -4.295     10.169     12.471
REMARK INTER + INTRA:          -7.589
REMARK INTER:                  -6.451
REMARK INTRA:                  -1.139
REMARK UNBOUND:                -1.035
REMARK SMILES CCCCCCCCCCC(=O)[O-]
REMARK SMILES IDX 7 1 8 2 9 3 10 4 11 5 12 6 13 7 6 8 5 9 4 10 3 11 2 12 1 13
REMARK H PARENT
REMARK Flexibility Score: inf
ROOT
ATOM      1  C   UNL     1      28.871  -7.464  -4.136  1.00  0.00     0.000 C 
ENDROOT
BRANCH   1   2
ATOM      2  C   UNL     1      30.122  -6.681  -3.721  1.00  0.00     0.000 C 
BRANCH   2   3
ATOM      3  C   UNL     1      30.114  -5.271  -4.323  1.00  0.00     0.006 C 
BRANCH   3   4
ATOM      4  C   UNL     1      29.702  -4.231  -3.277  1.00  0.00     0.053 C 
BRANCH   4   5
ATOM      5  C   UNL     1      29.537  -2.886  -3.912  1.00  0.00     0.041 C 
ATOM      6  O   UNL     1      29.713  -2.744  -5.151  1.00  0.00    -0.550 OA
ATOM      7  O   UNL     1      29.236  -1.779  -3.129  1.00  0.00    -0.550 OA
ENDBRANCH   4   5
ENDBRANCH   3   4
ENDBRANCH   2   3
ENDBRANCH   1   2
BRANCH   1   8
ATOM      8  C   UNL     1      29.147  -8.331  -5.370  1.00  0.00     0.000 C 
BRANCH   8   9
ATOM      9  C   UNL     1      28.215  -7.949  -6.530  1.00  0.00    -0.000 C 
BRANCH   9  10
ATOM     10  C   UNL     1      26.915  -7.283  -6.052  1.00  0.00    -0.000 C 
BRANCH  10  11
ATOM     11  C   UNL     1      26.690  -5.901  -6.691  1.00  0.00    -0.000 C 
BRANCH  11  12
ATOM     12  C   UNL     1      26.731  -4.763  -5.660  1.00  0.00    -0.003 C 
ATOM     13  C   UNL     1      26.239  -5.198  -4.280  1.00  0.00     0.004 C 
ENDBRANCH  11  12
ENDBRANCH  10  11
ENDBRANCH   9  10
ENDBRANCH   8   9
ENDBRANCH   1   8
TORSDOF 9
ENDMDL
MODEL 9
REMARK VINA RESULT:    -4.237     10.211     11.949
REMARK INTER + INTRA:          -7.501
REMARK INTER:                  -6.289
REMARK INTRA:                  -1.212
REMARK UNBOUND:                -1.035
REMARK SMILES CCCCCCCCCCC(=O)[O-]
REMARK SMILES IDX 7 1 8 2 9 3 10 4 11 5 12 6 13 7 6 8 5 9 4 10 3 11 2 12 1 13
REMARK H PARENT
REMARK Flexibility Score: inf
ROOT
ATOM      1  C   UNL     1      26.677  -4.643  -5.017  1.00  0.00     0.000 C 
ENDROOT
BRANCH   1   2
ATOM      2  C   UNL     1      26.710  -5.605  -3.824  1.00  0.00     0.000 C 
BRANCH   2   3
ATOM      3  C   UNL     1      27.524  -6.862  -4.152  1.00  0.00     0.006 C 
BRANCH   3   4
ATOM      4  C   UNL     1      28.444  -6.623  -5.352  1.00  0.00     0.053 C 
BRANCH   4   5
ATOM      5  C   UNL     1      28.625  -7.886  -6.133  1.00  0.00     0.041 C 
ATOM      6  O   UNL     1      29.318  -8.827  -5.666  1.00  0.00    -0.550 OA
ATOM      7  O   UNL     1      28.066  -8.006  -7.400  1.00  0.00    -0.550 OA
ENDBRANCH   4   5
ENDBRANCH   3   4
ENDBRANCH   2   3
ENDBRANCH   1   2
BRANCH   1   8
ATOM      8  C   UNL     1      26.639  -3.184  -4.548  1.00  0.00     0.000 C 
BRANCH   8   9
ATOM      9  C   UNL     1      27.608  -2.318  -5.366  1.00  0.00    -0.000 C 
BRANCH   9  10
ATOM     10  C   UNL     1      28.882  -3.075  -5.772  1.00  0.00    -0.000 C 
BRANCH  10  11
ATOM     11  C   UNL     1      30.052  -2.826  -4.803  1.00  0.00    -0.000 C 
BRANCH  11  12
ATOM     12  C   UNL     1      30.125  -3.878  -3.686  1.00  0.00    -0.003 C 
ATOM     13  C   UNL     1      29.593  -3.359  -2.350  1.00  0.00     0.004 C 
ENDBRANCH  11  12
ENDBRANCH  10  11
ENDBRANCH   9  10
ENDBRANCH   8   9
ENDBRANCH   1   8
TORSDOF 9
ENDMDL
