MODEL 1
REMARK VINA RESULT:    -2.258      0.000      0.000
REMARK INTER + INTRA:          -2.258
REMARK INTER:                  -2.258
REMARK INTRA:                   0.000
REMARK UNBOUND:                 0.000
REMARK SMILES CC(=O)[O-]
REMARK SMILES IDX 1 1 2 2 3 3 4 4
REMARK H PARENT
REMARK Flexibility Score: inf
ROOT
ATOM      1  C   UNL     1      15.735 -38.125  28.364  1.00  0.00     0.063 C 
ATOM      2  C   UNL     1      17.077 -37.702  28.857  1.00  0.00     0.038 C 
ATOM      3  O   UNL     1      17.949 -37.297  28.044  1.00  0.00    -0.550 OA
ATOM      4  O   UNL     1      17.386 -37.805  30.207  1.00  0.00    -0.550 OA
ENDROOT
TORSDOF 0
ENDMDL
MODEL 2
REMARK VINA RESULT:    -2.212     16.008     16.648
REMARK INTER + INTRA:          -2.212
REMARK INTER:                  -2.212
REMARK INTRA:                   0.000
REMARK UNBOUND:                 0.000
REMARK SMILES CC(=O)[O-]
REMARK SMILES IDX 1 1 2 2 3 3 4 4
REMARK H PARENT
REMARK Flexibility Score: inf
ROOT
ATOM      1  C   UNL     1      23.417 -26.556  20.016  1.00  0.00     0.063 C 
ATOM      2  C   UNL     1      22.750 -25.284  19.615  1.00  0.00     0.038 C 
ATOM      3  O   UNL     1      21.503 -25.161  19.734  1.00  0.00    -0.550 OA
ATOM      4  O   UNL     1      23.496 -24.253  19.059  1.00  0.00    -0.550 OA
ENDROOT
TORSDOF 0
ENDMDL
MODEL 3
REMARK VINA RESULT:    -2.200     15.995     16.587
REMARK INTER + INTRA:          -2.200
REMARK INTER:                  -2.200
REMARK INTRA:                   0.000
REMARK UNBOUND:                 0.000
REMARK SMILES CC(=O)[O-]
REMARK SMILES IDX 1 1 2 2 3 3 4 4
REMARK H PARENT
REMARK Flexibility Score: inf
ROOT
ATOM      1  C   UNL     1      23.462 -26.575  19.879  1.00  0.00     0.063 C 
ATOM      2  C   UNL     1      22.773 -25.291  19.566  1.00  0.00     0.038 C 
ATOM      3  O   UNL     1      23.433 -24.307  19.142  1.00  0.00    -0.550 OA
ATOM      4  O   UNL     1      21.409 -25.160  19.795  1.00  0.00    -0.550 OA
ENDROOT
TORSDOF 0
ENDMDL
MODEL 4
REMARK VINA RESULT:    -2.166     15.924     16.503
REMARK INTER + INTRA:          -2.166
REMARK INTER:                  -2.166
REMARK INTRA:                   0.000
REMARK UNBOUND:                 0.000
REMARK SMILES CC(=O)[O-]
REMARK SMILES IDX 1 1 2 2 3 3 4 4
REMARK H PARENT
REMARK Flexibility Score: inf
ROOT
ATOM      1  C   UNL     1      21.315 -25.395  19.951  1.00  0.00     0.063 C 
ATOM      2  C   UNL     1      22.744 -25.391  19.525  1.00  0.00     0.038 C 
ATOM      3  O   UNL     1      23.324 -24.302  19.273  1.00  0.00    -0.550 OA
ATOM      4  O   UNL     1      23.422 -26.590  19.353  1.00  0.00    -0.550 OA
ENDROOT
TORSDOF 0
ENDMDL
MODEL 5
REMARK VINA RESULT:    -2.147     16.959     17.343
REMARK INTER + INTRA:          -2.147
REMARK INTER:                  -2.147
REMARK INTRA:                   0.000
REMARK UNBOUND:                 0.000
REMARK SMILES CC(=O)[O-]
REMARK SMILES IDX 1 1 2 2 3 3 4 4
REMARK H PARENT
REMARK Flexibility Score: inf
ROOT
ATOM      1  C   UNL     1      22.048 -25.065  20.086  1.00  0.00     0.063 C 
ATOM      2  C   UNL     1      23.266 -24.663  19.325  1.00  0.00     0.038 C 
ATOM      3  O   UNL     1      23.573 -25.266  18.263  1.00  0.00    -0.550 OA
ATOM      4  O   UNL     1      24.093 -23.661  19.814  1.00  0.00    -0.550 OA
ENDROOT
TORSDOF 0
ENDMDL
MODEL 6
REMARK VINA RESULT:    -2.143     16.849     17.377
REMARK INTER + INTRA:          -2.143
REMARK INTER:                  -2.143
REMARK INTRA:                   0.000
REMARK UNBOUND:                 0.000
REMARK SMILES CC(=O)[O-]
REMARK SMILES IDX 1 1 2 2 3 3 4 4
REMARK H PARENT
REMARK Flexibility Score: inf
ROOT
ATOM      1  C   UNL     1      23.246 -24.970  19.117  1.00  0.00     0.063 C 
ATOM      2  C   UNL     1      23.603 -24.108  20.281  1.00  0.00     0.038 C 
ATOM      3  O   UNL     1      24.375 -23.126  20.125  1.00  0.00    -0.550 OA
ATOM      4  O   UNL     1      23.129 -24.420  21.548  1.00  0.00    -0.550 OA
ENDROOT
TORSDOF 0
ENDMDL
MODEL 7
REMARK VINA RESULT:    -2.141      1.462      1.804
REMARK INTER + INTRA:          -2.141
REMARK INTER:                  -2.141
REMARK INTRA:                   0.000
REMARK UNBOUND:                 0.000
REMARK SMILES CC(=O)[O-]
REMARK SMILES IDX 1 1 2 2 3 3 4 4
REMARK H PARENT
REMARK Flexibility Score: inf
ROOT
ATOM      1  C   UNL     1      17.543 -37.735  29.894  1.00  0.00     0.063 C 
ATOM      2  C   UNL     1      16.757 -37.724  28.627  1.00  0.00     0.038 C 
ATOM      3  O   UNL     1      17.283 -37.307  27.562  1.00  0.00    -0.550 OA
ATOM      4  O   UNL     1      15.427 -38.122  28.630  1.00  0.00    -0.550 OA
ENDROOT
TORSDOF 0
ENDMDL
MODEL 8
REMARK VINA RESULT:    -2.135      9.371      9.909
REMARK INTER + INTRA:          -2.135
REMARK INTER:                  -2.135
REMARK INTRA:                   0.000
REMARK UNBOUND:                 0.000
REMARK SMILES CC(=O)[O-]
REMARK SMILES IDX 1 1 2 2 3 3 4 4
REMARK H PARENT
REMARK Flexibility Score: inf
ROOT
ATOM      1  C   UNL     1      13.462 -31.589  20.860  1.00  0.00     0.063 C 
ATOM      2  C   UNL     1      14.224 -32.869  20.789  1.00  0.00     0.038 C 
ATOM      3  O   UNL     1      14.279 -33.512  19.708  1.00  0.00    -0.550 OA
ATOM      4  O   UNL     1      14.829 -33.382  21.928  1.00  0.00    -0.550 OA
ENDROOT
TORSDOF 0
ENDMDL
MODEL 9
REMARK VINA RESULT:    -2.055     10.121     10.617
REMARK INTER + INTRA:          -2.055
REMARK INTER:                  -2.055
REMARK INTRA:                   0.000
REMARK UNBOUND:                 0.000
REMARK SMILES CC(=O)[O-]
REMARK SMILES IDX 1 1 2 2 3 3 4 4
REMARK H PARENT
REMARK Flexibility Score: inf
ROOT
ATOM      1  C   UNL     1      13.415 -31.453  21.107  1.00  0.00     0.063 C 
ATOM      2  C   UNL     1      12.719 -30.891  22.300  1.00  0.00     0.038 C 
ATOM      3  O   UNL     1      13.131 -31.164  23.457  1.00  0.00    -0.550 OA
ATOM      4  O   UNL     1      11.582 -30.110  22.137  1.00  0.00    -0.550 OA
ENDROOT
TORSDOF 0
ENDMDL
