MODEL 1
REMARK VINA RESULT:    -3.653      0.000      0.000
REMARK INTER + INTRA:          -4.577
REMARK INTER:                  -4.507
REMARK INTRA:                  -0.069
REMARK UNBOUND:                -0.069
REMARK SMILES CCCCCC(=O)[O-]
REMARK SMILES IDX 4 1 5 2 6 3 7 4 8 5 3 6 2 7 1 8
REMARK H PARENT
REMARK Flexibility Score: inf
ROOT
ATOM      1  C   UNL     1      45.836  12.898 -32.845  1.00  0.00     0.006 C 
ENDROOT
BRANCH   1   2
ATOM      2  C   UNL     1      46.286  11.915 -31.754  1.00  0.00     0.053 C 
BRANCH   2   3
ATOM      3  C   UNL     1      46.108  12.483 -30.380  1.00  0.00     0.041 C 
ATOM      4  O   UNL     1      46.566  11.875 -29.378  1.00  0.00    -0.550 OA
ATOM      5  O   UNL     1      45.408  13.670 -30.205  1.00  0.00    -0.550 OA
ENDBRANCH   2   3
ENDBRANCH   1   2
BRANCH   1   6
ATOM      6  C   UNL     1      44.425  12.630 -33.407  1.00  0.00     0.000 C 
BRANCH   6   7
ATOM      7  C   UNL     1      44.379  12.266 -34.901  1.00  0.00    -0.003 C 
ATOM      8  C   UNL     1      42.970  11.932 -35.392  1.00  0.00     0.004 C 
ENDBRANCH   6   7
ENDBRANCH   1   6
TORSDOF 4
ENDMDL
MODEL 2
REMARK VINA RESULT:    -3.416      5.981      7.277
REMARK INTER + INTRA:          -4.284
REMARK INTER:                  -4.187
REMARK INTRA:                  -0.097
REMARK UNBOUND:                -0.069
REMARK SMILES CCCCCC(=O)[O-]
REMARK SMILES IDX 4 1 5 2 6 3 7 4 8 5 3 6 2 7 1 8
REMARK H PARENT
REMARK Flexibility Score: inf
ROOT
ATOM      1  C   UNL     1      40.243  14.491 -35.940  1.00  0.00     0.006 C 
ENDROOT
BRANCH   1   2
ATOM      2  C   UNL     1      39.141  13.424 -35.850  1.00  0.00     0.053 C 
BRANCH   2   3
ATOM      3  C   UNL     1      38.001  13.868 -34.987  1.00  0.00     0.041 C 
ATOM      4  O   UNL     1      37.182  13.027 -34.534  1.00  0.00    -0.550 OA
ATOM      5  O   UNL     1      37.826  15.218 -34.708  1.00  0.00    -0.550 OA
ENDBRANCH   2   3
ENDBRANCH   1   2
BRANCH   1   6
ATOM      6  C   UNL     1      41.668  13.926 -36.114  1.00  0.00     0.000 C 
BRANCH   6   7
ATOM      7  C   UNL     1      41.761  12.390 -36.113  1.00  0.00    -0.003 C 
ATOM      8  C   UNL     1      43.149  11.877 -35.729  1.00  0.00     0.004 C 
ENDBRANCH   6   7
ENDBRANCH   1   6
TORSDOF 4
ENDMDL
MODEL 3
REMARK VINA RESULT:    -3.415      6.057      7.349
REMARK INTER + INTRA:          -4.282
REMARK INTER:                  -4.238
REMARK INTRA:                  -0.044
REMARK UNBOUND:                -0.069
REMARK SMILES CCCCCC(=O)[O-]
REMARK SMILES IDX 4 1 5 2 6 3 7 4 8 5 3 6 2 7 1 8
REMARK H PARENT
REMARK Flexibility Score: inf
ROOT
ATOM      1  C   UNL     1      40.522  13.149 -35.716  1.00  0.00     0.006 C 
ENDROOT
BRANCH   1   2
ATOM      2  C   UNL     1      39.920  14.563 -35.729  1.00  0.00     0.053 C 
BRANCH   2   3
ATOM      3  C   UNL     1      38.423  14.534 -35.743  1.00  0.00     0.041 C 
ATOM      4  O   UNL     1      37.770  14.974 -34.762  1.00  0.00    -0.550 OA
ATOM      5  O   UNL     1      37.750  13.991 -36.830  1.00  0.00    -0.550 OA
ENDBRANCH   2   3
ENDBRANCH   1   2
BRANCH   1   6
ATOM      6  C   UNL     1      41.912  13.040 -36.375  1.00  0.00     0.000 C 
BRANCH   6   7
ATOM      7  C   UNL     1      42.782  11.876 -35.866  1.00  0.00    -0.003 C 
ATOM      8  C   UNL     1      44.188  11.876 -36.464  1.00  0.00     0.004 C 
ENDBRANCH   6   7
ENDBRANCH   1   6
TORSDOF 4
ENDMDL
MODEL 4
REMARK VINA RESULT:    -3.347      3.362      4.966
REMARK INTER + INTRA:          -4.199
REMARK INTER:                  -4.125
REMARK INTRA:                  -0.074
REMARK UNBOUND:                -0.069
REMARK SMILES CCCCCC(=O)[O-]
REMARK SMILES IDX 4 1 5 2 6 3 7 4 8 5 3 6 2 7 1 8
REMARK H PARENT
REMARK Flexibility Score: inf
ROOT
ATOM      1  C   UNL     1      45.132  12.970 -33.517  1.00  0.00     0.006 C 
ENDROOT
BRANCH   1   2
ATOM      2  C   UNL     1      43.802  12.253 -33.798  1.00  0.00     0.053 C 
BRANCH   2   3
ATOM      3  C   UNL     1      43.555  12.087 -35.265  1.00  0.00     0.041 C 
ATOM      4  O   UNL     1      44.512  12.142 -36.081  1.00  0.00    -0.550 OA
ATOM      5  O   UNL     1      42.261  11.902 -35.735  1.00  0.00    -0.550 OA
ENDBRANCH   2   3
ENDBRANCH   1   2
BRANCH   1   6
ATOM      6  C   UNL     1      45.948  12.372 -32.352  1.00  0.00     0.000 C 
BRANCH   6   7
ATOM      7  C   UNL     1      45.610  12.942 -30.963  1.00  0.00    -0.003 C 
ATOM      8  C   UNL     1      46.201  12.118 -29.820  1.00  0.00     0.004 C 
ENDBRANCH   6   7
ENDBRANCH   1   6
TORSDOF 4
ENDMDL
MODEL 5
REMARK VINA RESULT:    -3.230     18.504     19.199
REMARK INTER + INTRA:          -4.055
REMARK INTER:                  -3.925
REMARK INTRA:                  -0.129
REMARK UNBOUND:                -0.069
REMARK SMILES CCCCCC(=O)[O-]
REMARK SMILES IDX 4 1 5 2 6 3 7 4 8 5 3 6 2 7 1 8
REMARK H PARENT
REMARK Flexibility Score: inf
ROOT
ATOM      1  C   UNL     1      55.700  29.439 -36.356  1.00  0.00     0.006 C 
ENDROOT
BRANCH   1   2
ATOM      2  C   UNL     1      56.635  28.450 -35.643  1.00  0.00     0.053 C 
BRANCH   2   3
ATOM      3  C   UNL     1      55.874  27.437 -34.845  1.00  0.00     0.041 C 
ATOM      4  O   UNL     1      55.313  26.468 -35.419  1.00  0.00    -0.550 OA
ATOM      5  O   UNL     1      55.758  27.582 -33.468  1.00  0.00    -0.550 OA
ENDBRANCH   2   3
ENDBRANCH   1   2
BRANCH   1   6
ATOM      6  C   UNL     1      55.599  29.237 -37.881  1.00  0.00     0.000 C 
BRANCH   6   7
ATOM      7  C   UNL     1      54.170  29.032 -38.415  1.00  0.00    -0.003 C 
ATOM      8  C   UNL     1      53.984  27.691 -39.124  1.00  0.00     0.004 C 
ENDBRANCH   6   7
ENDBRANCH   1   6
TORSDOF 4
ENDMDL
MODEL 6
REMARK VINA RESULT:    -3.199     19.049     20.001
REMARK INTER + INTRA:          -4.016
REMARK INTER:                  -3.843
REMARK INTRA:                  -0.173
REMARK UNBOUND:                -0.069
REMARK SMILES CCCCCC(=O)[O-]
REMARK SMILES IDX 4 1 5 2 6 3 7 4 8 5 3 6 2 7 1 8
REMARK H PARENT
REMARK Flexibility Score: inf
ROOT
ATOM      1  C   UNL     1      56.603  29.034 -36.076  1.00  0.00     0.006 C 
ENDROOT
BRANCH   1   2
ATOM      2  C   UNL     1      55.584  29.994 -36.709  1.00  0.00     0.053 C 
BRANCH   2   3
ATOM      3  C   UNL     1      55.121  29.515 -38.050  1.00  0.00     0.041 C 
ATOM      4  O   UNL     1      55.172  30.278 -39.050  1.00  0.00    -0.550 OA
ATOM      5  O   UNL     1      54.603  28.233 -38.189  1.00  0.00    -0.550 OA
ENDBRANCH   2   3
ENDBRANCH   1   2
BRANCH   1   6
ATOM      6  C   UNL     1      56.062  28.224 -34.881  1.00  0.00     0.000 C 
BRANCH   6   7
ATOM      7  C   UNL     1      56.355  26.714 -34.935  1.00  0.00    -0.003 C 
ATOM      8  C   UNL     1      55.234  25.912 -35.595  1.00  0.00     0.004 C 
ENDBRANCH   6   7
ENDBRANCH   1   6
TORSDOF 4
ENDMDL
MODEL 7
REMARK VINA RESULT:    -2.975     18.677     19.638
REMARK INTER + INTRA:          -3.740
REMARK INTER:                  -3.670
REMARK INTRA:                  -0.069
REMARK UNBOUND:                -0.069
REMARK SMILES CCCCCC(=O)[O-]
REMARK SMILES IDX 4 1 5 2 6 3 7 4 8 5 3 6 2 7 1 8
REMARK H PARENT
REMARK Flexibility Score: inf
ROOT
ATOM      1  C   UNL     1      56.027  27.964 -32.890  1.00  0.00     0.006 C 
ENDROOT
BRANCH   1   2
ATOM      2  C   UNL     1      56.743  27.360 -34.108  1.00  0.00     0.053 C 
BRANCH   2   3
ATOM      3  C   UNL     1      55.810  27.158 -35.262  1.00  0.00     0.041 C 
ATOM      4  O   UNL     1      55.278  26.035 -35.459  1.00  0.00    -0.550 OA
ATOM      5  O   UNL     1      55.554  28.205 -36.139  1.00  0.00    -0.550 OA
ENDBRANCH   2   3
ENDBRANCH   1   2
BRANCH   1   6
ATOM      6  C   UNL     1      56.384  29.436 -32.603  1.00  0.00     0.000 C 
BRANCH   6   7
ATOM      7  C   UNL     1      55.579  30.089 -31.465  1.00  0.00    -0.003 C 
ATOM      8  C   UNL     1      54.720  31.262 -31.938  1.00  0.00     0.004 C 
ENDBRANCH   6   7
ENDBRANCH   1   6
TORSDOF 4
ENDMDL
MODEL 8
REMARK VINA RESULT:    -2.939     18.472     19.224
REMARK INTER + INTRA:          -3.695
REMARK INTER:                  -3.626
REMARK INTRA:                  -0.069
REMARK UNBOUND:                -0.069
REMARK SMILES CCCCCC(=O)[O-]
REMARK SMILES IDX 4 1 5 2 6 3 7 4 8 5 3 6 2 7 1 8
REMARK H PARENT
REMARK Flexibility Score: inf
ROOT
ATOM      1  C   UNL     1      55.881  27.945 -32.641  1.00  0.00     0.006 C 
ENDROOT
BRANCH   1   2
ATOM      2  C   UNL     1      56.591  28.165 -31.296  1.00  0.00     0.053 C 
BRANCH   2   3
ATOM      3  C   UNL     1      55.996  29.303 -30.527  1.00  0.00     0.041 C 
ATOM      4  O   UNL     1      56.031  29.308 -29.269  1.00  0.00    -0.550 OA
ATOM      5  O   UNL     1      55.372  30.345 -31.202  1.00  0.00    -0.550 OA
ENDBRANCH   2   3
ENDBRANCH   1   2
BRANCH   1   6
ATOM      6  C   UNL     1      56.826  27.635 -33.820  1.00  0.00     0.000 C 
BRANCH   6   7
ATOM      7  C   UNL     1      56.133  27.493 -35.186  1.00  0.00    -0.003 C 
ATOM      8  C   UNL     1      55.387  26.168 -35.342  1.00  0.00     0.004 C 
ENDBRANCH   6   7
ENDBRANCH   1   6
TORSDOF 4
ENDMDL
