MODEL 1
REMARK VINA RESULT:    -2.700      0.000      0.000
REMARK INTER + INTRA:          -3.256
REMARK INTER:                  -3.174
REMARK INTRA:                  -0.082
REMARK UNBOUND:                -0.082
REMARK SMILES CCCCC(=O)[O-]
REMARK SMILES IDX 4 1 5 2 6 3 7 4 3 5 2 6 1 7
REMARK H PARENT
REMARK Flexibility Score: inf
ROOT
ATOM      1  C   UNL     1     -21.733 -20.961  -1.261  1.00  0.00     0.053 C 
ENDROOT
BRANCH   1   2
ATOM      2  C   UNL     1     -22.296 -22.117  -0.495  1.00  0.00     0.041 C 
ATOM      3  O   UNL     1     -22.398 -22.056   0.759  1.00  0.00    -0.550 OA
ATOM      4  O   UNL     1     -22.678 -23.275  -1.161  1.00  0.00    -0.550 OA
ENDBRANCH   1   2
BRANCH   1   5
ATOM      5  C   UNL     1     -21.312 -19.813  -0.334  1.00  0.00     0.006 C 
BRANCH   5   6
ATOM      6  C   UNL     1     -22.321 -18.655  -0.350  1.00  0.00    -0.003 C 
ATOM      7  C   UNL     1     -23.130 -18.649  -1.643  1.00  0.00     0.004 C 
ENDBRANCH   5   6
ENDBRANCH   1   5
TORSDOF 3
ENDMDL
MODEL 2
REMARK VINA RESULT:    -2.691      0.749      1.837
REMARK INTER + INTRA:          -3.246
REMARK INTER:                  -3.181
REMARK INTRA:                  -0.064
REMARK UNBOUND:                -0.082
REMARK SMILES CCCCC(=O)[O-]
REMARK SMILES IDX 4 1 5 2 6 3 7 4 3 5 2 6 1 7
REMARK H PARENT
REMARK Flexibility Score: inf
ROOT
ATOM      1  C   UNL     1     -21.649 -20.907  -1.100  1.00  0.00     0.053 C 
ENDROOT
BRANCH   1   2
ATOM      2  C   UNL     1     -22.360 -22.064  -0.470  1.00  0.00     0.041 C 
ATOM      3  O   UNL     1     -22.564 -23.118  -1.130  1.00  0.00    -0.550 OA
ATOM      4  O   UNL     1     -22.829 -21.968   0.834  1.00  0.00    -0.550 OA
ENDBRANCH   1   2
BRANCH   1   5
ATOM      5  C   UNL     1     -22.508 -19.636  -1.091  1.00  0.00     0.006 C 
BRANCH   5   6
ATOM      6  C   UNL     1     -22.073 -18.650   0.003  1.00  0.00    -0.003 C 
ATOM      7  C   UNL     1     -20.717 -19.039   0.585  1.00  0.00     0.004 C 
ENDBRANCH   5   6
ENDBRANCH   1   5
TORSDOF 3
ENDMDL
MODEL 3
REMARK VINA RESULT:    -2.649      8.715      9.541
REMARK INTER + INTRA:          -3.196
REMARK INTER:                  -3.179
REMARK INTRA:                  -0.017
REMARK UNBOUND:                -0.082
REMARK SMILES CCCCC(=O)[O-]
REMARK SMILES IDX 4 1 5 2 6 3 7 4 3 5 2 6 1 7
REMARK H PARENT
REMARK Flexibility Score: inf
ROOT
ATOM      1  C   UNL     1     -19.168 -12.430  -3.474  1.00  0.00     0.053 C 
ENDROOT
BRANCH   1   2
ATOM      2  C   UNL     1     -20.180 -12.286  -4.567  1.00  0.00     0.041 C 
ATOM      3  O   UNL     1     -21.410 -12.356  -4.305  1.00  0.00    -0.550 OA
ATOM      4  O   UNL     1     -19.767 -12.107  -5.881  1.00  0.00    -0.550 OA
ENDBRANCH   1   2
BRANCH   1   5
ATOM      5  C   UNL     1     -18.578 -13.846  -3.426  1.00  0.00     0.006 C 
BRANCH   5   6
ATOM      6  C   UNL     1     -17.179 -13.871  -2.795  1.00  0.00    -0.003 C 
ATOM      7  C   UNL     1     -17.169 -14.695  -1.511  1.00  0.00     0.004 C 
ENDBRANCH   5   6
ENDBRANCH   1   5
TORSDOF 3
ENDMDL
MODEL 4
REMARK VINA RESULT:    -2.601      7.917      8.714
REMARK INTER + INTRA:          -3.139
REMARK INTER:                  -3.064
REMARK INTRA:                  -0.075
REMARK UNBOUND:                -0.082
REMARK SMILES CCCCC(=O)[O-]
REMARK SMILES IDX 4 1 5 2 6 3 7 4 3 5 2 6 1 7
REMARK H PARENT
REMARK Flexibility Score: inf
ROOT
ATOM      1  C   UNL     1     -17.163 -14.588  -2.733  1.00  0.00     0.053 C 
ENDROOT
BRANCH   1   2
ATOM      2  C   UNL     1     -18.185 -13.607  -3.218  1.00  0.00     0.041 C 
ATOM      3  O   UNL     1     -19.109 -13.983  -3.986  1.00  0.00    -0.550 OA
ATOM      4  O   UNL     1     -18.097 -12.270  -2.850  1.00  0.00    -0.550 OA
ENDBRANCH   1   2
BRANCH   1   5
ATOM      5  C   UNL     1     -16.897 -14.439  -1.229  1.00  0.00     0.006 C 
BRANCH   5   6
ATOM      6  C   UNL     1     -18.109 -14.853  -0.382  1.00  0.00    -0.003 C 
ATOM      7  C   UNL     1     -17.669 -15.509   0.923  1.00  0.00     0.004 C 
ENDBRANCH   5   6
ENDBRANCH   1   5
TORSDOF 3
ENDMDL
MODEL 5
REMARK VINA RESULT:    -2.594      7.538      8.440
REMARK INTER + INTRA:          -3.131
REMARK INTER:                  -3.113
REMARK INTRA:                  -0.018
REMARK UNBOUND:                -0.082
REMARK SMILES CCCCC(=O)[O-]
REMARK SMILES IDX 4 1 5 2 6 3 7 4 3 5 2 6 1 7
REMARK H PARENT
REMARK Flexibility Score: inf
ROOT
ATOM      1  C   UNL     1     -16.514 -20.469   4.785  1.00  0.00     0.053 C 
ENDROOT
BRANCH   1   2
ATOM      2  C   UNL     1     -15.724 -20.586   6.051  1.00  0.00     0.041 C 
ATOM      3  O   UNL     1     -16.056 -19.921   7.068  1.00  0.00    -0.550 OA
ATOM      4  O   UNL     1     -14.601 -21.402   6.100  1.00  0.00    -0.550 OA
ENDBRANCH   1   2
BRANCH   1   5
ATOM      5  C   UNL     1     -15.648 -19.983   3.615  1.00  0.00     0.006 C 
BRANCH   5   6
ATOM      6  C   UNL     1     -16.292 -20.283   2.253  1.00  0.00    -0.003 C 
ATOM      7  C   UNL     1     -17.305 -19.207   1.875  1.00  0.00     0.004 C 
ENDBRANCH   5   6
ENDBRANCH   1   5
TORSDOF 3
ENDMDL
MODEL 6
REMARK VINA RESULT:    -2.491      1.910      2.538
REMARK INTER + INTRA:          -3.010
REMARK INTER:                  -2.933
REMARK INTRA:                  -0.077
REMARK UNBOUND:                -0.082
REMARK SMILES CCCCC(=O)[O-]
REMARK SMILES IDX 4 1 5 2 6 3 7 4 3 5 2 6 1 7
REMARK H PARENT
REMARK Flexibility Score: inf
ROOT
ATOM      1  C   UNL     1     -22.656 -21.403   0.842  1.00  0.00     0.053 C 
ENDROOT
BRANCH   1   2
ATOM      2  C   UNL     1     -21.703 -21.784   1.932  1.00  0.00     0.041 C 
ATOM      3  O   UNL     1     -20.640 -21.131   2.101  1.00  0.00    -0.550 OA
ATOM      4  O   UNL     1     -21.972 -22.881   2.741  1.00  0.00    -0.550 OA
ENDBRANCH   1   2
BRANCH   1   5
ATOM      5  C   UNL     1     -22.149 -21.844  -0.538  1.00  0.00     0.006 C 
BRANCH   5   6
ATOM      6  C   UNL     1     -21.581 -20.671  -1.349  1.00  0.00    -0.003 C 
ATOM      7  C   UNL     1     -22.526 -19.474  -1.321  1.00  0.00     0.004 C 
ENDBRANCH   5   6
ENDBRANCH   1   5
TORSDOF 3
ENDMDL
MODEL 7
REMARK VINA RESULT:    -2.486      6.034      6.842
REMARK INTER + INTRA:          -3.004
REMARK INTER:                  -2.911
REMARK INTRA:                  -0.093
REMARK UNBOUND:                -0.082
REMARK SMILES CCCCC(=O)[O-]
REMARK SMILES IDX 4 1 5 2 6 3 7 4 3 5 2 6 1 7
REMARK H PARENT
REMARK Flexibility Score: inf
ROOT
ATOM      1  C   UNL     1     -16.727 -19.788   1.843  1.00  0.00     0.053 C 
ENDROOT
BRANCH   1   2
ATOM      2  C   UNL     1     -16.154 -20.190   3.167  1.00  0.00     0.041 C 
ATOM      3  O   UNL     1     -16.916 -20.540   4.106  1.00  0.00    -0.550 OA
ATOM      4  O   UNL     1     -14.781 -20.146   3.374  1.00  0.00    -0.550 OA
ENDBRANCH   1   2
BRANCH   1   5
ATOM      5  C   UNL     1     -18.029 -18.992   2.003  1.00  0.00     0.006 C 
BRANCH   5   6
ATOM      6  C   UNL     1     -17.797 -17.477   1.907  1.00  0.00    -0.003 C 
ATOM      7  C   UNL     1     -17.743 -16.841   3.293  1.00  0.00     0.004 C 
ENDBRANCH   5   6
ENDBRANCH   1   5
TORSDOF 3
ENDMDL
MODEL 8
REMARK VINA RESULT:    -2.464      5.610      6.540
REMARK INTER + INTRA:          -2.979
REMARK INTER:                  -2.913
REMARK INTRA:                  -0.065
REMARK UNBOUND:                -0.082
REMARK SMILES CCCCC(=O)[O-]
REMARK SMILES IDX 4 1 5 2 6 3 7 4 3 5 2 6 1 7
REMARK H PARENT
REMARK Flexibility Score: inf
ROOT
ATOM      1  C   UNL     1     -17.543 -20.036   3.170  1.00  0.00     0.053 C 
ENDROOT
BRANCH   1   2
ATOM      2  C   UNL     1     -16.215 -20.132   2.484  1.00  0.00     0.041 C 
ATOM      3  O   UNL     1     -16.153 -20.162   1.227  1.00  0.00    -0.550 OA
ATOM      4  O   UNL     1     -15.049 -20.222   3.233  1.00  0.00    -0.550 OA
ENDBRANCH   1   2
BRANCH   1   5
ATOM      5  C   UNL     1     -18.142 -21.421   3.450  1.00  0.00     0.006 C 
BRANCH   5   6
ATOM      6  C   UNL     1     -19.653 -21.464   3.181  1.00  0.00    -0.003 C 
ATOM      7  C   UNL     1     -20.084 -20.310   2.282  1.00  0.00     0.004 C 
ENDBRANCH   5   6
ENDBRANCH   1   5
TORSDOF 3
ENDMDL
MODEL 9
REMARK VINA RESULT:    -2.380      5.124      6.270
REMARK INTER + INTRA:          -2.880
REMARK INTER:                  -2.782
REMARK INTRA:                  -0.098
REMARK UNBOUND:                -0.082
REMARK SMILES CCCCC(=O)[O-]
REMARK SMILES IDX 4 1 5 2 6 3 7 4 3 5 2 6 1 7
REMARK H PARENT
REMARK Flexibility Score: inf
ROOT
ATOM      1  C   UNL     1     -17.626 -18.867   2.109  1.00  0.00     0.053 C 
ENDROOT
BRANCH   1   2
ATOM      2  C   UNL     1     -18.986 -19.491   2.058  1.00  0.00     0.041 C 
ATOM      3  O   UNL     1     -19.298 -20.397   2.874  1.00  0.00    -0.550 OA
ATOM      4  O   UNL     1     -19.898 -19.096   1.087  1.00  0.00    -0.550 OA
ENDBRANCH   1   2
BRANCH   1   5
ATOM      5  C   UNL     1     -16.518 -19.889   1.825  1.00  0.00     0.006 C 
BRANCH   5   6
ATOM      6  C   UNL     1     -15.691 -20.211   3.078  1.00  0.00    -0.003 C 
ATOM      7  C   UNL     1     -16.006 -19.238   4.209  1.00  0.00     0.004 C 
ENDBRANCH   5   6
ENDBRANCH   1   5
TORSDOF 3
ENDMDL
