MODEL 1
REMARK VINA RESULT:    21.147      0.000      0.000
REMARK INTER + INTRA:          22.157
REMARK INTER:                  22.383
REMARK INTRA:                  -0.226
REMARK UNBOUND:                -0.226
REMARK SMILES CC(C)[C@@H]1CC[C@@H](C)[C@@H]2C=C[C@H](C)C[C@@H]21
REMARK SMILES IDX 8 1 7 2 6 3 5 4 4 5 15 6 9 7 10 8 11 9 12 10 14 11 13 12
REMARK SMILES IDX 2 13 1 14 3 15
REMARK H PARENT
REMARK Flexibility Score: inf
ROOT
ATOM      1  C   UNL     1       2.864   4.731  -8.883  1.00  0.00     0.008 C 
ATOM      2  C   UNL     1       1.337   4.888  -8.983  1.00  0.00    -0.007 C 
ATOM      3  C   UNL     1       0.751   3.882 -10.006  1.00  0.00     0.004 C 
ATOM      4  C   UNL     1       0.575   4.504 -11.390  1.00  0.00     0.004 C 
ATOM      5  C   UNL     1      -0.397   5.720 -11.374  1.00  0.00    -0.005 C 
ATOM      6  C   UNL     1      -0.405   6.510 -10.013  1.00  0.00    -0.000 C 
ATOM      7  C   UNL     1       0.959   6.374  -9.291  1.00  0.00     0.018 C 
ATOM      8  C   UNL     1       0.981   7.186  -8.013  1.00  0.00    -0.027 C 
ATOM      9  C   UNL     1      -0.130   7.464  -7.312  1.00  0.00    -0.028 C 
ATOM     10  C   UNL     1      -1.525   7.191  -7.837  1.00  0.00     0.008 C 
ATOM     11  C   UNL     1      -1.541   6.190  -9.013  1.00  0.00     0.012 C 
ATOM     12  C   UNL     1      -2.430   6.704  -6.702  1.00  0.00     0.012 C 
ENDROOT
BRANCH   5  13
ATOM     13  C   UNL     1      -1.806   5.430 -11.996  1.00  0.00    -0.014 C 
ATOM     14  C   UNL     1      -2.521   6.734 -12.390  1.00  0.00     0.007 C 
ATOM     15  C   UNL     1      -1.785   4.478 -13.207  1.00  0.00     0.007 C 
ENDBRANCH   5  13
TORSDOF 1
ENDMDL
MODEL 2
REMARK VINA RESULT:    23.483      1.018      3.830
REMARK INTER + INTRA:          24.630
REMARK INTER:                  24.374
REMARK INTRA:                   0.256
REMARK UNBOUND:                -0.226
REMARK SMILES CC(C)[C@@H]1CC[C@@H](C)[C@@H]2C=C[C@H](C)C[C@@H]21
REMARK SMILES IDX 8 1 7 2 6 3 5 4 4 5 15 6 9 7 10 8 11 9 12 10 14 11 13 12
REMARK SMILES IDX 2 13 1 14 3 15
REMARK H PARENT
REMARK Flexibility Score: inf
ROOT
ATOM      1  C   UNL     1      -2.410   6.140 -11.879  1.00  0.00     0.008 C 
ATOM      2  C   UNL     1      -1.229   6.383 -10.924  1.00  0.00    -0.007 C 
ATOM      3  C   UNL     1       0.097   5.895 -11.562  1.00  0.00     0.004 C 
ATOM      4  C   UNL     1       0.461   4.479 -11.121  1.00  0.00     0.004 C 
ATOM      5  C   UNL     1       0.655   4.368  -9.581  1.00  0.00    -0.005 C 
ATOM      6  C   UNL     1      -0.221   5.381  -8.755  1.00  0.00    -0.000 C 
ATOM      7  C   UNL     1      -1.515   5.744  -9.526  1.00  0.00     0.018 C 
ATOM      8  C   UNL     1      -2.394   6.667  -8.709  1.00  0.00    -0.027 C 
ATOM      9  C   UNL     1      -1.900   7.506  -7.783  1.00  0.00    -0.028 C 
ATOM     10  C   UNL     1      -0.462   7.456  -7.310  1.00  0.00     0.008 C 
ATOM     11  C   UNL     1       0.464   6.682  -8.274  1.00  0.00     0.012 C 
ATOM     12  C   UNL     1       0.066   8.874  -7.077  1.00  0.00     0.012 C 
ENDROOT
BRANCH   5  13
ATOM     13  C   UNL     1       2.149   4.238  -9.125  1.00  0.00    -0.014 C 
ATOM     14  C   UNL     1       2.851   3.070  -9.840  1.00  0.00     0.007 C 
ATOM     15  C   UNL     1       2.986   5.519  -9.306  1.00  0.00     0.007 C 
ENDBRANCH   5  13
TORSDOF 1
ENDMDL
