MODEL 1
REMARK VINA RESULT:    -4.384      0.000      0.000
REMARK INTER + INTRA:          -9.582
REMARK INTER:                  -7.716
REMARK INTRA:                  -1.866
REMARK UNBOUND:                -1.866
REMARK SMILES CCCCCCCCCCCCCCC(=O)[O-]
REMARK SMILES IDX 9 1 10 2 11 3 12 4 13 5 14 6 15 7 16 8 17 9 8 10 7 11 6 12
REMARK SMILES IDX 5 13 4 14 3 15 2 16 1 17
REMARK H PARENT
REMARK Flexibility Score: inf
ROOT
ATOM      1  C   UNL     1      15.048   2.926   1.557  1.00  0.00     0.000 C 
ENDROOT
BRANCH   1   2
ATOM      2  C   UNL     1      13.755   2.938   2.397  1.00  0.00     0.000 C 
BRANCH   2   3
ATOM      3  C   UNL     1      12.528   2.296   1.719  1.00  0.00     0.000 C 
BRANCH   3   4
ATOM      4  C   UNL     1      11.538   3.293   1.092  1.00  0.00     0.000 C 
BRANCH   4   5
ATOM      5  C   UNL     1      11.654   4.706   1.692  1.00  0.00     0.006 C 
BRANCH   5   6
ATOM      6  C   UNL     1      10.295   5.255   2.145  1.00  0.00     0.053 C 
BRANCH   6   7
ATOM      7  C   UNL     1       9.336   5.375   1.001  1.00  0.00     0.041 C 
ATOM      8  O   UNL     1       9.571   6.177   0.058  1.00  0.00    -0.550 OA
ATOM      9  O   UNL     1       8.165   4.628   0.992  1.00  0.00    -0.550 OA
ENDBRANCH   6   7
ENDBRANCH   5   6
ENDBRANCH   4   5
ENDBRANCH   3   4
ENDBRANCH   2   3
ENDBRANCH   1   2
BRANCH   1  10
ATOM     10  C   UNL     1      15.122   4.012   0.466  1.00  0.00     0.000 C 
BRANCH  10  11
ATOM     11  C   UNL     1      15.560   3.508  -0.923  1.00  0.00    -0.000 C 
BRANCH  11  12
ATOM     12  C   UNL     1      14.590   3.836  -2.076  1.00  0.00    -0.000 C 
BRANCH  12  13
ATOM     13  C   UNL     1      13.193   3.201  -1.959  1.00  0.00    -0.000 C 
BRANCH  13  14
ATOM     14  C   UNL     1      13.128   1.783  -2.549  1.00  0.00    -0.000 C 
BRANCH  14  15
ATOM     15  C   UNL     1      13.156   0.688  -1.469  1.00  0.00    -0.000 C 
BRANCH  15  16
ATOM     16  C   UNL     1      14.421  -0.197  -1.517  1.00  0.00    -0.003 C 
ATOM     17  C   UNL     1      15.086  -0.184  -2.893  1.00  0.00     0.004 C 
ENDBRANCH  15  16
ENDBRANCH  14  15
ENDBRANCH  13  14
ENDBRANCH  12  13
ENDBRANCH  11  12
ENDBRANCH  10  11
ENDBRANCH   1  10
TORSDOF 13
ENDMDL
MODEL 2
REMARK VINA RESULT:    -4.233     13.626     15.200
REMARK INTER + INTRA:          -9.316
REMARK INTER:                  -7.615
REMARK INTRA:                  -1.701
REMARK UNBOUND:                -1.866
REMARK SMILES CCCCCCCCCCCCCCC(=O)[O-]
REMARK SMILES IDX 9 1 10 2 11 3 12 4 13 5 14 6 15 7 16 8 17 9 8 10 7 11 6 12
REMARK SMILES IDX 5 13 4 14 3 15 2 16 1 17
REMARK H PARENT
REMARK Flexibility Score: inf
ROOT
ATOM      1  C   UNL     1      14.735  15.826  -0.088  1.00  0.00     0.000 C 
ENDROOT
BRANCH   1   2
ATOM      2  C   UNL     1      14.226  16.601   1.144  1.00  0.00     0.000 C 
BRANCH   2   3
ATOM      3  C   UNL     1      15.315  17.337   1.950  1.00  0.00     0.000 C 
BRANCH   3   4
ATOM      4  C   UNL     1      15.676  18.738   1.425  1.00  0.00     0.000 C 
BRANCH   4   5
ATOM      5  C   UNL     1      17.178  19.051   1.543  1.00  0.00     0.006 C 
BRANCH   5   6
ATOM      6  C   UNL     1      17.975  18.523   0.344  1.00  0.00     0.053 C 
BRANCH   6   7
ATOM      7  C   UNL     1      18.596  17.191   0.633  1.00  0.00     0.041 C 
ATOM      8  O   UNL     1      18.290  16.185  -0.060  1.00  0.00    -0.550 OA
ATOM      9  O   UNL     1      19.485  17.052   1.692  1.00  0.00    -0.550 OA
ENDBRANCH   6   7
ENDBRANCH   5   6
ENDBRANCH   4   5
ENDBRANCH   3   4
ENDBRANCH   2   3
ENDBRANCH   1   2
BRANCH   1  10
ATOM     10  C   UNL     1      14.381  16.464  -1.446  1.00  0.00     0.000 C 
BRANCH  10  11
ATOM     11  C   UNL     1      15.512  17.290  -2.089  1.00  0.00    -0.000 C 
BRANCH  11  12
ATOM     12  C   UNL     1      15.149  18.751  -2.424  1.00  0.00    -0.000 C 
BRANCH  12  13
ATOM     13  C   UNL     1      13.709  18.972  -2.923  1.00  0.00    -0.000 C 
BRANCH  13  14
ATOM     14  C   UNL     1      13.471  18.410  -4.334  1.00  0.00    -0.000 C 
BRANCH  14  15
ATOM     15  C   UNL     1      12.203  17.544  -4.424  1.00  0.00    -0.000 C 
BRANCH  15  16
ATOM     16  C   UNL     1      12.485  16.067  -4.770  1.00  0.00    -0.003 C 
ATOM     17  C   UNL     1      11.845  15.104  -3.768  1.00  0.00     0.004 C 
ENDBRANCH  15  16
ENDBRANCH  14  15
ENDBRANCH  13  14
ENDBRANCH  12  13
ENDBRANCH  11  12
ENDBRANCH  10  11
ENDBRANCH   1  10
TORSDOF 13
ENDMDL
MODEL 3
REMARK VINA RESULT:    -4.219      1.218      2.207
REMARK INTER + INTRA:          -9.292
REMARK INTER:                  -7.423
REMARK INTRA:                  -1.869
REMARK UNBOUND:                -1.866
REMARK SMILES CCCCCCCCCCCCCCC(=O)[O-]
REMARK SMILES IDX 9 1 10 2 11 3 12 4 13 5 14 6 15 7 16 8 17 9 8 10 7 11 6 12
REMARK SMILES IDX 5 13 4 14 3 15 2 16 1 17
REMARK H PARENT
REMARK Flexibility Score: inf
ROOT
ATOM      1  C   UNL     1      14.599   4.429   0.582  1.00  0.00     0.000 C 
ENDROOT
BRANCH   1   2
ATOM      2  C   UNL     1      14.086   3.450   1.658  1.00  0.00     0.000 C 
BRANCH   2   3
ATOM      3  C   UNL     1      12.565   3.496   1.911  1.00  0.00     0.000 C 
BRANCH   3   4
ATOM      4  C   UNL     1      11.959   4.909   1.964  1.00  0.00     0.000 C 
BRANCH   4   5
ATOM      5  C   UNL     1      10.472   4.936   1.566  1.00  0.00     0.006 C 
BRANCH   5   6
ATOM      6  C   UNL     1      10.252   4.471   0.122  1.00  0.00     0.053 C 
BRANCH   6   7
ATOM      7  C   UNL     1       9.403   5.435  -0.648  1.00  0.00     0.041 C 
ATOM      8  O   UNL     1       9.057   6.529  -0.129  1.00  0.00    -0.550 OA
ATOM      9  O   UNL     1       8.964   5.111  -1.926  1.00  0.00    -0.550 OA
ENDBRANCH   6   7
ENDBRANCH   5   6
ENDBRANCH   4   5
ENDBRANCH   3   4
ENDBRANCH   2   3
ENDBRANCH   1   2
BRANCH   1  10
ATOM     10  C   UNL     1      15.786   3.909  -0.254  1.00  0.00     0.000 C 
BRANCH  10  11
ATOM     11  C   UNL     1      15.943   2.376  -0.274  1.00  0.00    -0.000 C 
BRANCH  11  12
ATOM     12  C   UNL     1      16.432   1.785  -1.612  1.00  0.00    -0.000 C 
BRANCH  12  13
ATOM     13  C   UNL     1      15.598   0.610  -2.155  1.00  0.00    -0.000 C 
BRANCH  13  14
ATOM     14  C   UNL     1      14.315   0.361  -1.345  1.00  0.00    -0.000 C 
BRANCH  14  15
ATOM     15  C   UNL     1      13.045   0.803  -2.092  1.00  0.00    -0.000 C 
BRANCH  15  16
ATOM     16  C   UNL     1      12.477   2.152  -1.603  1.00  0.00    -0.003 C 
ATOM     17  C   UNL     1      12.985   3.331  -2.434  1.00  0.00     0.004 C 
ENDBRANCH  15  16
ENDBRANCH  14  15
ENDBRANCH  13  14
ENDBRANCH  12  13
ENDBRANCH  11  12
ENDBRANCH  10  11
ENDBRANCH   1  10
TORSDOF 13
ENDMDL
MODEL 4
REMARK VINA RESULT:    -4.196      1.372      1.818
REMARK INTER + INTRA:          -9.251
REMARK INTER:                  -7.067
REMARK INTRA:                  -2.184
REMARK UNBOUND:                -1.866
REMARK SMILES CCCCCCCCCCCCCCC(=O)[O-]
REMARK SMILES IDX 9 1 10 2 11 3 12 4 13 5 14 6 15 7 16 8 17 9 8 10 7 11 6 12
REMARK SMILES IDX 5 13 4 14 3 15 2 16 1 17
REMARK H PARENT
REMARK Flexibility Score: inf
ROOT
ATOM      1  C   UNL     1      15.383   3.618   0.694  1.00  0.00     0.000 C 
ENDROOT
BRANCH   1   2
ATOM      2  C   UNL     1      14.830   3.008   1.997  1.00  0.00     0.000 C 
BRANCH   2   3
ATOM      3  C   UNL     1      13.373   3.386   2.331  1.00  0.00     0.000 C 
BRANCH   3   4
ATOM      4  C   UNL     1      12.895   4.720   1.729  1.00  0.00     0.000 C 
BRANCH   4   5
ATOM      5  C   UNL     1      11.384   4.947   1.905  1.00  0.00     0.006 C 
BRANCH   5   6
ATOM      6  C   UNL     1      10.575   4.398   0.723  1.00  0.00     0.053 C 
BRANCH   6   7
ATOM      7  C   UNL     1       9.316   3.726   1.177  1.00  0.00     0.041 C 
ATOM      8  O   UNL     1       8.212   4.328   1.099  1.00  0.00    -0.550 OA
ATOM      9  O   UNL     1       9.365   2.448   1.720  1.00  0.00    -0.550 OA
ENDBRANCH   6   7
ENDBRANCH   5   6
ENDBRANCH   4   5
ENDBRANCH   3   4
ENDBRANCH   2   3
ENDBRANCH   1   2
BRANCH   1  10
ATOM     10  C   UNL     1      16.026   2.606  -0.274  1.00  0.00     0.000 C 
BRANCH  10  11
ATOM     11  C   UNL     1      15.568   2.728  -1.740  1.00  0.00    -0.000 C 
BRANCH  11  12
ATOM     12  C   UNL     1      14.473   3.783  -1.999  1.00  0.00    -0.000 C 
BRANCH  12  13
ATOM     13  C   UNL     1      13.036   3.233  -2.075  1.00  0.00    -0.000 C 
BRANCH  13  14
ATOM     14  C   UNL     1      12.978   1.772  -2.546  1.00  0.00    -0.000 C 
BRANCH  14  15
ATOM     15  C   UNL     1      12.002   0.918  -1.719  1.00  0.00    -0.000 C 
BRANCH  15  16
ATOM     16  C   UNL     1      12.203   1.049  -0.194  1.00  0.00    -0.003 C 
ATOM     17  C   UNL     1      13.274   0.094   0.334  1.00  0.00     0.004 C 
ENDBRANCH  15  16
ENDBRANCH  14  15
ENDBRANCH  13  14
ENDBRANCH  12  13
ENDBRANCH  11  12
ENDBRANCH  10  11
ENDBRANCH   1  10
TORSDOF 13
ENDMDL
MODEL 5
REMARK VINA RESULT:    -4.191     14.072     15.599
REMARK INTER + INTRA:          -9.243
REMARK INTER:                  -7.289
REMARK INTRA:                  -1.954
REMARK UNBOUND:                -1.866
REMARK SMILES CCCCCCCCCCCCCCC(=O)[O-]
REMARK SMILES IDX 9 1 10 2 11 3 12 4 13 5 14 6 15 7 16 8 17 9 8 10 7 11 6 12
REMARK SMILES IDX 5 13 4 14 3 15 2 16 1 17
REMARK H PARENT
REMARK Flexibility Score: inf
ROOT
ATOM      1  C   UNL     1      14.917  16.478  -1.104  1.00  0.00     0.000 C 
ENDROOT
BRANCH   1   2
ATOM      2  C   UNL     1      14.013  17.246  -0.118  1.00  0.00     0.000 C 
BRANCH   2   3
ATOM      3  C   UNL     1      14.635  17.514   1.267  1.00  0.00     0.000 C 
BRANCH   3   4
ATOM      4  C   UNL     1      15.488  18.793   1.358  1.00  0.00     0.000 C 
BRANCH   4   5
ATOM      5  C   UNL     1      16.964  18.504   1.684  1.00  0.00     0.006 C 
BRANCH   5   6
ATOM      6  C   UNL     1      17.788  18.214   0.424  1.00  0.00     0.053 C 
BRANCH   6   7
ATOM      7  C   UNL     1      18.561  16.937   0.549  1.00  0.00     0.041 C 
ATOM      8  O   UNL     1      19.505  16.846   1.378  1.00  0.00    -0.550 OA
ATOM      9  O   UNL     1      18.264  15.859  -0.275  1.00  0.00    -0.550 OA
ENDBRANCH   6   7
ENDBRANCH   5   6
ENDBRANCH   4   5
ENDBRANCH   3   4
ENDBRANCH   2   3
ENDBRANCH   1   2
BRANCH   1  10
ATOM     10  C   UNL     1      15.439  17.314  -2.290  1.00  0.00     0.000 C 
BRANCH  10  11
ATOM     11  C   UNL     1      14.876  18.746  -2.372  1.00  0.00    -0.000 C 
BRANCH  11  12
ATOM     12  C   UNL     1      13.906  19.003  -3.544  1.00  0.00    -0.000 C 
BRANCH  12  13
ATOM     13  C   UNL     1      13.551  17.765  -4.387  1.00  0.00    -0.000 C 
BRANCH  13  14
ATOM     14  C   UNL     1      12.056  17.412  -4.334  1.00  0.00    -0.000 C 
BRANCH  14  15
ATOM     15  C   UNL     1      11.546  17.197  -2.899  1.00  0.00    -0.000 C 
BRANCH  15  16
ATOM     16  C   UNL     1      10.549  18.278  -2.427  1.00  0.00    -0.003 C 
ATOM     17  C   UNL     1      10.857  18.773  -1.014  1.00  0.00     0.004 C 
ENDBRANCH  15  16
ENDBRANCH  14  15
ENDBRANCH  13  14
ENDBRANCH  12  13
ENDBRANCH  11  12
ENDBRANCH  10  11
ENDBRANCH   1  10
TORSDOF 13
ENDMDL
MODEL 6
REMARK VINA RESULT:    -4.175      3.551      6.140
REMARK INTER + INTRA:          -9.213
REMARK INTER:                  -7.704
REMARK INTRA:                  -1.510
REMARK UNBOUND:                -1.866
REMARK SMILES CCCCCCCCCCCCCCC(=O)[O-]
REMARK SMILES IDX 9 1 10 2 11 3 12 4 13 5 14 6 15 7 16 8 17 9 8 10 7 11 6 12
REMARK SMILES IDX 5 13 4 14 3 15 2 16 1 17
REMARK H PARENT
REMARK Flexibility Score: inf
ROOT
ATOM      1  C   UNL     1      12.581   4.283   1.960  1.00  0.00     0.000 C 
ENDROOT
BRANCH   1   2
ATOM      2  C   UNL     1      11.507   3.602   1.088  1.00  0.00     0.000 C 
BRANCH   2   3
ATOM      3  C   UNL     1      11.910   3.368  -0.382  1.00  0.00     0.000 C 
BRANCH   3   4
ATOM      4  C   UNL     1      12.206   1.903  -0.749  1.00  0.00     0.000 C 
BRANCH   4   5
ATOM      5  C   UNL     1      13.173   1.769  -1.938  1.00  0.00     0.006 C 
BRANCH   5   6
ATOM      6  C   UNL     1      14.563   1.292  -1.502  1.00  0.00     0.053 C 
BRANCH   6   7
ATOM      7  C   UNL     1      15.555   2.414  -1.487  1.00  0.00     0.041 C 
ATOM      8  O   UNL     1      15.229   3.554  -1.911  1.00  0.00    -0.550 OA
ATOM      9  O   UNL     1      16.851   2.193  -1.038  1.00  0.00    -0.550 OA
ENDBRANCH   6   7
ENDBRANCH   5   6
ENDBRANCH   4   5
ENDBRANCH   3   4
ENDBRANCH   2   3
ENDBRANCH   1   2
BRANCH   1  10
ATOM     10  C   UNL     1      13.977   4.381   1.312  1.00  0.00     0.000 C 
BRANCH  10  11
ATOM     11  C   UNL     1      15.048   3.469   1.939  1.00  0.00    -0.000 C 
BRANCH  11  12
ATOM     12  C   UNL     1      14.542   2.092   2.415  1.00  0.00    -0.000 C 
BRANCH  12  13
ATOM     13  C   UNL     1      15.200   1.559   3.700  1.00  0.00    -0.000 C 
BRANCH  13  14
ATOM     14  C   UNL     1      14.303   1.707   4.939  1.00  0.00    -0.000 C 
BRANCH  14  15
ATOM     15  C   UNL     1      15.102   1.731   6.253  1.00  0.00    -0.000 C 
BRANCH  15  16
ATOM     16  C   UNL     1      16.500   2.372   6.117  1.00  0.00    -0.003 C 
ATOM     17  C   UNL     1      17.622   1.401   6.485  1.00  0.00     0.004 C 
ENDBRANCH  15  16
ENDBRANCH  14  15
ENDBRANCH  13  14
ENDBRANCH  12  13
ENDBRANCH  11  12
ENDBRANCH  10  11
ENDBRANCH   1  10
TORSDOF 13
ENDMDL
MODEL 7
REMARK VINA RESULT:    -4.139     12.897     14.776
REMARK INTER + INTRA:          -9.151
REMARK INTER:                  -7.656
REMARK INTRA:                  -1.495
REMARK UNBOUND:                -1.866
REMARK SMILES CCCCCCCCCCCCCCC(=O)[O-]
REMARK SMILES IDX 9 1 10 2 11 3 12 4 13 5 14 6 15 7 16 8 17 9 8 10 7 11 6 12
REMARK SMILES IDX 5 13 4 14 3 15 2 16 1 17
REMARK H PARENT
REMARK Flexibility Score: inf
ROOT
ATOM      1  C   UNL     1      15.380  17.954  -2.490  1.00  0.00     0.000 C 
ENDROOT
BRANCH   1   2
ATOM      2  C   UNL     1      14.041  18.678  -2.244  1.00  0.00     0.000 C 
BRANCH   2   3
ATOM      3  C   UNL     1      12.988  18.504  -3.358  1.00  0.00     0.000 C 
BRANCH   3   4
ATOM      4  C   UNL     1      13.483  17.752  -4.606  1.00  0.00     0.000 C 
BRANCH   4   5
ATOM      5  C   UNL     1      12.853  16.355  -4.749  1.00  0.00     0.006 C 
BRANCH   5   6
ATOM      6  C   UNL     1      11.644  16.169  -3.824  1.00  0.00     0.053 C 
BRANCH   6   7
ATOM      7  C   UNL     1      11.024  14.815  -3.987  1.00  0.00     0.041 C 
ATOM      8  O   UNL     1      11.702  13.858  -4.445  1.00  0.00    -0.550 OA
ATOM      9  O   UNL     1       9.686  14.618  -3.667  1.00  0.00    -0.550 OA
ENDBRANCH   6   7
ENDBRANCH   5   6
ENDBRANCH   4   5
ENDBRANCH   3   4
ENDBRANCH   2   3
ENDBRANCH   1   2
BRANCH   1  10
ATOM     10  C   UNL     1      15.750  16.898  -1.429  1.00  0.00     0.000 C 
BRANCH  10  11
ATOM     11  C   UNL     1      14.550  16.185  -0.778  1.00  0.00    -0.000 C 
BRANCH  11  12
ATOM     12  C   UNL     1      14.404  16.402   0.743  1.00  0.00    -0.000 C 
BRANCH  12  13
ATOM     13  C   UNL     1      14.935  17.748   1.268  1.00  0.00    -0.000 C 
BRANCH  13  14
ATOM     14  C   UNL     1      16.177  17.595   2.160  1.00  0.00    -0.000 C 
BRANCH  14  15
ATOM     15  C   UNL     1      17.367  18.441   1.675  1.00  0.00    -0.000 C 
BRANCH  15  16
ATOM     16  C   UNL     1      18.713  17.686   1.695  1.00  0.00    -0.003 C 
ATOM     17  C   UNL     1      18.835  16.689   0.542  1.00  0.00     0.004 C 
ENDBRANCH  15  16
ENDBRANCH  14  15
ENDBRANCH  13  14
ENDBRANCH  12  13
ENDBRANCH  11  12
ENDBRANCH  10  11
ENDBRANCH   1  10
TORSDOF 13
ENDMDL
MODEL 8
REMARK VINA RESULT:    -4.112      2.765      5.631
REMARK INTER + INTRA:          -9.102
REMARK INTER:                  -7.694
REMARK INTRA:                  -1.408
REMARK UNBOUND:                -1.866
REMARK SMILES CCCCCCCCCCCCCCC(=O)[O-]
REMARK SMILES IDX 9 1 10 2 11 3 12 4 13 5 14 6 15 7 16 8 17 9 8 10 7 11 6 12
REMARK SMILES IDX 5 13 4 14 3 15 2 16 1 17
REMARK H PARENT
REMARK Flexibility Score: inf
ROOT
ATOM      1  C   UNL     1      16.044   2.620  -0.199  1.00  0.00     0.000 C 
ENDROOT
BRANCH   1   2
ATOM      2  C   UNL     1      15.829   2.296  -1.692  1.00  0.00     0.000 C 
BRANCH   2   3
ATOM      3  C   UNL     1      15.717   0.795  -2.026  1.00  0.00     0.000 C 
BRANCH   3   4
ATOM      4  C   UNL     1      14.417   0.120  -1.552  1.00  0.00     0.000 C 
BRANCH   4   5
ATOM      5  C   UNL     1      13.168   0.976  -1.824  1.00  0.00     0.006 C 
BRANCH   5   6
ATOM      6  C   UNL     1      12.268   1.095  -0.588  1.00  0.00     0.053 C 
BRANCH   6   7
ATOM      7  C   UNL     1      11.786   2.498  -0.385  1.00  0.00     0.041 C 
ATOM      8  O   UNL     1      12.002   3.376  -1.263  1.00  0.00    -0.550 OA
ATOM      9  O   UNL     1      11.130   2.847   0.789  1.00  0.00    -0.550 OA
ENDBRANCH   6   7
ENDBRANCH   5   6
ENDBRANCH   4   5
ENDBRANCH   3   4
ENDBRANCH   2   3
ENDBRANCH   1   2
BRANCH   1  10
ATOM     10  C   UNL     1      15.189   3.784   0.341  1.00  0.00     0.000 C 
BRANCH  10  11
ATOM     11  C   UNL     1      14.626   3.571   1.759  1.00  0.00    -0.000 C 
BRANCH  11  12
ATOM     12  C   UNL     1      14.725   2.128   2.295  1.00  0.00    -0.000 C 
BRANCH  12  13
ATOM     13  C   UNL     1      15.440   1.978   3.650  1.00  0.00    -0.000 C 
BRANCH  13  14
ATOM     14  C   UNL     1      14.478   1.646   4.802  1.00  0.00    -0.000 C 
BRANCH  14  15
ATOM     15  C   UNL     1      15.120   1.832   6.187  1.00  0.00    -0.000 C 
BRANCH  15  16
ATOM     16  C   UNL     1      16.588   2.307   6.130  1.00  0.00    -0.003 C 
ATOM     17  C   UNL     1      17.535   1.351   6.858  1.00  0.00     0.004 C 
ENDBRANCH  15  16
ENDBRANCH  14  15
ENDBRANCH  13  14
ENDBRANCH  12  13
ENDBRANCH  11  12
ENDBRANCH  10  11
ENDBRANCH   1  10
TORSDOF 13
ENDMDL
MODEL 9
REMARK VINA RESULT:    -4.105      3.267      5.938
REMARK INTER + INTRA:          -9.091
REMARK INTER:                  -7.428
REMARK INTRA:                  -1.664
REMARK UNBOUND:                -1.866
REMARK SMILES CCCCCCCCCCCCCCC(=O)[O-]
REMARK SMILES IDX 9 1 10 2 11 3 12 4 13 5 14 6 15 7 16 8 17 9 8 10 7 11 6 12
REMARK SMILES IDX 5 13 4 14 3 15 2 16 1 17
REMARK H PARENT
REMARK Flexibility Score: inf
ROOT
ATOM      1  C   UNL     1      13.506   4.738   1.639  1.00  0.00     0.000 C 
ENDROOT
BRANCH   1   2
ATOM      2  C   UNL     1      14.318   3.476   1.997  1.00  0.00     0.000 C 
BRANCH   2   3
ATOM      3  C   UNL     1      15.334   3.027   0.928  1.00  0.00     0.000 C 
BRANCH   3   4
ATOM      4  C   UNL     1      15.340   3.873  -0.358  1.00  0.00     0.000 C 
BRANCH   4   5
ATOM      5  C   UNL     1      15.477   3.022  -1.632  1.00  0.00     0.006 C 
BRANCH   5   6
ATOM      6  C   UNL     1      14.306   2.046  -1.805  1.00  0.00     0.053 C 
BRANCH   6   7
ATOM      7  C   UNL     1      14.780   0.639  -2.000  1.00  0.00     0.041 C 
ATOM      8  O   UNL     1      15.900   0.416  -2.530  1.00  0.00    -0.550 OA
ATOM      9  O   UNL     1      13.970  -0.427  -1.630  1.00  0.00    -0.550 OA
ENDBRANCH   6   7
ENDBRANCH   5   6
ENDBRANCH   4   5
ENDBRANCH   3   4
ENDBRANCH   2   3
ENDBRANCH   1   2
BRANCH   1  10
ATOM     10  C   UNL     1      11.976   4.557   1.680  1.00  0.00     0.000 C 
BRANCH  10  11
ATOM     11  C   UNL     1      11.460   3.249   1.051  1.00  0.00    -0.000 C 
BRANCH  11  12
ATOM     12  C   UNL     1      11.176   3.316  -0.463  1.00  0.00    -0.000 C 
BRANCH  12  13
ATOM     13  C   UNL     1       9.790   2.804  -0.895  1.00  0.00    -0.000 C 
BRANCH  13  14
ATOM     14  C   UNL     1       8.746   3.926  -1.008  1.00  0.00    -0.000 C 
BRANCH  14  15
ATOM     15  C   UNL     1       9.358   5.267  -1.447  1.00  0.00    -0.000 C 
BRANCH  15  16
ATOM     16  C   UNL     1       9.102   6.420  -0.454  1.00  0.00    -0.003 C 
ATOM     17  C   UNL     1       8.501   5.928   0.864  1.00  0.00     0.004 C 
ENDBRANCH  15  16
ENDBRANCH  14  15
ENDBRANCH  13  14
ENDBRANCH  12  13
ENDBRANCH  11  12
ENDBRANCH  10  11
ENDBRANCH   1  10
TORSDOF 13
ENDMDL
