MODEL 1
REMARK VINA RESULT:    -6.220      0.000      0.000
REMARK INTER + INTRA:          -7.038
REMARK INTER:                  -6.947
REMARK INTRA:                  -0.091
REMARK UNBOUND:                -0.091
REMARK SMILES COc1cc2ccc(=O)oc2cc1OC
REMARK SMILES IDX 3 1 13 2 12 3 11 4 5 5 4 6 6 7 7 8 8 9 9 10 10 11 2 12 1 13
REMARK SMILES IDX 14 14 15 15
REMARK H PARENT
REMARK Flexibility Score: inf
ROOT
ATOM      1  C   UNL     1      74.270  41.839  -5.449  1.00  0.00     0.161 A 
ATOM      2  C   UNL     1      73.267  41.119  -4.777  1.00  0.00     0.164 A 
ATOM      3  C   UNL     1      72.642  41.681  -3.646  1.00  0.00     0.098 A 
ATOM      4  C   UNL     1      73.012  42.949  -3.190  1.00  0.00     0.142 A 
ATOM      5  C   UNL     1      74.017  43.671  -3.864  1.00  0.00     0.022 A 
ATOM      6  C   UNL     1      74.642  43.117  -4.988  1.00  0.00     0.062 A 
ATOM      7  C   UNL     1      74.366  44.938  -3.382  1.00  0.00     0.019 A 
ATOM      8  C   UNL     1      73.714  45.446  -2.260  1.00  0.00     0.094 A 
ATOM      9  C   UNL     1      72.726  44.672  -1.642  1.00  0.00     0.336 A 
ATOM     10  O   UNL     1      72.126  45.113  -0.627  1.00  0.00    -0.246 OA
ATOM     11  O   UNL     1      72.414  43.471  -2.121  1.00  0.00    -0.423 OA
ENDROOT
BRANCH   1  12
ATOM     12  O   UNL     1      74.872  41.247  -6.571  1.00  0.00    -0.493 OA
ATOM     13  C   UNL     1      74.351  41.314  -7.895  1.00  0.00     0.278 C 
ENDBRANCH   1  12
BRANCH   2  14
ATOM     14  O   UNL     1      72.921  39.848  -5.262  1.00  0.00    -0.493 OA
ATOM     15  C   UNL     1      71.599  39.449  -5.610  1.00  0.00     0.278 C 
ENDBRANCH   2  14
TORSDOF 2
ENDMDL
MODEL 2
REMARK VINA RESULT:    -6.062      1.325      2.656
REMARK INTER + INTRA:          -6.862
REMARK INTER:                  -6.712
REMARK INTRA:                  -0.150
REMARK UNBOUND:                -0.091
REMARK SMILES COc1cc2ccc(=O)oc2cc1OC
REMARK SMILES IDX 3 1 13 2 12 3 11 4 5 5 4 6 6 7 7 8 8 9 9 10 10 11 2 12 1 13
REMARK SMILES IDX 14 14 15 15
REMARK H PARENT
REMARK Flexibility Score: inf
ROOT
ATOM      1  C   UNL     1      73.131  40.966  -4.832  1.00  0.00     0.161 A 
ATOM      2  C   UNL     1      74.155  41.524  -5.617  1.00  0.00     0.164 A 
ATOM      3  C   UNL     1      74.668  42.796  -5.296  1.00  0.00     0.098 A 
ATOM      4  C   UNL     1      74.166  43.505  -4.202  1.00  0.00     0.142 A 
ATOM      5  C   UNL     1      73.139  42.946  -3.414  1.00  0.00     0.022 A 
ATOM      6  C   UNL     1      72.625  41.682  -3.729  1.00  0.00     0.062 A 
ATOM      7  C   UNL     1      72.657  43.682  -2.326  1.00  0.00     0.019 A 
ATOM      8  C   UNL     1      73.201  44.936  -2.053  1.00  0.00     0.094 A 
ATOM      9  C   UNL     1      74.218  45.427  -2.878  1.00  0.00     0.336 A 
ATOM     10  O   UNL     1      74.723  46.558  -2.648  1.00  0.00    -0.246 OA
ATOM     11  O   UNL     1      74.658  44.707  -3.906  1.00  0.00    -0.423 OA
ENDROOT
BRANCH   1  12
ATOM     12  O   UNL     1      72.643  39.696  -5.183  1.00  0.00    -0.493 OA
ATOM     13  C   UNL     1      71.304  39.428  -5.585  1.00  0.00     0.278 C 
ENDBRANCH   1  12
BRANCH   2  14
ATOM     14  O   UNL     1      74.635  40.783  -6.709  1.00  0.00    -0.493 OA
ATOM     15  C   UNL     1      74.226  40.977  -8.059  1.00  0.00     0.278 C 
ENDBRANCH   2  14
TORSDOF 2
ENDMDL
MODEL 3
REMARK VINA RESULT:    -5.482      1.773      3.378
REMARK INTER + INTRA:          -6.215
REMARK INTER:                  -6.169
REMARK INTRA:                  -0.046
REMARK UNBOUND:                -0.091
REMARK SMILES COc1cc2ccc(=O)oc2cc1OC
REMARK SMILES IDX 3 1 13 2 12 3 11 4 5 5 4 6 6 7 7 8 8 9 9 10 10 11 2 12 1 13
REMARK SMILES IDX 14 14 15 15
REMARK H PARENT
REMARK Flexibility Score: inf
ROOT
ATOM      1  C   UNL     1      73.681  39.989  -6.809  1.00  0.00     0.161 A 
ATOM      2  C   UNL     1      74.561  40.901  -7.417  1.00  0.00     0.164 A 
ATOM      3  C   UNL     1      74.883  42.106  -6.760  1.00  0.00     0.098 A 
ATOM      4  C   UNL     1      74.334  42.398  -5.509  1.00  0.00     0.142 A 
ATOM      5  C   UNL     1      73.451  41.483  -4.899  1.00  0.00     0.022 A 
ATOM      6  C   UNL     1      73.128  40.285  -5.547  1.00  0.00     0.062 A 
ATOM      7  C   UNL     1      72.918  41.806  -3.646  1.00  0.00     0.019 A 
ATOM      8  C   UNL     1      73.271  43.011  -3.042  1.00  0.00     0.094 A 
ATOM      9  C   UNL     1      74.152  43.870  -3.707  1.00  0.00     0.336 A 
ATOM     10  O   UNL     1      74.483  44.964  -3.177  1.00  0.00    -0.246 OA
ATOM     11  O   UNL     1      74.645  43.539  -4.897  1.00  0.00    -0.423 OA
ENDROOT
BRANCH   1  12
ATOM     12  O   UNL     1      73.383  38.799  -7.492  1.00  0.00    -0.493 OA
ATOM     13  C   UNL     1      72.081  38.427  -7.935  1.00  0.00     0.278 C 
ENDBRANCH   1  12
BRANCH   2  14
ATOM     14  O   UNL     1      75.094  40.575  -8.674  1.00  0.00    -0.493 OA
ATOM     15  C   UNL     1      74.396  40.714  -9.907  1.00  0.00     0.278 C 
ENDBRANCH   2  14
TORSDOF 2
ENDMDL
MODEL 4
REMARK VINA RESULT:    -4.992      2.189      5.833
REMARK INTER + INTRA:          -5.667
REMARK INTER:                  -5.550
REMARK INTRA:                  -0.116
REMARK UNBOUND:                -0.091
REMARK SMILES COc1cc2ccc(=O)oc2cc1OC
REMARK SMILES IDX 3 1 13 2 12 3 11 4 5 5 4 6 6 7 7 8 8 9 9 10 10 11 2 12 1 13
REMARK SMILES IDX 14 14 15 15
REMARK H PARENT
REMARK Flexibility Score: inf
ROOT
ATOM      1  C   UNL     1      74.314  41.960  -5.242  1.00  0.00     0.161 A 
ATOM      2  C   UNL     1      73.287  41.047  -4.949  1.00  0.00     0.164 A 
ATOM      3  C   UNL     1      72.884  40.112  -5.923  1.00  0.00     0.098 A 
ATOM      4  C   UNL     1      73.499  40.087  -7.177  1.00  0.00     0.142 A 
ATOM      5  C   UNL     1      74.529  41.003  -7.471  1.00  0.00     0.022 A 
ATOM      6  C   UNL     1      74.934  41.934  -6.507  1.00  0.00     0.062 A 
ATOM      7  C   UNL     1      75.125  40.953  -8.736  1.00  0.00     0.019 A 
ATOM      8  C   UNL     1      74.687  40.007  -9.662  1.00  0.00     0.094 A 
ATOM      9  C   UNL     1      73.660  39.130  -9.300  1.00  0.00     0.336 A 
ATOM     10  O   UNL     1      73.250  38.268 -10.122  1.00  0.00    -0.246 OA
ATOM     11  O   UNL     1      73.110  39.199  -8.090  1.00  0.00    -0.423 OA
ENDROOT
BRANCH   1  12
ATOM     12  O   UNL     1      74.689  42.878  -4.248  1.00  0.00    -0.493 OA
ATOM     13  C   UNL     1      74.246  44.230  -4.188  1.00  0.00     0.278 C 
ENDBRANCH   1  12
BRANCH   2  14
ATOM     14  O   UNL     1      72.691  41.101  -3.679  1.00  0.00    -0.493 OA
ATOM     15  C   UNL     1      71.403  40.578  -3.369  1.00  0.00     0.278 C 
ENDBRANCH   2  14
TORSDOF 2
ENDMDL
MODEL 5
REMARK VINA RESULT:    -4.960      1.399      5.594
REMARK INTER + INTRA:          -5.631
REMARK INTER:                  -5.552
REMARK INTRA:                  -0.079
REMARK UNBOUND:                -0.091
REMARK SMILES COc1cc2ccc(=O)oc2cc1OC
REMARK SMILES IDX 3 1 13 2 12 3 11 4 5 5 4 6 6 7 7 8 8 9 9 10 10 11 2 12 1 13
REMARK SMILES IDX 14 14 15 15
REMARK H PARENT
REMARK Flexibility Score: inf
ROOT
ATOM      1  C   UNL     1      72.981  43.540  -2.258  1.00  0.00     0.161 A 
ATOM      2  C   UNL     1      74.020  43.965  -3.105  1.00  0.00     0.164 A 
ATOM      3  C   UNL     1      74.310  43.235  -4.275  1.00  0.00     0.098 A 
ATOM      4  C   UNL     1      73.572  42.094  -4.598  1.00  0.00     0.142 A 
ATOM      5  C   UNL     1      72.530  41.668  -3.750  1.00  0.00     0.022 A 
ATOM      6  C   UNL     1      72.237  42.390  -2.586  1.00  0.00     0.062 A 
ATOM      7  C   UNL     1      71.809  40.522  -4.101  1.00  0.00     0.019 A 
ATOM      8  C   UNL     1      72.139  39.838  -5.271  1.00  0.00     0.094 A 
ATOM      9  C   UNL     1      73.185  40.319  -6.064  1.00  0.00     0.336 A 
ATOM     10  O   UNL     1      73.498  39.716  -7.124  1.00  0.00    -0.246 OA
ATOM     11  O   UNL     1      73.854  41.412  -5.707  1.00  0.00    -0.423 OA
ENDROOT
BRANCH   1  12
ATOM     12  O   UNL     1      72.720  44.292  -1.101  1.00  0.00    -0.493 OA
ATOM     13  C   UNL     1      71.507  44.995  -0.851  1.00  0.00     0.278 C 
ENDBRANCH   1  12
BRANCH   2  14
ATOM     14  O   UNL     1      74.741  45.115  -2.749  1.00  0.00    -0.493 OA
ATOM     15  C   UNL     1      74.318  46.449  -3.013  1.00  0.00     0.278 C 
ENDBRANCH   2  14
TORSDOF 2
ENDMDL
MODEL 6
REMARK VINA RESULT:    -4.850      1.303      5.142
REMARK INTER + INTRA:          -5.509
REMARK INTER:                  -5.660
REMARK INTRA:                   0.151
REMARK UNBOUND:                -0.091
REMARK SMILES COc1cc2ccc(=O)oc2cc1OC
REMARK SMILES IDX 3 1 13 2 12 3 11 4 5 5 4 6 6 7 7 8 8 9 9 10 10 11 2 12 1 13
REMARK SMILES IDX 14 14 15 15
REMARK H PARENT
REMARK Flexibility Score: inf
ROOT
ATOM      1  C   UNL     1      74.306  43.245  -3.987  1.00  0.00     0.161 A 
ATOM      2  C   UNL     1      73.357  42.472  -3.296  1.00  0.00     0.164 A 
ATOM      3  C   UNL     1      72.796  41.337  -3.915  1.00  0.00     0.098 A 
ATOM      4  C   UNL     1      73.178  40.975  -5.209  1.00  0.00     0.142 A 
ATOM      5  C   UNL     1      74.130  41.751  -5.903  1.00  0.00     0.022 A 
ATOM      6  C   UNL     1      74.691  42.880  -5.292  1.00  0.00     0.062 A 
ATOM      7  C   UNL     1      74.491  41.363  -7.198  1.00  0.00     0.019 A 
ATOM      8  C   UNL     1      73.904  40.231  -7.761  1.00  0.00     0.094 A 
ATOM      9  C   UNL     1      72.967  39.510  -7.014  1.00  0.00     0.336 A 
ATOM     10  O   UNL     1      72.426  38.485  -7.506  1.00  0.00    -0.246 OA
ATOM     11  O   UNL     1      72.642  39.901  -5.784  1.00  0.00    -0.423 OA
ENDROOT
BRANCH   1  12
ATOM     12  O   UNL     1      74.844  44.369  -3.340  1.00  0.00    -0.493 OA
ATOM     13  C   UNL     1      74.347  45.697  -3.481  1.00  0.00     0.278 C 
ENDBRANCH   1  12
BRANCH   2  14
ATOM     14  O   UNL     1      72.997  42.864  -1.998  1.00  0.00    -0.493 OA
ATOM     15  C   UNL     1      72.101  43.929  -1.695  1.00  0.00     0.278 C 
ENDBRANCH   2  14
TORSDOF 2
ENDMDL
MODEL 7
REMARK VINA RESULT:    -4.798     11.266     14.301
REMARK INTER + INTRA:          -5.450
REMARK INTER:                  -5.287
REMARK INTRA:                  -0.163
REMARK UNBOUND:                -0.091
REMARK SMILES COc1cc2ccc(=O)oc2cc1OC
REMARK SMILES IDX 3 1 13 2 12 3 11 4 5 5 4 6 6 7 7 8 8 9 9 10 10 11 2 12 1 13
REMARK SMILES IDX 14 14 15 15
REMARK H PARENT
REMARK Flexibility Score: inf
ROOT
ATOM      1  C   UNL     1      70.769  49.297   7.783  1.00  0.00     0.161 A 
ATOM      2  C   UNL     1      70.496  48.569   6.613  1.00  0.00     0.164 A 
ATOM      3  C   UNL     1      69.234  47.966   6.442  1.00  0.00     0.098 A 
ATOM      4  C   UNL     1      68.253  48.087   7.429  1.00  0.00     0.142 A 
ATOM      5  C   UNL     1      68.526  48.818   8.604  1.00  0.00     0.022 A 
ATOM      6  C   UNL     1      69.779  49.420   8.778  1.00  0.00     0.062 A 
ATOM      7  C   UNL     1      67.523  48.921   9.574  1.00  0.00     0.019 A 
ATOM      8  C   UNL     1      66.292  48.305   9.353  1.00  0.00     0.094 A 
ATOM      9  C   UNL     1      66.093  47.596   8.164  1.00  0.00     0.336 A 
ATOM     10  O   UNL     1      64.988  47.032   7.946  1.00  0.00    -0.246 OA
ATOM     11  O   UNL     1      67.064  47.514   7.258  1.00  0.00    -0.423 OA
ENDROOT
BRANCH   1  12
ATOM     12  O   UNL     1      72.037  49.885   7.919  1.00  0.00    -0.493 OA
ATOM     13  C   UNL     1      73.108  49.328   8.676  1.00  0.00     0.278 C 
ENDBRANCH   1  12
BRANCH   2  14
ATOM     14  O   UNL     1      71.505  48.467   5.642  1.00  0.00    -0.493 OA
ATOM     15  C   UNL     1      72.351  47.334   5.473  1.00  0.00     0.278 C 
ENDBRANCH   2  14
TORSDOF 2
ENDMDL
MODEL 8
REMARK VINA RESULT:    -4.667     12.216     14.339
REMARK INTER + INTRA:          -5.304
REMARK INTER:                  -5.169
REMARK INTRA:                  -0.135
REMARK UNBOUND:                -0.091
REMARK SMILES COc1cc2ccc(=O)oc2cc1OC
REMARK SMILES IDX 3 1 13 2 12 3 11 4 5 5 4 6 6 7 7 8 8 9 9 10 10 11 2 12 1 13
REMARK SMILES IDX 14 14 15 15
REMARK H PARENT
REMARK Flexibility Score: inf
ROOT
ATOM      1  C   UNL     1      68.923  48.774   8.923  1.00  0.00     0.161 A 
ATOM      2  C   UNL     1      68.677  48.155   7.685  1.00  0.00     0.164 A 
ATOM      3  C   UNL     1      69.752  47.870   6.820  1.00  0.00     0.098 A 
ATOM      4  C   UNL     1      71.059  48.200   7.184  1.00  0.00     0.142 A 
ATOM      5  C   UNL     1      71.307  48.821   8.425  1.00  0.00     0.022 A 
ATOM      6  C   UNL     1      70.242  49.106   9.290  1.00  0.00     0.062 A 
ATOM      7  C   UNL     1      72.627  49.138   8.761  1.00  0.00     0.019 A 
ATOM      8  C   UNL     1      73.653  48.834   7.867  1.00  0.00     0.094 A 
ATOM      9  C   UNL     1      73.332  48.217   6.653  1.00  0.00     0.336 A 
ATOM     10  O   UNL     1      74.244  47.935   5.832  1.00  0.00    -0.246 OA
ATOM     11  O   UNL     1      72.068  47.926   6.359  1.00  0.00    -0.423 OA
ENDROOT
BRANCH   1  12
ATOM     12  O   UNL     1      67.828  49.043   9.760  1.00  0.00    -0.493 OA
ATOM     13  C   UNL     1      67.230  50.326   9.920  1.00  0.00     0.278 C 
ENDBRANCH   1  12
BRANCH   2  14
ATOM     14  O   UNL     1      67.351  47.839   7.351  1.00  0.00    -0.493 OA
ATOM     15  C   UNL     1      66.766  46.548   7.498  1.00  0.00     0.278 C 
ENDBRANCH   2  14
TORSDOF 2
ENDMDL
MODEL 9
REMARK VINA RESULT:    -4.641     12.781     13.903
REMARK INTER + INTRA:          -5.275
REMARK INTER:                  -5.127
REMARK INTRA:                  -0.148
REMARK UNBOUND:                -0.091
REMARK SMILES COc1cc2ccc(=O)oc2cc1OC
REMARK SMILES IDX 3 1 13 2 12 3 11 4 5 5 4 6 6 7 7 8 8 9 9 10 10 11 2 12 1 13
REMARK SMILES IDX 14 14 15 15
REMARK H PARENT
REMARK Flexibility Score: inf
ROOT
ATOM      1  C   UNL     1      68.303  47.971   7.705  1.00  0.00     0.161 A 
ATOM      2  C   UNL     1      68.840  46.726   7.336  1.00  0.00     0.164 A 
ATOM      3  C   UNL     1      70.238  46.552   7.293  1.00  0.00     0.098 A 
ATOM      4  C   UNL     1      71.092  47.610   7.616  1.00  0.00     0.142 A 
ATOM      5  C   UNL     1      70.554  48.859   7.987  1.00  0.00     0.022 A 
ATOM      6  C   UNL     1      69.165  49.037   8.031  1.00  0.00     0.062 A 
ATOM      7  C   UNL     1      71.436  49.897   8.304  1.00  0.00     0.019 A 
ATOM      8  C   UNL     1      72.810  49.670   8.245  1.00  0.00     0.094 A 
ATOM      9  C   UNL     1      73.272  48.405   7.869  1.00  0.00     0.336 A 
ATOM     10  O   UNL     1      74.509  48.180   7.810  1.00  0.00    -0.246 OA
ATOM     11  O   UNL     1      72.411  47.434   7.573  1.00  0.00    -0.423 OA
ENDROOT
BRANCH   1  12
ATOM     12  O   UNL     1      66.906  48.108   7.736  1.00  0.00    -0.493 OA
ATOM     13  C   UNL     1      66.152  48.433   8.900  1.00  0.00     0.278 C 
ENDBRANCH   1  12
BRANCH   2  14
ATOM     14  O   UNL     1      67.952  45.687   7.017  1.00  0.00    -0.493 OA
ATOM     15  C   UNL     1      67.573  44.645   7.911  1.00  0.00     0.278 C 
ENDBRANCH   2  14
TORSDOF 2
ENDMDL
