MODEL 1
REMARK VINA RESULT:    -4.889      0.000      0.000
REMARK INTER + INTRA:          -5.264
REMARK INTER:                  -5.175
REMARK INTRA:                  -0.089
REMARK UNBOUND:                -0.089
REMARK SMILES C=C(C)[C@H]1CC=C(C)C(=O)C1
REMARK SMILES IDX 8 1 7 2 6 3 5 4 4 5 11 6 9 7 10 8 2 9 1 10 3 11
REMARK H PARENT
REMARK Flexibility Score: inf
ROOT
ATOM      1  C   UNL     1      84.118   4.862  24.735  1.00  0.00     0.048 C 
ATOM      2  C   UNL     1      83.411   4.497  26.012  1.00  0.00    -0.012 C 
ATOM      3  C   UNL     1      84.067   3.819  26.969  1.00  0.00    -0.019 C 
ATOM      4  C   UNL     1      83.402   3.413  28.258  1.00  0.00     0.036 C 
ATOM      5  C   UNL     1      82.343   4.447  28.686  1.00  0.00     0.025 C 
ATOM      6  C   UNL     1      81.327   4.671  27.550  1.00  0.00     0.089 C 
ATOM      7  C   UNL     1      82.035   4.993  26.262  1.00  0.00     0.158 C 
ATOM      8  O   UNL     1      81.430   5.660  25.380  1.00  0.00    -0.295 OA
ENDROOT
BRANCH   5   9
ATOM      9  C   UNL     1      81.656   4.045  29.984  1.00  0.00    -0.077 C 
ATOM     10  C   UNL     1      81.529   4.911  31.005  1.00  0.00     0.008 C 
ATOM     11  C   UNL     1      81.100   2.655  30.145  1.00  0.00     0.039 C 
ENDBRANCH   5   9
TORSDOF 1
ENDMDL
MODEL 2
REMARK VINA RESULT:    -4.836      1.554      2.158
REMARK INTER + INTRA:          -5.208
REMARK INTER:                  -5.114
REMARK INTRA:                  -0.093
REMARK UNBOUND:                -0.089
REMARK SMILES C=C(C)[C@H]1CC=C(C)C(=O)C1
REMARK SMILES IDX 8 1 7 2 6 3 5 4 4 5 11 6 9 7 10 8 2 9 1 10 3 11
REMARK H PARENT
REMARK Flexibility Score: inf
ROOT
ATOM      1  C   UNL     1      83.773   4.517  25.008  1.00  0.00     0.048 C 
ATOM      2  C   UNL     1      83.214   4.432  26.402  1.00  0.00    -0.012 C 
ATOM      3  C   UNL     1      81.945   4.808  26.638  1.00  0.00    -0.019 C 
ATOM      4  C   UNL     1      81.342   4.760  28.017  1.00  0.00     0.036 C 
ATOM      5  C   UNL     1      81.927   3.596  28.839  1.00  0.00     0.025 C 
ATOM      6  C   UNL     1      83.464   3.690  28.877  1.00  0.00     0.089 C 
ATOM      7  C   UNL     1      84.021   3.819  27.486  1.00  0.00     0.158 C 
ATOM      8  O   UNL     1      85.200   3.433  27.259  1.00  0.00    -0.295 OA
ENDROOT
BRANCH   5   9
ATOM      9  C   UNL     1      81.332   3.541  30.240  1.00  0.00    -0.077 C 
ATOM     10  C   UNL     1      81.513   4.546  31.115  1.00  0.00     0.008 C 
ATOM     11  C   UNL     1      80.520   2.348  30.670  1.00  0.00     0.039 C 
ENDBRANCH   5   9
TORSDOF 1
ENDMDL
MODEL 3
REMARK VINA RESULT:    -4.280      1.841      4.435
REMARK INTER + INTRA:          -4.619
REMARK INTER:                  -4.530
REMARK INTRA:                  -0.090
REMARK UNBOUND:                -0.089
REMARK SMILES C=C(C)[C@H]1CC=C(C)C(=O)C1
REMARK SMILES IDX 8 1 7 2 6 3 5 4 4 5 11 6 9 7 10 8 2 9 1 10 3 11
REMARK H PARENT
REMARK Flexibility Score: inf
ROOT
ATOM      1  C   UNL     1      81.134   3.740  31.263  1.00  0.00     0.048 C 
ATOM      2  C   UNL     1      81.705   3.990  29.894  1.00  0.00    -0.012 C 
ATOM      3  C   UNL     1      81.854   2.967  29.035  1.00  0.00    -0.019 C 
ATOM      4  C   UNL     1      82.437   3.159  27.659  1.00  0.00     0.036 C 
ATOM      5  C   UNL     1      82.078   4.546  27.093  1.00  0.00     0.025 C 
ATOM      6  C   UNL     1      82.517   5.651  28.072  1.00  0.00     0.089 C 
ATOM      7  C   UNL     1      81.983   5.379  29.452  1.00  0.00     0.158 C 
ATOM      8  O   UNL     1      81.810   6.344  30.244  1.00  0.00    -0.295 OA
ENDROOT
BRANCH   5   9
ATOM      9  C   UNL     1      82.669   4.757  25.705  1.00  0.00    -0.077 C 
ATOM     10  C   UNL     1      81.926   5.246  24.697  1.00  0.00     0.008 C 
ATOM     11  C   UNL     1      84.113   4.420  25.439  1.00  0.00     0.039 C 
ENDBRANCH   5   9
TORSDOF 1
ENDMDL
MODEL 4
REMARK VINA RESULT:    -4.205     17.689     18.641
REMARK INTER + INTRA:          -4.540
REMARK INTER:                  -4.445
REMARK INTRA:                  -0.094
REMARK UNBOUND:                -0.089
REMARK SMILES C=C(C)[C@H]1CC=C(C)C(=O)C1
REMARK SMILES IDX 8 1 7 2 6 3 5 4 4 5 11 6 9 7 10 8 2 9 1 10 3 11
REMARK H PARENT
REMARK Flexibility Score: inf
ROOT
ATOM      1  C   UNL     1      77.797  -6.758  12.192  1.00  0.00     0.048 C 
ATOM      2  C   UNL     1      78.285  -7.499  13.407  1.00  0.00    -0.012 C 
ATOM      3  C   UNL     1      78.892  -6.827  14.400  1.00  0.00    -0.019 C 
ATOM      4  C   UNL     1      79.417  -7.521  15.630  1.00  0.00     0.036 C 
ATOM      5  C   UNL     1      78.546  -8.739  15.992  1.00  0.00     0.025 C 
ATOM      6  C   UNL     1      78.433  -9.692  14.787  1.00  0.00     0.089 C 
ATOM      7  C   UNL     1      77.986  -8.944  13.561  1.00  0.00     0.158 C 
ATOM      8  O   UNL     1      77.385  -9.569  12.646  1.00  0.00    -0.295 OA
ENDROOT
BRANCH   5   9
ATOM      9  C   UNL     1      79.070  -9.457  17.229  1.00  0.00    -0.077 C 
ATOM     10  C   UNL     1      80.386  -9.510  17.502  1.00  0.00     0.008 C 
ATOM     11  C   UNL     1      78.111 -10.125  18.179  1.00  0.00     0.039 C 
ENDBRANCH   5   9
TORSDOF 1
ENDMDL
MODEL 5
REMARK VINA RESULT:    -4.068     10.280     11.504
REMARK INTER + INTRA:          -4.395
REMARK INTER:                  -4.301
REMARK INTRA:                  -0.094
REMARK UNBOUND:                -0.089
REMARK SMILES C=C(C)[C@H]1CC=C(C)C(=O)C1
REMARK SMILES IDX 8 1 7 2 6 3 5 4 4 5 11 6 9 7 10 8 2 9 1 10 3 11
REMARK H PARENT
REMARK Flexibility Score: inf
ROOT
ATOM      1  C   UNL     1      83.139  -4.562  28.433  1.00  0.00     0.048 C 
ATOM      2  C   UNL     1      84.183  -5.269  29.253  1.00  0.00    -0.012 C 
ATOM      3  C   UNL     1      84.913  -6.254  28.701  1.00  0.00    -0.019 C 
ATOM      4  C   UNL     1      85.958  -7.007  29.481  1.00  0.00     0.036 C 
ATOM      5  C   UNL     1      86.626  -6.100  30.532  1.00  0.00     0.025 C 
ATOM      6  C   UNL     1      85.559  -5.467  31.445  1.00  0.00     0.089 C 
ATOM      7  C   UNL     1      84.491  -4.797  30.626  1.00  0.00     0.158 C 
ATOM      8  O   UNL     1      83.832  -3.850  31.133  1.00  0.00    -0.295 OA
ENDROOT
BRANCH   5   9
ATOM      9  C   UNL     1      87.680  -6.851  31.336  1.00  0.00    -0.077 C 
ATOM     10  C   UNL     1      87.489  -8.126  31.718  1.00  0.00     0.008 C 
ATOM     11  C   UNL     1      88.967  -6.169  31.717  1.00  0.00     0.039 C 
ENDBRANCH   5   9
TORSDOF 1
ENDMDL
MODEL 6
REMARK VINA RESULT:    -3.833      9.679     10.996
REMARK INTER + INTRA:          -4.146
REMARK INTER:                  -4.058
REMARK INTRA:                  -0.088
REMARK UNBOUND:                -0.089
REMARK SMILES C=C(C)[C@H]1CC=C(C)C(=O)C1
REMARK SMILES IDX 8 1 7 2 6 3 5 4 4 5 11 6 9 7 10 8 2 9 1 10 3 11
REMARK H PARENT
REMARK Flexibility Score: inf
ROOT
ATOM      1  C   UNL     1      86.935  -7.336  31.259  1.00  0.00     0.048 C 
ATOM      2  C   UNL     1      86.002  -6.587  30.347  1.00  0.00    -0.012 C 
ATOM      3  C   UNL     1      85.611  -7.142  29.187  1.00  0.00    -0.019 C 
ATOM      4  C   UNL     1      84.693  -6.429  28.229  1.00  0.00     0.036 C 
ATOM      5  C   UNL     1      83.697  -5.527  28.983  1.00  0.00     0.025 C 
ATOM      6  C   UNL     1      84.453  -4.551  29.904  1.00  0.00     0.089 C 
ATOM      7  C   UNL     1      85.418  -5.295  30.786  1.00  0.00     0.158 C 
ATOM      8  O   UNL     1      85.756  -4.788  31.890  1.00  0.00    -0.295 OA
ENDROOT
BRANCH   5   9
ATOM      9  C   UNL     1      82.768  -4.792  28.026  1.00  0.00    -0.077 C 
ATOM     10  C   UNL     1      81.446  -5.038  28.008  1.00  0.00     0.008 C 
ATOM     11  C   UNL     1      83.322  -3.764  27.074  1.00  0.00     0.039 C 
ENDBRANCH   5   9
TORSDOF 1
ENDMDL
MODEL 7
REMARK VINA RESULT:    -3.830     10.137     11.121
REMARK INTER + INTRA:          -4.143
REMARK INTER:                  -4.050
REMARK INTRA:                  -0.094
REMARK UNBOUND:                -0.089
REMARK SMILES C=C(C)[C@H]1CC=C(C)C(=O)C1
REMARK SMILES IDX 8 1 7 2 6 3 5 4 4 5 11 6 9 7 10 8 2 9 1 10 3 11
REMARK H PARENT
REMARK Flexibility Score: inf
ROOT
ATOM      1  C   UNL     1      82.632  -7.129  25.746  1.00  0.00     0.048 C 
ATOM      2  C   UNL     1      83.351  -6.885  27.045  1.00  0.00    -0.012 C 
ATOM      3  C   UNL     1      84.112  -7.854  27.581  1.00  0.00    -0.019 C 
ATOM      4  C   UNL     1      84.837  -7.670  28.888  1.00  0.00     0.036 C 
ATOM      5  C   UNL     1      85.275  -6.205  29.077  1.00  0.00     0.025 C 
ATOM      6  C   UNL     1      84.062  -5.264  28.945  1.00  0.00     0.089 C 
ATOM      7  C   UNL     1      83.318  -5.537  27.666  1.00  0.00     0.158 C 
ATOM      8  O   UNL     1      82.633  -4.615  27.147  1.00  0.00    -0.295 OA
ENDROOT
BRANCH   5   9
ATOM      9  C   UNL     1      86.003  -6.001  30.400  1.00  0.00    -0.077 C 
ATOM     10  C   UNL     1      87.026  -6.794  30.763  1.00  0.00     0.008 C 
ATOM     11  C   UNL     1      85.583  -4.894  31.331  1.00  0.00     0.039 C 
ENDBRANCH   5   9
TORSDOF 1
ENDMDL
MODEL 8
REMARK VINA RESULT:    -3.765     17.581     18.511
REMARK INTER + INTRA:          -4.074
REMARK INTER:                  -3.980
REMARK INTRA:                  -0.095
REMARK UNBOUND:                -0.089
REMARK SMILES C=C(C)[C@H]1CC=C(C)C(=O)C1
REMARK SMILES IDX 8 1 7 2 6 3 5 4 4 5 11 6 9 7 10 8 2 9 1 10 3 11
REMARK H PARENT
REMARK Flexibility Score: inf
ROOT
ATOM      1  C   UNL     1      78.461  -8.159  11.951  1.00  0.00     0.048 C 
ATOM      2  C   UNL     1      78.555  -8.435  13.427  1.00  0.00    -0.012 C 
ATOM      3  C   UNL     1      77.868  -9.459  13.960  1.00  0.00    -0.019 C 
ATOM      4  C   UNL     1      77.912  -9.769  15.433  1.00  0.00     0.036 C 
ATOM      5  C   UNL     1      79.286  -9.415  16.034  1.00  0.00     0.025 C 
ATOM      6  C   UNL     1      79.636  -7.945  15.736  1.00  0.00     0.089 C 
ATOM      7  C   UNL     1      79.500  -7.656  14.265  1.00  0.00     0.158 C 
ATOM      8  O   UNL     1      80.173  -6.718  13.760  1.00  0.00    -0.295 OA
ENDROOT
BRANCH   5   9
ATOM      9  C   UNL     1      79.342  -9.715  17.526  1.00  0.00    -0.077 C 
ATOM     10  C   UNL     1      80.493  -9.624  18.214  1.00  0.00     0.008 C 
ATOM     11  C   UNL     1      78.092 -10.120  18.263  1.00  0.00     0.039 C 
ENDBRANCH   5   9
TORSDOF 1
ENDMDL
MODEL 9
REMARK VINA RESULT:    -3.750      9.852     11.181
REMARK INTER + INTRA:          -4.059
REMARK INTER:                  -3.965
REMARK INTRA:                  -0.094
REMARK UNBOUND:                -0.089
REMARK SMILES C=C(C)[C@H]1CC=C(C)C(=O)C1
REMARK SMILES IDX 8 1 7 2 6 3 5 4 4 5 11 6 9 7 10 8 2 9 1 10 3 11
REMARK H PARENT
REMARK Flexibility Score: inf
ROOT
ATOM      1  C   UNL     1      87.257  -6.639  31.442  1.00  0.00     0.048 C 
ATOM      2  C   UNL     1      86.036  -6.210  30.673  1.00  0.00    -0.012 C 
ATOM      3  C   UNL     1      85.567  -4.958  30.808  1.00  0.00    -0.019 C 
ATOM      4  C   UNL     1      84.340  -4.482  30.077  1.00  0.00     0.036 C 
ATOM      5  C   UNL     1      84.209  -5.171  28.705  1.00  0.00     0.025 C 
ATOM      6  C   UNL     1      84.232  -6.702  28.873  1.00  0.00     0.089 C 
ATOM      7  C   UNL     1      85.429  -7.128  29.678  1.00  0.00     0.158 C 
ATOM      8  O   UNL     1      85.889  -8.292  29.524  1.00  0.00    -0.295 OA
ENDROOT
BRANCH   5   9
ATOM      9  C   UNL     1      82.966  -4.706  27.957  1.00  0.00    -0.077 C 
ATOM     10  C   UNL     1      81.745  -5.171  28.275  1.00  0.00     0.008 C 
ATOM     11  C   UNL     1      83.087  -3.705  26.839  1.00  0.00     0.039 C 
ENDBRANCH   5   9
TORSDOF 1
ENDMDL
