MODEL 1
REMARK VINA RESULT:    -3.941      0.000      0.000
REMARK INTER + INTRA:          -5.659
REMARK INTER:                  -5.323
REMARK INTRA:                  -0.336
REMARK UNBOUND:                -0.336
REMARK SMILES CCCCCCCC(=O)[O-]
REMARK SMILES IDX 5 1 6 2 7 3 8 4 9 5 10 6 4 7 3 8 2 9 1 10
REMARK H PARENT
REMARK Flexibility Score: inf
ROOT
ATOM      1  C   UNL     1       4.246   2.318  16.032  1.00  0.00     0.000 C 
ENDROOT
BRANCH   1   2
ATOM      2  C   UNL     1       4.366   1.531  17.345  1.00  0.00     0.006 C 
BRANCH   2   3
ATOM      3  C   UNL     1       5.482   0.478  17.292  1.00  0.00     0.053 C 
BRANCH   3   4
ATOM      4  C   UNL     1       5.553  -0.320  18.557  1.00  0.00     0.041 C 
ATOM      5  O   UNL     1       4.874   0.023  19.561  1.00  0.00    -0.550 OA
ATOM      6  O   UNL     1       6.342  -1.462  18.617  1.00  0.00    -0.550 OA
ENDBRANCH   3   4
ENDBRANCH   2   3
ENDBRANCH   1   2
BRANCH   1   7
ATOM      7  C   UNL     1       2.980   1.917  15.266  1.00  0.00     0.000 C 
BRANCH   7   8
ATOM      8  C   UNL     1       3.272   0.778  14.277  1.00  0.00    -0.000 C 
BRANCH   8   9
ATOM      9  C   UNL     1       2.448  -0.485  14.571  1.00  0.00    -0.003 C 
ATOM     10  C   UNL     1       0.970  -0.181  14.820  1.00  0.00     0.004 C 
ENDBRANCH   8   9
ENDBRANCH   7   8
ENDBRANCH   1   7
TORSDOF 6
ENDMDL
MODEL 2
REMARK VINA RESULT:    -3.927      1.219      1.551
REMARK INTER + INTRA:          -5.641
REMARK INTER:                  -5.218
REMARK INTRA:                  -0.423
REMARK UNBOUND:                -0.336
REMARK SMILES CCCCCCCC(=O)[O-]
REMARK SMILES IDX 5 1 6 2 7 3 8 4 9 5 10 6 4 7 3 8 2 9 1 10
REMARK H PARENT
REMARK Flexibility Score: inf
ROOT
ATOM      1  C   UNL     1       4.647   2.136  15.756  1.00  0.00     0.000 C 
ENDROOT
BRANCH   1   2
ATOM      2  C   UNL     1       5.729   1.154  16.227  1.00  0.00     0.006 C 
BRANCH   2   3
ATOM      3  C   UNL     1       5.319   0.404  17.502  1.00  0.00     0.053 C 
BRANCH   3   4
ATOM      4  C   UNL     1       5.505  -1.075  17.362  1.00  0.00     0.041 C 
ATOM      5  O   UNL     1       5.289  -1.638  16.256  1.00  0.00    -0.550 OA
ATOM      6  O   UNL     1       5.948  -1.828  18.442  1.00  0.00    -0.550 OA
ENDBRANCH   3   4
ENDBRANCH   2   3
ENDBRANCH   1   2
BRANCH   1   7
ATOM      7  C   UNL     1       4.181   1.800  14.335  1.00  0.00     0.000 C 
BRANCH   7   8
ATOM      8  C   UNL     1       3.307   0.536  14.328  1.00  0.00    -0.000 C 
BRANCH   8   9
ATOM      9  C   UNL     1       2.114   0.637  15.289  1.00  0.00    -0.003 C 
ATOM     10  C   UNL     1       0.923  -0.212  14.845  1.00  0.00     0.004 C 
ENDBRANCH   8   9
ENDBRANCH   7   8
ENDBRANCH   1   7
TORSDOF 6
ENDMDL
MODEL 3
REMARK VINA RESULT:    -3.926      2.780      4.331
REMARK INTER + INTRA:          -5.639
REMARK INTER:                  -5.126
REMARK INTRA:                  -0.513
REMARK UNBOUND:                -0.336
REMARK SMILES CCCCCCCC(=O)[O-]
REMARK SMILES IDX 5 1 6 2 7 3 8 4 9 5 10 6 4 7 3 8 2 9 1 10
REMARK H PARENT
REMARK Flexibility Score: inf
ROOT
ATOM      1  C   UNL     1       4.098   2.014  16.775  1.00  0.00     0.000 C 
ENDROOT
BRANCH   1   2
ATOM      2  C   UNL     1       2.871   1.728  15.897  1.00  0.00     0.006 C 
BRANCH   2   3
ATOM      3  C   UNL     1       3.080   0.513  14.983  1.00  0.00     0.053 C 
BRANCH   3   4
ATOM      4  C   UNL     1       1.978  -0.490  15.131  1.00  0.00     0.041 C 
ATOM      5  O   UNL     1       2.245  -1.684  15.430  1.00  0.00    -0.550 OA
ATOM      6  O   UNL     1       0.654  -0.100  14.971  1.00  0.00    -0.550 OA
ENDBRANCH   3   4
ENDBRANCH   2   3
ENDBRANCH   1   2
BRANCH   1   7
ATOM      7  C   UNL     1       5.155   0.915  16.617  1.00  0.00     0.000 C 
BRANCH   7   8
ATOM      8  C   UNL     1       5.336   0.135  17.929  1.00  0.00    -0.000 C 
BRANCH   8   9
ATOM      9  C   UNL     1       5.386  -1.385  17.709  1.00  0.00    -0.003 C 
ATOM     10  C   UNL     1       5.763  -1.764  16.277  1.00  0.00     0.004 C 
ENDBRANCH   8   9
ENDBRANCH   7   8
ENDBRANCH   1   7
TORSDOF 6
ENDMDL
MODEL 4
REMARK VINA RESULT:    -3.849      2.737      4.348
REMARK INTER + INTRA:          -5.535
REMARK INTER:                  -4.903
REMARK INTRA:                  -0.632
REMARK UNBOUND:                -0.336
REMARK SMILES CCCCCCCC(=O)[O-]
REMARK SMILES IDX 5 1 6 2 7 3 8 4 9 5 10 6 4 7 3 8 2 9 1 10
REMARK H PARENT
REMARK Flexibility Score: inf
ROOT
ATOM      1  C   UNL     1       5.510   1.205  13.852  1.00  0.00     0.000 C 
ENDROOT
BRANCH   1   2
ATOM      2  C   UNL     1       4.011   1.531  13.908  1.00  0.00     0.006 C 
BRANCH   2   3
ATOM      3  C   UNL     1       3.147   0.271  14.055  1.00  0.00     0.053 C 
BRANCH   3   4
ATOM      4  C   UNL     1       2.090   0.441  15.103  1.00  0.00     0.041 C 
ATOM      5  O   UNL     1       2.295   1.192  16.093  1.00  0.00    -0.550 OA
ATOM      6  O   UNL     1       0.867  -0.204  14.970  1.00  0.00    -0.550 OA
ENDBRANCH   3   4
ENDBRANCH   2   3
ENDBRANCH   1   2
BRANCH   1   7
ATOM      7  C   UNL     1       5.936   0.366  15.063  1.00  0.00     0.000 C 
BRANCH   7   8
ATOM      8  C   UNL     1       5.834   1.183  16.360  1.00  0.00    -0.000 C 
BRANCH   8   9
ATOM      9  C   UNL     1       5.446   0.320  17.571  1.00  0.00    -0.003 C 
ATOM     10  C   UNL     1       5.069  -1.109  17.182  1.00  0.00     0.004 C 
ENDBRANCH   8   9
ENDBRANCH   7   8
ENDBRANCH   1   7
TORSDOF 6
ENDMDL
MODEL 5
REMARK VINA RESULT:    -3.830      1.953      2.608
REMARK INTER + INTRA:          -5.510
REMARK INTER:                  -5.158
REMARK INTRA:                  -0.352
REMARK UNBOUND:                -0.336
REMARK SMILES CCCCCCCC(=O)[O-]
REMARK SMILES IDX 5 1 6 2 7 3 8 4 9 5 10 6 4 7 3 8 2 9 1 10
REMARK H PARENT
REMARK Flexibility Score: inf
ROOT
ATOM      1  C   UNL     1       5.682   1.200  15.941  1.00  0.00     0.000 C 
ENDROOT
BRANCH   1   2
ATOM      2  C   UNL     1       4.565   0.391  16.617  1.00  0.00     0.006 C 
BRANCH   2   3
ATOM      3  C   UNL     1       5.053  -0.980  17.104  1.00  0.00     0.053 C 
BRANCH   3   4
ATOM      4  C   UNL     1       5.534  -0.928  18.521  1.00  0.00     0.041 C 
ATOM      5  O   UNL     1       6.471  -1.681  18.899  1.00  0.00    -0.550 OA
ATOM      6  O   UNL     1       4.972  -0.027  19.415  1.00  0.00    -0.550 OA
ENDBRANCH   3   4
ENDBRANCH   2   3
ENDBRANCH   1   2
BRANCH   1   7
ATOM      7  C   UNL     1       5.670   0.991  14.422  1.00  0.00     0.000 C 
BRANCH   7   8
ATOM      8  C   UNL     1       4.410   1.604  13.793  1.00  0.00    -0.000 C 
BRANCH   8   9
ATOM      9  C   UNL     1       4.441   3.140  13.785  1.00  0.00    -0.003 C 
ATOM     10  C   UNL     1       3.277   3.759  14.559  1.00  0.00     0.004 C 
ENDBRANCH   8   9
ENDBRANCH   7   8
ENDBRANCH   1   7
TORSDOF 6
ENDMDL
MODEL 6
REMARK VINA RESULT:    -3.823      3.193      4.748
REMARK INTER + INTRA:          -5.500
REMARK INTER:                  -5.115
REMARK INTRA:                  -0.384
REMARK UNBOUND:                -0.336
REMARK SMILES CCCCCCCC(=O)[O-]
REMARK SMILES IDX 5 1 6 2 7 3 8 4 9 5 10 6 4 7 3 8 2 9 1 10
REMARK H PARENT
REMARK Flexibility Score: inf
ROOT
ATOM      1  C   UNL     1       5.993   0.619  14.937  1.00  0.00     0.000 C 
ENDROOT
BRANCH   1   2
ATOM      2  C   UNL     1       4.884   0.842  13.898  1.00  0.00     0.006 C 
BRANCH   2   3
ATOM      3  C   UNL     1       4.580   2.330  13.682  1.00  0.00     0.053 C 
BRANCH   3   4
ATOM      4  C   UNL     1       3.940   2.948  14.886  1.00  0.00     0.041 C 
ATOM      5  O   UNL     1       2.825   2.529  15.296  1.00  0.00    -0.550 OA
ATOM      6  O   UNL     1       4.590   3.964  15.577  1.00  0.00    -0.550 OA
ENDBRANCH   3   4
ENDBRANCH   2   3
ENDBRANCH   1   2
BRANCH   1   7
ATOM      7  C   UNL     1       5.489  -0.240  16.102  1.00  0.00     0.000 C 
BRANCH   7   8
ATOM      8  C   UNL     1       5.341   0.599  17.380  1.00  0.00    -0.000 C 
BRANCH   8   9
ATOM      9  C   UNL     1       5.398  -0.253  18.657  1.00  0.00    -0.003 C 
ATOM     10  C   UNL     1       5.984  -1.644  18.413  1.00  0.00     0.004 C 
ENDBRANCH   8   9
ENDBRANCH   7   8
ENDBRANCH   1   7
TORSDOF 6
ENDMDL
MODEL 7
REMARK VINA RESULT:    -3.817      1.546      2.471
REMARK INTER + INTRA:          -5.493
REMARK INTER:                  -5.042
REMARK INTRA:                  -0.451
REMARK UNBOUND:                -0.336
REMARK SMILES CCCCCCCC(=O)[O-]
REMARK SMILES IDX 5 1 6 2 7 3 8 4 9 5 10 6 4 7 3 8 2 9 1 10
REMARK H PARENT
REMARK Flexibility Score: inf
ROOT
ATOM      1  C   UNL     1       3.404   1.689  15.772  1.00  0.00     0.000 C 
ENDROOT
BRANCH   1   2
ATOM      2  C   UNL     1       4.223   1.679  17.070  1.00  0.00     0.006 C 
BRANCH   2   3
ATOM      3  C   UNL     1       5.454   0.767  16.974  1.00  0.00     0.053 C 
BRANCH   3   4
ATOM      4  C   UNL     1       5.433  -0.307  18.017  1.00  0.00     0.041 C 
ATOM      5  O   UNL     1       5.816  -1.473  17.732  1.00  0.00    -0.550 OA
ATOM      6  O   UNL     1       5.023  -0.015  19.311  1.00  0.00    -0.550 OA
ENDBRANCH   3   4
ENDBRANCH   2   3
ENDBRANCH   1   2
BRANCH   1   7
ATOM      7  C   UNL     1       3.481   3.057  15.084  1.00  0.00     0.000 C 
BRANCH   7   8
ATOM      8  C   UNL     1       4.395   3.001  13.850  1.00  0.00    -0.000 C 
BRANCH   8   9
ATOM      9  C   UNL     1       4.575   1.573  13.313  1.00  0.00    -0.003 C 
ATOM     10  C   UNL     1       6.044   1.166  13.194  1.00  0.00     0.004 C 
ENDBRANCH   8   9
ENDBRANCH   7   8
ENDBRANCH   1   7
TORSDOF 6
ENDMDL
MODEL 8
REMARK VINA RESULT:    -3.793      1.950      2.726
REMARK INTER + INTRA:          -5.459
REMARK INTER:                  -5.000
REMARK INTRA:                  -0.459
REMARK UNBOUND:                -0.336
REMARK SMILES CCCCCCCC(=O)[O-]
REMARK SMILES IDX 5 1 6 2 7 3 8 4 9 5 10 6 4 7 3 8 2 9 1 10
REMARK H PARENT
REMARK Flexibility Score: inf
ROOT
ATOM      1  C   UNL     1       5.969   0.970  13.703  1.00  0.00     0.000 C 
ENDROOT
BRANCH   1   2
ATOM      2  C   UNL     1       5.842   0.172  15.009  1.00  0.00     0.006 C 
BRANCH   2   3
ATOM      3  C   UNL     1       5.894   1.074  16.249  1.00  0.00     0.053 C 
BRANCH   3   4
ATOM      4  C   UNL     1       5.147   0.478  17.402  1.00  0.00     0.041 C 
ATOM      5  O   UNL     1       4.588   1.225  18.249  1.00  0.00    -0.550 OA
ATOM      6  O   UNL     1       5.038  -0.902  17.524  1.00  0.00    -0.550 OA
ENDBRANCH   3   4
ENDBRANCH   2   3
ENDBRANCH   1   2
BRANCH   1   7
ATOM      7  C   UNL     1       4.619   1.569  13.291  1.00  0.00     0.000 C 
BRANCH   7   8
ATOM      8  C   UNL     1       4.647   3.102  13.387  1.00  0.00    -0.000 C 
BRANCH   8   9
ATOM      9  C   UNL     1       3.560   3.655  14.322  1.00  0.00    -0.003 C 
ATOM     10  C   UNL     1       2.861   2.561  15.128  1.00  0.00     0.004 C 
ENDBRANCH   8   9
ENDBRANCH   7   8
ENDBRANCH   1   7
TORSDOF 6
ENDMDL
MODEL 9
REMARK VINA RESULT:    -3.755      2.651      3.569
REMARK INTER + INTRA:          -5.409
REMARK INTER:                  -4.808
REMARK INTRA:                  -0.601
REMARK UNBOUND:                -0.336
REMARK SMILES CCCCCCCC(=O)[O-]
REMARK SMILES IDX 5 1 6 2 7 3 8 4 9 5 10 6 4 7 3 8 2 9 1 10
REMARK H PARENT
REMARK Flexibility Score: inf
ROOT
ATOM      1  C   UNL     1       4.579   3.134  13.227  1.00  0.00     0.000 C 
ENDROOT
BRANCH   1   2
ATOM      2  C   UNL     1       3.667   3.359  14.442  1.00  0.00     0.006 C 
BRANCH   2   3
ATOM      3  C   UNL     1       4.399   3.122  15.770  1.00  0.00     0.053 C 
BRANCH   3   4
ATOM      4  C   UNL     1       3.770   2.017  16.561  1.00  0.00     0.041 C 
ATOM      5  O   UNL     1       2.775   1.396  16.102  1.00  0.00    -0.550 OA
ATOM      6  O   UNL     1       4.303   1.650  17.791  1.00  0.00    -0.550 OA
ENDBRANCH   3   4
ENDBRANCH   2   3
ENDBRANCH   1   2
BRANCH   1   7
ATOM      7  C   UNL     1       4.742   1.638  12.932  1.00  0.00     0.000 C 
BRANCH   7   8
ATOM      8  C   UNL     1       6.190   1.185  13.170  1.00  0.00    -0.000 C 
BRANCH   8   9
ATOM      9  C   UNL     1       6.294   0.053  14.203  1.00  0.00    -0.003 C 
ATOM     10  C   UNL     1       5.001  -0.753  14.328  1.00  0.00     0.004 C 
ENDBRANCH   8   9
ENDBRANCH   7   8
ENDBRANCH   1   7
TORSDOF 6
ENDMDL
