MODEL 1
REMARK VINA RESULT:    -6.239      0.000      0.000
REMARK INTER + INTRA:         -11.007
REMARK INTER:                  -9.704
REMARK INTRA:                  -1.303
REMARK UNBOUND:                -1.303
REMARK SMILES COc1cc(CNC(=O)CCCCC=CC(C)C)ccc1O
REMARK SMILES IDX 11 1 12 2 13 3 14 4 15 5 16 6 17 7 18 8 10 9 8 10 9 11 7 12
REMARK SMILES IDX 6 14 5 15 4 16 19 17 3 18 20 19 21 20 2 21 1 22 22 23
REMARK H PARENT 7 13 22 24
REMARK Flexibility Score: inf
ROOT
ATOM      1  C   UNL     1      32.092   5.494  13.005  1.00  0.00     0.010 C 
ENDROOT
BRANCH   1   2
ATOM      2  C   UNL     1      32.808   6.807  12.646  1.00  0.00     0.005 C 
BRANCH   2   3
ATOM      3  C   UNL     1      34.334   6.670  12.664  1.00  0.00     0.027 C 
BRANCH   3   4
ATOM      4  C   UNL     1      34.998   7.741  11.832  1.00  0.00    -0.031 C 
ATOM      5  C   UNL     1      36.184   7.615  11.205  1.00  0.00    -0.028 C 
BRANCH   5   6
ATOM      6  C   UNL     1      37.008   6.346  11.160  1.00  0.00     0.005 C 
ATOM      7  C   UNL     1      36.593   5.482   9.964  1.00  0.00     0.012 C 
ATOM      8  C   UNL     1      38.499   6.688  11.074  1.00  0.00     0.012 C 
ENDBRANCH   5   6
ENDBRANCH   3   4
ENDBRANCH   2   3
ENDBRANCH   1   2
BRANCH   1   9
ATOM      9  C   UNL     1      33.077   4.373  13.367  1.00  0.00     0.100 C 
BRANCH   9  10
ATOM     10  C   UNL     1      33.031   3.256  12.365  1.00  0.00     0.220 C 
ATOM     11  O   UNL     1      33.596   2.161  12.633  1.00  0.00    -0.275 OA
ATOM     12  N   UNL     1      32.402   3.453  11.091  1.00  0.00    -0.352 N 
ATOM     13  H   UNL     1      31.843   4.321  10.932  1.00  0.00     0.163 HD
BRANCH  12  14
ATOM     14  C   UNL     1      32.718   2.620   9.934  1.00  0.00     0.151 C 
BRANCH  14  15
ATOM     15  C   UNL     1      32.646   3.451   8.682  1.00  0.00    -0.025 A 
ATOM     16  C   UNL     1      33.233   4.726   8.652  1.00  0.00     0.056 A 
ATOM     17  C   UNL     1      32.097   2.919   7.508  1.00  0.00     0.009 A 
ATOM     18  C   UNL     1      33.267   5.472   7.457  1.00  0.00     0.160 A 
ATOM     19  C   UNL     1      32.124   3.654   6.322  1.00  0.00     0.050 A 
ATOM     20  C   UNL     1      32.707   4.924   6.289  1.00  0.00     0.157 A 
BRANCH  18  21
ATOM     21  O   UNL     1      33.856   6.744   7.394  1.00  0.00    -0.493 OA
ATOM     22  C   UNL     1      33.786   7.718   8.428  1.00  0.00     0.278 C 
ENDBRANCH  18  21
BRANCH  20  23
ATOM     23  O   UNL     1      32.725   5.624   5.084  1.00  0.00    -0.504 OA
ATOM     24  H   UNL     1      32.075   5.424   4.335  1.00  0.00     0.293 HD
ENDBRANCH  20  23
ENDBRANCH  14  15
ENDBRANCH  12  14
ENDBRANCH   9  10
ENDBRANCH   1   9
TORSDOF 10
ENDMDL
MODEL 2
REMARK VINA RESULT:    -6.238      2.221      5.762
REMARK INTER + INTRA:         -11.005
REMARK INTER:                  -9.126
REMARK INTRA:                  -1.879
REMARK UNBOUND:                -1.303
REMARK SMILES COc1cc(CNC(=O)CCCCC=CC(C)C)ccc1O
REMARK SMILES IDX 11 1 12 2 13 3 14 4 15 5 16 6 17 7 18 8 10 9 8 10 9 11 7 12
REMARK SMILES IDX 6 14 5 15 4 16 19 17 3 18 20 19 21 20 2 21 1 22 22 23
REMARK H PARENT 7 13 22 24
REMARK Flexibility Score: inf
ROOT
ATOM      1  C   UNL     1      32.397   3.261   8.370  1.00  0.00     0.010 C 
ENDROOT
BRANCH   1   2
ATOM      2  C   UNL     1      32.616   3.858   9.771  1.00  0.00     0.005 C 
BRANCH   2   3
ATOM      3  C   UNL     1      33.744   3.159  10.538  1.00  0.00     0.027 C 
BRANCH   3   4
ATOM      4  C   UNL     1      33.234   1.970  11.316  1.00  0.00    -0.031 C 
ATOM      5  C   UNL     1      33.163   1.891  12.660  1.00  0.00    -0.028 C 
BRANCH   5   6
ATOM      6  C   UNL     1      33.504   3.018  13.611  1.00  0.00     0.005 C 
ATOM      7  C   UNL     1      32.343   4.016  13.694  1.00  0.00     0.012 C 
ATOM      8  C   UNL     1      33.821   2.457  15.001  1.00  0.00     0.012 C 
ENDBRANCH   5   6
ENDBRANCH   3   4
ENDBRANCH   2   3
ENDBRANCH   1   2
BRANCH   1   9
ATOM      9  C   UNL     1      32.267   4.344   7.289  1.00  0.00     0.100 C 
BRANCH   9  10
ATOM     10  C   UNL     1      33.431   5.291   7.318  1.00  0.00     0.220 C 
ATOM     11  O   UNL     1      34.589   4.855   7.069  1.00  0.00    -0.275 OA
ATOM     12  N   UNL     1      33.238   6.665   7.682  1.00  0.00    -0.352 N 
ATOM     13  H   UNL     1      32.265   7.031   7.772  1.00  0.00     0.163 HD
BRANCH  12  14
ATOM     14  C   UNL     1      34.332   7.496   8.177  1.00  0.00     0.151 C 
BRANCH  14  15
ATOM     15  C   UNL     1      34.557   7.215   9.637  1.00  0.00    -0.025 A 
ATOM     16  C   UNL     1      33.550   7.509  10.571  1.00  0.00     0.056 A 
ATOM     17  C   UNL     1      35.718   6.557  10.062  1.00  0.00     0.009 A 
ATOM     18  C   UNL     1      33.703   7.155  11.926  1.00  0.00     0.160 A 
ATOM     19  C   UNL     1      35.877   6.207  11.404  1.00  0.00     0.050 A 
ATOM     20  C   UNL     1      34.877   6.499  12.336  1.00  0.00     0.157 A 
BRANCH  18  21
ATOM     21  O   UNL     1      32.710   7.426  12.880  1.00  0.00    -0.493 OA
ATOM     22  C   UNL     1      31.849   8.558  12.849  1.00  0.00     0.278 C 
ENDBRANCH  18  21
BRANCH  20  23
ATOM     23  O   UNL     1      35.068   6.124  13.665  1.00  0.00    -0.504 OA
ATOM     24  H   UNL     1      34.404   6.358  14.392  1.00  0.00     0.293 HD
ENDBRANCH  20  23
ENDBRANCH  14  15
ENDBRANCH  12  14
ENDBRANCH   9  10
ENDBRANCH   1   9
TORSDOF 10
ENDMDL
MODEL 3
REMARK VINA RESULT:    -6.228      1.396      2.501
REMARK INTER + INTRA:         -10.990
REMARK INTER:                  -9.323
REMARK INTRA:                  -1.667
REMARK UNBOUND:                -1.303
REMARK SMILES COc1cc(CNC(=O)CCCCC=CC(C)C)ccc1O
REMARK SMILES IDX 11 1 12 2 13 3 14 4 15 5 16 6 17 7 18 8 10 9 8 10 9 11 7 12
REMARK SMILES IDX 6 14 5 15 4 16 19 17 3 18 20 19 21 20 2 21 1 22 22 23
REMARK H PARENT 7 13 22 24
REMARK Flexibility Score: inf
ROOT
ATOM      1  C   UNL     1      32.057   6.434  12.261  1.00  0.00     0.010 C 
ENDROOT
BRANCH   1   2
ATOM      2  C   UNL     1      32.672   7.842  12.351  1.00  0.00     0.005 C 
BRANCH   2   3
ATOM      3  C   UNL     1      34.130   7.878  11.881  1.00  0.00     0.027 C 
BRANCH   3   4
ATOM      4  C   UNL     1      34.234   7.726  10.382  1.00  0.00    -0.031 C 
ATOM      5  C   UNL     1      35.100   6.917   9.740  1.00  0.00    -0.028 C 
BRANCH   5   6
ATOM      6  C   UNL     1      36.054   5.959  10.420  1.00  0.00     0.005 C 
ATOM      7  C   UNL     1      36.131   4.641   9.642  1.00  0.00     0.012 C 
ATOM      8  C   UNL     1      37.445   6.591  10.531  1.00  0.00     0.012 C 
ENDBRANCH   5   6
ENDBRANCH   3   4
ENDBRANCH   2   3
ENDBRANCH   1   2
BRANCH   1   9
ATOM      9  C   UNL     1      33.053   5.335  12.656  1.00  0.00     0.100 C 
BRANCH   9  10
ATOM     10  C   UNL     1      32.866   4.100  11.825  1.00  0.00     0.220 C 
ATOM     11  O   UNL     1      33.063   2.968  12.346  1.00  0.00    -0.275 OA
ATOM     12  N   UNL     1      32.523   4.207  10.436  1.00  0.00    -0.352 N 
ATOM     13  H   UNL     1      32.253   5.140  10.053  1.00  0.00     0.163 HD
BRANCH  12  14
ATOM     14  C   UNL     1      32.781   3.126   9.488  1.00  0.00     0.151 C 
BRANCH  14  15
ATOM     15  C   UNL     1      32.614   3.638   8.084  1.00  0.00    -0.025 A 
ATOM     16  C   UNL     1      31.899   2.881   7.141  1.00  0.00     0.056 A 
ATOM     17  C   UNL     1      33.070   4.916   7.736  1.00  0.00     0.009 A 
ATOM     18  C   UNL     1      31.644   3.394   5.855  1.00  0.00     0.160 A 
ATOM     19  C   UNL     1      32.823   5.428   6.461  1.00  0.00     0.050 A 
ATOM     20  C   UNL     1      32.113   4.677   5.521  1.00  0.00     0.157 A 
BRANCH  18  21
ATOM     21  O   UNL     1      30.924   2.666   4.895  1.00  0.00    -0.493 OA
ATOM     22  C   UNL     1      29.504   2.628   4.810  1.00  0.00     0.278 C 
ENDBRANCH  18  21
BRANCH  20  23
ATOM     23  O   UNL     1      31.877   5.227   4.262  1.00  0.00    -0.504 OA
ATOM     24  H   UNL     1      31.051   5.774   4.059  1.00  0.00     0.293 HD
ENDBRANCH  20  23
ENDBRANCH  14  15
ENDBRANCH  12  14
ENDBRANCH   9  10
ENDBRANCH   1   9
TORSDOF 10
ENDMDL
MODEL 4
REMARK VINA RESULT:    -6.220      2.392      6.806
REMARK INTER + INTRA:         -10.977
REMARK INTER:                  -9.264
REMARK INTRA:                  -1.712
REMARK UNBOUND:                -1.303
REMARK SMILES COc1cc(CNC(=O)CCCCC=CC(C)C)ccc1O
REMARK SMILES IDX 11 1 12 2 13 3 14 4 15 5 16 6 17 7 18 8 10 9 8 10 9 11 7 12
REMARK SMILES IDX 6 14 5 15 4 16 19 17 3 18 20 19 21 20 2 21 1 22 22 23
REMARK H PARENT 7 13 22 24
REMARK Flexibility Score: inf
ROOT
ATOM      1  C   UNL     1      34.834   4.994   8.177  1.00  0.00     0.010 C 
ENDROOT
BRANCH   1   2
ATOM      2  C   UNL     1      34.201   4.103   9.259  1.00  0.00     0.005 C 
BRANCH   2   3
ATOM      3  C   UNL     1      32.674   4.028   9.140  1.00  0.00     0.027 C 
BRANCH   3   4
ATOM      4  C   UNL     1      32.239   2.842   8.314  1.00  0.00    -0.031 C 
ATOM      5  C   UNL     1      31.477   2.904   7.204  1.00  0.00    -0.028 C 
BRANCH   5   6
ATOM      6  C   UNL     1      31.003   4.185   6.552  1.00  0.00     0.005 C 
ATOM      7  C   UNL     1      32.030   4.673   5.526  1.00  0.00     0.012 C 
ATOM      8  C   UNL     1      29.644   3.962   5.878  1.00  0.00     0.012 C 
ENDBRANCH   5   6
ENDBRANCH   3   4
ENDBRANCH   2   3
ENDBRANCH   1   2
BRANCH   1   9
ATOM      9  C   UNL     1      34.364   6.453   8.273  1.00  0.00     0.100 C 
BRANCH   9  10
ATOM     10  C   UNL     1      34.733   7.063   9.594  1.00  0.00     0.220 C 
ATOM     11  O   UNL     1      35.940   7.063   9.959  1.00  0.00    -0.275 OA
ATOM     12  N   UNL     1      33.716   7.588  10.458  1.00  0.00    -0.352 N 
ATOM     13  H   UNL     1      32.742   7.684  10.092  1.00  0.00     0.163 HD
BRANCH  12  14
ATOM     14  C   UNL     1      33.928   7.754  11.893  1.00  0.00     0.151 C 
BRANCH  14  15
ATOM     15  C   UNL     1      33.747   6.430  12.585  1.00  0.00    -0.025 A 
ATOM     16  C   UNL     1      34.663   6.022  13.568  1.00  0.00     0.056 A 
ATOM     17  C   UNL     1      32.610   5.650  12.337  1.00  0.00     0.009 A 
ATOM     18  C   UNL     1      34.449   4.837  14.299  1.00  0.00     0.160 A 
ATOM     19  C   UNL     1      32.395   4.472  13.055  1.00  0.00     0.050 A 
ATOM     20  C   UNL     1      33.305   4.063  14.034  1.00  0.00     0.157 A 
BRANCH  18  21
ATOM     21  O   UNL     1      35.340   4.408  15.295  1.00  0.00    -0.493 OA
ATOM     22  C   UNL     1      36.230   5.263  16.004  1.00  0.00     0.278 C 
ENDBRANCH  18  21
BRANCH  20  23
ATOM     23  O   UNL     1      33.050   2.887  14.737  1.00  0.00    -0.504 OA
ATOM     24  H   UNL     1      32.837   2.885  15.726  1.00  0.00     0.293 HD
ENDBRANCH  20  23
ENDBRANCH  14  15
ENDBRANCH  12  14
ENDBRANCH   9  10
ENDBRANCH   1   9
TORSDOF 10
ENDMDL
MODEL 5
REMARK VINA RESULT:    -6.135      1.646      3.447
REMARK INTER + INTRA:         -10.844
REMARK INTER:                  -9.237
REMARK INTRA:                  -1.607
REMARK UNBOUND:                -1.303
REMARK SMILES COc1cc(CNC(=O)CCCCC=CC(C)C)ccc1O
REMARK SMILES IDX 11 1 12 2 13 3 14 4 15 5 16 6 17 7 18 8 10 9 8 10 9 11 7 12
REMARK SMILES IDX 6 14 5 15 4 16 19 17 3 18 20 19 21 20 2 21 1 22 22 23
REMARK H PARENT 7 13 22 24
REMARK Flexibility Score: inf
ROOT
ATOM      1  C   UNL     1      34.665   5.886  13.382  1.00  0.00     0.010 C 
ENDROOT
BRANCH   1   2
ATOM      2  C   UNL     1      35.459   6.142  12.089  1.00  0.00     0.005 C 
BRANCH   2   3
ATOM      3  C   UNL     1      35.258   7.562  11.547  1.00  0.00     0.027 C 
BRANCH   3   4
ATOM      4  C   UNL     1      34.064   7.642  10.627  1.00  0.00    -0.031 C 
ATOM      5  C   UNL     1      32.887   8.226  10.928  1.00  0.00    -0.028 C 
BRANCH   5   6
ATOM      6  C   UNL     1      32.598   8.977  12.210  1.00  0.00     0.005 C 
ATOM      7  C   UNL     1      31.780  10.239  11.916  1.00  0.00     0.012 C 
ATOM      8  C   UNL     1      31.844   8.073  13.191  1.00  0.00     0.012 C 
ENDBRANCH   5   6
ENDBRANCH   3   4
ENDBRANCH   2   3
ENDBRANCH   1   2
BRANCH   1   9
ATOM      9  C   UNL     1      33.989   4.507  13.388  1.00  0.00     0.100 C 
BRANCH   9  10
ATOM     10  C   UNL     1      33.157   4.299  12.156  1.00  0.00     0.220 C 
ATOM     11  O   UNL     1      32.065   4.918  12.036  1.00  0.00    -0.275 OA
ATOM     12  N   UNL     1      33.571   3.361  11.153  1.00  0.00    -0.352 N 
ATOM     13  H   UNL     1      34.528   2.946  11.213  1.00  0.00     0.163 HD
BRANCH  12  14
ATOM     14  C   UNL     1      32.629   2.774  10.204  1.00  0.00     0.151 C 
BRANCH  14  15
ATOM     15  C   UNL     1      32.761   3.462   8.873  1.00  0.00    -0.025 A 
ATOM     16  C   UNL     1      32.030   2.997   7.768  1.00  0.00     0.056 A 
ATOM     17  C   UNL     1      33.520   4.633   8.752  1.00  0.00     0.009 A 
ATOM     18  C   UNL     1      32.060   3.693   6.544  1.00  0.00     0.160 A 
ATOM     19  C   UNL     1      33.558   5.325   7.540  1.00  0.00     0.050 A 
ATOM     20  C   UNL     1      32.832   4.864   6.439  1.00  0.00     0.157 A 
BRANCH  18  21
ATOM     21  O   UNL     1      31.333   3.259   5.425  1.00  0.00    -0.493 OA
ATOM     22  C   UNL     1      29.959   3.548   5.195  1.00  0.00     0.278 C 
ENDBRANCH  18  21
BRANCH  20  23
ATOM     23  O   UNL     1      32.886   5.588   5.249  1.00  0.00    -0.504 OA
ATOM     24  H   UNL     1      32.077   6.064   4.871  1.00  0.00     0.293 HD
ENDBRANCH  20  23
ENDBRANCH  14  15
ENDBRANCH  12  14
ENDBRANCH   9  10
ENDBRANCH   1   9
TORSDOF 10
ENDMDL
MODEL 6
REMARK VINA RESULT:    -6.058      2.203      5.804
REMARK INTER + INTRA:         -10.726
REMARK INTER:                  -9.156
REMARK INTRA:                  -1.570
REMARK UNBOUND:                -1.303
REMARK SMILES COc1cc(CNC(=O)CCCCC=CC(C)C)ccc1O
REMARK SMILES IDX 11 1 12 2 13 3 14 4 15 5 16 6 17 7 18 8 10 9 8 10 9 11 7 12
REMARK SMILES IDX 6 14 5 15 4 16 19 17 3 18 20 19 21 20 2 21 1 22 22 23
REMARK H PARENT 7 13 22 24
REMARK Flexibility Score: inf
ROOT
ATOM      1  C   UNL     1      32.734   3.333   8.070  1.00  0.00     0.010 C 
ENDROOT
BRANCH   1   2
ATOM      2  C   UNL     1      32.535   3.746   9.539  1.00  0.00     0.005 C 
BRANCH   2   3
ATOM      3  C   UNL     1      33.653   3.231  10.452  1.00  0.00     0.027 C 
BRANCH   3   4
ATOM      4  C   UNL     1      33.200   2.048  11.272  1.00  0.00    -0.031 C 
ATOM      5  C   UNL     1      33.171   2.000  12.619  1.00  0.00    -0.028 C 
BRANCH   5   6
ATOM      6  C   UNL     1      33.509   3.159  13.533  1.00  0.00     0.005 C 
ATOM      7  C   UNL     1      32.298   4.083  13.693  1.00  0.00     0.012 C 
ATOM      8  C   UNL     1      33.962   2.637  14.900  1.00  0.00     0.012 C 
ENDBRANCH   5   6
ENDBRANCH   3   4
ENDBRANCH   2   3
ENDBRANCH   1   2
BRANCH   1   9
ATOM      9  C   UNL     1      32.597   4.520   7.106  1.00  0.00     0.100 C 
BRANCH   9  10
ATOM     10  C   UNL     1      33.626   5.576   7.385  1.00  0.00     0.220 C 
ATOM     11  O   UNL     1      34.841   5.249   7.468  1.00  0.00    -0.275 OA
ATOM     12  N   UNL     1      33.225   6.934   7.615  1.00  0.00    -0.352 N 
ATOM     13  H   UNL     1      32.234   7.206   7.430  1.00  0.00     0.163 HD
BRANCH  12  14
ATOM     14  C   UNL     1      34.073   7.882   8.332  1.00  0.00     0.151 C 
BRANCH  14  15
ATOM     15  C   UNL     1      34.354   7.360   9.715  1.00  0.00    -0.025 A 
ATOM     16  C   UNL     1      35.672   7.069  10.100  1.00  0.00     0.056 A 
ATOM     17  C   UNL     1      33.325   7.269  10.661  1.00  0.00     0.009 A 
ATOM     18  C   UNL     1      35.963   6.681  11.423  1.00  0.00     0.160 A 
ATOM     19  C   UNL     1      33.606   6.881  11.972  1.00  0.00     0.050 A 
ATOM     20  C   UNL     1      34.917   6.590  12.358  1.00  0.00     0.157 A 
BRANCH  18  21
ATOM     21  O   UNL     1      37.272   6.394  11.841  1.00  0.00    -0.493 OA
ATOM     22  C   UNL     1      38.444   6.710  11.098  1.00  0.00     0.278 C 
ENDBRANCH  18  21
BRANCH  20  23
ATOM     23  O   UNL     1      35.161   6.217  13.679  1.00  0.00    -0.504 OA
ATOM     24  H   UNL     1      35.056   5.264  13.998  1.00  0.00     0.293 HD
ENDBRANCH  20  23
ENDBRANCH  14  15
ENDBRANCH  12  14
ENDBRANCH   9  10
ENDBRANCH   1   9
TORSDOF 10
ENDMDL
MODEL 7
REMARK VINA RESULT:    -5.947      2.098      4.063
REMARK INTER + INTRA:         -10.553
REMARK INTER:                  -9.077
REMARK INTRA:                  -1.476
REMARK UNBOUND:                -1.303
REMARK SMILES COc1cc(CNC(=O)CCCCC=CC(C)C)ccc1O
REMARK SMILES IDX 11 1 12 2 13 3 14 4 15 5 16 6 17 7 18 8 10 9 8 10 9 11 7 12
REMARK SMILES IDX 6 14 5 15 4 16 19 17 3 18 20 19 21 20 2 21 1 22 22 23
REMARK H PARENT 7 13 22 24
REMARK Flexibility Score: inf
ROOT
ATOM      1  C   UNL     1      34.613   8.236  11.865  1.00  0.00     0.010 C 
ENDROOT
BRANCH   1   2
ATOM      2  C   UNL     1      33.127   8.066  12.228  1.00  0.00     0.005 C 
BRANCH   2   3
ATOM      3  C   UNL     1      32.853   6.768  12.995  1.00  0.00     0.027 C 
BRANCH   3   4
ATOM      4  C   UNL     1      31.877   5.883  12.259  1.00  0.00    -0.031 C 
ATOM      5  C   UNL     1      32.071   4.580  11.972  1.00  0.00    -0.028 C 
BRANCH   5   6
ATOM      6  C   UNL     1      33.266   3.765  12.420  1.00  0.00     0.005 C 
ATOM      7  C   UNL     1      33.112   3.356  13.888  1.00  0.00     0.012 C 
ATOM      8  C   UNL     1      33.417   2.523  11.536  1.00  0.00     0.012 C 
ENDBRANCH   5   6
ENDBRANCH   3   4
ENDBRANCH   2   3
ENDBRANCH   1   2
BRANCH   1   9
ATOM      9  C   UNL     1      35.331   6.888  11.701  1.00  0.00     0.100 C 
BRANCH   9  10
ATOM     10  C   UNL     1      35.433   6.493  10.257  1.00  0.00     0.220 C 
ATOM     11  O   UNL     1      36.541   6.598   9.663  1.00  0.00    -0.275 OA
ATOM     12  N   UNL     1      34.268   6.056   9.542  1.00  0.00    -0.352 N 
ATOM     13  H   UNL     1      33.390   5.866  10.074  1.00  0.00     0.163 HD
BRANCH  12  14
ATOM     14  C   UNL     1      34.187   6.110   8.085  1.00  0.00     0.151 C 
BRANCH  14  15
ATOM     15  C   UNL     1      33.237   5.052   7.594  1.00  0.00    -0.025 A 
ATOM     16  C   UNL     1      32.790   5.074   6.263  1.00  0.00     0.056 A 
ATOM     17  C   UNL     1      32.881   3.980   8.421  1.00  0.00     0.009 A 
ATOM     18  C   UNL     1      31.986   4.033   5.760  1.00  0.00     0.160 A 
ATOM     19  C   UNL     1      32.081   2.947   7.929  1.00  0.00     0.050 A 
ATOM     20  C   UNL     1      31.634   2.966   6.606  1.00  0.00     0.157 A 
BRANCH  18  21
ATOM     21  O   UNL     1      31.532   4.022   4.432  1.00  0.00    -0.493 OA
ATOM     22  C   UNL     1      31.012   5.155   3.746  1.00  0.00     0.278 C 
ENDBRANCH  18  21
BRANCH  20  23
ATOM     23  O   UNL     1      30.846   1.912   6.148  1.00  0.00    -0.504 OA
ATOM     24  H   UNL     1      30.275   1.987   5.316  1.00  0.00     0.293 HD
ENDBRANCH  20  23
ENDBRANCH  14  15
ENDBRANCH  12  14
ENDBRANCH   9  10
ENDBRANCH   1   9
TORSDOF 10
ENDMDL
MODEL 8
REMARK VINA RESULT:    -5.848      1.891      5.192
REMARK INTER + INTRA:         -10.398
REMARK INTER:                  -8.576
REMARK INTRA:                  -1.823
REMARK UNBOUND:                -1.303
REMARK SMILES COc1cc(CNC(=O)CCCCC=CC(C)C)ccc1O
REMARK SMILES IDX 11 1 12 2 13 3 14 4 15 5 16 6 17 7 18 8 10 9 8 10 9 11 7 12
REMARK SMILES IDX 6 14 5 15 4 16 19 17 3 18 20 19 21 20 2 21 1 22 22 23
REMARK H PARENT 7 13 22 24
REMARK Flexibility Score: inf
ROOT
ATOM      1  C   UNL     1      32.791   2.165  11.366  1.00  0.00     0.010 C 
ENDROOT
BRANCH   1   2
ATOM      2  C   UNL     1      33.616   3.165  10.537  1.00  0.00     0.005 C 
BRANCH   2   3
ATOM      3  C   UNL     1      32.740   4.185   9.802  1.00  0.00     0.027 C 
BRANCH   3   4
ATOM      4  C   UNL     1      33.386   4.651   8.521  1.00  0.00    -0.031 C 
ATOM      5  C   UNL     1      32.889   4.457   7.283  1.00  0.00    -0.028 C 
BRANCH   5   6
ATOM      6  C   UNL     1      31.552   3.815   6.979  1.00  0.00     0.005 C 
ATOM      7  C   UNL     1      30.965   4.391   5.687  1.00  0.00     0.012 C 
ATOM      8  C   UNL     1      31.714   2.296   6.857  1.00  0.00     0.012 C 
ENDBRANCH   5   6
ENDBRANCH   3   4
ENDBRANCH   2   3
ENDBRANCH   1   2
BRANCH   1   9
ATOM      9  C   UNL     1      33.313   2.029  12.804  1.00  0.00     0.100 C 
BRANCH   9  10
ATOM     10  C   UNL     1      33.256   3.337  13.536  1.00  0.00     0.220 C 
ATOM     11  O   UNL     1      32.141   3.899  13.712  1.00  0.00    -0.275 OA
ATOM     12  N   UNL     1      34.464   3.972  13.979  1.00  0.00    -0.352 N 
ATOM     13  H   UNL     1      35.362   3.441  13.928  1.00  0.00     0.163 HD
BRANCH  12  14
ATOM     14  C   UNL     1      34.530   5.404  14.258  1.00  0.00     0.151 C 
BRANCH  14  15
ATOM     15  C   UNL     1      34.524   6.169  12.963  1.00  0.00    -0.025 A 
ATOM     16  C   UNL     1      35.630   6.096  12.100  1.00  0.00     0.056 A 
ATOM     17  C   UNL     1      33.379   6.866  12.556  1.00  0.00     0.009 A 
ATOM     18  C   UNL     1      35.596   6.720  10.838  1.00  0.00     0.160 A 
ATOM     19  C   UNL     1      33.341   7.490  11.307  1.00  0.00     0.050 A 
ATOM     20  C   UNL     1      34.440   7.419  10.447  1.00  0.00     0.157 A 
BRANCH  18  21
ATOM     21  O   UNL     1      36.681   6.656   9.949  1.00  0.00    -0.493 OA
ATOM     22  C   UNL     1      38.045   6.790  10.330  1.00  0.00     0.278 C 
ENDBRANCH  18  21
BRANCH  20  23
ATOM     23  O   UNL     1      34.361   8.045   9.204  1.00  0.00    -0.504 OA
ATOM     24  H   UNL     1      34.995   8.785   8.932  1.00  0.00     0.293 HD
ENDBRANCH  20  23
ENDBRANCH  14  15
ENDBRANCH  12  14
ENDBRANCH   9  10
ENDBRANCH   1   9
TORSDOF 10
ENDMDL
MODEL 9
REMARK VINA RESULT:    -5.764      1.813      4.928
REMARK INTER + INTRA:         -10.268
REMARK INTER:                  -8.717
REMARK INTRA:                  -1.551
REMARK UNBOUND:                -1.303
REMARK SMILES COc1cc(CNC(=O)CCCCC=CC(C)C)ccc1O
REMARK SMILES IDX 11 1 12 2 13 3 14 4 15 5 16 6 17 7 18 8 10 9 8 10 9 11 7 12
REMARK SMILES IDX 6 14 5 15 4 16 19 17 3 18 20 19 21 20 2 21 1 22 22 23
REMARK H PARENT 7 13 22 24
REMARK Flexibility Score: inf
ROOT
ATOM      1  C   UNL     1      33.864   5.480   7.071  1.00  0.00     0.010 C 
ENDROOT
BRANCH   1   2
ATOM      2  C   UNL     1      33.636   6.781   7.859  1.00  0.00     0.005 C 
BRANCH   2   3
ATOM      3  C   UNL     1      34.561   6.904   9.074  1.00  0.00     0.027 C 
BRANCH   3   4
ATOM      4  C   UNL     1      35.438   5.685   9.230  1.00  0.00    -0.031 C 
ATOM      5  C   UNL     1      36.504   5.593  10.049  1.00  0.00    -0.028 C 
BRANCH   5   6
ATOM      6  C   UNL     1      36.948   6.670  11.015  1.00  0.00     0.005 C 
ATOM      7  C   UNL     1      36.299   6.458  12.387  1.00  0.00     0.012 C 
ATOM      8  C   UNL     1      38.475   6.665  11.145  1.00  0.00     0.012 C 
ENDBRANCH   5   6
ENDBRANCH   3   4
ENDBRANCH   2   3
ENDBRANCH   1   2
BRANCH   1   9
ATOM      9  C   UNL     1      32.553   4.876   6.548  1.00  0.00     0.100 C 
BRANCH   9  10
ATOM     10  C   UNL     1      32.167   3.649   7.320  1.00  0.00     0.220 C 
ATOM     11  O   UNL     1      31.199   2.945   6.919  1.00  0.00    -0.275 OA
ATOM     12  N   UNL     1      32.853   3.310   8.533  1.00  0.00    -0.352 N 
ATOM     13  H   UNL     1      33.720   3.835   8.786  1.00  0.00     0.163 HD
BRANCH  12  14
ATOM     14  C   UNL     1      32.255   2.446   9.547  1.00  0.00     0.151 C 
BRANCH  14  15
ATOM     15  C   UNL     1      32.747   2.854  10.909  1.00  0.00    -0.025 A 
ATOM     16  C   UNL     1      32.691   4.202  11.300  1.00  0.00     0.056 A 
ATOM     17  C   UNL     1      33.155   1.885  11.835  1.00  0.00     0.009 A 
ATOM     18  C   UNL     1      33.047   4.583  12.608  1.00  0.00     0.160 A 
ATOM     19  C   UNL     1      33.514   2.258  13.131  1.00  0.00     0.050 A 
ATOM     20  C   UNL     1      33.460   3.598  13.523  1.00  0.00     0.157 A 
BRANCH  18  21
ATOM     21  O   UNL     1      32.992   5.920  13.032  1.00  0.00    -0.493 OA
ATOM     22  C   UNL     1      32.362   6.971  12.308  1.00  0.00     0.278 C 
ENDBRANCH  18  21
BRANCH  20  23
ATOM     23  O   UNL     1      33.815   3.931  14.830  1.00  0.00    -0.504 OA
ATOM     24  H   UNL     1      33.900   3.235  15.559  1.00  0.00     0.293 HD
ENDBRANCH  20  23
ENDBRANCH  14  15
ENDBRANCH  12  14
ENDBRANCH   9  10
ENDBRANCH   1   9
TORSDOF 10
ENDMDL
