MODEL 1
REMARK VINA RESULT:    -6.920      0.000      0.000
REMARK INTER + INTRA:         -10.506
REMARK INTER:                  -9.752
REMARK INTRA:                  -0.754
REMARK UNBOUND:                -0.754
REMARK SMILES COc1ccc(-c2cc(=O)c3c(OC)c(OC)c(OC)c(OC)c3o2)cc1OC
REMARK SMILES IDX 7 1 8 2 9 3 10 4 11 5 24 6 25 7 21 8 18 9 15 10 12 11 6 12
REMARK SMILES IDX 3 13 27 14 4 15 26 16 5 17 2 18 1 19 28 20 29 21 22 22 23 23
REMARK SMILES IDX 13 24 14 25 19 26 20 27 16 28 17 29
REMARK H PARENT
REMARK Flexibility Score: inf
ROOT
ATOM      1  C   UNL     1       2.571  -1.317   2.128  1.00  0.00     0.138 A 
ATOM      2  C   UNL     1       1.241  -0.968   1.872  1.00  0.00     0.100 A 
ATOM      3  C   UNL     1       0.272  -1.215   2.841  1.00  0.00     0.197 A 
ATOM      4  O   UNL     1      -0.924  -0.898   2.595  1.00  0.00    -0.289 OA
ATOM      5  C   UNL     1       0.643  -1.816   4.065  1.00  0.00     0.115 A 
ATOM      6  C   UNL     1       2.006  -2.155   4.252  1.00  0.00     0.188 A 
ATOM      7  O   UNL     1       2.884  -1.895   3.286  1.00  0.00    -0.452 OA
ATOM      8  C   UNL     1       2.437  -2.749   5.466  1.00  0.00     0.209 A 
ATOM      9  C   UNL     1       1.482  -3.026   6.478  1.00  0.00     0.211 A 
ATOM     10  C   UNL     1       0.132  -2.712   6.273  1.00  0.00     0.208 A 
ATOM     11  C   UNL     1      -0.286  -2.062   5.098  1.00  0.00     0.179 A 
ENDROOT
BRANCH   1  12
ATOM     12  C   UNL     1       3.644  -1.066   1.135  1.00  0.00     0.021 A 
ATOM     13  C   UNL     1       5.663  -0.640  -0.791  1.00  0.00     0.160 A 
ATOM     14  C   UNL     1       4.339  -0.850  -1.200  1.00  0.00     0.161 A 
ATOM     15  C   UNL     1       5.975  -0.649   0.580  1.00  0.00     0.051 A 
ATOM     16  C   UNL     1       3.336  -1.062  -0.234  1.00  0.00     0.062 A 
ATOM     17  C   UNL     1       4.977  -0.864   1.533  1.00  0.00     0.016 A 
BRANCH  13  18
ATOM     18  O   UNL     1       6.641  -0.429  -1.777  1.00  0.00    -0.493 OA
ATOM     19  C   UNL     1       7.695  -1.339  -2.074  1.00  0.00     0.278 C 
ENDBRANCH  13  18
BRANCH  14  20
ATOM     20  O   UNL     1       4.057  -0.843  -2.576  1.00  0.00    -0.493 OA
ATOM     21  C   UNL     1       2.764  -1.055  -3.135  1.00  0.00     0.278 C 
ENDBRANCH  14  20
ENDBRANCH   1  12
BRANCH   8  22
ATOM     22  O   UNL     1       3.784  -3.075   5.714  1.00  0.00    -0.490 OA
ATOM     23  C   UNL     1       4.793  -2.226   6.248  1.00  0.00     0.278 C 
ENDBRANCH   8  22
BRANCH  11  24
ATOM     24  O   UNL     1      -1.614  -1.642   4.960  1.00  0.00    -0.492 OA
ATOM     25  C   UNL     1      -2.166  -0.597   5.755  1.00  0.00     0.278 C 
ENDBRANCH  11  24
BRANCH   9  26
ATOM     26  O   UNL     1       1.797  -3.631   7.711  1.00  0.00    -0.490 OA
ATOM     27  C   UNL     1       2.228  -2.980   8.901  1.00  0.00     0.279 C 
ENDBRANCH   9  26
BRANCH  10  28
ATOM     28  O   UNL     1      -0.784  -3.070   7.269  1.00  0.00    -0.490 OA
ATOM     29  C   UNL     1      -1.544  -4.274   7.216  1.00  0.00     0.278 C 
ENDBRANCH  10  28
TORSDOF 7
ENDMDL
MODEL 2
REMARK VINA RESULT:    -6.885      1.648      8.854
REMARK INTER + INTRA:         -10.457
REMARK INTER:                  -9.833
REMARK INTRA:                  -0.624
REMARK UNBOUND:                -0.754
REMARK SMILES COc1ccc(-c2cc(=O)c3c(OC)c(OC)c(OC)c(OC)c3o2)cc1OC
REMARK SMILES IDX 7 1 8 2 9 3 10 4 11 5 24 6 25 7 21 8 18 9 15 10 12 11 6 12
REMARK SMILES IDX 3 13 27 14 4 15 26 16 5 17 2 18 1 19 28 20 29 21 22 22 23 23
REMARK SMILES IDX 13 24 14 25 19 26 20 27 16 28 17 29
REMARK H PARENT
REMARK Flexibility Score: inf
ROOT
ATOM      1  C   UNL     1       3.156  -1.036   2.275  1.00  0.00     0.138 A 
ATOM      2  C   UNL     1       4.268  -0.567   2.984  1.00  0.00     0.100 A 
ATOM      3  C   UNL     1       5.446  -0.285   2.298  1.00  0.00     0.197 A 
ATOM      4  O   UNL     1       6.440   0.133   2.950  1.00  0.00    -0.289 OA
ATOM      5  C   UNL     1       5.506  -0.480   0.899  1.00  0.00     0.115 A 
ATOM      6  C   UNL     1       4.346  -0.969   0.248  1.00  0.00     0.188 A 
ATOM      7  O   UNL     1       3.251  -1.221   0.960  1.00  0.00    -0.452 OA
ATOM      8  C   UNL     1       4.345  -1.172  -1.157  1.00  0.00     0.209 A 
ATOM      9  C   UNL     1       5.527  -0.906  -1.895  1.00  0.00     0.211 A 
ATOM     10  C   UNL     1       6.676  -0.448  -1.238  1.00  0.00     0.208 A 
ATOM     11  C   UNL     1       6.659  -0.182   0.143  1.00  0.00     0.179 A 
ENDROOT
BRANCH   1  12
ATOM     12  C   UNL     1       1.874  -1.340   2.955  1.00  0.00     0.021 A 
ATOM     13  C   UNL     1      -0.547  -1.983   4.257  1.00  0.00     0.160 A 
ATOM     14  C   UNL     1       0.672  -2.425   4.789  1.00  0.00     0.161 A 
ATOM     15  C   UNL     1      -0.553  -1.225   3.072  1.00  0.00     0.051 A 
ATOM     16  C   UNL     1       1.877  -2.100   4.135  1.00  0.00     0.062 A 
ATOM     17  C   UNL     1       0.644  -0.911   2.426  1.00  0.00     0.016 A 
BRANCH  13  18
ATOM     18  O   UNL     1      -1.731  -2.319   4.932  1.00  0.00    -0.493 OA
ATOM     19  C   UNL     1      -2.296  -1.561   5.998  1.00  0.00     0.278 C 
ENDBRANCH  13  18
BRANCH  14  20
ATOM     20  O   UNL     1       0.648  -3.186   5.970  1.00  0.00    -0.493 OA
ATOM     21  C   UNL     1       1.071  -2.711   7.244  1.00  0.00     0.278 C 
ENDBRANCH  14  20
ENDBRANCH   1  12
BRANCH   8  22
ATOM     22  O   UNL     1       3.211  -1.625  -1.856  1.00  0.00    -0.490 OA
ATOM     23  C   UNL     1       2.461  -0.917  -2.838  1.00  0.00     0.278 C 
ENDBRANCH   8  22
BRANCH  11  24
ATOM     24  O   UNL     1       7.774   0.392   0.764  1.00  0.00    -0.492 OA
ATOM     25  C   UNL     1       8.130   1.757   0.571  1.00  0.00     0.278 C 
ENDBRANCH  11  24
BRANCH   9  26
ATOM     26  O   UNL     1       5.642  -1.091  -3.287  1.00  0.00    -0.490 OA
ATOM     27  C   UNL     1       5.766  -2.327  -3.982  1.00  0.00     0.279 C 
ENDBRANCH   9  26
BRANCH  10  28
ATOM     28  O   UNL     1       7.839  -0.269  -1.996  1.00  0.00    -0.490 OA
ATOM     29  C   UNL     1       8.883  -1.238  -2.040  1.00  0.00     0.278 C 
ENDBRANCH  10  28
TORSDOF 7
ENDMDL
MODEL 3
REMARK VINA RESULT:    -6.869      1.814      8.036
REMARK INTER + INTRA:         -10.434
REMARK INTER:                  -9.616
REMARK INTRA:                  -0.817
REMARK UNBOUND:                -0.754
REMARK SMILES COc1ccc(-c2cc(=O)c3c(OC)c(OC)c(OC)c(OC)c3o2)cc1OC
REMARK SMILES IDX 7 1 8 2 9 3 10 4 11 5 24 6 25 7 21 8 18 9 15 10 12 11 6 12
REMARK SMILES IDX 3 13 27 14 4 15 26 16 5 17 2 18 1 19 28 20 29 21 22 22 23 23
REMARK SMILES IDX 13 24 14 25 19 26 20 27 16 28 17 29
REMARK H PARENT
REMARK Flexibility Score: inf
ROOT
ATOM      1  C   UNL     1       2.224  -1.205   2.258  1.00  0.00     0.138 A 
ATOM      2  C   UNL     1       2.024  -1.029   0.884  1.00  0.00     0.100 A 
ATOM      3  C   UNL     1       3.122  -0.809   0.057  1.00  0.00     0.197 A 
ATOM      4  O   UNL     1       2.927  -0.649  -1.178  1.00  0.00    -0.289 OA
ATOM      5  C   UNL     1       4.420  -0.764   0.614  1.00  0.00     0.115 A 
ATOM      6  C   UNL     1       4.548  -0.938   2.015  1.00  0.00     0.188 A 
ATOM      7  O   UNL     1       3.458  -1.142   2.752  1.00  0.00    -0.452 OA
ATOM      8  C   UNL     1       5.829  -0.914   2.626  1.00  0.00     0.209 A 
ATOM      9  C   UNL     1       6.974  -0.684   1.822  1.00  0.00     0.211 A 
ATOM     10  C   UNL     1       6.835  -0.487   0.443  1.00  0.00     0.208 A 
ATOM     11  C   UNL     1       5.575  -0.577  -0.175  1.00  0.00     0.179 A 
ENDROOT
BRANCH   1  12
ATOM     12  C   UNL     1       1.090  -1.454   3.182  1.00  0.00     0.021 A 
ATOM     13  C   UNL     1      -1.049  -1.991   4.944  1.00  0.00     0.160 A 
ATOM     14  C   UNL     1       0.236  -2.469   5.237  1.00  0.00     0.161 A 
ATOM     15  C   UNL     1      -1.261  -1.250   3.767  1.00  0.00     0.051 A 
ATOM     16  C   UNL     1       1.300  -2.197   4.354  1.00  0.00     0.062 A 
ATOM     17  C   UNL     1      -0.204  -0.989   2.894  1.00  0.00     0.016 A 
BRANCH  13  18
ATOM     18  O   UNL     1      -2.088  -2.275   5.844  1.00  0.00    -0.493 OA
ATOM     19  C   UNL     1      -2.508  -1.406   6.891  1.00  0.00     0.278 C 
ENDBRANCH  13  18
BRANCH  14  20
ATOM     20  O   UNL     1       0.419  -3.212   6.415  1.00  0.00    -0.493 OA
ATOM     21  C   UNL     1       0.994  -2.696   7.612  1.00  0.00     0.278 C 
ENDBRANCH  14  20
ENDBRANCH   1  12
BRANCH   8  22
ATOM     22  O   UNL     1       6.012  -1.113   4.008  1.00  0.00    -0.490 OA
ATOM     23  C   UNL     1       6.209  -2.351   4.682  1.00  0.00     0.278 C 
ENDBRANCH   8  22
BRANCH  11  24
ATOM     24  O   UNL     1       5.466  -0.502  -1.568  1.00  0.00    -0.492 OA
ATOM     25  C   UNL     1       5.870  -1.570  -2.419  1.00  0.00     0.278 C 
ENDBRANCH  11  24
BRANCH   9  26
ATOM     26  O   UNL     1       8.288  -0.621   2.328  1.00  0.00    -0.490 OA
ATOM     27  C   UNL     1       8.862   0.430   3.098  1.00  0.00     0.279 C 
ENDBRANCH   9  26
BRANCH  10  28
ATOM     28  O   UNL     1       7.986  -0.192  -0.297  1.00  0.00    -0.490 OA
ATOM     29  C   UNL     1       8.405   1.143  -0.564  1.00  0.00     0.278 C 
ENDBRANCH  10  28
TORSDOF 7
ENDMDL
MODEL 4
REMARK VINA RESULT:    -6.835      2.301      8.692
REMARK INTER + INTRA:         -10.386
REMARK INTER:                  -9.771
REMARK INTRA:                  -0.616
REMARK UNBOUND:                -0.754
REMARK SMILES COc1ccc(-c2cc(=O)c3c(OC)c(OC)c(OC)c(OC)c3o2)cc1OC
REMARK SMILES IDX 7 1 8 2 9 3 10 4 11 5 24 6 25 7 21 8 18 9 15 10 12 11 6 12
REMARK SMILES IDX 3 13 27 14 4 15 26 16 5 17 2 18 1 19 28 20 29 21 22 22 23 23
REMARK SMILES IDX 13 24 14 25 19 26 20 27 16 28 17 29
REMARK H PARENT
REMARK Flexibility Score: inf
ROOT
ATOM      1  C   UNL     1       2.868  -1.376   2.187  1.00  0.00     0.138 A 
ATOM      2  C   UNL     1       3.927  -0.920   2.981  1.00  0.00     0.100 A 
ATOM      3  C   UNL     1       5.126  -0.557   2.374  1.00  0.00     0.197 A 
ATOM      4  O   UNL     1       6.073  -0.151   3.102  1.00  0.00    -0.289 OA
ATOM      5  C   UNL     1       5.260  -0.656   0.971  1.00  0.00     0.115 A 
ATOM      6  C   UNL     1       4.151  -1.137   0.231  1.00  0.00     0.188 A 
ATOM      7  O   UNL     1       3.032  -1.471   0.870  1.00  0.00    -0.452 OA
ATOM      8  C   UNL     1       4.225  -1.245  -1.182  1.00  0.00     0.209 A 
ATOM      9  C   UNL     1       5.431  -0.893  -1.840  1.00  0.00     0.211 A 
ATOM     10  C   UNL     1       6.531  -0.444  -1.097  1.00  0.00     0.208 A 
ATOM     11  C   UNL     1       6.437  -0.272   0.295  1.00  0.00     0.179 A 
ENDROOT
BRANCH   1  12
ATOM     12  C   UNL     1       1.566  -1.766   2.781  1.00  0.00     0.021 A 
ATOM     13  C   UNL     1      -0.910  -2.565   3.877  1.00  0.00     0.160 A 
ATOM     14  C   UNL     1       0.167  -3.462   3.853  1.00  0.00     0.161 A 
ATOM     15  C   UNL     1      -0.747  -1.272   3.348  1.00  0.00     0.051 A 
ATOM     16  C   UNL     1       1.400  -3.057   3.305  1.00  0.00     0.062 A 
ATOM     17  C   UNL     1       0.476  -0.879   2.802  1.00  0.00     0.016 A 
BRANCH  13  18
ATOM     18  O   UNL     1      -2.126  -2.996   4.432  1.00  0.00    -0.493 OA
ATOM     19  C   UNL     1      -2.459  -2.904   5.814  1.00  0.00     0.278 C 
ENDBRANCH  13  18
BRANCH  14  20
ATOM     20  O   UNL     1      -0.026  -4.750   4.381  1.00  0.00    -0.493 OA
ATOM     21  C   UNL     1       0.917  -5.812   4.279  1.00  0.00     0.278 C 
ENDBRANCH  14  20
ENDBRANCH   1  12
BRANCH   8  22
ATOM     22  O   UNL     1       3.142  -1.687  -1.965  1.00  0.00    -0.490 OA
ATOM     23  C   UNL     1       2.371  -0.920  -2.884  1.00  0.00     0.278 C 
ENDBRANCH   8  22
BRANCH  11  24
ATOM     24  O   UNL     1       7.500   0.295   1.007  1.00  0.00    -0.492 OA
ATOM     25  C   UNL     1       7.803   1.685   0.939  1.00  0.00     0.278 C 
ENDBRANCH  11  24
BRANCH   9  26
ATOM     26  O   UNL     1       5.619  -0.982  -3.234  1.00  0.00    -0.490 OA
ATOM     27  C   UNL     1       5.774  -2.168  -4.006  1.00  0.00     0.279 C 
ENDBRANCH   9  26
BRANCH  10  28
ATOM     28  O   UNL     1       7.721  -0.178  -1.783  1.00  0.00    -0.490 OA
ATOM     29  C   UNL     1       8.811  -1.095  -1.812  1.00  0.00     0.278 C 
ENDBRANCH  10  28
TORSDOF 7
ENDMDL
MODEL 5
REMARK VINA RESULT:    -6.778      1.727      7.969
REMARK INTER + INTRA:         -10.306
REMARK INTER:                  -9.448
REMARK INTRA:                  -0.858
REMARK UNBOUND:                -0.754
REMARK SMILES COc1ccc(-c2cc(=O)c3c(OC)c(OC)c(OC)c(OC)c3o2)cc1OC
REMARK SMILES IDX 7 1 8 2 9 3 10 4 11 5 24 6 25 7 21 8 18 9 15 10 12 11 6 12
REMARK SMILES IDX 3 13 27 14 4 15 26 16 5 17 2 18 1 19 28 20 29 21 22 22 23 23
REMARK SMILES IDX 13 24 14 25 19 26 20 27 16 28 17 29
REMARK H PARENT
REMARK Flexibility Score: inf
ROOT
ATOM      1  C   UNL     1       1.277  -1.450   3.091  1.00  0.00     0.138 A 
ATOM      2  C   UNL     1       0.879  -0.799   1.918  1.00  0.00     0.100 A 
ATOM      3  C   UNL     1       1.798  -0.636   0.884  1.00  0.00     0.197 A 
ATOM      4  O   UNL     1       1.427  -0.044  -0.166  1.00  0.00    -0.289 OA
ATOM      5  C   UNL     1       3.115  -1.124   1.034  1.00  0.00     0.115 A 
ATOM      6  C   UNL     1       3.452  -1.762   2.254  1.00  0.00     0.188 A 
ATOM      7  O   UNL     1       2.530  -1.886   3.205  1.00  0.00    -0.452 OA
ATOM      8  C   UNL     1       4.757  -2.283   2.454  1.00  0.00     0.209 A 
ATOM      9  C   UNL     1       5.727  -2.131   1.430  1.00  0.00     0.211 A 
ATOM     10  C   UNL     1       5.392  -1.475   0.238  1.00  0.00     0.208 A 
ATOM     11  C   UNL     1       4.081  -1.018   0.011  1.00  0.00     0.179 A 
ENDROOT
BRANCH   1  12
ATOM     12  C   UNL     1       0.336  -1.661   4.219  1.00  0.00     0.021 A 
ATOM     13  C   UNL     1      -1.438  -2.127   6.365  1.00  0.00     0.160 A 
ATOM     14  C   UNL     1      -0.133  -2.637   6.412  1.00  0.00     0.161 A 
ATOM     15  C   UNL     1      -1.854  -1.390   5.242  1.00  0.00     0.051 A 
ATOM     16  C   UNL     1       0.748  -2.401   5.338  1.00  0.00     0.062 A 
ATOM     17  C   UNL     1      -0.978  -1.163   4.179  1.00  0.00     0.016 A 
BRANCH  13  18
ATOM     18  O   UNL     1      -2.292  -2.376   7.451  1.00  0.00    -0.493 OA
ATOM     19  C   UNL     1      -2.626  -1.418   8.451  1.00  0.00     0.278 C 
ENDBRANCH  13  18
BRANCH  14  20
ATOM     20  O   UNL     1       0.254  -3.376   7.542  1.00  0.00    -0.493 OA
ATOM     21  C   UNL     1       1.052  -2.865   8.605  1.00  0.00     0.278 C 
ENDBRANCH  14  20
ENDBRANCH   1  12
BRANCH   8  22
ATOM     22  O   UNL     1       5.133  -2.953   3.634  1.00  0.00    -0.490 OA
ATOM     23  C   UNL     1       5.621  -2.372   4.838  1.00  0.00     0.278 C 
ENDBRANCH   8  22
BRANCH  11  24
ATOM     24  O   UNL     1       3.729  -0.478  -1.231  1.00  0.00    -0.492 OA
ATOM     25  C   UNL     1       3.552  -1.288  -2.389  1.00  0.00     0.278 C 
ENDBRANCH  11  24
BRANCH   9  26
ATOM     26  O   UNL     1       7.055  -2.591   1.531  1.00  0.00    -0.490 OA
ATOM     27  C   UNL     1       8.144  -1.935   2.171  1.00  0.00     0.279 C 
ENDBRANCH   9  26
BRANCH  10  28
ATOM     28  O   UNL     1       6.401  -1.285  -0.713  1.00  0.00    -0.490 OA
ATOM     29  C   UNL     1       7.071  -0.039  -0.882  1.00  0.00     0.278 C 
ENDBRANCH  10  28
TORSDOF 7
ENDMDL
MODEL 6
REMARK VINA RESULT:    -6.579      1.970      7.988
REMARK INTER + INTRA:         -10.025
REMARK INTER:                  -9.309
REMARK INTRA:                  -0.717
REMARK UNBOUND:                -0.754
REMARK SMILES COc1ccc(-c2cc(=O)c3c(OC)c(OC)c(OC)c(OC)c3o2)cc1OC
REMARK SMILES IDX 7 1 8 2 9 3 10 4 11 5 24 6 25 7 21 8 18 9 15 10 12 11 6 12
REMARK SMILES IDX 3 13 27 14 4 15 26 16 5 17 2 18 1 19 28 20 29 21 22 22 23 23
REMARK SMILES IDX 13 24 14 25 19 26 20 27 16 28 17 29
REMARK H PARENT
REMARK Flexibility Score: inf
ROOT
ATOM      1  C   UNL     1       1.409  -1.917   2.975  1.00  0.00     0.138 A 
ATOM      2  C   UNL     1       1.014  -0.969   2.025  1.00  0.00     0.100 A 
ATOM      3  C   UNL     1       1.799  -0.769   0.892  1.00  0.00     0.197 A 
ATOM      4  O   UNL     1       1.433   0.091   0.047  1.00  0.00    -0.289 OA
ATOM      5  C   UNL     1       2.983  -1.522   0.720  1.00  0.00     0.115 A 
ATOM      6  C   UNL     1       3.328  -2.456   1.728  1.00  0.00     0.188 A 
ATOM      7  O   UNL     1       2.536  -2.599   2.788  1.00  0.00    -0.452 OA
ATOM      8  C   UNL     1       4.499  -3.248   1.600  1.00  0.00     0.209 A 
ATOM      9  C   UNL     1       5.333  -3.071   0.467  1.00  0.00     0.211 A 
ATOM     10  C   UNL     1       4.997  -2.126  -0.511  1.00  0.00     0.208 A 
ATOM     11  C   UNL     1       3.803  -1.389  -0.420  1.00  0.00     0.179 A 
ENDROOT
BRANCH   1  12
ATOM     12  C   UNL     1       0.603  -2.177   4.193  1.00  0.00     0.021 A 
ATOM     13  C   UNL     1      -0.933  -2.605   6.523  1.00  0.00     0.160 A 
ATOM     14  C   UNL     1      -1.304  -1.605   5.614  1.00  0.00     0.161 A 
ATOM     15  C   UNL     1       0.210  -3.385   6.267  1.00  0.00     0.051 A 
ATOM     16  C   UNL     1      -0.534  -1.396   4.452  1.00  0.00     0.062 A 
ATOM     17  C   UNL     1       0.971  -3.170   5.117  1.00  0.00     0.016 A 
BRANCH  13  18
ATOM     18  O   UNL     1      -1.721  -2.791   7.670  1.00  0.00    -0.493 OA
ATOM     19  C   UNL     1      -1.398  -3.681   8.734  1.00  0.00     0.278 C 
ENDBRANCH  13  18
BRANCH  14  20
ATOM     20  O   UNL     1      -2.446  -0.836   5.897  1.00  0.00    -0.493 OA
ATOM     21  C   UNL     1      -2.444   0.346   6.693  1.00  0.00     0.278 C 
ENDBRANCH  14  20
ENDBRANCH   1  12
BRANCH   8  22
ATOM     22  O   UNL     1       4.870  -4.212   2.558  1.00  0.00    -0.490 OA
ATOM     23  C   UNL     1       4.505  -5.587   2.583  1.00  0.00     0.278 C 
ENDBRANCH   8  22
BRANCH  11  24
ATOM     24  O   UNL     1       3.418  -0.541  -1.465  1.00  0.00    -0.492 OA
ATOM     25  C   UNL     1       2.957  -1.039  -2.716  1.00  0.00     0.278 C 
ENDBRANCH  11  24
BRANCH   9  26
ATOM     26  O   UNL     1       6.527  -3.789   0.251  1.00  0.00    -0.490 OA
ATOM     27  C   UNL     1       7.801  -3.529   0.830  1.00  0.00     0.279 C 
ENDBRANCH   9  26
BRANCH  10  28
ATOM     28  O   UNL     1       5.888  -1.937  -1.574  1.00  0.00    -0.490 OA
ATOM     29  C   UNL     1       6.783  -0.830  -1.637  1.00  0.00     0.278 C 
ENDBRANCH  10  28
TORSDOF 7
ENDMDL
MODEL 7
REMARK VINA RESULT:    -6.526      0.861      1.910
REMARK INTER + INTRA:          -9.950
REMARK INTER:                  -9.139
REMARK INTRA:                  -0.812
REMARK UNBOUND:                -0.754
REMARK SMILES COc1ccc(-c2cc(=O)c3c(OC)c(OC)c(OC)c(OC)c3o2)cc1OC
REMARK SMILES IDX 7 1 8 2 9 3 10 4 11 5 24 6 25 7 21 8 18 9 15 10 12 11 6 12
REMARK SMILES IDX 3 13 27 14 4 15 26 16 5 17 2 18 1 19 28 20 29 21 22 22 23 23
REMARK SMILES IDX 13 24 14 25 19 26 20 27 16 28 17 29
REMARK H PARENT
REMARK Flexibility Score: inf
ROOT
ATOM      1  C   UNL     1       2.710  -1.268   2.238  1.00  0.00     0.138 A 
ATOM      2  C   UNL     1       1.387  -0.932   1.928  1.00  0.00     0.100 A 
ATOM      3  C   UNL     1       0.383  -1.185   2.859  1.00  0.00     0.197 A 
ATOM      4  O   UNL     1      -0.804  -0.881   2.566  1.00  0.00    -0.289 OA
ATOM      5  C   UNL     1       0.711  -1.779   4.099  1.00  0.00     0.115 A 
ATOM      6  C   UNL     1       2.069  -2.104   4.340  1.00  0.00     0.188 A 
ATOM      7  O   UNL     1       2.982  -1.839   3.409  1.00  0.00    -0.452 OA
ATOM      8  C   UNL     1       2.457  -2.691   5.573  1.00  0.00     0.209 A 
ATOM      9  C   UNL     1       1.466  -2.974   6.547  1.00  0.00     0.211 A 
ATOM     10  C   UNL     1       0.122  -2.673   6.288  1.00  0.00     0.208 A 
ATOM     11  C   UNL     1      -0.255  -2.030   5.096  1.00  0.00     0.179 A 
ENDROOT
BRANCH   1  12
ATOM     12  C   UNL     1       3.818  -1.010   1.287  1.00  0.00     0.021 A 
ATOM     13  C   UNL     1       5.939  -0.459  -0.493  1.00  0.00     0.160 A 
ATOM     14  C   UNL     1       6.101  -0.230   0.880  1.00  0.00     0.161 A 
ATOM     15  C   UNL     1       4.714  -0.958  -0.974  1.00  0.00     0.051 A 
ATOM     16  C   UNL     1       5.039  -0.507   1.763  1.00  0.00     0.062 A 
ATOM     17  C   UNL     1       3.665  -1.226  -0.094  1.00  0.00     0.016 A 
BRANCH  13  18
ATOM     18  O   UNL     1       7.015  -0.176  -1.349  1.00  0.00    -0.493 OA
ATOM     19  C   UNL     1       7.893  -1.157  -1.893  1.00  0.00     0.278 C 
ENDBRANCH  13  18
BRANCH  14  20
ATOM     20  O   UNL     1       7.332   0.275   1.331  1.00  0.00    -0.493 OA
ATOM     21  C   UNL     1       7.548   1.621   1.744  1.00  0.00     0.278 C 
ENDBRANCH  14  20
ENDBRANCH   1  12
BRANCH   8  22
ATOM     22  O   UNL     1       3.797  -3.004   5.874  1.00  0.00    -0.490 OA
ATOM     23  C   UNL     1       4.778  -2.142   6.440  1.00  0.00     0.278 C 
ENDBRANCH   8  22
BRANCH  11  24
ATOM     24  O   UNL     1      -1.581  -1.623   4.904  1.00  0.00    -0.492 OA
ATOM     25  C   UNL     1      -2.166  -0.565   5.657  1.00  0.00     0.278 C 
ENDBRANCH  11  24
BRANCH   9  26
ATOM     26  O   UNL     1       1.738  -3.572   7.794  1.00  0.00    -0.490 OA
ATOM     27  C   UNL     1       2.121  -2.914   8.996  1.00  0.00     0.279 C 
ENDBRANCH   9  26
BRANCH  10  28
ATOM     28  O   UNL     1      -0.828  -3.037   7.249  1.00  0.00    -0.490 OA
ATOM     29  C   UNL     1      -1.606  -4.226   7.147  1.00  0.00     0.278 C 
ENDBRANCH  10  28
TORSDOF 7
ENDMDL
MODEL 8
REMARK VINA RESULT:    -6.331      2.822      4.331
REMARK INTER + INTRA:          -9.675
REMARK INTER:                  -9.159
REMARK INTRA:                  -0.516
REMARK UNBOUND:                -0.754
REMARK SMILES COc1ccc(-c2cc(=O)c3c(OC)c(OC)c(OC)c(OC)c3o2)cc1OC
REMARK SMILES IDX 7 1 8 2 9 3 10 4 11 5 24 6 25 7 21 8 18 9 15 10 12 11 6 12
REMARK SMILES IDX 3 13 27 14 4 15 26 16 5 17 2 18 1 19 28 20 29 21 22 22 23 23
REMARK SMILES IDX 13 24 14 25 19 26 20 27 16 28 17 29
REMARK H PARENT
REMARK Flexibility Score: inf
ROOT
ATOM      1  C   UNL     1       4.164  -1.786  -1.439  1.00  0.00     0.138 A 
ATOM      2  C   UNL     1       3.197  -0.806  -1.186  1.00  0.00     0.100 A 
ATOM      3  C   UNL     1       2.486  -0.843   0.011  1.00  0.00     0.197 A 
ATOM      4  O   UNL     1       1.616   0.043   0.224  1.00  0.00    -0.289 OA
ATOM      5  C   UNL     1       2.747  -1.868   0.949  1.00  0.00     0.115 A 
ATOM      6  C   UNL     1       3.731  -2.833   0.621  1.00  0.00     0.188 A 
ATOM      7  O   UNL     1       4.374  -2.745  -0.541  1.00  0.00    -0.452 OA
ATOM      8  C   UNL     1       4.042  -3.877   1.531  1.00  0.00     0.209 A 
ATOM      9  C   UNL     1       3.336  -3.957   2.759  1.00  0.00     0.211 A 
ATOM     10  C   UNL     1       2.347  -3.013   3.062  1.00  0.00     0.208 A 
ATOM     11  C   UNL     1       2.084  -1.940   2.192  1.00  0.00     0.179 A 
ENDROOT
BRANCH   1  12
ATOM     12  C   UNL     1       4.957  -1.787  -2.693  1.00  0.00     0.021 A 
ATOM     13  C   UNL     1       6.410  -1.802  -5.113  1.00  0.00     0.160 A 
ATOM     14  C   UNL     1       5.190  -1.116  -5.034  1.00  0.00     0.161 A 
ATOM     15  C   UNL     1       6.897  -2.484  -3.983  1.00  0.00     0.051 A 
ATOM     16  C   UNL     1       4.470  -1.112  -3.823  1.00  0.00     0.062 A 
ATOM     17  C   UNL     1       6.176  -2.480  -2.788  1.00  0.00     0.016 A 
BRANCH  13  18
ATOM     18  O   UNL     1       7.107  -1.786  -6.332  1.00  0.00    -0.493 OA
ATOM     19  C   UNL     1       7.357  -2.937  -7.133  1.00  0.00     0.278 C 
ENDBRANCH  13  18
BRANCH  14  20
ATOM     20  O   UNL     1       4.724  -0.450  -6.179  1.00  0.00    -0.493 OA
ATOM     21  C   UNL     1       3.353  -0.173  -6.449  1.00  0.00     0.278 C 
ENDBRANCH  14  20
ENDBRANCH   1  12
BRANCH   8  22
ATOM     22  O   UNL     1       5.033  -4.842   1.267  1.00  0.00    -0.490 OA
ATOM     23  C   UNL     1       4.964  -5.917   0.336  1.00  0.00     0.278 C 
ENDBRANCH   8  22
BRANCH  11  24
ATOM     24  O   UNL     1       1.183  -0.936   2.564  1.00  0.00    -0.492 OA
ATOM     25  C   UNL     1      -0.207  -1.192   2.742  1.00  0.00     0.278 C 
ENDBRANCH  11  24
BRANCH   9  26
ATOM     26  O   UNL     1       3.551  -4.962   3.724  1.00  0.00    -0.490 OA
ATOM     27  C   UNL     1       4.615  -5.032   4.667  1.00  0.00     0.279 C 
ENDBRANCH   9  26
BRANCH  10  28
ATOM     28  O   UNL     1       1.627  -3.176   4.251  1.00  0.00    -0.490 OA
ATOM     29  C   UNL     1       1.992  -2.525   5.465  1.00  0.00     0.278 C 
ENDBRANCH  10  28
TORSDOF 7
ENDMDL
MODEL 9
REMARK VINA RESULT:    -6.328      2.878      4.719
REMARK INTER + INTRA:          -9.671
REMARK INTER:                  -8.975
REMARK INTRA:                  -0.696
REMARK UNBOUND:                -0.754
REMARK SMILES COc1ccc(-c2cc(=O)c3c(OC)c(OC)c(OC)c(OC)c3o2)cc1OC
REMARK SMILES IDX 7 1 8 2 9 3 10 4 11 5 24 6 25 7 21 8 18 9 15 10 12 11 6 12
REMARK SMILES IDX 3 13 27 14 4 15 26 16 5 17 2 18 1 19 28 20 29 21 22 22 23 23
REMARK SMILES IDX 13 24 14 25 19 26 20 27 16 28 17 29
REMARK H PARENT
REMARK Flexibility Score: inf
ROOT
ATOM      1  C   UNL     1       4.116  -1.793  -1.639  1.00  0.00     0.138 A 
ATOM      2  C   UNL     1       3.134  -0.840  -1.347  1.00  0.00     0.100 A 
ATOM      3  C   UNL     1       2.514  -0.859  -0.100  1.00  0.00     0.197 A 
ATOM      4  O   UNL     1       1.629   0.004   0.148  1.00  0.00    -0.289 OA
ATOM      5  C   UNL     1       2.880  -1.839   0.849  1.00  0.00     0.115 A 
ATOM      6  C   UNL     1       3.873  -2.781   0.481  1.00  0.00     0.188 A 
ATOM      7  O   UNL     1       4.427  -2.712  -0.728  1.00  0.00    -0.452 OA
ATOM      8  C   UNL     1       4.288  -3.781   1.399  1.00  0.00     0.209 A 
ATOM      9  C   UNL     1       3.677  -3.842   2.678  1.00  0.00     0.211 A 
ATOM     10  C   UNL     1       2.678  -2.922   3.022  1.00  0.00     0.208 A 
ATOM     11  C   UNL     1       2.313  -1.890   2.140  1.00  0.00     0.179 A 
ENDROOT
BRANCH   1  12
ATOM     12  C   UNL     1       4.815  -1.811  -2.947  1.00  0.00     0.021 A 
ATOM     13  C   UNL     1       6.205  -1.840  -5.404  1.00  0.00     0.160 A 
ATOM     14  C   UNL     1       6.635  -2.654  -4.347  1.00  0.00     0.161 A 
ATOM     15  C   UNL     1       5.084  -1.009  -5.227  1.00  0.00     0.051 A 
ATOM     16  C   UNL     1       5.937  -2.636  -3.124  1.00  0.00     0.062 A 
ATOM     17  C   UNL     1       4.400  -0.992  -4.011  1.00  0.00     0.016 A 
BRANCH  13  18
ATOM     18  O   UNL     1       6.919  -1.882  -6.612  1.00  0.00    -0.493 OA
ATOM     19  C   UNL     1       7.669  -0.794  -7.144  1.00  0.00     0.278 C 
ENDBRANCH  13  18
BRANCH  14  20
ATOM     20  O   UNL     1       7.761  -3.470  -4.549  1.00  0.00    -0.493 OA
ATOM     21  C   UNL     1       9.074  -3.160  -4.089  1.00  0.00     0.278 C 
ENDBRANCH  14  20
ENDBRANCH   1  12
BRANCH   8  22
ATOM     22  O   UNL     1       5.292  -4.719   1.094  1.00  0.00    -0.490 OA
ATOM     23  C   UNL     1       5.126  -5.990   0.475  1.00  0.00     0.278 C 
ENDBRANCH   8  22
BRANCH  11  24
ATOM     24  O   UNL     1       1.404  -0.906   2.544  1.00  0.00    -0.492 OA
ATOM     25  C   UNL     1       0.022  -1.185   2.742  1.00  0.00     0.278 C 
ENDBRANCH  11  24
BRANCH   9  26
ATOM     26  O   UNL     1       3.999  -4.803   3.657  1.00  0.00    -0.490 OA
ATOM     27  C   UNL     1       5.126  -4.799   4.526  1.00  0.00     0.279 C 
ENDBRANCH   9  26
BRANCH  10  28
ATOM     28  O   UNL     1       2.053  -3.068   4.266  1.00  0.00    -0.490 OA
ATOM     29  C   UNL     1       2.465  -2.342   5.421  1.00  0.00     0.278 C 
ENDBRANCH  10  28
TORSDOF 7
ENDMDL
