MODEL 1
REMARK VINA RESULT:    -2.779      0.000      0.000
REMARK INTER + INTRA:          -3.487
REMARK INTER:                  -3.267
REMARK INTRA:                  -0.220
REMARK UNBOUND:                -0.220
REMARK SMILES [NH3+][C@@H](CO)C(=O)[O-]
REMARK SMILES IDX 3 1 2 2 1 3 5 7 6 8 7 9 4 10
REMARK H PARENT 1 4 1 5 1 6 4 11
REMARK Flexibility Score: inf
ROOT
ATOM      1  C   UNL     1      20.068  10.492  32.648  1.00  0.00     0.227 C 
ENDROOT
BRANCH   1   2
ATOM      2  C   UNL     1      18.538  10.321  32.640  1.00  0.00     0.253 C 
BRANCH   2   3
ATOM      3  N   UNL     1      18.166   8.902  32.583  1.00  0.00    -0.348 N 
ATOM      4  H   UNL     1      17.318   8.732  33.170  1.00  0.00     0.345 HD
ATOM      5  H   UNL     1      17.935   8.636  31.597  1.00  0.00     0.345 HD
ATOM      6  H   UNL     1      18.948   8.298  32.928  1.00  0.00     0.345 HD
ENDBRANCH   2   3
BRANCH   2   7
ATOM      7  C   UNL     1      17.945  11.062  31.472  1.00  0.00     0.102 C 
ATOM      8  O   UNL     1      16.699  11.227  31.394  1.00  0.00    -0.544 OA
ATOM      9  O   UNL     1      18.768  11.584  30.481  1.00  0.00    -0.544 OA
ENDBRANCH   2   7
ENDBRANCH   1   2
BRANCH   1  10
ATOM     10  O   UNL     1      20.654   9.778  31.593  1.00  0.00    -0.390 OA
ATOM     11  H   UNL     1      20.143  10.009  30.774  1.00  0.00     0.210 HD
ENDBRANCH   1  10
TORSDOF 4
ENDMDL
MODEL 2
REMARK VINA RESULT:    -2.685     14.138     14.696
REMARK INTER + INTRA:          -3.377
REMARK INTER:                  -2.979
REMARK INTRA:                  -0.397
REMARK UNBOUND:                -0.220
REMARK SMILES [NH3+][C@@H](CO)C(=O)[O-]
REMARK SMILES IDX 3 1 2 2 1 3 5 7 6 8 7 9 4 10
REMARK H PARENT 1 4 1 5 1 6 4 11
REMARK Flexibility Score: inf
ROOT
ATOM      1  C   UNL     1       9.077   3.068  24.672  1.00  0.00     0.227 C 
ENDROOT
BRANCH   1   2
ATOM      2  C   UNL     1       8.123   2.578  25.777  1.00  0.00     0.253 C 
BRANCH   2   3
ATOM      3  N   UNL     1       8.264   3.389  26.994  1.00  0.00    -0.348 N 
ATOM      4  H   UNL     1       7.320   3.672  27.343  1.00  0.00     0.345 HD
ATOM      5  H   UNL     1       8.731   2.826  27.742  1.00  0.00     0.345 HD
ATOM      6  H   UNL     1       8.832   4.247  26.804  1.00  0.00     0.345 HD
ENDBRANCH   2   3
BRANCH   2   7
ATOM      7  C   UNL     1       8.394   1.130  26.083  1.00  0.00     0.102 C 
ATOM      8  O   UNL     1       7.876   0.226  25.376  1.00  0.00    -0.544 OA
ATOM      9  O   UNL     1       9.231   0.779  27.137  1.00  0.00    -0.544 OA
ENDBRANCH   2   7
ENDBRANCH   1   2
BRANCH   1  10
ATOM     10  O   UNL     1      10.030   2.087  24.365  1.00  0.00    -0.390 OA
ATOM     11  H   UNL     1      10.748   2.166  25.046  1.00  0.00     0.210 HD
ENDBRANCH   1  10
TORSDOF 4
ENDMDL
MODEL 3
REMARK VINA RESULT:    -2.655      2.057      2.964
REMARK INTER + INTRA:          -3.341
REMARK INTER:                  -2.940
REMARK INTRA:                  -0.401
REMARK UNBOUND:                -0.220
REMARK SMILES [NH3+][C@@H](CO)C(=O)[O-]
REMARK SMILES IDX 3 1 2 2 1 3 5 7 6 8 7 9 4 10
REMARK H PARENT 1 4 1 5 1 6 4 11
REMARK Flexibility Score: inf
ROOT
ATOM      1  C   UNL     1      17.640   9.820  32.606  1.00  0.00     0.227 C 
ENDROOT
BRANCH   1   2
ATOM      2  C   UNL     1      18.589  10.974  32.234  1.00  0.00     0.253 C 
BRANCH   2   3
ATOM      3  N   UNL     1      18.365  11.417  30.852  1.00  0.00    -0.348 N 
ATOM      4  H   UNL     1      18.477  12.455  30.789  1.00  0.00     0.345 HD
ATOM      5  H   UNL     1      19.073  10.976  30.220  1.00  0.00     0.345 HD
ATOM      6  H   UNL     1      17.405  11.155  30.529  1.00  0.00     0.345 HD
ENDBRANCH   2   3
BRANCH   2   7
ATOM      7  C   UNL     1      20.019  10.541  32.417  1.00  0.00     0.102 C 
ATOM      8  O   UNL     1      20.666  10.069  31.447  1.00  0.00    -0.544 OA
ATOM      9  O   UNL     1      20.639  10.675  33.655  1.00  0.00    -0.544 OA
ENDBRANCH   2   7
ENDBRANCH   1   2
BRANCH   1  10
ATOM     10  O   UNL     1      18.364   8.660  32.915  1.00  0.00    -0.390 OA
ATOM     11  H   UNL     1      18.700   8.773  33.843  1.00  0.00     0.210 HD
ENDBRANCH   1  10
TORSDOF 4
ENDMDL
MODEL 4
REMARK VINA RESULT:    -2.568      2.640      3.711
REMARK INTER + INTRA:          -3.239
REMARK INTER:                  -2.985
REMARK INTRA:                  -0.254
REMARK UNBOUND:                -0.220
REMARK SMILES [NH3+][C@@H](CO)C(=O)[O-]
REMARK SMILES IDX 3 1 2 2 1 3 5 7 6 8 7 9 4 10
REMARK H PARENT 1 4 1 5 1 6 4 11
REMARK Flexibility Score: inf
ROOT
ATOM      1  C   UNL     1      18.396  10.279  32.320  1.00  0.00     0.227 C 
ENDROOT
BRANCH   1   2
ATOM      2  C   UNL     1      19.529  10.439  33.351  1.00  0.00     0.253 C 
BRANCH   2   3
ATOM      3  N   UNL     1      20.844  10.425  32.696  1.00  0.00    -0.348 N 
ATOM      4  H   UNL     1      21.393   9.595  33.018  1.00  0.00     0.345 HD
ATOM      5  H   UNL     1      20.722  10.349  31.659  1.00  0.00     0.345 HD
ATOM      6  H   UNL     1      21.378  11.297  32.916  1.00  0.00     0.345 HD
ENDBRANCH   2   3
BRANCH   2   7
ATOM      7  C   UNL     1      19.447   9.343  34.378  1.00  0.00     0.102 C 
ATOM      8  O   UNL     1      19.405   8.138  34.016  1.00  0.00    -0.544 OA
ATOM      9  O   UNL     1      19.433   9.651  35.734  1.00  0.00    -0.544 OA
ENDBRANCH   2   7
ENDBRANCH   1   2
BRANCH   1  10
ATOM     10  O   UNL     1      17.259   9.713  32.915  1.00  0.00    -0.390 OA
ATOM     11  H   UNL     1      16.563   9.665  32.209  1.00  0.00     0.210 HD
ENDBRANCH   1  10
TORSDOF 4
ENDMDL
MODEL 5
REMARK VINA RESULT:    -2.547      3.956      4.693
REMARK INTER + INTRA:          -3.214
REMARK INTER:                  -2.811
REMARK INTRA:                  -0.404
REMARK UNBOUND:                -0.220
REMARK SMILES [NH3+][C@@H](CO)C(=O)[O-]
REMARK SMILES IDX 3 1 2 2 1 3 5 7 6 8 7 9 4 10
REMARK H PARENT 1 4 1 5 1 6 4 11
REMARK Flexibility Score: inf
ROOT
ATOM      1  C   UNL     1      20.091  10.220  36.844  1.00  0.00     0.227 C 
ENDROOT
BRANCH   1   2
ATOM      2  C   UNL     1      20.679   9.862  35.467  1.00  0.00     0.253 C 
BRANCH   2   3
ATOM      3  N   UNL     1      20.798  11.054  34.618  1.00  0.00    -0.348 N 
ATOM      4  H   UNL     1      21.793  11.373  34.589  1.00  0.00     0.345 HD
ATOM      5  H   UNL     1      20.504  10.823  33.640  1.00  0.00     0.345 HD
ATOM      6  H   UNL     1      20.199  11.831  34.983  1.00  0.00     0.345 HD
ENDBRANCH   2   3
BRANCH   2   7
ATOM      7  C   UNL     1      19.816   8.828  34.795  1.00  0.00     0.102 C 
ATOM      8  O   UNL     1      18.931   9.180  33.973  1.00  0.00    -0.544 OA
ATOM      9  O   UNL     1      20.002   7.476  35.065  1.00  0.00    -0.544 OA
ENDBRANCH   2   7
ENDBRANCH   1   2
BRANCH   1  10
ATOM     10  O   UNL     1      18.906   9.509  37.080  1.00  0.00    -0.390 OA
ATOM     11  H   UNL     1      19.166   8.667  37.537  1.00  0.00     0.210 HD
ENDBRANCH   1  10
TORSDOF 4
ENDMDL
MODEL 6
REMARK VINA RESULT:    -2.521      3.803      4.423
REMARK INTER + INTRA:          -3.184
REMARK INTER:                  -2.780
REMARK INTRA:                  -0.404
REMARK UNBOUND:                -0.220
REMARK SMILES [NH3+][C@@H](CO)C(=O)[O-]
REMARK SMILES IDX 3 1 2 2 1 3 5 7 6 8 7 9 4 10
REMARK H PARENT 1 4 1 5 1 6 4 11
REMARK Flexibility Score: inf
ROOT
ATOM      1  C   UNL     1      20.239   7.537  36.391  1.00  0.00     0.227 C 
ENDROOT
BRANCH   1   2
ATOM      2  C   UNL     1      20.176   9.064  36.207  1.00  0.00     0.253 C 
BRANCH   2   3
ATOM      3  N   UNL     1      19.074   9.644  36.986  1.00  0.00    -0.348 N 
ATOM      4  H   UNL     1      18.277   8.968  37.033  1.00  0.00     0.345 HD
ATOM      5  H   UNL     1      19.394   9.835  37.964  1.00  0.00     0.345 HD
ATOM      6  H   UNL     1      18.742  10.537  36.553  1.00  0.00     0.345 HD
ENDBRANCH   2   3
BRANCH   2   7
ATOM      7  C   UNL     1      20.015   9.399  34.749  1.00  0.00     0.102 C 
ATOM      8  O   UNL     1      18.866   9.556  34.258  1.00  0.00    -0.544 OA
ATOM      9  O   UNL     1      21.133   9.551  33.936  1.00  0.00    -0.544 OA
ENDBRANCH   2   7
ENDBRANCH   1   2
BRANCH   1  10
ATOM     10  O   UNL     1      20.180   6.883  35.152  1.00  0.00    -0.390 OA
ATOM     11  H   UNL     1      19.225   6.877  34.880  1.00  0.00     0.210 HD
ENDBRANCH   1  10
TORSDOF 4
ENDMDL
MODEL 7
REMARK VINA RESULT:    -2.479      4.058      4.545
REMARK INTER + INTRA:          -3.134
REMARK INTER:                  -2.744
REMARK INTRA:                  -0.391
REMARK UNBOUND:                -0.220
REMARK SMILES [NH3+][C@@H](CO)C(=O)[O-]
REMARK SMILES IDX 3 1 2 2 1 3 5 7 6 8 7 9 4 10
REMARK H PARENT 1 4 1 5 1 6 4 11
REMARK Flexibility Score: inf
ROOT
ATOM      1  C   UNL     1      19.878   8.278  36.890  1.00  0.00     0.227 C 
ENDROOT
BRANCH   1   2
ATOM      2  C   UNL     1      20.178   8.203  35.382  1.00  0.00     0.253 C 
BRANCH   2   3
ATOM      3  N   UNL     1      21.596   7.907  35.140  1.00  0.00    -0.348 N 
ATOM      4  H   UNL     1      22.121   7.915  36.044  1.00  0.00     0.345 HD
ATOM      5  H   UNL     1      21.692   6.953  34.720  1.00  0.00     0.345 HD
ATOM      6  H   UNL     1      22.017   8.612  34.492  1.00  0.00     0.345 HD
ENDBRANCH   2   3
BRANCH   2   7
ATOM      7  C   UNL     1      19.796   9.498  34.718  1.00  0.00     0.102 C 
ATOM      8  O   UNL     1      18.748   9.568  34.023  1.00  0.00    -0.544 OA
ATOM      9  O   UNL     1      20.588  10.630  34.878  1.00  0.00    -0.544 OA
ENDBRANCH   2   7
ENDBRANCH   1   2
BRANCH   1  10
ATOM     10  O   UNL     1      19.088   9.398  37.185  1.00  0.00    -0.390 OA
ATOM     11  H   UNL     1      19.695  10.185  37.175  1.00  0.00     0.210 HD
ENDBRANCH   1  10
TORSDOF 4
ENDMDL
MODEL 8
REMARK VINA RESULT:    -2.470      5.253      5.904
REMARK INTER + INTRA:          -3.124
REMARK INTER:                  -2.764
REMARK INTRA:                  -0.360
REMARK UNBOUND:                -0.220
REMARK SMILES [NH3+][C@@H](CO)C(=O)[O-]
REMARK SMILES IDX 3 1 2 2 1 3 5 7 6 8 7 9 4 10
REMARK H PARENT 1 4 1 5 1 6 4 11
REMARK Flexibility Score: inf
ROOT
ATOM      1  C   UNL     1      19.569   9.524  36.756  1.00  0.00     0.227 C 
ENDROOT
BRANCH   1   2
ATOM      2  C   UNL     1      20.349   8.812  35.635  1.00  0.00     0.253 C 
BRANCH   2   3
ATOM      3  N   UNL     1      19.564   8.765  34.394  1.00  0.00    -0.348 N 
ATOM      4  H   UNL     1      19.140   7.816  34.276  1.00  0.00     0.345 HD
ATOM      5  H   UNL     1      18.786   9.463  34.441  1.00  0.00     0.345 HD
ATOM      6  H   UNL     1      20.167   8.977  33.566  1.00  0.00     0.345 HD
ENDBRANCH   2   3
BRANCH   2   7
ATOM      7  C   UNL     1      20.716   7.419  36.071  1.00  0.00     0.102 C 
ATOM      8  O   UNL     1      20.170   6.422  35.531  1.00  0.00    -0.544 OA
ATOM      9  O   UNL     1      21.672   7.223  37.062  1.00  0.00    -0.544 OA
ENDBRANCH   2   7
ENDBRANCH   1   2
BRANCH   1  10
ATOM     10  O   UNL     1      19.098   8.599  37.699  1.00  0.00    -0.390 OA
ATOM     11  H   UNL     1      19.819   8.487  38.372  1.00  0.00     0.210 HD
ENDBRANCH   1  10
TORSDOF 4
ENDMDL
MODEL 9
REMARK VINA RESULT:    -2.422      4.397      5.120
REMARK INTER + INTRA:          -3.068
REMARK INTER:                  -2.673
REMARK INTRA:                  -0.395
REMARK UNBOUND:                -0.220
REMARK SMILES [NH3+][C@@H](CO)C(=O)[O-]
REMARK SMILES IDX 3 1 2 2 1 3 5 7 6 8 7 9 4 10
REMARK H PARENT 1 4 1 5 1 6 4 11
REMARK Flexibility Score: inf
ROOT
ATOM      1  C   UNL     1      21.312   9.630  37.246  1.00  0.00     0.227 C 
ENDROOT
BRANCH   1   2
ATOM      2  C   UNL     1      19.844   9.370  36.861  1.00  0.00     0.253 C 
BRANCH   2   3
ATOM      3  N   UNL     1      19.185   8.504  37.847  1.00  0.00    -0.348 N 
ATOM      4  H   UNL     1      18.673   7.734  37.360  1.00  0.00     0.345 HD
ATOM      5  H   UNL     1      19.903   8.070  38.473  1.00  0.00     0.345 HD
ATOM      6  H   UNL     1      18.509   9.052  38.429  1.00  0.00     0.345 HD
ENDBRANCH   2   3
BRANCH   2   7
ATOM      7  C   UNL     1      19.776   8.746  35.493  1.00  0.00     0.102 C 
ATOM      8  O   UNL     1      19.441   9.439  34.497  1.00  0.00    -0.544 OA
ATOM      9  O   UNL     1      20.096   7.404  35.317  1.00  0.00    -0.544 OA
ENDBRANCH   2   7
ENDBRANCH   1   2
BRANCH   1  10
ATOM     10  O   UNL     1      22.149   9.509  36.127  1.00  0.00    -0.390 OA
ATOM     11  H   UNL     1      22.513   8.585  36.144  1.00  0.00     0.210 HD
ENDBRANCH   1  10
TORSDOF 4
ENDMDL
