MODEL 1
REMARK VINA RESULT:    -4.917      0.000      0.000
REMARK INTER + INTRA:          -6.154
REMARK INTER:                  -5.923
REMARK INTRA:                  -0.231
REMARK UNBOUND:                -0.231
REMARK SMILES NC(=O)C[C@@H]([NH3+])C(=O)[O-]
REMARK SMILES IDX 4 1 5 2 6 3 7 7 8 8 9 9 2 10 3 11 1 12
REMARK H PARENT 6 4 6 5 6 6 1 13 1 14
REMARK Flexibility Score: inf
ROOT
ATOM      1  C   UNL     1     -17.065  13.677 -12.901  1.00  0.00     0.171 C 
ENDROOT
BRANCH   1   2
ATOM      2  C   UNL     1     -18.220  12.895 -12.241  1.00  0.00     0.237 C 
BRANCH   2   3
ATOM      3  N   UNL     1     -18.506  13.380 -10.883  1.00  0.00    -0.350 N 
ATOM      4  H   UNL     1     -17.674  13.891 -10.508  1.00  0.00     0.345 HD
ATOM      5  H   UNL     1     -19.332  14.019 -10.875  1.00  0.00     0.345 HD
ATOM      6  H   UNL     1     -18.700  12.567 -10.254  1.00  0.00     0.345 HD
ENDBRANCH   2   3
BRANCH   2   7
ATOM      7  C   UNL     1     -19.459  12.908 -13.100  1.00  0.00     0.100 C 
ATOM      8  O   UNL     1     -20.451  12.187 -12.811  1.00  0.00    -0.544 OA
ATOM      9  O   UNL     1     -19.531  13.762 -14.193  1.00  0.00    -0.544 OA
ENDBRANCH   2   7
ENDBRANCH   1   2
BRANCH   1  10
ATOM     10  C   UNL     1     -16.257  12.847 -13.860  1.00  0.00     0.223 C 
ATOM     11  O   UNL     1     -15.255  12.207 -13.445  1.00  0.00    -0.275 OA
ATOM     12  N   UNL     1     -16.629  12.763 -15.236  1.00  0.00    -0.369 N 
ATOM     13  H   UNL     1     -16.071  12.177 -15.897  1.00  0.00     0.159 HD
ATOM     14  H   UNL     1     -17.460  13.280 -15.597  1.00  0.00     0.159 HD
ENDBRANCH   1  10
TORSDOF 4
ENDMDL
MODEL 2
REMARK VINA RESULT:    -4.794      2.272      3.970
REMARK INTER + INTRA:          -6.006
REMARK INTER:                  -5.867
REMARK INTRA:                  -0.140
REMARK UNBOUND:                -0.231
REMARK SMILES NC(=O)C[C@@H]([NH3+])C(=O)[O-]
REMARK SMILES IDX 4 1 5 2 6 3 7 7 8 8 9 9 2 10 3 11 1 12
REMARK H PARENT 6 4 6 5 6 6 1 13 1 14
REMARK Flexibility Score: inf
ROOT
ATOM      1  C   UNL     1     -19.633  13.590 -14.242  1.00  0.00     0.171 C 
ENDROOT
BRANCH   1   2
ATOM      2  C   UNL     1     -18.586  12.654 -13.602  1.00  0.00     0.237 C 
BRANCH   2   3
ATOM      3  N   UNL     1     -17.658  12.106 -14.601  1.00  0.00    -0.350 N 
ATOM      4  H   UNL     1     -16.885  12.789 -14.778  1.00  0.00     0.345 HD
ATOM      5  H   UNL     1     -17.247  11.201 -14.280  1.00  0.00     0.345 HD
ATOM      6  H   UNL     1     -18.165  11.947 -15.501  1.00  0.00     0.345 HD
ENDBRANCH   2   3
BRANCH   2   7
ATOM      7  C   UNL     1     -17.846  13.337 -12.480  1.00  0.00     0.100 C 
ATOM      8  O   UNL     1     -18.402  13.535 -11.367  1.00  0.00    -0.544 OA
ATOM      9  O   UNL     1     -16.519  13.706 -12.654  1.00  0.00    -0.544 OA
ENDBRANCH   2   7
ENDBRANCH   1   2
BRANCH   1  10
ATOM     10  C   UNL     1     -21.045  13.274 -13.828  1.00  0.00     0.223 C 
ATOM     11  O   UNL     1     -21.277  12.260 -13.117  1.00  0.00    -0.275 OA
ATOM     12  N   UNL     1     -22.122  14.125 -14.218  1.00  0.00    -0.369 N 
ATOM     13  H   UNL     1     -23.099  13.908 -13.921  1.00  0.00     0.159 HD
ATOM     14  H   UNL     1     -21.948  14.973 -14.801  1.00  0.00     0.159 HD
ENDBRANCH   1  10
TORSDOF 4
ENDMDL
MODEL 3
REMARK VINA RESULT:    -4.603     18.873     19.790
REMARK INTER + INTRA:          -5.776
REMARK INTER:                  -5.517
REMARK INTRA:                  -0.259
REMARK UNBOUND:                -0.231
REMARK SMILES NC(=O)C[C@@H]([NH3+])C(=O)[O-]
REMARK SMILES IDX 4 1 5 2 6 3 7 7 8 8 9 9 2 10 3 11 1 12
REMARK H PARENT 6 4 6 5 6 6 1 13 1 14
REMARK Flexibility Score: inf
ROOT
ATOM      1  C   UNL     1     -13.334  -3.819 -21.498  1.00  0.00     0.171 C 
ENDROOT
BRANCH   1   2
ATOM      2  C   UNL     1     -12.718  -3.733 -22.910  1.00  0.00     0.237 C 
BRANCH   2   3
ATOM      3  N   UNL     1     -11.873  -4.896 -23.212  1.00  0.00    -0.350 N 
ATOM      4  H   UNL     1     -11.320  -4.716 -24.082  1.00  0.00     0.345 HD
ATOM      5  H   UNL     1     -11.216  -5.101 -22.425  1.00  0.00     0.345 HD
ATOM      6  H   UNL     1     -12.476  -5.735 -23.376  1.00  0.00     0.345 HD
ENDBRANCH   2   3
BRANCH   2   7
ATOM      7  C   UNL     1     -13.778  -3.536 -23.965  1.00  0.00     0.100 C 
ATOM      8  O   UNL     1     -14.970  -3.887 -23.753  1.00  0.00    -0.544 OA
ATOM      9  O   UNL     1     -13.453  -2.913 -25.162  1.00  0.00    -0.544 OA
ENDBRANCH   2   7
ENDBRANCH   1   2
BRANCH   1  10
ATOM     10  C   UNL     1     -12.368  -3.449 -20.405  1.00  0.00     0.223 C 
ATOM     11  O   UNL     1     -11.148  -3.738 -20.524  1.00  0.00    -0.275 OA
ATOM     12  N   UNL     1     -12.820  -2.754 -19.243  1.00  0.00    -0.369 N 
ATOM     13  H   UNL     1     -12.145  -2.490 -18.491  1.00  0.00     0.159 HD
ATOM     14  H   UNL     1     -13.826  -2.499 -19.131  1.00  0.00     0.159 HD
ENDBRANCH   1  10
TORSDOF 4
ENDMDL
MODEL 4
REMARK VINA RESULT:    -4.577     19.393     20.392
REMARK INTER + INTRA:          -5.744
REMARK INTER:                  -5.625
REMARK INTRA:                  -0.119
REMARK UNBOUND:                -0.231
REMARK SMILES NC(=O)C[C@@H]([NH3+])C(=O)[O-]
REMARK SMILES IDX 4 1 5 2 6 3 7 7 8 8 9 9 2 10 3 11 1 12
REMARK H PARENT 6 4 6 5 6 6 1 13 1 14
REMARK Flexibility Score: inf
ROOT
ATOM      1  C   UNL     1     -14.562  -4.989 -21.801  1.00  0.00     0.171 C 
ENDROOT
BRANCH   1   2
ATOM      2  C   UNL     1     -13.602  -3.781 -21.745  1.00  0.00     0.237 C 
BRANCH   2   3
ATOM      3  N   UNL     1     -13.549  -3.186 -20.403  1.00  0.00    -0.350 N 
ATOM      4  H   UNL     1     -12.785  -3.636 -19.846  1.00  0.00     0.345 HD
ATOM      5  H   UNL     1     -13.375  -2.157 -20.452  1.00  0.00     0.345 HD
ATOM      6  H   UNL     1     -14.455  -3.353 -19.908  1.00  0.00     0.345 HD
ENDBRANCH   2   3
BRANCH   2   7
ATOM      7  C   UNL     1     -12.225  -4.146 -22.240  1.00  0.00     0.100 C 
ATOM      8  O   UNL     1     -11.246  -4.187 -21.448  1.00  0.00    -0.544 OA
ATOM      9  O   UNL     1     -12.041  -4.494 -23.571  1.00  0.00    -0.544 OA
ENDBRANCH   2   7
ENDBRANCH   1   2
BRANCH   1  10
ATOM     10  C   UNL     1     -15.422  -5.007 -23.036  1.00  0.00     0.223 C 
ATOM     11  O   UNL     1     -15.385  -4.038 -23.840  1.00  0.00    -0.275 OA
ATOM     12  N   UNL     1     -16.266  -6.125 -23.315  1.00  0.00    -0.369 N 
ATOM     13  H   UNL     1     -16.853  -6.139 -24.178  1.00  0.00     0.159 HD
ATOM     14  H   UNL     1     -16.304  -6.940 -22.664  1.00  0.00     0.159 HD
ENDBRANCH   1  10
TORSDOF 4
ENDMDL
MODEL 5
REMARK VINA RESULT:    -4.540      1.928      3.840
REMARK INTER + INTRA:          -5.700
REMARK INTER:                  -5.589
REMARK INTRA:                  -0.111
REMARK UNBOUND:                -0.231
REMARK SMILES NC(=O)C[C@@H]([NH3+])C(=O)[O-]
REMARK SMILES IDX 4 1 5 2 6 3 7 7 8 8 9 9 2 10 3 11 1 12
REMARK H PARENT 6 4 6 5 6 6 1 13 1 14
REMARK Flexibility Score: inf
ROOT
ATOM      1  C   UNL     1     -19.604  12.338 -12.877  1.00  0.00     0.171 C 
ENDROOT
BRANCH   1   2
ATOM      2  C   UNL     1     -18.565  13.456 -12.649  1.00  0.00     0.237 C 
BRANCH   2   3
ATOM      3  N   UNL     1     -18.381  13.750 -11.221  1.00  0.00    -0.350 N 
ATOM      4  H   UNL     1     -17.537  13.246 -10.861  1.00  0.00     0.345 HD
ATOM      5  H   UNL     1     -18.261  14.776 -11.057  1.00  0.00     0.345 HD
ATOM      6  H   UNL     1     -19.214  13.417 -10.683  1.00  0.00     0.345 HD
ENDBRANCH   2   3
BRANCH   2   7
ATOM      7  C   UNL     1     -17.252  13.136 -13.318  1.00  0.00     0.100 C 
ATOM      8  O   UNL     1     -16.159  13.430 -12.764  1.00  0.00    -0.544 OA
ATOM      9  O   UNL     1     -17.243  12.462 -14.531  1.00  0.00    -0.544 OA
ENDBRANCH   2   7
ENDBRANCH   1   2
BRANCH   1  10
ATOM     10  C   UNL     1     -20.896  12.838 -13.462  1.00  0.00     0.223 C 
ATOM     11  O   UNL     1     -20.888  13.817 -14.255  1.00  0.00    -0.275 OA
ATOM     12  N   UNL     1     -22.132  12.198 -13.142  1.00  0.00    -0.369 N 
ATOM     13  H   UNL     1     -23.026  12.542 -13.559  1.00  0.00     0.159 HD
ATOM     14  H   UNL     1     -22.157  11.381 -12.494  1.00  0.00     0.159 HD
ENDBRANCH   1  10
TORSDOF 4
ENDMDL
MODEL 6
REMARK VINA RESULT:    -4.479     19.655     20.473
REMARK INTER + INTRA:          -5.626
REMARK INTER:                  -5.494
REMARK INTRA:                  -0.133
REMARK UNBOUND:                -0.231
REMARK SMILES NC(=O)C[C@@H]([NH3+])C(=O)[O-]
REMARK SMILES IDX 4 1 5 2 6 3 7 7 8 8 9 9 2 10 3 11 1 12
REMARK H PARENT 6 4 6 5 6 6 1 13 1 14
REMARK Flexibility Score: inf
ROOT
ATOM      1  C   UNL     1     -14.168  -3.926 -23.251  1.00  0.00     0.171 C 
ENDROOT
BRANCH   1   2
ATOM      2  C   UNL     1     -12.864  -4.563 -22.725  1.00  0.00     0.237 C 
BRANCH   2   3
ATOM      3  N   UNL     1     -11.791  -4.523 -23.729  1.00  0.00    -0.350 N 
ATOM      4  H   UNL     1     -10.859  -4.559 -23.253  1.00  0.00     0.345 HD
ATOM      5  H   UNL     1     -11.865  -5.323 -24.396  1.00  0.00     0.345 HD
ATOM      6  H   UNL     1     -11.847  -3.627 -24.267  1.00  0.00     0.345 HD
ENDBRANCH   2   3
BRANCH   2   7
ATOM      7  C   UNL     1     -12.426  -3.935 -21.426  1.00  0.00     0.100 C 
ATOM      8  O   UNL     1     -13.271  -3.455 -20.625  1.00  0.00    -0.544 OA
ATOM      9  O   UNL     1     -11.081  -3.933 -21.081  1.00  0.00    -0.544 OA
ENDBRANCH   2   7
ENDBRANCH   1   2
BRANCH   1  10
ATOM     10  C   UNL     1     -15.359  -4.838 -23.147  1.00  0.00     0.223 C 
ATOM     11  O   UNL     1     -15.361  -5.772 -22.301  1.00  0.00    -0.275 OA
ATOM     12  N   UNL     1     -16.497  -4.643 -23.987  1.00  0.00    -0.369 N 
ATOM     13  H   UNL     1     -17.326  -5.272 -23.905  1.00  0.00     0.159 HD
ATOM     14  H   UNL     1     -16.516  -3.870 -24.688  1.00  0.00     0.159 HD
ENDBRANCH   1  10
TORSDOF 4
ENDMDL
MODEL 7
REMARK VINA RESULT:    -4.407      1.917      2.187
REMARK INTER + INTRA:          -5.540
REMARK INTER:                  -5.433
REMARK INTRA:                  -0.107
REMARK UNBOUND:                -0.231
REMARK SMILES NC(=O)C[C@@H]([NH3+])C(=O)[O-]
REMARK SMILES IDX 4 1 5 2 6 3 7 7 8 8 9 9 2 10 3 11 1 12
REMARK H PARENT 6 4 6 5 6 6 1 13 1 14
REMARK Flexibility Score: inf
ROOT
ATOM      1  C   UNL     1     -17.940  12.281 -14.367  1.00  0.00     0.171 C 
ENDROOT
BRANCH   1   2
ATOM      2  C   UNL     1     -18.762  13.369 -13.643  1.00  0.00     0.237 C 
BRANCH   2   3
ATOM      3  N   UNL     1     -19.959  13.748 -14.405  1.00  0.00    -0.350 N 
ATOM      4  H   UNL     1     -19.677  14.181 -15.316  1.00  0.00     0.345 HD
ATOM      5  H   UNL     1     -20.567  12.919 -14.594  1.00  0.00     0.345 HD
ATOM      6  H   UNL     1     -20.509  14.455 -13.865  1.00  0.00     0.345 HD
ENDBRANCH   2   3
BRANCH   2   7
ATOM      7  C   UNL     1     -19.114  12.951 -12.237  1.00  0.00     0.100 C 
ATOM      8  O   UNL     1     -18.575  13.509 -11.245  1.00  0.00    -0.544 OA
ATOM      9  O   UNL     1     -20.083  11.979 -12.030  1.00  0.00    -0.544 OA
ENDBRANCH   2   7
ENDBRANCH   1   2
BRANCH   1  10
ATOM     10  C   UNL     1     -16.465  12.579 -14.406  1.00  0.00     0.223 C 
ATOM     11  O   UNL     1     -15.978  13.433 -13.619  1.00  0.00    -0.275 OA
ATOM     12  N   UNL     1     -15.610  11.885 -15.315  1.00  0.00    -0.369 N 
ATOM     13  H   UNL     1     -14.586  12.087 -15.332  1.00  0.00     0.159 HD
ATOM     14  H   UNL     1     -15.996  11.169 -15.969  1.00  0.00     0.159 HD
ENDBRANCH   1  10
TORSDOF 4
ENDMDL
MODEL 8
REMARK VINA RESULT:    -4.338     18.951     19.718
REMARK INTER + INTRA:          -5.457
REMARK INTER:                  -5.206
REMARK INTRA:                  -0.250
REMARK UNBOUND:                -0.231
REMARK SMILES NC(=O)C[C@@H]([NH3+])C(=O)[O-]
REMARK SMILES IDX 4 1 5 2 6 3 7 7 8 8 9 9 2 10 3 11 1 12
REMARK H PARENT 6 4 6 5 6 6 1 13 1 14
REMARK Flexibility Score: inf
ROOT
ATOM      1  C   UNL     1     -12.925  -3.708 -23.045  1.00  0.00     0.171 C 
ENDROOT
BRANCH   1   2
ATOM      2  C   UNL     1     -13.559  -3.709 -21.638  1.00  0.00     0.237 C 
BRANCH   2   3
ATOM      3  N   UNL     1     -14.391  -4.900 -21.413  1.00  0.00    -0.350 N 
ATOM      4  H   UNL     1     -15.391  -4.679 -21.627  1.00  0.00     0.345 HD
ATOM      5  H   UNL     1     -14.081  -5.697 -22.013  1.00  0.00     0.345 HD
ATOM      6  H   UNL     1     -14.328  -5.187 -20.409  1.00  0.00     0.345 HD
ENDBRANCH   2   3
BRANCH   2   7
ATOM      7  C   UNL     1     -12.515  -3.556 -20.561  1.00  0.00     0.100 C 
ATOM      8  O   UNL     1     -12.829  -3.143 -19.413  1.00  0.00    -0.544 OA
ATOM      9  O   UNL     1     -11.202  -3.926 -20.817  1.00  0.00    -0.544 OA
ENDBRANCH   2   7
ENDBRANCH   1   2
BRANCH   1  10
ATOM     10  C   UNL     1     -13.910  -3.400 -24.140  1.00  0.00     0.223 C 
ATOM     11  O   UNL     1     -15.096  -3.815 -24.051  1.00  0.00    -0.275 OA
ATOM     12  N   UNL     1     -13.516  -2.623 -25.271  1.00  0.00    -0.369 N 
ATOM     13  H   UNL     1     -14.205  -2.402 -26.024  1.00  0.00     0.159 HD
ATOM     14  H   UNL     1     -12.540  -2.264 -25.358  1.00  0.00     0.159 HD
ENDBRANCH   1  10
TORSDOF 4
ENDMDL
MODEL 9
REMARK VINA RESULT:    -4.217      1.770      3.915
REMARK INTER + INTRA:          -5.310
REMARK INTER:                  -5.237
REMARK INTRA:                  -0.073
REMARK UNBOUND:                -0.231
REMARK SMILES NC(=O)C[C@@H]([NH3+])C(=O)[O-]
REMARK SMILES IDX 4 1 5 2 6 3 7 7 8 8 9 9 2 10 3 11 1 12
REMARK H PARENT 6 4 6 5 6 6 1 13 1 14
REMARK Flexibility Score: inf
ROOT
ATOM      1  C   UNL     1     -17.910  12.300 -13.350  1.00  0.00     0.171 C 
ENDROOT
BRANCH   1   2
ATOM      2  C   UNL     1     -16.864  12.875 -14.328  1.00  0.00     0.237 C 
BRANCH   2   3
ATOM      3  N   UNL     1     -15.702  13.434 -13.622  1.00  0.00    -0.350 N 
ATOM      4  H   UNL     1     -15.095  12.658 -13.270  1.00  0.00     0.345 HD
ATOM      5  H   UNL     1     -15.139  14.051 -14.249  1.00  0.00     0.345 HD
ATOM      6  H   UNL     1     -16.027  13.993 -12.800  1.00  0.00     0.345 HD
ENDBRANCH   2   3
BRANCH   2   7
ATOM      7  C   UNL     1     -16.444  11.852 -15.353  1.00  0.00     0.100 C 
ATOM      8  O   UNL     1     -17.274  11.394 -16.183  1.00  0.00    -0.544 OA
ATOM      9  O   UNL     1     -15.117  11.448 -15.420  1.00  0.00    -0.544 OA
ENDBRANCH   2   7
ENDBRANCH   1   2
BRANCH   1  10
ATOM     10  C   UNL     1     -18.733  13.360 -12.669  1.00  0.00     0.223 C 
ATOM     11  O   UNL     1     -19.745  13.836 -13.248  1.00  0.00    -0.275 OA
ATOM     12  N   UNL     1     -18.386  13.819 -11.362  1.00  0.00    -0.369 N 
ATOM     13  H   UNL     1     -18.965  14.547 -10.889  1.00  0.00     0.159 HD
ATOM     14  H   UNL     1     -17.554  13.431 -10.865  1.00  0.00     0.159 HD
ENDBRANCH   1  10
TORSDOF 4
ENDMDL
