MODEL 1
REMARK VINA RESULT:    -4.715      0.000      0.000
REMARK INTER + INTRA:          -9.412
REMARK INTER:                  -7.334
REMARK INTRA:                  -2.078
REMARK UNBOUND:                -2.078
REMARK SMILES COc1cc(CNC(=O)CCCCC=CC(C)C)ccc1O
REMARK SMILES IDX 11 1 12 2 13 3 14 4 15 5 16 6 17 7 18 8 10 9 8 10 9 11 7 12
REMARK SMILES IDX 6 14 5 15 4 16 19 17 3 18 20 19 21 20 2 21 1 22 22 23
REMARK H PARENT 7 13 22 24
REMARK Flexibility Score: inf
ROOT
ATOM      1  C   UNL     1      -8.648  23.111 -11.006  1.00  0.00     0.010 C 
ENDROOT
BRANCH   1   2
ATOM      2  C   UNL     1      -9.036  21.960 -10.065  1.00  0.00     0.005 C 
BRANCH   2   3
ATOM      3  C   UNL     1     -10.193  22.336  -9.126  1.00  0.00     0.027 C 
BRANCH   3   4
ATOM      4  C   UNL     1      -9.841  22.031  -7.697  1.00  0.00    -0.031 C 
ATOM      5  C   UNL     1      -8.589  21.704  -7.337  1.00  0.00    -0.028 C 
BRANCH   5   6
ATOM      6  C   UNL     1      -8.246  21.375  -5.905  1.00  0.00     0.005 C 
ATOM      7  C   UNL     1      -6.798  21.779  -5.598  1.00  0.00     0.012 C 
ATOM      8  C   UNL     1      -9.214  22.083  -4.947  1.00  0.00     0.012 C 
ENDBRANCH   5   6
ENDBRANCH   3   4
ENDBRANCH   2   3
ENDBRANCH   1   2
BRANCH   1   9
ATOM      9  C   UNL     1      -8.615  24.468 -10.287  1.00  0.00     0.100 C 
BRANCH   9  10
ATOM     10  C   UNL     1      -7.277  24.674  -9.642  1.00  0.00     0.220 C 
ATOM     11  O   UNL     1      -7.209  25.274  -8.533  1.00  0.00    -0.275 OA
ATOM     12  N   UNL     1      -6.093  24.141 -10.251  1.00  0.00    -0.352 N 
ATOM     13  H   UNL     1      -6.154  23.738 -11.212  1.00  0.00     0.163 HD
BRANCH  12  14
ATOM     14  C   UNL     1      -4.856  23.944  -9.500  1.00  0.00     0.151 C 
BRANCH  14  15
ATOM     15  C   UNL     1      -4.788  22.524  -9.003  1.00  0.00    -0.025 A 
ATOM     16  C   UNL     1      -3.923  22.193  -7.947  1.00  0.00     0.056 A 
ATOM     17  C   UNL     1      -5.524  21.511  -9.637  1.00  0.00     0.009 A 
ATOM     18  C   UNL     1      -3.798  20.858  -7.515  1.00  0.00     0.160 A 
ATOM     19  C   UNL     1      -5.414  20.188  -9.205  1.00  0.00     0.050 A 
ATOM     20  C   UNL     1      -4.554  19.859  -8.147  1.00  0.00     0.157 A 
BRANCH  18  21
ATOM     21  O   UNL     1      -2.932  20.485  -6.474  1.00  0.00    -0.493 OA
ATOM     22  C   UNL     1      -3.108  20.852  -5.108  1.00  0.00     0.278 C 
ENDBRANCH  18  21
BRANCH  20  23
ATOM     23  O   UNL     1      -4.442  18.536  -7.719  1.00  0.00    -0.504 OA
ATOM     24  H   UNL     1      -3.872  18.286  -6.919  1.00  0.00     0.293 HD
ENDBRANCH  20  23
ENDBRANCH  14  15
ENDBRANCH  12  14
ENDBRANCH   9  10
ENDBRANCH   1   9
TORSDOF 10
ENDMDL
MODEL 2
REMARK VINA RESULT:    -4.607      1.270      1.830
REMARK INTER + INTRA:          -9.244
REMARK INTER:                  -6.964
REMARK INTRA:                  -2.280
REMARK UNBOUND:                -2.078
REMARK SMILES COc1cc(CNC(=O)CCCCC=CC(C)C)ccc1O
REMARK SMILES IDX 11 1 12 2 13 3 14 4 15 5 16 6 17 7 18 8 10 9 8 10 9 11 7 12
REMARK SMILES IDX 6 14 5 15 4 16 19 17 3 18 20 19 21 20 2 21 1 22 22 23
REMARK H PARENT 7 13 22 24
REMARK Flexibility Score: inf
ROOT
ATOM      1  C   UNL     1     -10.374  22.523  -9.050  1.00  0.00     0.010 C 
ENDROOT
BRANCH   1   2
ATOM      2  C   UNL     1      -9.714  21.491  -8.122  1.00  0.00     0.005 C 
BRANCH   2   3
ATOM      3  C   UNL     1     -10.252  21.568  -6.684  1.00  0.00     0.027 C 
BRANCH   3   4
ATOM      4  C   UNL     1      -9.134  21.807  -5.708  1.00  0.00    -0.031 C 
ATOM      5  C   UNL     1      -7.849  21.809  -6.100  1.00  0.00    -0.028 C 
BRANCH   5   6
ATOM      6  C   UNL     1      -6.729  22.025  -5.112  1.00  0.00     0.005 C 
ATOM      7  C   UNL     1      -5.794  20.809  -5.092  1.00  0.00     0.012 C 
ATOM      8  C   UNL     1      -5.945  23.297  -5.461  1.00  0.00     0.012 C 
ENDBRANCH   5   6
ENDBRANCH   3   4
ENDBRANCH   2   3
ENDBRANCH   1   2
BRANCH   1   9
ATOM      9  C   UNL     1     -10.062  23.967  -8.633  1.00  0.00     0.100 C 
BRANCH   9  10
ATOM     10  C   UNL     1      -8.626  24.286  -8.922  1.00  0.00     0.220 C 
ATOM     11  O   UNL     1      -7.959  24.954  -8.084  1.00  0.00    -0.275 OA
ATOM     12  N   UNL     1      -8.001  23.786 -10.112  1.00  0.00    -0.352 N 
ATOM     13  H   UNL     1      -8.591  23.324 -10.839  1.00  0.00     0.163 HD
BRANCH  12  14
ATOM     14  C   UNL     1      -6.550  23.704 -10.250  1.00  0.00     0.151 C 
BRANCH  14  15
ATOM     15  C   UNL     1      -6.063  22.394  -9.690  1.00  0.00    -0.025 A 
ATOM     16  C   UNL     1      -4.934  22.366  -8.853  1.00  0.00     0.056 A 
ATOM     17  C   UNL     1      -6.680  21.189 -10.057  1.00  0.00     0.009 A 
ATOM     18  C   UNL     1      -4.427  21.142  -8.375  1.00  0.00     0.160 A 
ATOM     19  C   UNL     1      -6.189  19.973  -9.576  1.00  0.00     0.050 A 
ATOM     20  C   UNL     1      -5.066  19.946  -8.737  1.00  0.00     0.157 A 
BRANCH  18  21
ATOM     21  O   UNL     1      -3.291  21.073  -7.551  1.00  0.00    -0.493 OA
ATOM     22  C   UNL     1      -2.728  22.184  -6.860  1.00  0.00     0.278 C 
ENDBRANCH  18  21
BRANCH  20  23
ATOM     23  O   UNL     1      -4.574  18.732  -8.260  1.00  0.00    -0.504 OA
ATOM     24  H   UNL     1      -4.932  18.313  -7.409  1.00  0.00     0.293 HD
ENDBRANCH  20  23
ENDBRANCH  14  15
ENDBRANCH  12  14
ENDBRANCH   9  10
ENDBRANCH   1   9
TORSDOF 10
ENDMDL
MODEL 3
REMARK VINA RESULT:    -4.569      2.268      5.945
REMARK INTER + INTRA:          -9.185
REMARK INTER:                  -7.274
REMARK INTRA:                  -1.911
REMARK UNBOUND:                -2.078
REMARK SMILES COc1cc(CNC(=O)CCCCC=CC(C)C)ccc1O
REMARK SMILES IDX 11 1 12 2 13 3 14 4 15 5 16 6 17 7 18 8 10 9 8 10 9 11 7 12
REMARK SMILES IDX 6 14 5 15 4 16 19 17 3 18 20 19 21 20 2 21 1 22 22 23
REMARK H PARENT 7 13 22 24
REMARK Flexibility Score: inf
ROOT
ATOM      1  C   UNL     1      -5.835  20.100  -9.134  1.00  0.00     0.010 C 
ENDROOT
BRANCH   1   2
ATOM      2  C   UNL     1      -6.791  21.083  -9.827  1.00  0.00     0.005 C 
BRANCH   2   3
ATOM      3  C   UNL     1      -6.062  22.014 -10.809  1.00  0.00     0.027 C 
BRANCH   3   4
ATOM      4  C   UNL     1      -6.195  23.449 -10.382  1.00  0.00    -0.031 C 
ATOM      5  C   UNL     1      -7.371  24.094 -10.444  1.00  0.00    -0.028 C 
BRANCH   5   6
ATOM      6  C   UNL     1      -7.495  25.542 -10.037  1.00  0.00     0.005 C 
ATOM      7  C   UNL     1      -6.130  26.237 -10.120  1.00  0.00     0.012 C 
ATOM      8  C   UNL     1      -8.517  26.262 -10.926  1.00  0.00     0.012 C 
ENDBRANCH   5   6
ENDBRANCH   3   4
ENDBRANCH   2   3
ENDBRANCH   1   2
BRANCH   1   9
ATOM      9  C   UNL     1      -4.763  20.815  -8.300  1.00  0.00     0.100 C 
BRANCH   9  10
ATOM     10  C   UNL     1      -5.383  21.416  -7.074  1.00  0.00     0.220 C 
ATOM     11  O   UNL     1      -4.892  22.471  -6.584  1.00  0.00    -0.275 OA
ATOM     12  N   UNL     1      -6.560  20.830  -6.500  1.00  0.00    -0.352 N 
ATOM     13  H   UNL     1      -6.891  19.906  -6.855  1.00  0.00     0.163 HD
BRANCH  12  14
ATOM     14  C   UNL     1      -7.431  21.570  -5.592  1.00  0.00     0.151 C 
BRANCH  14  15
ATOM     15  C   UNL     1      -8.379  22.426  -6.389  1.00  0.00    -0.025 A 
ATOM     16  C   UNL     1      -9.204  21.837  -7.362  1.00  0.00     0.056 A 
ATOM     17  C   UNL     1      -8.393  23.819  -6.222  1.00  0.00     0.009 A 
ATOM     18  C   UNL     1     -10.048  22.633  -8.161  1.00  0.00     0.160 A 
ATOM     19  C   UNL     1      -9.238  24.611  -7.003  1.00  0.00     0.050 A 
ATOM     20  C   UNL     1     -10.064  24.023  -7.971  1.00  0.00     0.157 A 
BRANCH  18  21
ATOM     21  O   UNL     1     -10.874  22.083  -9.155  1.00  0.00    -0.493 OA
ATOM     22  C   UNL     1     -10.409  21.589 -10.408  1.00  0.00     0.278 C 
ENDBRANCH  18  21
BRANCH  20  23
ATOM     23  O   UNL     1     -10.904  24.815  -8.753  1.00  0.00    -0.504 OA
ATOM     24  H   UNL     1     -11.778  25.179  -8.389  1.00  0.00     0.293 HD
ENDBRANCH  20  23
ENDBRANCH  14  15
ENDBRANCH  12  14
ENDBRANCH   9  10
ENDBRANCH   1   9
TORSDOF 10
ENDMDL
MODEL 4
REMARK VINA RESULT:    -4.566      1.727      2.887
REMARK INTER + INTRA:          -9.179
REMARK INTER:                  -6.686
REMARK INTRA:                  -2.493
REMARK UNBOUND:                -2.078
REMARK SMILES COc1cc(CNC(=O)CCCCC=CC(C)C)ccc1O
REMARK SMILES IDX 11 1 12 2 13 3 14 4 15 5 16 6 17 7 18 8 10 9 8 10 9 11 7 12
REMARK SMILES IDX 6 14 5 15 4 16 19 17 3 18 20 19 21 20 2 21 1 22 22 23
REMARK H PARENT 7 13 22 24
REMARK Flexibility Score: inf
ROOT
ATOM      1  C   UNL     1      -9.955  21.658  -8.111  1.00  0.00     0.010 C 
ENDROOT
BRANCH   1   2
ATOM      2  C   UNL     1      -9.403  21.937  -6.704  1.00  0.00     0.005 C 
BRANCH   2   3
ATOM      3  C   UNL     1      -8.019  21.308  -6.482  1.00  0.00     0.027 C 
BRANCH   3   4
ATOM      4  C   UNL     1      -7.011  22.357  -6.103  1.00  0.00    -0.031 C 
ATOM      5  C   UNL     1      -7.029  23.580  -6.656  1.00  0.00    -0.028 C 
BRANCH   5   6
ATOM      6  C   UNL     1      -6.000  24.622  -6.290  1.00  0.00     0.005 C 
ATOM      7  C   UNL     1      -4.774  23.958  -5.650  1.00  0.00     0.012 C 
ATOM      8  C   UNL     1      -5.587  25.425  -7.530  1.00  0.00     0.012 C 
ENDBRANCH   5   6
ENDBRANCH   3   4
ENDBRANCH   2   3
ENDBRANCH   1   2
BRANCH   1   9
ATOM      9  C   UNL     1     -10.171  22.945  -8.919  1.00  0.00     0.100 C 
BRANCH   9  10
ATOM     10  C   UNL     1      -8.958  23.240  -9.749  1.00  0.00     0.220 C 
ATOM     11  O   UNL     1      -8.501  24.416  -9.784  1.00  0.00    -0.275 OA
ATOM     12  N   UNL     1      -8.288  22.182 -10.449  1.00  0.00    -0.352 N 
ATOM     13  H   UNL     1      -8.735  21.240 -10.492  1.00  0.00     0.163 HD
BRANCH  12  14
ATOM     14  C   UNL     1      -6.911  22.312 -10.918  1.00  0.00     0.151 C 
BRANCH  14  15
ATOM     15  C   UNL     1      -5.978  21.666  -9.928  1.00  0.00    -0.025 A 
ATOM     16  C   UNL     1      -4.862  22.375  -9.453  1.00  0.00     0.056 A 
ATOM     17  C   UNL     1      -6.169  20.334  -9.534  1.00  0.00     0.009 A 
ATOM     18  C   UNL     1      -3.943  21.761  -8.579  1.00  0.00     0.160 A 
ATOM     19  C   UNL     1      -5.268  19.724  -8.658  1.00  0.00     0.050 A 
ATOM     20  C   UNL     1      -4.157  20.433  -8.180  1.00  0.00     0.157 A 
BRANCH  18  21
ATOM     21  O   UNL     1      -2.807  22.432  -8.097  1.00  0.00    -0.493 OA
ATOM     22  C   UNL     1      -2.366  23.706  -8.557  1.00  0.00     0.278 C 
ENDBRANCH  18  21
BRANCH  20  23
ATOM     23  O   UNL     1      -3.257  19.823  -7.308  1.00  0.00    -0.504 OA
ATOM     24  H   UNL     1      -2.666  20.368  -6.691  1.00  0.00     0.293 HD
ENDBRANCH  20  23
ENDBRANCH  14  15
ENDBRANCH  12  14
ENDBRANCH   9  10
ENDBRANCH   1   9
TORSDOF 10
ENDMDL
MODEL 5
REMARK VINA RESULT:    -4.533      2.396      5.987
REMARK INTER + INTRA:          -9.128
REMARK INTER:                  -6.991
REMARK INTRA:                  -2.137
REMARK UNBOUND:                -2.078
REMARK SMILES COc1cc(CNC(=O)CCCCC=CC(C)C)ccc1O
REMARK SMILES IDX 11 1 12 2 13 3 14 4 15 5 16 6 17 7 18 8 10 9 8 10 9 11 7 12
REMARK SMILES IDX 6 14 5 15 4 16 19 17 3 18 20 19 21 20 2 21 1 22 22 23
REMARK H PARENT 7 13 22 24
REMARK Flexibility Score: inf
ROOT
ATOM      1  C   UNL     1      -6.215  20.301  -9.471  1.00  0.00     0.010 C 
ENDROOT
BRANCH   1   2
ATOM      2  C   UNL     1      -6.884  21.454 -10.234  1.00  0.00     0.005 C 
BRANCH   2   3
ATOM      3  C   UNL     1      -5.860  22.435 -10.828  1.00  0.00     0.027 C 
BRANCH   3   4
ATOM      4  C   UNL     1      -5.977  23.786 -10.179  1.00  0.00    -0.031 C 
ATOM      5  C   UNL     1      -7.126  24.479 -10.204  1.00  0.00    -0.028 C 
BRANCH   5   6
ATOM      6  C   UNL     1      -7.231  25.846  -9.573  1.00  0.00     0.005 C 
ATOM      7  C   UNL     1      -6.449  25.885  -8.254  1.00  0.00     0.012 C 
ATOM      8  C   UNL     1      -6.713  26.922 -10.536  1.00  0.00     0.012 C 
ENDBRANCH   5   6
ENDBRANCH   3   4
ENDBRANCH   2   3
ENDBRANCH   1   2
BRANCH   1   9
ATOM      9  C   UNL     1      -5.225  20.799  -8.409  1.00  0.00     0.100 C 
BRANCH   9  10
ATOM     10  C   UNL     1      -5.971  21.357  -7.233  1.00  0.00     0.220 C 
ATOM     11  O   UNL     1      -5.521  22.377  -6.641  1.00  0.00    -0.275 OA
ATOM     12  N   UNL     1      -7.214  20.771  -6.824  1.00  0.00    -0.352 N 
ATOM     13  H   UNL     1      -7.518  19.871  -7.258  1.00  0.00     0.163 HD
BRANCH  12  14
ATOM     14  C   UNL     1      -8.171  21.488  -5.987  1.00  0.00     0.151 C 
BRANCH  14  15
ATOM     15  C   UNL     1      -8.902  22.510  -6.817  1.00  0.00    -0.025 A 
ATOM     16  C   UNL     1      -9.035  23.828  -6.347  1.00  0.00     0.056 A 
ATOM     17  C   UNL     1      -9.519  22.140  -8.021  1.00  0.00     0.009 A 
ATOM     18  C   UNL     1      -9.773  24.777  -7.081  1.00  0.00     0.160 A 
ATOM     19  C   UNL     1     -10.241  23.081  -8.758  1.00  0.00     0.050 A 
ATOM     20  C   UNL     1     -10.370  24.396  -8.292  1.00  0.00     0.157 A 
BRANCH  18  21
ATOM     21  O   UNL     1      -9.942  26.099  -6.636  1.00  0.00    -0.493 OA
ATOM     22  C   UNL     1     -10.504  26.461  -5.378  1.00  0.00     0.278 C 
ENDBRANCH  18  21
BRANCH  20  23
ATOM     23  O   UNL     1     -11.094  25.334  -9.027  1.00  0.00    -0.504 OA
ATOM     24  H   UNL     1     -10.845  26.317  -9.022  1.00  0.00     0.293 HD
ENDBRANCH  20  23
ENDBRANCH  14  15
ENDBRANCH  12  14
ENDBRANCH   9  10
ENDBRANCH   1   9
TORSDOF 10
ENDMDL
MODEL 6
REMARK VINA RESULT:    -4.495      3.058      6.025
REMARK INTER + INTRA:          -9.069
REMARK INTER:                  -6.960
REMARK INTRA:                  -2.109
REMARK UNBOUND:                -2.078
REMARK SMILES COc1cc(CNC(=O)CCCCC=CC(C)C)ccc1O
REMARK SMILES IDX 11 1 12 2 13 3 14 4 15 5 16 6 17 7 18 8 10 9 8 10 9 11 7 12
REMARK SMILES IDX 6 14 5 15 4 16 19 17 3 18 20 19 21 20 2 21 1 22 22 23
REMARK H PARENT 7 13 22 24
REMARK Flexibility Score: inf
ROOT
ATOM      1  C   UNL     1      -6.906  21.896  -5.138  1.00  0.00     0.010 C 
ENDROOT
BRANCH   1   2
ATOM      2  C   UNL     1      -6.412  23.281  -5.584  1.00  0.00     0.005 C 
BRANCH   2   3
ATOM      3  C   UNL     1      -6.418  23.441  -7.112  1.00  0.00     0.027 C 
BRANCH   3   4
ATOM      4  C   UNL     1      -6.273  22.107  -7.789  1.00  0.00    -0.031 C 
ATOM      5  C   UNL     1      -5.125  21.742  -8.382  1.00  0.00    -0.028 C 
BRANCH   5   6
ATOM      6  C   UNL     1      -4.992  20.411  -9.082  1.00  0.00     0.005 C 
ATOM      7  C   UNL     1      -4.245  19.413  -8.189  1.00  0.00     0.012 C 
ATOM      8  C   UNL     1      -6.375  19.863  -9.457  1.00  0.00     0.012 C 
ENDBRANCH   5   6
ENDBRANCH   3   4
ENDBRANCH   2   3
ENDBRANCH   1   2
BRANCH   1   9
ATOM      9  C   UNL     1      -8.124  21.981  -4.208  1.00  0.00     0.100 C 
BRANCH   9  10
ATOM     10  C   UNL     1      -9.387  21.996  -5.016  1.00  0.00     0.220 C 
ATOM     11  O   UNL     1     -10.373  22.675  -4.615  1.00  0.00    -0.275 OA
ATOM     12  N   UNL     1      -9.453  21.292  -6.264  1.00  0.00    -0.352 N 
ATOM     13  H   UNL     1      -8.669  20.657  -6.530  1.00  0.00     0.163 HD
BRANCH  12  14
ATOM     14  C   UNL     1     -10.466  21.594  -7.272  1.00  0.00     0.151 C 
BRANCH  14  15
ATOM     15  C   UNL     1      -9.896  22.543  -8.293  1.00  0.00    -0.025 A 
ATOM     16  C   UNL     1      -9.921  23.927  -8.051  1.00  0.00     0.056 A 
ATOM     17  C   UNL     1      -9.410  22.064  -9.518  1.00  0.00     0.009 A 
ATOM     18  C   UNL     1      -9.453  24.832  -9.024  1.00  0.00     0.160 A 
ATOM     19  C   UNL     1      -8.933  22.955 -10.481  1.00  0.00     0.050 A 
ATOM     20  C   UNL     1      -8.953  24.336 -10.238  1.00  0.00     0.157 A 
BRANCH  18  21
ATOM     21  O   UNL     1      -9.476  26.222  -8.826  1.00  0.00    -0.493 OA
ATOM     22  C   UNL     1      -8.523  26.943  -8.051  1.00  0.00     0.278 C 
ENDBRANCH  18  21
BRANCH  20  23
ATOM     23  O   UNL     1      -8.480  25.226 -11.202  1.00  0.00    -0.504 OA
ATOM     24  H   UNL     1      -8.660  26.221 -11.137  1.00  0.00     0.293 HD
ENDBRANCH  20  23
ENDBRANCH  14  15
ENDBRANCH  12  14
ENDBRANCH   9  10
ENDBRANCH   1   9
TORSDOF 10
ENDMDL
MODEL 7
REMARK VINA RESULT:    -4.459      3.042      5.629
REMARK INTER + INTRA:          -9.014
REMARK INTER:                  -7.017
REMARK INTRA:                  -1.996
REMARK UNBOUND:                -2.078
REMARK SMILES COc1cc(CNC(=O)CCCCC=CC(C)C)ccc1O
REMARK SMILES IDX 11 1 12 2 13 3 14 4 15 5 16 6 17 7 18 8 10 9 8 10 9 11 7 12
REMARK SMILES IDX 6 14 5 15 4 16 19 17 3 18 20 19 21 20 2 21 1 22 22 23
REMARK H PARENT 7 13 22 24
REMARK Flexibility Score: inf
ROOT
ATOM      1  C   UNL     1     -10.114  25.372  -5.650  1.00  0.00     0.010 C 
ENDROOT
BRANCH   1   2
ATOM      2  C   UNL     1      -9.343  25.312  -6.978  1.00  0.00     0.005 C 
BRANCH   2   3
ATOM      3  C   UNL     1     -10.271  25.427  -8.198  1.00  0.00     0.027 C 
BRANCH   3   4
ATOM      4  C   UNL     1      -9.490  25.796  -9.429  1.00  0.00    -0.031 C 
ATOM      5  C   UNL     1      -8.148  25.741  -9.452  1.00  0.00    -0.028 C 
BRANCH   5   6
ATOM      6  C   UNL     1      -7.368  26.136 -10.681  1.00  0.00     0.005 C 
ATOM      7  C   UNL     1      -8.202  27.074 -11.563  1.00  0.00     0.012 C 
ATOM      8  C   UNL     1      -6.047  26.809 -10.283  1.00  0.00     0.012 C 
ENDBRANCH   5   6
ENDBRANCH   3   4
ENDBRANCH   2   3
ENDBRANCH   1   2
BRANCH   1   9
ATOM      9  C   UNL     1      -9.456  24.522  -4.553  1.00  0.00     0.100 C 
BRANCH   9  10
ATOM     10  C   UNL     1      -9.437  23.080  -4.964  1.00  0.00     0.220 C 
ATOM     11  O   UNL     1     -10.481  22.383  -4.828  1.00  0.00    -0.275 OA
ATOM     12  N   UNL     1      -8.262  22.516  -5.562  1.00  0.00    -0.352 N 
ATOM     13  H   UNL     1      -7.381  23.075  -5.573  1.00  0.00     0.163 HD
BRANCH  12  14
ATOM     14  C   UNL     1      -8.305  21.283  -6.342  1.00  0.00     0.151 C 
BRANCH  14  15
ATOM     15  C   UNL     1      -8.571  21.609  -7.788  1.00  0.00    -0.025 A 
ATOM     16  C   UNL     1      -7.501  21.929  -8.641  1.00  0.00     0.056 A 
ATOM     17  C   UNL     1      -9.885  21.672  -8.274  1.00  0.00     0.009 A 
ATOM     18  C   UNL     1      -7.739  22.301  -9.979  1.00  0.00     0.160 A 
ATOM     19  C   UNL     1     -10.126  22.028  -9.603  1.00  0.00     0.050 A 
ATOM     20  C   UNL     1      -9.058  22.343 -10.455  1.00  0.00     0.157 A 
BRANCH  18  21
ATOM     21  O   UNL     1      -6.697  22.644 -10.857  1.00  0.00    -0.493 OA
ATOM     22  C   UNL     1      -5.336  22.804 -10.469  1.00  0.00     0.278 C 
ENDBRANCH  18  21
BRANCH  20  23
ATOM     23  O   UNL     1      -9.300  22.702 -11.781  1.00  0.00    -0.504 OA
ATOM     24  H   UNL     1      -8.880  22.194 -12.552  1.00  0.00     0.293 HD
ENDBRANCH  20  23
ENDBRANCH  14  15
ENDBRANCH  12  14
ENDBRANCH   9  10
ENDBRANCH   1   9
TORSDOF 10
ENDMDL
MODEL 8
REMARK VINA RESULT:    -4.412      1.868      3.920
REMARK INTER + INTRA:          -8.940
REMARK INTER:                  -6.370
REMARK INTRA:                  -2.569
REMARK UNBOUND:                -2.078
REMARK SMILES COc1cc(CNC(=O)CCCCC=CC(C)C)ccc1O
REMARK SMILES IDX 11 1 12 2 13 3 14 4 15 5 16 6 17 7 18 8 10 9 8 10 9 11 7 12
REMARK SMILES IDX 6 14 5 15 4 16 19 17 3 18 20 19 21 20 2 21 1 22 22 23
REMARK H PARENT 7 13 22 24
REMARK Flexibility Score: inf
ROOT
ATOM      1  C   UNL     1      -9.000  21.763  -5.848  1.00  0.00     0.010 C 
ENDROOT
BRANCH   1   2
ATOM      2  C   UNL     1      -8.520  23.219  -5.740  1.00  0.00     0.005 C 
BRANCH   2   3
ATOM      3  C   UNL     1      -7.045  23.380  -6.141  1.00  0.00     0.027 C 
BRANCH   3   4
ATOM      4  C   UNL     1      -6.898  24.397  -7.238  1.00  0.00    -0.031 C 
ATOM      5  C   UNL     1      -7.893  24.643  -8.105  1.00  0.00    -0.028 C 
BRANCH   5   6
ATOM      6  C   UNL     1      -7.732  25.648  -9.219  1.00  0.00     0.005 C 
ATOM      7  C   UNL     1      -6.250  25.987  -9.421  1.00  0.00     0.012 C 
ATOM      8  C   UNL     1      -8.340  25.106 -10.520  1.00  0.00     0.012 C 
ENDBRANCH   5   6
ENDBRANCH   3   4
ENDBRANCH   2   3
ENDBRANCH   1   2
BRANCH   1   9
ATOM      9  C   UNL     1     -10.198  21.611  -6.796  1.00  0.00     0.100 C 
BRANCH   9  10
ATOM     10  C   UNL     1      -9.732  21.643  -8.220  1.00  0.00     0.220 C 
ATOM     11  O   UNL     1     -10.348  22.359  -9.058  1.00  0.00    -0.275 OA
ATOM     12  N   UNL     1      -8.561  20.914  -8.613  1.00  0.00    -0.352 N 
ATOM     13  H   UNL     1      -8.125  20.251  -7.935  1.00  0.00     0.163 HD
BRANCH  12  14
ATOM     14  C   UNL     1      -7.831  21.222  -9.840  1.00  0.00     0.151 C 
BRANCH  14  15
ATOM     15  C   UNL     1      -6.388  21.500  -9.513  1.00  0.00    -0.025 A 
ATOM     16  C   UNL     1      -5.774  20.839  -8.435  1.00  0.00     0.056 A 
ATOM     17  C   UNL     1      -5.670  22.470 -10.227  1.00  0.00     0.009 A 
ATOM     18  C   UNL     1      -4.446  21.137  -8.076  1.00  0.00     0.160 A 
ATOM     19  C   UNL     1      -4.348  22.761  -9.883  1.00  0.00     0.050 A 
ATOM     20  C   UNL     1      -3.735  22.098  -8.811  1.00  0.00     0.157 A 
BRANCH  18  21
ATOM     21  O   UNL     1      -3.804  20.510  -6.995  1.00  0.00    -0.493 OA
ATOM     22  C   UNL     1      -4.033  20.829  -5.626  1.00  0.00     0.278 C 
ENDBRANCH  18  21
BRANCH  20  23
ATOM     23  O   UNL     1      -2.416  22.392  -8.466  1.00  0.00    -0.504 OA
ATOM     24  H   UNL     1      -1.706  22.548  -9.173  1.00  0.00     0.293 HD
ENDBRANCH  20  23
ENDBRANCH  14  15
ENDBRANCH  12  14
ENDBRANCH   9  10
ENDBRANCH   1   9
TORSDOF 10
ENDMDL
MODEL 9
REMARK VINA RESULT:    -4.304      2.320      5.911
REMARK INTER + INTRA:          -8.772
REMARK INTER:                  -6.622
REMARK INTRA:                  -2.150
REMARK UNBOUND:                -2.078
REMARK SMILES COc1cc(CNC(=O)CCCCC=CC(C)C)ccc1O
REMARK SMILES IDX 11 1 12 2 13 3 14 4 15 5 16 6 17 7 18 8 10 9 8 10 9 11 7 12
REMARK SMILES IDX 6 14 5 15 4 16 19 17 3 18 20 19 21 20 2 21 1 22 22 23
REMARK H PARENT 7 13 22 24
REMARK Flexibility Score: inf
ROOT
ATOM      1  C   UNL     1      -5.336  23.874  -4.891  1.00  0.00     0.010 C 
ENDROOT
BRANCH   1   2
ATOM      2  C   UNL     1      -4.563  23.270  -6.073  1.00  0.00     0.005 C 
BRANCH   2   3
ATOM      3  C   UNL     1      -4.676  24.125  -7.345  1.00  0.00     0.027 C 
BRANCH   3   4
ATOM      4  C   UNL     1      -5.484  23.414  -8.395  1.00  0.00    -0.031 C 
ATOM      5  C   UNL     1      -5.561  22.075  -8.434  1.00  0.00    -0.028 C 
BRANCH   5   6
ATOM      6  C   UNL     1      -6.354  21.365  -9.505  1.00  0.00     0.005 C 
ATOM      7  C   UNL     1      -5.981  21.907 -10.890  1.00  0.00     0.012 C 
ATOM      8  C   UNL     1      -6.110  19.852  -9.438  1.00  0.00     0.012 C 
ENDBRANCH   5   6
ENDBRANCH   3   4
ENDBRANCH   2   3
ENDBRANCH   1   2
BRANCH   1   9
ATOM      9  C   UNL     1      -6.258  22.852  -4.211  1.00  0.00     0.100 C 
BRANCH   9  10
ATOM     10  C   UNL     1      -7.370  22.466  -5.140  1.00  0.00     0.220 C 
ATOM     11  O   UNL     1      -7.551  21.248  -5.418  1.00  0.00    -0.275 OA
ATOM     12  N   UNL     1      -8.255  23.467  -5.660  1.00  0.00    -0.352 N 
ATOM     13  H   UNL     1      -8.031  24.474  -5.503  1.00  0.00     0.163 HD
BRANCH  12  14
ATOM     14  C   UNL     1      -9.565  23.133  -6.212  1.00  0.00     0.151 C 
BRANCH  14  15
ATOM     15  C   UNL     1      -9.462  22.992  -7.708  1.00  0.00    -0.025 A 
ATOM     16  C   UNL     1      -9.020  24.077  -8.484  1.00  0.00     0.056 A 
ATOM     17  C   UNL     1      -9.876  21.812  -8.343  1.00  0.00     0.009 A 
ATOM     18  C   UNL     1      -8.981  23.984  -9.889  1.00  0.00     0.160 A 
ATOM     19  C   UNL     1      -9.828  21.709  -9.735  1.00  0.00     0.050 A 
ATOM     20  C   UNL     1      -9.382  22.790 -10.509  1.00  0.00     0.157 A 
BRANCH  18  21
ATOM     21  O   UNL     1      -8.561  25.052 -10.699  1.00  0.00    -0.493 OA
ATOM     22  C   UNL     1      -7.419  25.862 -10.437  1.00  0.00     0.278 C 
ENDBRANCH  18  21
BRANCH  20  23
ATOM     23  O   UNL     1      -9.338  22.688 -11.899  1.00  0.00    -0.504 OA
ATOM     24  H   UNL     1      -8.798  21.963 -12.359  1.00  0.00     0.293 HD
ENDBRANCH  20  23
ENDBRANCH  14  15
ENDBRANCH  12  14
ENDBRANCH   9  10
ENDBRANCH   1   9
TORSDOF 10
ENDMDL
