MODEL 1
REMARK VINA RESULT:    -4.278      0.000      0.000
REMARK INTER + INTRA:          -6.827
REMARK INTER:                  -6.528
REMARK INTRA:                  -0.299
REMARK UNBOUND:                -0.299
REMARK SMILES CC1=CCC[C@@H](C)C(=O)C[C@@H](C(C)C)C(=O)C1
REMARK SMILES IDX 8 1 9 2 6 3 7 4 5 5 4 6 3 7 2 8 1 9 10 11 11 12 15 13 16 14
REMARK SMILES IDX 17 15 12 17 13 18 14 19
REMARK H PARENT
REMARK Flexibility Score: 70.00
ROOT
ATOM      1  C   UNL     1      15.755 -29.642  22.937  1.00  0.00     0.136 C 
ATOM      2  O   UNL     1      16.000 -28.459  23.120  1.00  0.00    -0.299 OA
ENDROOT
BRANCH   1   3
ATOM      3  C   UNL     1      14.332 -30.085  22.622  1.00  0.00     0.053 C 
ATOM      4  C   UNL     1      13.706 -30.896  23.769  1.00  0.00     0.016 C 
BRANCH   3   5
ATOM      5  C   UNL     1      14.257 -30.849  21.282  1.00  0.00     0.015 C 
BRANCH   5   6
ATOM      6  C   UNL     1      13.879 -32.333  21.453  1.00  0.00     0.028 C 
BRANCH   6   7
ATOM      7  C   UNL     1      14.602 -33.257  20.504  1.00  0.00    -0.028 C 
ATOM      8  C   UNL     1      15.837 -33.795  20.681  1.00  0.00    -0.070 CG0
ATOM      9  C   UNL     1      16.288 -34.822  19.669  1.00  0.00     0.039 C 
ATOM     10  G   UNL     1      16.835 -33.361  21.753  1.00  0.00     0.000 G0
ENDBRANCH   6   7
ENDBRANCH   5   6
ENDBRANCH   3   5
ENDBRANCH   1   3
BRANCH   1  11
ATOM     11  C   UNL     1      16.873 -30.657  23.013  1.00  0.00     0.087 C 
BRANCH  11  12
ATOM     12  C   UNL     1      17.680 -30.880  21.696  1.00  0.00     0.066 C 
BRANCH  12  13
ATOM     13  C   UNL     1      17.891 -32.348  21.348  1.00  0.00     0.140 C 
ATOM     14  O   UNL     1      18.824 -32.689  20.636  1.00  0.00    -0.299 OA
BRANCH  13  15
ATOM     15  C   UNL     1      16.858 -33.366  21.767  1.00  0.00     0.106 CG0
ATOM     16  G   UNL     1      15.853 -33.775  20.692  1.00  0.00     0.000 G0
ENDBRANCH  13  15
ENDBRANCH  12  13
BRANCH  12  17
ATOM     17  C   UNL     1      18.984 -30.025  21.552  1.00  0.00    -0.006 C 
ATOM     18  C   UNL     1      18.683 -28.611  21.024  1.00  0.00     0.008 C 
ATOM     19  C   UNL     1      19.827 -29.932  22.833  1.00  0.00     0.008 C 
ENDBRANCH  12  17
ENDBRANCH  11  12
ENDBRANCH   1  11
TORSDOF 1
ENDMDL
MODEL 2
REMARK VINA RESULT:    -4.197      2.355      4.093
REMARK INTER + INTRA:          -6.705
REMARK INTER:                  -6.218
REMARK INTRA:                  -0.487
REMARK UNBOUND:                -0.299
REMARK SMILES CC1=CCC[C@@H](C)C(=O)C[C@@H](C(C)C)C(=O)C1
REMARK SMILES IDX 8 1 9 2 6 3 7 4 5 5 4 6 3 7 2 8 1 9 10 11 11 12 15 13 16 14
REMARK SMILES IDX 17 15 12 17 13 18 14 19
REMARK H PARENT
REMARK Flexibility Score: 70.00
ROOT
ATOM      1  C   UNL     1      18.312 -31.281  24.259  1.00  0.00     0.136 C 
ATOM      2  O   UNL     1      19.226 -31.619  23.521  1.00  0.00    -0.299 OA
ENDROOT
BRANCH   1   3
ATOM      3  C   UNL     1      18.287 -31.757  25.706  1.00  0.00     0.053 C 
ATOM      4  C   UNL     1      19.334 -31.039  26.575  1.00  0.00     0.016 C 
BRANCH   3   5
ATOM      5  C   UNL     1      18.427 -33.292  25.804  1.00  0.00     0.015 C 
BRANCH   5   6
ATOM      6  C   UNL     1      17.159 -34.044  25.355  1.00  0.00     0.028 C 
BRANCH   6   7
ATOM      7  C   UNL     1      17.345 -34.849  24.093  1.00  0.00    -0.028 C 
ATOM      8  C   UNL     1      16.780 -34.600  22.882  1.00  0.00    -0.070 CG0
ATOM      9  C   UNL     1      17.242 -35.451  21.723  1.00  0.00     0.039 C 
ATOM     10  G   UNL     1      15.646 -33.607  22.634  1.00  0.00     0.000 G0
ENDBRANCH   6   7
ENDBRANCH   5   6
ENDBRANCH   3   5
ENDBRANCH   1   3
BRANCH   1  11
ATOM     11  C   UNL     1      17.219 -30.379  23.730  1.00  0.00     0.087 C 
BRANCH  11  12
ATOM     12  C   UNL     1      15.890 -31.089  23.325  1.00  0.00     0.066 C 
BRANCH  12  13
ATOM     13  C   UNL     1      16.074 -32.189  22.287  1.00  0.00     0.140 C 
ATOM     14  O   UNL     1      16.456 -31.919  21.158  1.00  0.00    -0.299 OA
BRANCH  13  15
ATOM     15  C   UNL     1      15.642 -33.597  22.614  1.00  0.00     0.106 CG0
ATOM     16  G   UNL     1      16.768 -34.593  22.886  1.00  0.00     0.000 G0
ENDBRANCH  13  15
ENDBRANCH  12  13
BRANCH  12  17
ATOM     17  C   UNL     1      14.690 -30.136  22.998  1.00  0.00    -0.006 C 
ATOM     18  C   UNL     1      13.494 -30.384  23.933  1.00  0.00     0.008 C 
ATOM     19  C   UNL     1      15.048 -28.642  22.998  1.00  0.00     0.008 C 
ENDBRANCH  12  17
ENDBRANCH  11  12
ENDBRANCH   1  11
TORSDOF 1
ENDMDL
MODEL 3
REMARK VINA RESULT:    -4.195      2.165      4.883
REMARK INTER + INTRA:          -6.701
REMARK INTER:                  -6.302
REMARK INTRA:                  -0.398
REMARK UNBOUND:                -0.299
REMARK SMILES CC1=CCC[C@@H](C)C(=O)C[C@@H](C(C)C)C(=O)C1
REMARK SMILES IDX 8 1 9 2 6 3 7 4 5 5 4 6 3 7 2 8 1 9 10 11 11 12 15 13 16 14
REMARK SMILES IDX 17 15 12 17 13 18 14 19
REMARK H PARENT
REMARK Flexibility Score: 70.00
ROOT
ATOM      1  C   UNL     1      15.599 -32.668  22.973  1.00  0.00     0.136 C 
ATOM      2  O   UNL     1      15.708 -33.638  23.708  1.00  0.00    -0.299 OA
ENDROOT
BRANCH   1   3
ATOM      3  C   UNL     1      15.737 -32.835  21.466  1.00  0.00     0.053 C 
ATOM      4  C   UNL     1      14.974 -34.064  20.943  1.00  0.00     0.016 C 
BRANCH   3   5
ATOM      5  C   UNL     1      17.218 -32.862  21.029  1.00  0.00     0.015 C 
BRANCH   5   6
ATOM      6  C   UNL     1      18.143 -32.080  21.982  1.00  0.00     0.028 C 
BRANCH   6   7
ATOM      7  C   UNL     1      18.617 -30.761  21.423  1.00  0.00    -0.028 C 
ATOM      8  C   UNL     1      18.326 -29.525  21.907  1.00  0.00    -0.070 CG0
ATOM      9  C   UNL     1      19.047 -28.357  21.277  1.00  0.00     0.039 C 
ATOM     10  G   UNL     1      17.254 -29.225  22.953  1.00  0.00     0.000 G0
ENDBRANCH   6   7
ENDBRANCH   5   6
ENDBRANCH   3   5
ENDBRANCH   1   3
BRANCH   1  11
ATOM     11  C   UNL     1      15.312 -31.307  23.570  1.00  0.00     0.087 C 
BRANCH  11  12
ATOM     12  C   UNL     1      14.847 -30.209  22.564  1.00  0.00     0.066 C 
BRANCH  12  13
ATOM     13  C   UNL     1      15.829 -29.052  22.424  1.00  0.00     0.140 C 
ATOM     14  O   UNL     1      15.529 -28.058  21.779  1.00  0.00    -0.299 OA
BRANCH  13  15
ATOM     15  C   UNL     1      17.231 -29.200  22.961  1.00  0.00     0.106 CG0
ATOM     16  G   UNL     1      18.309 -29.525  21.928  1.00  0.00     0.000 G0
ENDBRANCH  13  15
ENDBRANCH  12  13
BRANCH  12  17
ATOM     17  C   UNL     1      13.363 -29.734  22.723  1.00  0.00    -0.006 C 
ATOM     18  C   UNL     1      12.369 -30.783  22.198  1.00  0.00     0.008 C 
ATOM     19  C   UNL     1      12.978 -29.325  24.153  1.00  0.00     0.008 C 
ENDBRANCH  12  17
ENDBRANCH  11  12
ENDBRANCH   1  11
TORSDOF 1
ENDMDL
MODEL 4
REMARK VINA RESULT:    -4.191      1.618      3.974
REMARK INTER + INTRA:          -6.696
REMARK INTER:                  -6.676
REMARK INTRA:                  -0.020
REMARK UNBOUND:                -0.299
REMARK SMILES CC1=CCC[C@@H](C)C(=O)C[C@@H](C(C)C)C(=O)C1
REMARK SMILES IDX 8 1 9 2 6 3 7 4 5 5 4 6 3 7 2 8 1 9 10 11 11 12 15 13 16 14
REMARK SMILES IDX 17 15 12 17 13 18 14 19
REMARK H PARENT
REMARK Flexibility Score: 70.00
ROOT
ATOM      1  C   UNL     1      16.316 -28.809  22.629  1.00  0.00     0.136 C 
ATOM      2  O   UNL     1      16.027 -27.837  23.311  1.00  0.00    -0.299 OA
ENDROOT
BRANCH   1   3
ATOM      3  C   UNL     1      17.778 -29.150  22.373  1.00  0.00     0.053 C 
ATOM      4  C   UNL     1      18.293 -28.554  21.052  1.00  0.00     0.016 C 
BRANCH   3   5
ATOM      5  C   UNL     1      18.027 -30.674  22.441  1.00  0.00     0.015 C 
BRANCH   5   6
ATOM      6  C   UNL     1      17.962 -31.358  21.062  1.00  0.00     0.028 C 
BRANCH   6   7
ATOM      7  C   UNL     1      17.588 -32.818  21.126  1.00  0.00    -0.028 C 
ATOM      8  C   UNL     1      16.329 -33.332  21.137  1.00  0.00    -0.070 CG0
ATOM      9  C   UNL     1      16.203 -34.834  21.041  1.00  0.00     0.039 C 
ATOM     10  G   UNL     1      15.054 -32.518  21.348  1.00  0.00     0.000 G0
ENDBRANCH   6   7
ENDBRANCH   5   6
ENDBRANCH   3   5
ENDBRANCH   1   3
BRANCH   1  11
ATOM     11  C   UNL     1      15.215 -29.674  22.056  1.00  0.00     0.087 C 
BRANCH  11  12
ATOM     12  C   UNL     1      14.509 -30.632  23.065  1.00  0.00     0.066 C 
BRANCH  12  13
ATOM     13  C   UNL     1      14.715 -32.109  22.753  1.00  0.00     0.140 C 
ATOM     14  O   UNL     1      14.737 -32.936  23.653  1.00  0.00    -0.299 OA
BRANCH  13  15
ATOM     15  C   UNL     1      15.038 -32.531  21.341  1.00  0.00     0.106 CG0
ATOM     16  G   UNL     1      16.330 -33.326  21.163  1.00  0.00     0.000 G0
ENDBRANCH  13  15
ENDBRANCH  12  13
BRANCH  12  17
ATOM     17  C   UNL     1      13.019 -30.280  23.399  1.00  0.00    -0.006 C 
ATOM     18  C   UNL     1      12.908 -28.968  24.193  1.00  0.00     0.008 C 
ATOM     19  C   UNL     1      12.091 -30.228  22.176  1.00  0.00     0.008 C 
ENDBRANCH  12  17
ENDBRANCH  11  12
ENDBRANCH   1  11
TORSDOF 1
ENDMDL
MODEL 5
REMARK VINA RESULT:    -4.085      2.723      4.597
REMARK INTER + INTRA:          -6.534
REMARK INTER:                  -6.209
REMARK INTRA:                  -0.325
REMARK UNBOUND:                -0.299
REMARK SMILES CC1=CCC[C@@H](C)C(=O)C[C@@H](C(C)C)C(=O)C1
REMARK SMILES IDX 8 1 9 2 6 3 7 4 5 5 4 6 3 7 2 8 1 9 10 11 11 12 15 13 16 14
REMARK SMILES IDX 17 15 12 17 13 18 14 19
REMARK H PARENT
REMARK Flexibility Score: 70.00
ROOT
ATOM      1  C   UNL     1      17.241 -33.749  24.194  1.00  0.00     0.136 C 
ATOM      2  O   UNL     1      17.373 -33.130  25.239  1.00  0.00    -0.299 OA
ENDROOT
BRANCH   1   3
ATOM      3  C   UNL     1      17.535 -35.243  24.151  1.00  0.00     0.053 C 
ATOM      4  C   UNL     1      17.767 -35.832  25.552  1.00  0.00     0.016 C 
BRANCH   3   5
ATOM      5  C   UNL     1      18.710 -35.565  23.201  1.00  0.00     0.015 C 
BRANCH   5   6
ATOM      6  C   UNL     1      18.283 -36.388  21.970  1.00  0.00     0.028 C 
BRANCH   6   7
ATOM      7  C   UNL     1      18.257 -35.594  20.688  1.00  0.00    -0.028 C 
ATOM      8  C   UNL     1      17.200 -34.904  20.184  1.00  0.00    -0.070 CG0
ATOM      9  C   UNL     1      17.458 -34.051  18.965  1.00  0.00     0.039 C 
ATOM     10  G   UNL     1      15.762 -35.015  20.689  1.00  0.00     0.000 G0
ENDBRANCH   6   7
ENDBRANCH   5   6
ENDBRANCH   3   5
ENDBRANCH   1   3
BRANCH   1  11
ATOM     11  C   UNL     1      16.772 -33.025  22.951  1.00  0.00     0.087 C 
BRANCH  11  12
ATOM     12  C   UNL     1      15.278 -33.245  22.560  1.00  0.00     0.066 C 
BRANCH  12  13
ATOM     13  C   UNL     1      15.085 -33.735  21.130  1.00  0.00     0.140 C 
ATOM     14  O   UNL     1      14.311 -33.163  20.377  1.00  0.00    -0.299 OA
BRANCH  13  15
ATOM     15  C   UNL     1      15.743 -35.021  20.693  1.00  0.00     0.106 CG0
ATOM     16  G   UNL     1      17.178 -34.895  20.185  1.00  0.00     0.000 G0
ENDBRANCH  13  15
ENDBRANCH  12  13
BRANCH  12  17
ATOM     17  C   UNL     1      14.303 -32.080  22.942  1.00  0.00    -0.006 C 
ATOM     18  C   UNL     1      13.803 -32.207  24.391  1.00  0.00     0.008 C 
ATOM     19  C   UNL     1      14.875 -30.673  22.713  1.00  0.00     0.008 C 
ENDBRANCH  12  17
ENDBRANCH  11  12
ENDBRANCH   1  11
TORSDOF 1
ENDMDL
MODEL 6
REMARK VINA RESULT:    -4.076      1.618      3.751
REMARK INTER + INTRA:          -6.520
REMARK INTER:                  -6.769
REMARK INTRA:                   0.248
REMARK UNBOUND:                -0.299
REMARK SMILES CC1=CCC[C@@H](C)C(=O)C[C@@H](C(C)C)C(=O)C1
REMARK SMILES IDX 8 1 9 2 6 3 7 4 5 5 4 6 3 7 2 8 1 9 10 11 11 12 15 13 16 14
REMARK SMILES IDX 17 15 12 17 13 18 14 19
REMARK H PARENT
REMARK Flexibility Score: 70.00
ROOT
ATOM      1  C   UNL     1      16.565 -29.074  22.051  1.00  0.00     0.136 C 
ATOM      2  O   UNL     1      16.369 -27.999  22.598  1.00  0.00    -0.299 OA
ENDROOT
BRANCH   1   3
ATOM      3  C   UNL     1      17.986 -29.514  21.724  1.00  0.00     0.053 C 
ATOM      4  C   UNL     1      18.810 -28.390  21.073  1.00  0.00     0.016 C 
BRANCH   3   5
ATOM      5  C   UNL     1      18.002 -30.797  20.865  1.00  0.00     0.015 C 
BRANCH   5   6
ATOM      6  C   UNL     1      18.451 -32.044  21.650  1.00  0.00     0.028 C 
BRANCH   6   7
ATOM      7  C   UNL     1      18.120 -33.346  20.964  1.00  0.00    -0.028 C 
ATOM      8  C   UNL     1      16.949 -34.031  21.047  1.00  0.00    -0.070 CG0
ATOM      9  C   UNL     1      16.791 -35.229  20.141  1.00  0.00     0.039 C 
ATOM     10  G   UNL     1      15.838 -33.744  22.056  1.00  0.00     0.000 G0
ENDBRANCH   6   7
ENDBRANCH   5   6
ENDBRANCH   3   5
ENDBRANCH   1   3
BRANCH   1  11
ATOM     11  C   UNL     1      15.391 -29.967  21.716  1.00  0.00     0.087 C 
BRANCH  11  12
ATOM     12  C   UNL     1      15.233 -31.242  22.601  1.00  0.00     0.066 C 
BRANCH  12  13
ATOM     13  C   UNL     1      14.987 -32.516  21.802  1.00  0.00     0.140 C 
ATOM     14  O   UNL     1      14.036 -32.596  21.038  1.00  0.00    -0.299 OA
BRANCH  13  15
ATOM     15  C   UNL     1      15.839 -33.733  22.067  1.00  0.00     0.106 CG0
ATOM     16  G   UNL     1      16.925 -34.022  21.032  1.00  0.00     0.000 G0
ENDBRANCH  13  15
ENDBRANCH  12  13
BRANCH  12  17
ATOM     17  C   UNL     1      14.268 -31.096  23.827  1.00  0.00    -0.006 C 
ATOM     18  C   UNL     1      13.008 -30.291  23.468  1.00  0.00     0.008 C 
ATOM     19  C   UNL     1      13.865 -32.427  24.479  1.00  0.00     0.008 C 
ENDBRANCH  12  17
ENDBRANCH  11  12
ENDBRANCH   1  11
TORSDOF 1
ENDMDL
MODEL 7
REMARK VINA RESULT:    -3.975      2.328      4.307
REMARK INTER + INTRA:          -6.366
REMARK INTER:                  -6.088
REMARK INTRA:                  -0.278
REMARK UNBOUND:                -0.299
REMARK SMILES CC1=CCC[C@@H](C)C(=O)C[C@@H](C(C)C)C(=O)C1
REMARK SMILES IDX 8 1 9 2 6 3 7 4 5 5 4 6 3 7 2 8 1 9 10 11 11 12 15 13 16 14
REMARK SMILES IDX 17 15 12 17 13 18 14 19
REMARK H PARENT
REMARK Flexibility Score: 70.00
ROOT
ATOM      1  C   UNL     1      13.347 -30.541  22.420  1.00  0.00     0.136 C 
ATOM      2  O   UNL     1      12.167 -30.696  22.140  1.00  0.00    -0.299 OA
ENDROOT
BRANCH   1   3
ATOM      3  C   UNL     1      13.778 -29.352  23.267  1.00  0.00     0.053 C 
ATOM      4  C   UNL     1      12.580 -28.582  23.847  1.00  0.00     0.016 C 
BRANCH   3   5
ATOM      5  C   UNL     1      14.730 -28.415  22.491  1.00  0.00     0.015 C 
BRANCH   5   6
ATOM      6  C   UNL     1      16.046 -28.133  23.242  1.00  0.00     0.028 C 
BRANCH   6   7
ATOM      7  C   UNL     1      17.275 -28.236  22.374  1.00  0.00    -0.028 C 
ATOM      8  C   UNL     1      18.002 -29.358  22.129  1.00  0.00    -0.070 CG0
ATOM      9  C   UNL     1      19.099 -29.251  21.096  1.00  0.00     0.039 C 
ATOM     10  G   UNL     1      17.863 -30.674  22.892  1.00  0.00     0.000 G0
ENDBRANCH   6   7
ENDBRANCH   5   6
ENDBRANCH   3   5
ENDBRANCH   1   3
BRANCH   1  11
ATOM     11  C   UNL     1      14.368 -31.544  21.932  1.00  0.00     0.087 C 
BRANCH  11  12
ATOM     12  C   UNL     1      15.535 -31.861  22.918  1.00  0.00     0.066 C 
BRANCH  12  13
ATOM     13  C   UNL     1      16.919 -31.694  22.303  1.00  0.00     0.140 C 
ATOM     14  O   UNL     1      17.304 -32.450  21.423  1.00  0.00    -0.299 OA
BRANCH  13  15
ATOM     15  C   UNL     1      17.872 -30.680  22.888  1.00  0.00     0.106 CG0
ATOM     16  G   UNL     1      18.002 -29.368  22.118  1.00  0.00     0.000 G0
ENDBRANCH  13  15
ENDBRANCH  12  13
BRANCH  12  17
ATOM     17  C   UNL     1      15.387 -33.191  23.733  1.00  0.00    -0.006 C 
ATOM     18  C   UNL     1      16.638 -33.484  24.578  1.00  0.00     0.008 C 
ATOM     19  C   UNL     1      14.135 -33.254  24.621  1.00  0.00     0.008 C 
ENDBRANCH  12  17
ENDBRANCH  11  12
ENDBRANCH   1  11
TORSDOF 1
ENDMDL
MODEL 8
REMARK VINA RESULT:    -3.929      2.827      5.037
REMARK INTER + INTRA:          -6.296
REMARK INTER:                  -5.859
REMARK INTRA:                  -0.436
REMARK UNBOUND:                -0.299
REMARK SMILES CC1=CCC[C@@H](C)C(=O)C[C@@H](C(C)C)C(=O)C1
REMARK SMILES IDX 8 1 9 2 6 3 7 4 5 5 4 6 3 7 2 8 1 9 10 11 11 12 15 13 16 14
REMARK SMILES IDX 17 15 12 17 13 18 14 19
REMARK H PARENT
REMARK Flexibility Score: 70.00
ROOT
ATOM      1  C   UNL     1      15.921 -34.621  20.932  1.00  0.00     0.136 C 
ATOM      2  O   UNL     1      15.014 -34.884  20.156  1.00  0.00    -0.299 OA
ENDROOT
BRANCH   1   3
ATOM      3  C   UNL     1      17.369 -34.820  20.506  1.00  0.00     0.053 C 
ATOM      4  C   UNL     1      17.709 -34.052  19.218  1.00  0.00     0.016 C 
BRANCH   3   5
ATOM      5  C   UNL     1      17.726 -36.318  20.383  1.00  0.00     0.015 C 
BRANCH   5   6
ATOM      6  C   UNL     1      18.360 -36.895  21.664  1.00  0.00     0.028 C 
BRANCH   6   7
ATOM      7  C   UNL     1      19.372 -35.979  22.306  1.00  0.00    -0.028 C 
ATOM      8  C   UNL     1      19.200 -35.246  23.438  1.00  0.00    -0.070 CG0
ATOM      9  C   UNL     1      20.412 -34.528  23.979  1.00  0.00     0.039 C 
ATOM     10  G   UNL     1      17.859 -35.011  24.130  1.00  0.00     0.000 G0
ENDBRANCH   6   7
ENDBRANCH   5   6
ENDBRANCH   3   5
ENDBRANCH   1   3
BRANCH   1  11
ATOM     11  C   UNL     1      15.594 -34.084  22.308  1.00  0.00     0.087 C 
BRANCH  11  12
ATOM     12  C   UNL     1      16.622 -33.074  22.905  1.00  0.00     0.066 C 
BRANCH  12  13
ATOM     13  C   UNL     1      17.346 -33.594  24.141  1.00  0.00     0.140 C 
ATOM     14  O   UNL     1      17.612 -32.842  25.067  1.00  0.00    -0.299 OA
BRANCH  13  15
ATOM     15  C   UNL     1      17.864 -35.011  24.154  1.00  0.00     0.106 CG0
ATOM     16  G   UNL     1      19.199 -35.238  23.445  1.00  0.00     0.000 G0
ENDBRANCH  13  15
ENDBRANCH  12  13
BRANCH  12  17
ATOM     17  C   UNL     1      16.102 -31.606  23.076  1.00  0.00    -0.006 C 
ATOM     18  C   UNL     1      16.347 -30.764  21.812  1.00  0.00     0.008 C 
ATOM     19  C   UNL     1      14.628 -31.499  23.493  1.00  0.00     0.008 C 
ENDBRANCH  12  17
ENDBRANCH  11  12
ENDBRANCH   1  11
TORSDOF 1
ENDMDL
MODEL 9
REMARK VINA RESULT:    -3.928      2.225      4.885
REMARK INTER + INTRA:          -6.294
REMARK INTER:                  -5.878
REMARK INTRA:                  -0.416
REMARK UNBOUND:                -0.299
REMARK SMILES CC1=CCC[C@@H](C)C(=O)C[C@@H](C(C)C)C(=O)C1
REMARK SMILES IDX 8 1 9 2 6 3 7 4 5 5 4 6 3 7 2 8 1 9 10 11 11 12 15 13 16 14
REMARK SMILES IDX 17 15 12 17 13 18 14 19
REMARK H PARENT
REMARK Flexibility Score: 70.00
ROOT
ATOM      1  C   UNL     1      15.634 -33.548  21.256  1.00  0.00     0.136 C 
ATOM      2  O   UNL     1      14.466 -33.518  20.896  1.00  0.00    -0.299 OA
ENDROOT
BRANCH   1   3
ATOM      3  C   UNL     1      16.713 -34.038  20.300  1.00  0.00     0.053 C 
ATOM      4  C   UNL     1      16.465 -35.481  19.831  1.00  0.00     0.016 C 
BRANCH   3   5
ATOM      5  C   UNL     1      18.126 -33.873  20.902  1.00  0.00     0.015 C 
BRANCH   5   6
ATOM      6  C   UNL     1      18.827 -32.577  20.452  1.00  0.00     0.028 C 
BRANCH   6   7
ATOM      7  C   UNL     1      19.874 -32.085  21.419  1.00  0.00    -0.028 C 
ATOM      8  C   UNL     1      19.678 -31.240  22.466  1.00  0.00    -0.070 CG0
ATOM      9  C   UNL     1      20.848 -31.017  23.394  1.00  0.00     0.039 C 
ATOM     10  G   UNL     1      18.408 -30.425  22.706  1.00  0.00     0.000 G0
ENDBRANCH   6   7
ENDBRANCH   5   6
ENDBRANCH   3   5
ENDBRANCH   1   3
BRANCH   1  11
ATOM     11  C   UNL     1      15.998 -33.083  22.649  1.00  0.00     0.087 C 
BRANCH  11  12
ATOM     12  C   UNL     1      16.052 -31.538  22.858  1.00  0.00     0.066 C 
BRANCH  12  13
ATOM     13  C   UNL     1      17.327 -31.056  23.538  1.00  0.00     0.140 C 
ATOM     14  O   UNL     1      17.431 -31.085  24.755  1.00  0.00    -0.299 OA
BRANCH  13  15
ATOM     15  C   UNL     1      18.407 -30.403  22.710  1.00  0.00     0.106 CG0
ATOM     16  G   UNL     1      19.663 -31.240  22.475  1.00  0.00     0.000 G0
ENDBRANCH  13  15
ENDBRANCH  12  13
BRANCH  12  17
ATOM     17  C   UNL     1      14.757 -30.894  23.462  1.00  0.00    -0.006 C 
ATOM     18  C   UNL     1      13.930 -30.165  22.390  1.00  0.00     0.008 C 
ATOM     19  C   UNL     1      13.860 -31.876  24.230  1.00  0.00     0.008 C 
ENDBRANCH  12  17
ENDBRANCH  11  12
ENDBRANCH   1  11
TORSDOF 1
ENDMDL
