MODEL 1
REMARK VINA RESULT:    -5.989      0.000      0.000
REMARK INTER + INTRA:          -9.554
REMARK INTER:                  -9.139
REMARK INTRA:                  -0.414
REMARK UNBOUND:                -0.414
REMARK SMILES CCCCCCCCCCC(=O)[O-]
REMARK SMILES IDX 7 1 8 2 9 3 10 4 11 5 12 6 13 7 6 8 5 9 4 10 3 11 2 12 1 13
REMARK H PARENT
REMARK Flexibility Score: inf
ROOT
ATOM      1  C   UNL     1      93.124 122.524 121.130  1.00  0.00     0.000 C 
ENDROOT
BRANCH   1   2
ATOM      2  C   UNL     1      93.111 122.185 122.630  1.00  0.00     0.000 C 
BRANCH   2   3
ATOM      3  C   UNL     1      93.452 123.393 123.518  1.00  0.00     0.006 C 
BRANCH   3   4
ATOM      4  C   UNL     1      93.985 122.969 124.893  1.00  0.00     0.053 C 
BRANCH   4   5
ATOM      5  C   UNL     1      95.448 123.260 125.035  1.00  0.00     0.041 C 
ATOM      6  O   UNL     1      95.972 123.332 126.178  1.00  0.00    -0.550 OA
ATOM      7  O   UNL     1      96.240 123.417 123.904  1.00  0.00    -0.550 OA
ENDBRANCH   4   5
ENDBRANCH   3   4
ENDBRANCH   2   3
ENDBRANCH   1   2
BRANCH   1   8
ATOM      8  C   UNL     1      94.355 121.965 120.383  1.00  0.00     0.000 C 
BRANCH   8   9
ATOM      9  C   UNL     1      94.293 122.246 118.871  1.00  0.00    -0.000 C 
BRANCH   9  10
ATOM     10  C   UNL     1      92.965 122.890 118.439  1.00  0.00    -0.000 C 
BRANCH  10  11
ATOM     11  C   UNL     1      92.049 121.908 117.687  1.00  0.00    -0.000 C 
BRANCH  11  12
ATOM     12  C   UNL     1      92.225 121.990 116.163  1.00  0.00    -0.003 C 
ATOM     13  C   UNL     1      92.956 120.779 115.583  1.00  0.00     0.004 C 
ENDBRANCH  11  12
ENDBRANCH  10  11
ENDBRANCH   9  10
ENDBRANCH   8   9
ENDBRANCH   1   8
TORSDOF 9
ENDMDL
MODEL 2
REMARK VINA RESULT:    -5.932      1.179      2.386
REMARK INTER + INTRA:          -9.467
REMARK INTER:                  -9.064
REMARK INTRA:                  -0.403
REMARK UNBOUND:                -0.414
REMARK SMILES CCCCCCCCCCC(=O)[O-]
REMARK SMILES IDX 7 1 8 2 9 3 10 4 11 5 12 6 13 7 6 8 5 9 4 10 3 11 2 12 1 13
REMARK H PARENT
REMARK Flexibility Score: inf
ROOT
ATOM      1  C   UNL     1      93.370 123.300 123.386  1.00  0.00     0.000 C 
ENDROOT
BRANCH   1   2
ATOM      2  C   UNL     1      93.473 122.863 124.857  1.00  0.00     0.000 C 
BRANCH   2   3
ATOM      3  C   UNL     1      94.916 122.882 125.386  1.00  0.00     0.006 C 
BRANCH   3   4
ATOM      4  C   UNL     1      95.746 124.015 124.767  1.00  0.00     0.053 C 
BRANCH   4   5
ATOM      5  C   UNL     1      96.999 124.275 125.546  1.00  0.00     0.041 C 
ATOM      6  O   UNL     1      97.389 125.456 125.743  1.00  0.00    -0.550 OA
ATOM      7  O   UNL     1      97.717 123.214 126.084  1.00  0.00    -0.550 OA
ENDBRANCH   4   5
ENDBRANCH   3   4
ENDBRANCH   2   3
ENDBRANCH   1   2
BRANCH   1   8
ATOM      8  C   UNL     1      93.061 122.138 122.418  1.00  0.00     0.000 C 
BRANCH   8   9
ATOM      9  C   UNL     1      93.142 122.573 120.944  1.00  0.00    -0.000 C 
BRANCH   9  10
ATOM     10  C   UNL     1      94.449 122.134 120.264  1.00  0.00    -0.000 C 
BRANCH  10  11
ATOM     11  C   UNL     1      94.356 122.167 118.728  1.00  0.00    -0.000 C 
BRANCH  11  12
ATOM     12  C   UNL     1      93.079 122.862 118.231  1.00  0.00    -0.003 C 
ATOM     13  C   UNL     1      92.180 121.936 117.411  1.00  0.00     0.004 C 
ENDBRANCH  11  12
ENDBRANCH  10  11
ENDBRANCH   9  10
ENDBRANCH   8   9
ENDBRANCH   1   8
TORSDOF 9
ENDMDL
MODEL 3
REMARK VINA RESULT:    -5.829      1.023      1.600
REMARK INTER + INTRA:          -9.310
REMARK INTER:                  -8.898
REMARK INTRA:                  -0.413
REMARK UNBOUND:                -0.414
REMARK SMILES CCCCCCCCCCC(=O)[O-]
REMARK SMILES IDX 7 1 8 2 9 3 10 4 11 5 12 6 13 7 6 8 5 9 4 10 3 11 2 12 1 13
REMARK H PARENT
REMARK Flexibility Score: inf
ROOT
ATOM      1  C   UNL     1      93.063 122.984 122.430  1.00  0.00     0.000 C 
ENDROOT
BRANCH   1   2
ATOM      2  C   UNL     1      93.503 122.682 123.872  1.00  0.00     0.000 C 
BRANCH   2   3
ATOM      3  C   UNL     1      94.504 123.712 124.419  1.00  0.00     0.006 C 
BRANCH   3   4
ATOM      4  C   UNL     1      95.504 123.084 125.400  1.00  0.00     0.053 C 
BRANCH   4   5
ATOM      5  C   UNL     1      96.766 123.886 125.495  1.00  0.00     0.041 C 
ATOM      6  O   UNL     1      97.774 123.413 126.083  1.00  0.00    -0.550 OA
ATOM      7  O   UNL     1      96.840 125.141 124.904  1.00  0.00    -0.550 OA
ENDBRANCH   4   5
ENDBRANCH   3   4
ENDBRANCH   2   3
ENDBRANCH   1   2
BRANCH   1   8
ATOM      8  C   UNL     1      93.425 121.866 121.428  1.00  0.00     0.000 C 
BRANCH   8   9
ATOM      9  C   UNL     1      94.610 122.257 120.527  1.00  0.00    -0.000 C 
BRANCH   9  10
ATOM     10  C   UNL     1      94.268 122.188 119.030  1.00  0.00    -0.000 C 
BRANCH  10  11
ATOM     11  C   UNL     1      92.879 122.769 118.713  1.00  0.00    -0.000 C 
BRANCH  11  12
ATOM     12  C   UNL     1      92.004 121.794 117.909  1.00  0.00    -0.003 C 
ATOM     13  C   UNL     1      92.391 121.729 116.431  1.00  0.00     0.004 C 
ENDBRANCH  11  12
ENDBRANCH  10  11
ENDBRANCH   9  10
ENDBRANCH   8   9
ENDBRANCH   1   8
TORSDOF 9
ENDMDL
MODEL 4
REMARK VINA RESULT:    -5.817      3.456      7.269
REMARK INTER + INTRA:          -9.291
REMARK INTER:                  -8.868
REMARK INTRA:                  -0.424
REMARK UNBOUND:                -0.414
REMARK SMILES CCCCCCCCCCC(=O)[O-]
REMARK SMILES IDX 7 1 8 2 9 3 10 4 11 5 12 6 13 7 6 8 5 9 4 10 3 11 2 12 1 13
REMARK H PARENT
REMARK Flexibility Score: inf
ROOT
ATOM      1  C   UNL     1      93.167 122.598 121.138  1.00  0.00     0.000 C 
ENDROOT
BRANCH   1   2
ATOM      2  C   UNL     1      94.497 122.226 120.460  1.00  0.00     0.000 C 
BRANCH   2   3
ATOM      3  C   UNL     1      94.463 122.415 118.934  1.00  0.00     0.006 C 
BRANCH   3   4
ATOM      4  C   UNL     1      93.999 121.147 118.203  1.00  0.00     0.053 C 
BRANCH   4   5
ATOM      5  C   UNL     1      92.733 121.382 117.436  1.00  0.00     0.041 C 
ATOM      6  O   UNL     1      91.680 121.719 118.040  1.00  0.00    -0.550 OA
ATOM      7  O   UNL     1      92.725 121.263 116.053  1.00  0.00    -0.550 OA
ENDBRANCH   4   5
ENDBRANCH   3   4
ENDBRANCH   2   3
ENDBRANCH   1   2
BRANCH   1   8
ATOM      8  C   UNL     1      93.107 122.212 122.631  1.00  0.00     0.000 C 
BRANCH   8   9
ATOM      9  C   UNL     1      93.480 123.389 123.550  1.00  0.00    -0.000 C 
BRANCH   9  10
ATOM     10  C   UNL     1      93.832 122.942 124.978  1.00  0.00    -0.000 C 
BRANCH  10  11
ATOM     11  C   UNL     1      95.348 122.930 125.238  1.00  0.00    -0.000 C 
BRANCH  11  12
ATOM     12  C   UNL     1      96.025 124.248 124.829  1.00  0.00    -0.003 C 
ATOM     13  C   UNL     1      97.116 124.684 125.807  1.00  0.00     0.004 C 
ENDBRANCH  11  12
ENDBRANCH  10  11
ENDBRANCH   9  10
ENDBRANCH   8   9
ENDBRANCH   1   8
TORSDOF 9
ENDMDL
MODEL 5
REMARK VINA RESULT:    -5.769      3.330      7.175
REMARK INTER + INTRA:          -9.219
REMARK INTER:                  -8.797
REMARK INTRA:                  -0.422
REMARK UNBOUND:                -0.414
REMARK SMILES CCCCCCCCCCC(=O)[O-]
REMARK SMILES IDX 7 1 8 2 9 3 10 4 11 5 12 6 13 7 6 8 5 9 4 10 3 11 2 12 1 13
REMARK H PARENT
REMARK Flexibility Score: inf
ROOT
ATOM      1  C   UNL     1      93.122 122.240 121.886  1.00  0.00     0.000 C 
ENDROOT
BRANCH   1   2
ATOM      2  C   UNL     1      94.168 122.267 120.758  1.00  0.00     0.000 C 
BRANCH   2   3
ATOM      3  C   UNL     1      94.127 121.009 119.875  1.00  0.00     0.006 C 
BRANCH   3   4
ATOM      4  C   UNL     1      94.011 121.352 118.383  1.00  0.00     0.053 C 
BRANCH   4   5
ATOM      5  C   UNL     1      92.792 122.174 118.096  1.00  0.00     0.041 C 
ATOM      6  O   UNL     1      91.651 121.641 118.113  1.00  0.00    -0.550 OA
ATOM      7  O   UNL     1      92.912 123.535 117.846  1.00  0.00    -0.550 OA
ENDBRANCH   4   5
ENDBRANCH   3   4
ENDBRANCH   2   3
ENDBRANCH   1   2
BRANCH   1   8
ATOM      8  C   UNL     1      93.364 123.306 122.976  1.00  0.00     0.000 C 
BRANCH   8   9
ATOM      9  C   UNL     1      93.134 122.749 124.392  1.00  0.00    -0.000 C 
BRANCH   9  10
ATOM     10  C   UNL     1      94.391 122.829 125.274  1.00  0.00    -0.000 C 
BRANCH  10  11
ATOM     11  C   UNL     1      95.415 123.853 124.754  1.00  0.00    -0.000 C 
BRANCH  11  12
ATOM     12  C   UNL     1      96.663 123.942 125.646  1.00  0.00    -0.003 C 
ATOM     13  C   UNL     1      97.330 125.316 125.598  1.00  0.00     0.004 C 
ENDBRANCH  11  12
ENDBRANCH  10  11
ENDBRANCH   9  10
ENDBRANCH   8   9
ENDBRANCH   1   8
TORSDOF 9
ENDMDL
MODEL 6
REMARK VINA RESULT:    -5.325      4.031      7.268
REMARK INTER + INTRA:          -8.542
REMARK INTER:                  -7.944
REMARK INTRA:                  -0.598
REMARK UNBOUND:                -0.414
REMARK SMILES CCCCCCCCCCC(=O)[O-]
REMARK SMILES IDX 7 1 8 2 9 3 10 4 11 5 12 6 13 7 6 8 5 9 4 10 3 11 2 12 1 13
REMARK H PARENT
REMARK Flexibility Score: inf
ROOT
ATOM      1  C   UNL     1      94.168 122.499 119.608  1.00  0.00     0.000 C 
ENDROOT
BRANCH   1   2
ATOM      2  C   UNL     1      92.679 122.798 119.366  1.00  0.00     0.000 C 
BRANCH   2   3
ATOM      3  C   UNL     1      91.985 121.724 118.513  1.00  0.00     0.006 C 
BRANCH   3   4
ATOM      4  C   UNL     1      92.943 121.078 117.502  1.00  0.00     0.053 C 
BRANCH   4   5
ATOM      5  C   UNL     1      92.641 121.507 116.099  1.00  0.00     0.041 C 
ATOM      6  O   UNL     1      92.873 120.730 115.136  1.00  0.00    -0.550 OA
ATOM      7  O   UNL     1      92.071 122.751 115.858  1.00  0.00    -0.550 OA
ENDBRANCH   4   5
ENDBRANCH   3   4
ENDBRANCH   2   3
ENDBRANCH   1   2
BRANCH   1   8
ATOM      8  C   UNL     1      94.515 122.254 121.093  1.00  0.00     0.000 C 
BRANCH   8   9
ATOM      9  C   UNL     1      93.280 122.375 122.004  1.00  0.00    -0.000 C 
BRANCH   9  10
ATOM     10  C   UNL     1      93.480 123.382 123.148  1.00  0.00    -0.000 C 
BRANCH  10  11
ATOM     11  C   UNL     1      93.447 122.715 124.535  1.00  0.00    -0.000 C 
BRANCH  11  12
ATOM     12  C   UNL     1      94.749 122.930 125.322  1.00  0.00    -0.003 C 
ATOM     13  C   UNL     1      95.816 123.669 124.514  1.00  0.00     0.004 C 
ENDBRANCH  11  12
ENDBRANCH  10  11
ENDBRANCH   9  10
ENDBRANCH   8   9
ENDBRANCH   1   8
TORSDOF 9
ENDMDL
MODEL 7
REMARK VINA RESULT:    -5.291      3.158      7.209
REMARK INTER + INTRA:          -8.490
REMARK INTER:                  -7.970
REMARK INTRA:                  -0.520
REMARK UNBOUND:                -0.414
REMARK SMILES CCCCCCCCCCC(=O)[O-]
REMARK SMILES IDX 7 1 8 2 9 3 10 4 11 5 12 6 13 7 6 8 5 9 4 10 3 11 2 12 1 13
REMARK H PARENT
REMARK Flexibility Score: inf
ROOT
ATOM      1  C   UNL     1      93.147 122.856 124.416  1.00  0.00     0.000 C 
ENDROOT
BRANCH   1   2
ATOM      2  C   UNL     1      92.713 122.302 123.049  1.00  0.00     0.000 C 
BRANCH   2   3
ATOM      3  C   UNL     1      93.692 122.665 121.919  1.00  0.00     0.006 C 
BRANCH   3   4
ATOM      4  C   UNL     1      93.611 121.681 120.744  1.00  0.00     0.053 C 
BRANCH   4   5
ATOM      5  C   UNL     1      93.547 122.394 119.428  1.00  0.00     0.041 C 
ATOM      6  O   UNL     1      92.436 122.760 118.960  1.00  0.00    -0.550 OA
ATOM      7  O   UNL     1      94.715 122.684 118.735  1.00  0.00    -0.550 OA
ENDBRANCH   4   5
ENDBRANCH   3   4
ENDBRANCH   2   3
ENDBRANCH   1   2
BRANCH   1   8
ATOM      8  C   UNL     1      94.514 123.574 124.385  1.00  0.00     0.000 C 
BRANCH   8   9
ATOM      9  C   UNL     1      95.444 123.100 125.516  1.00  0.00    -0.000 C 
BRANCH   9  10
ATOM     10  C   UNL     1      96.926 123.098 125.107  1.00  0.00    -0.000 C 
BRANCH  10  11
ATOM     11  C   UNL     1      97.811 123.886 126.088  1.00  0.00    -0.000 C 
BRANCH  11  12
ATOM     12  C   UNL     1      97.321 125.329 126.293  1.00  0.00    -0.003 C 
ATOM     13  C   UNL     1      97.487 126.195 125.044  1.00  0.00     0.004 C 
ENDBRANCH  11  12
ENDBRANCH  10  11
ENDBRANCH   9  10
ENDBRANCH   8   9
ENDBRANCH   1   8
TORSDOF 9
ENDMDL
MODEL 8
REMARK VINA RESULT:    -5.000      1.337      2.006
REMARK INTER + INTRA:          -8.045
REMARK INTER:                  -7.558
REMARK INTRA:                  -0.487
REMARK UNBOUND:                -0.414
REMARK SMILES CCCCCCCCCCC(=O)[O-]
REMARK SMILES IDX 7 1 8 2 9 3 10 4 11 5 12 6 13 7 6 8 5 9 4 10 3 11 2 12 1 13
REMARK H PARENT
REMARK Flexibility Score: inf
ROOT
ATOM      1  C   UNL     1      93.900 120.915 120.824  1.00  0.00     0.000 C 
ENDROOT
BRANCH   1   2
ATOM      2  C   UNL     1      92.870 121.728 121.626  1.00  0.00     0.000 C 
BRANCH   2   3
ATOM      3  C   UNL     1      93.502 122.900 122.396  1.00  0.00     0.006 C 
BRANCH   3   4
ATOM      4  C   UNL     1      93.138 122.877 123.886  1.00  0.00     0.053 C 
BRANCH   4   5
ATOM      5  C   UNL     1      94.301 123.268 124.747  1.00  0.00     0.041 C 
ATOM      6  O   UNL     1      94.965 124.304 124.480  1.00  0.00    -0.550 OA
ATOM      7  O   UNL     1      94.628 122.509 125.863  1.00  0.00    -0.550 OA
ENDBRANCH   4   5
ENDBRANCH   3   4
ENDBRANCH   2   3
ENDBRANCH   1   2
BRANCH   1   8
ATOM      8  C   UNL     1      94.458 121.667 119.596  1.00  0.00     0.000 C 
BRANCH   8   9
ATOM      9  C   UNL     1      94.081 120.979 118.273  1.00  0.00    -0.000 C 
BRANCH   9  10
ATOM     10  C   UNL     1      92.991 121.736 117.497  1.00  0.00    -0.000 C 
BRANCH  10  11
ATOM     11  C   UNL     1      92.536 123.018 118.216  1.00  0.00    -0.000 C 
BRANCH  11  12
ATOM     12  C   UNL     1      93.165 124.284 117.612  1.00  0.00    -0.003 C 
ATOM     13  C   UNL     1      92.516 124.697 116.291  1.00  0.00     0.004 C 
ENDBRANCH  11  12
ENDBRANCH  10  11
ENDBRANCH   9  10
ENDBRANCH   8   9
ENDBRANCH   1   8
TORSDOF 9
ENDMDL
MODEL 9
REMARK VINA RESULT:    -4.910      2.181      3.764
REMARK INTER + INTRA:          -7.908
REMARK INTER:                  -7.592
REMARK INTRA:                  -0.316
REMARK UNBOUND:                -0.414
REMARK SMILES CCCCCCCCCCC(=O)[O-]
REMARK SMILES IDX 7 1 8 2 9 3 10 4 11 5 12 6 13 7 6 8 5 9 4 10 3 11 2 12 1 13
REMARK H PARENT
REMARK Flexibility Score: inf
ROOT
ATOM      1  C   UNL     1      94.362 122.955 124.866  1.00  0.00     0.000 C 
ENDROOT
BRANCH   1   2
ATOM      2  C   UNL     1      95.822 123.411 124.699  1.00  0.00     0.000 C 
BRANCH   2   3
ATOM      3  C   UNL     1      96.658 123.218 125.975  1.00  0.00     0.006 C 
BRANCH   3   4
ATOM      4  C   UNL     1      97.900 124.120 125.996  1.00  0.00     0.053 C 
BRANCH   4   5
ATOM      5  C   UNL     1      97.530 125.571 126.058  1.00  0.00     0.041 C 
ATOM      6  O   UNL     1      97.212 126.096 127.157  1.00  0.00    -0.550 OA
ATOM      7  O   UNL     1      97.572 126.350 124.908  1.00  0.00    -0.550 OA
ENDBRANCH   4   5
ENDBRANCH   3   4
ENDBRANCH   2   3
ENDBRANCH   1   2
BRANCH   1   8
ATOM      8  C   UNL     1      93.372 123.710 123.953  1.00  0.00     0.000 C 
BRANCH   8   9
ATOM      9  C   UNL     1      92.755 122.791 122.884  1.00  0.00    -0.000 C 
BRANCH   9  10
ATOM     10  C   UNL     1      93.661 122.614 121.655  1.00  0.00    -0.000 C 
BRANCH  10  11
ATOM     11  C   UNL     1      93.148 121.527 120.694  1.00  0.00    -0.000 C 
BRANCH  11  12
ATOM     12  C   UNL     1      94.290 120.810 119.956  1.00  0.00    -0.003 C 
ATOM     13  C   UNL     1      94.583 121.417 118.584  1.00  0.00     0.004 C 
ENDBRANCH  11  12
ENDBRANCH  10  11
ENDBRANCH   9  10
ENDBRANCH   8   9
ENDBRANCH   1   8
TORSDOF 9
ENDMDL
