MODEL 1
REMARK VINA RESULT:    -4.704      0.000      0.000
REMARK INTER + INTRA:          -5.875
REMARK INTER:                  -6.629
REMARK INTRA:                   0.754
REMARK UNBOUND:                 0.754
REMARK SMILES CC1=CCC(=C(C)C)C(=O)CC(C)=CCC1
REMARK SMILES IDX 12 1 14 2 13 3 15 4 16 5 2 6 1 7 3 8 11 10 9 11 10 12 5 13
REMARK SMILES IDX 6 14 7 15 8 16 4 17
REMARK H PARENT
REMARK Flexibility Score: 60.00
ROOT
ATOM      1  C   UNL     1      17.427 -31.470  21.742  1.00  0.00    -0.070 C 
ATOM      2  C   UNL     1      18.120 -31.980  20.697  1.00  0.00    -0.027 C 
ATOM      3  C   UNL     1      16.983 -30.032  21.647  1.00  0.00     0.039 C 
ENDROOT
BRANCH   2   4
ATOM      4  C   UNL     1      18.568 -33.414  20.535  1.00  0.00     0.032 C 
BRANCH   4   5
ATOM      5  C   UNL     1      17.806 -34.150  19.418  1.00  0.00     0.034 C 
BRANCH   5   6
ATOM      6  C   UNL     1      16.772 -35.113  19.968  1.00  0.00    -0.077 C 
ATOM      7  C   UNL     1      17.140 -36.571  20.079  1.00  0.00     0.039 C 
ATOM      8  C   UNL     1      15.526 -34.744  20.341  1.00  0.00    -0.023 CG0
ATOM      9  G   UNL     1      14.962 -33.346  20.270  1.00  0.00     0.000 G0
ENDBRANCH   5   6
ENDBRANCH   4   5
ENDBRANCH   2   4
BRANCH   1  10
ATOM     10  C   UNL     1      17.022 -32.281  22.963  1.00  0.00     0.111 C 
BRANCH  10  11
ATOM     11  C   UNL     1      15.813 -33.138  22.684  1.00  0.00     0.163 C 
ATOM     12  O   UNL     1      15.701 -34.228  23.309  1.00  0.00    -0.294 OA
BRANCH  11  13
ATOM     13  C   UNL     1      14.790 -32.757  21.660  1.00  0.00    -0.002 C 
ATOM     14  C   UNL     1      13.797 -31.858  21.938  1.00  0.00    -0.069 C 
ATOM     15  C   UNL     1      13.720 -31.146  23.269  1.00  0.00     0.039 C 
ATOM     16  C   UNL     1      12.744 -31.506  20.909  1.00  0.00     0.039 C 
BRANCH  13  17
ATOM     17  C   UNL     1      14.946 -33.353  20.273  1.00  0.00     0.066 CG0
ATOM     18  G   UNL     1      15.534 -34.739  20.374  1.00  0.00     0.000 G0
ENDBRANCH  13  17
ENDBRANCH  11  13
ENDBRANCH  10  11
ENDBRANCH   1  10
TORSDOF 0
ENDMDL
MODEL 2
REMARK VINA RESULT:    -4.652      2.377      4.035
REMARK INTER + INTRA:          -5.802
REMARK INTER:                  -6.247
REMARK INTRA:                   0.445
REMARK UNBOUND:                 0.754
REMARK SMILES CC1=CCC(=C(C)C)C(=O)CC(C)=CCC1
REMARK SMILES IDX 12 1 14 2 13 3 15 4 16 5 2 6 1 7 3 8 11 10 9 11 10 12 5 13
REMARK SMILES IDX 6 14 7 15 8 16 4 17
REMARK H PARENT
REMARK Flexibility Score: 60.00
ROOT
ATOM      1  C   UNL     1      14.645 -32.960  22.402  1.00  0.00    -0.070 C 
ATOM      2  C   UNL     1      14.606 -33.187  21.068  1.00  0.00    -0.027 C 
ATOM      3  C   UNL     1      13.974 -31.710  22.915  1.00  0.00     0.039 C 
ENDROOT
BRANCH   2   4
ATOM      4  C   UNL     1      15.116 -34.416  20.354  1.00  0.00     0.032 C 
BRANCH   4   5
ATOM      5  C   UNL     1      16.604 -34.303  19.971  1.00  0.00     0.034 C 
BRANCH   5   6
ATOM      6  C   UNL     1      17.376 -35.568  20.293  1.00  0.00    -0.077 C 
ATOM      7  C   UNL     1      17.105 -36.801  19.468  1.00  0.00     0.039 C 
ATOM      8  C   UNL     1      18.275 -35.663  21.298  1.00  0.00    -0.023 CG0
ATOM      9  G   UNL     1      18.653 -34.556  22.251  1.00  0.00     0.000 G0
ENDBRANCH   5   6
ENDBRANCH   4   5
ENDBRANCH   2   4
BRANCH   1  10
ATOM     10  C   UNL     1      15.265 -33.920  23.403  1.00  0.00     0.111 C 
BRANCH  10  11
ATOM     11  C   UNL     1      16.721 -33.606  23.645  1.00  0.00     0.163 C 
ATOM     12  O   UNL     1      17.034 -32.416  23.920  1.00  0.00    -0.294 OA
BRANCH  11  13
ATOM     13  C   UNL     1      17.788 -34.647  23.513  1.00  0.00    -0.002 C 
ATOM     14  C   UNL     1      17.923 -35.656  24.427  1.00  0.00    -0.069 C 
ATOM     15  C   UNL     1      16.959 -35.818  25.580  1.00  0.00     0.039 C 
ATOM     16  C   UNL     1      19.028 -36.684  24.307  1.00  0.00     0.039 C 
BRANCH  13  17
ATOM     17  C   UNL     1      18.668 -34.581  22.279  1.00  0.00     0.066 CG0
ATOM     18  G   UNL     1      18.266 -35.661  21.304  1.00  0.00     0.000 G0
ENDBRANCH  13  17
ENDBRANCH  11  13
ENDBRANCH  10  11
ENDBRANCH   1  10
TORSDOF 0
ENDMDL
MODEL 3
REMARK VINA RESULT:    -4.620      1.805      3.914
REMARK INTER + INTRA:          -5.757
REMARK INTER:                  -6.257
REMARK INTRA:                   0.500
REMARK UNBOUND:                 0.754
REMARK SMILES CC1=CCC(=C(C)C)C(=O)CC(C)=CCC1
REMARK SMILES IDX 12 1 14 2 13 3 15 4 16 5 2 6 1 7 3 8 11 10 9 11 10 12 5 13
REMARK SMILES IDX 6 14 7 15 8 16 4 17
REMARK H PARENT
REMARK Flexibility Score: 60.00
ROOT
ATOM      1  C   UNL     1      13.795 -30.579  21.942  1.00  0.00    -0.070 C 
ATOM      2  C   UNL     1      13.350 -31.755  21.441  1.00  0.00    -0.027 C 
ATOM      3  C   UNL     1      12.894 -29.847  22.905  1.00  0.00     0.039 C 
ENDROOT
BRANCH   2   4
ATOM      4  C   UNL     1      14.124 -32.698  20.551  1.00  0.00     0.032 C 
BRANCH   4   5
ATOM      5  C   UNL     1      14.921 -33.747  21.349  1.00  0.00     0.034 C 
BRANCH   5   6
ATOM      6  C   UNL     1      16.286 -34.013  20.743  1.00  0.00    -0.077 C 
ATOM      7  C   UNL     1      16.366 -34.890  19.519  1.00  0.00     0.039 C 
ATOM      8  C   UNL     1      17.440 -33.529  21.253  1.00  0.00    -0.023 CG0
ATOM      9  G   UNL     1      17.569 -32.668  22.486  1.00  0.00     0.000 G0
ENDBRANCH   5   6
ENDBRANCH   4   5
ENDBRANCH   2   4
BRANCH   1  10
ATOM     10  C   UNL     1      15.166 -29.996  21.638  1.00  0.00     0.111 C 
BRANCH  10  11
ATOM     11  C   UNL     1      16.209 -30.498  22.605  1.00  0.00     0.163 C 
ATOM     12  O   UNL     1      16.040 -30.265  23.833  1.00  0.00    -0.294 OA
BRANCH  11  13
ATOM     13  C   UNL     1      17.444 -31.204  22.143  1.00  0.00    -0.002 C 
ATOM     14  C   UNL     1      18.450 -30.542  21.494  1.00  0.00    -0.069 C 
ATOM     15  C   UNL     1      18.403 -29.047  21.273  1.00  0.00     0.039 C 
ATOM     16  C   UNL     1      19.680 -31.271  20.997  1.00  0.00     0.039 C 
BRANCH  13  17
ATOM     17  C   UNL     1      17.569 -32.676  22.492  1.00  0.00     0.066 CG0
ATOM     18  G   UNL     1      17.452 -33.512  21.241  1.00  0.00     0.000 G0
ENDBRANCH  13  17
ENDBRANCH  11  13
ENDBRANCH  10  11
ENDBRANCH   1  10
TORSDOF 0
ENDMDL
MODEL 4
REMARK VINA RESULT:    -4.580      1.842      2.421
REMARK INTER + INTRA:          -5.700
REMARK INTER:                  -6.090
REMARK INTRA:                   0.389
REMARK UNBOUND:                 0.754
REMARK SMILES CC1=CCC(=C(C)C)C(=O)CC(C)=CCC1
REMARK SMILES IDX 12 1 14 2 13 3 15 4 16 5 2 6 1 7 3 8 11 10 9 11 10 12 5 13
REMARK SMILES IDX 6 14 7 15 8 16 4 17
REMARK H PARENT
REMARK Flexibility Score: 60.00
ROOT
ATOM      1  C   UNL     1      18.714 -30.692  21.171  1.00  0.00    -0.070 C 
ATOM      2  C   UNL     1      19.161 -31.861  20.653  1.00  0.00    -0.027 C 
ATOM      3  C   UNL     1      19.725 -29.592  21.377  1.00  0.00     0.039 C 
ENDROOT
BRANCH   2   4
ATOM      4  C   UNL     1      18.314 -33.050  20.268  1.00  0.00     0.032 C 
BRANCH   4   5
ATOM      5  C   UNL     1      17.857 -33.872  21.488  1.00  0.00     0.034 C 
BRANCH   5   6
ATOM      6  C   UNL     1      16.383 -34.222  21.424  1.00  0.00    -0.077 C 
ATOM      7  C   UNL     1      15.892 -35.037  20.254  1.00  0.00     0.039 C 
ATOM      8  C   UNL     1      15.476 -33.821  22.343  1.00  0.00    -0.023 CG0
ATOM      9  G   UNL     1      15.766 -32.974  23.558  1.00  0.00     0.000 G0
ENDBRANCH   5   6
ENDBRANCH   4   5
ENDBRANCH   2   4
BRANCH   1  10
ATOM     10  C   UNL     1      17.255 -30.413  21.489  1.00  0.00     0.111 C 
BRANCH  10  11
ATOM     11  C   UNL     1      16.914 -30.792  22.909  1.00  0.00     0.163 C 
ATOM     12  O   UNL     1      17.758 -30.538  23.810  1.00  0.00    -0.294 OA
BRANCH  11  13
ATOM     13  C   UNL     1      15.641 -31.498  23.257  1.00  0.00    -0.002 C 
ATOM     14  C   UNL     1      14.432 -30.860  23.219  1.00  0.00    -0.069 C 
ATOM     15  C   UNL     1      14.305 -29.427  22.755  1.00  0.00     0.039 C 
ATOM     16  C   UNL     1      13.154 -31.572  23.608  1.00  0.00     0.039 C 
BRANCH  13  17
ATOM     17  C   UNL     1      15.740 -32.978  23.580  1.00  0.00     0.066 CG0
ATOM     18  G   UNL     1      15.473 -33.793  22.338  1.00  0.00     0.000 G0
ENDBRANCH  13  17
ENDBRANCH  11  13
ENDBRANCH  10  11
ENDBRANCH   1  10
TORSDOF 0
ENDMDL
MODEL 5
REMARK VINA RESULT:    -4.580      1.904      4.707
REMARK INTER + INTRA:          -5.700
REMARK INTER:                  -6.529
REMARK INTRA:                   0.829
REMARK UNBOUND:                 0.754
REMARK SMILES CC1=CCC(=C(C)C)C(=O)CC(C)=CCC1
REMARK SMILES IDX 12 1 14 2 13 3 15 4 16 5 2 6 1 7 3 8 11 10 9 11 10 12 5 13
REMARK SMILES IDX 6 14 7 15 8 16 4 17
REMARK H PARENT
REMARK Flexibility Score: 60.00
ROOT
ATOM      1  C   UNL     1      15.886 -33.924  23.488  1.00  0.00    -0.070 C 
ATOM      2  C   UNL     1      15.288 -33.118  24.395  1.00  0.00    -0.027 C 
ATOM      3  C   UNL     1      17.264 -34.441  23.818  1.00  0.00     0.039 C 
ENDROOT
BRANCH   2   4
ATOM      4  C   UNL     1      13.880 -32.576  24.320  1.00  0.00     0.032 C 
BRANCH   4   5
ATOM      5  C   UNL     1      13.827 -31.139  23.768  1.00  0.00     0.034 C 
BRANCH   5   6
ATOM      6  C   UNL     1      13.567 -31.107  22.275  1.00  0.00    -0.077 C 
ATOM      7  C   UNL     1      12.137 -31.109  21.798  1.00  0.00     0.039 C 
ATOM      8  C   UNL     1      14.547 -31.105  21.343  1.00  0.00    -0.023 CG0
ATOM      9  G   UNL     1      16.030 -31.137  21.621  1.00  0.00     0.000 G0
ENDBRANCH   5   6
ENDBRANCH   4   5
ENDBRANCH   2   4
BRANCH   1  10
ATOM     10  C   UNL     1      15.223 -34.384  22.200  1.00  0.00     0.111 C 
BRANCH  10  11
ATOM     11  C   UNL     1      15.721 -33.602  21.009  1.00  0.00     0.163 C 
ATOM     12  O   UNL     1      15.372 -33.986  19.860  1.00  0.00    -0.294 OA
BRANCH  11  13
ATOM     13  C   UNL     1      16.647 -32.436  21.158  1.00  0.00    -0.002 C 
ATOM     14  C   UNL     1      17.971 -32.524  20.829  1.00  0.00    -0.069 C 
ATOM     15  C   UNL     1      18.558 -33.782  20.229  1.00  0.00     0.039 C 
ATOM     16  C   UNL     1      18.909 -31.351  21.017  1.00  0.00     0.039 C 
BRANCH  13  17
ATOM     17  C   UNL     1      16.036 -31.125  21.618  1.00  0.00     0.066 CG0
ATOM     18  G   UNL     1      14.555 -31.120  21.330  1.00  0.00     0.000 G0
ENDBRANCH  13  17
ENDBRANCH  11  13
ENDBRANCH  10  11
ENDBRANCH   1  10
TORSDOF 0
ENDMDL
MODEL 6
REMARK VINA RESULT:    -4.532      1.470      3.989
REMARK INTER + INTRA:          -5.633
REMARK INTER:                  -6.292
REMARK INTRA:                   0.659
REMARK UNBOUND:                 0.754
REMARK SMILES CC1=CCC(=C(C)C)C(=O)CC(C)=CCC1
REMARK SMILES IDX 12 1 14 2 13 3 15 4 16 5 2 6 1 7 3 8 11 10 9 11 10 12 5 13
REMARK SMILES IDX 6 14 7 15 8 16 4 17
REMARK H PARENT
REMARK Flexibility Score: 60.00
ROOT
ATOM      1  C   UNL     1      17.089 -30.020  22.384  1.00  0.00    -0.070 C 
ATOM      2  C   UNL     1      15.917 -29.451  22.016  1.00  0.00    -0.027 C 
ATOM      3  C   UNL     1      18.305 -29.713  21.545  1.00  0.00     0.039 C 
ENDROOT
BRANCH   2   4
ATOM      4  C   UNL     1      14.609 -29.535  22.765  1.00  0.00     0.032 C 
BRANCH   4   5
ATOM      5  C   UNL     1      14.227 -30.981  23.131  1.00  0.00     0.034 C 
BRANCH   5   6
ATOM      6  C   UNL     1      13.955 -31.830  21.904  1.00  0.00    -0.077 C 
ATOM      7  C   UNL     1      12.891 -31.371  20.939  1.00  0.00     0.039 C 
ATOM      8  C   UNL     1      14.593 -32.992  21.639  1.00  0.00    -0.023 CG0
ATOM      9  G   UNL     1      15.656 -33.631  22.499  1.00  0.00     0.000 G0
ENDBRANCH   5   6
ENDBRANCH   4   5
ENDBRANCH   2   4
BRANCH   1  10
ATOM     10  C   UNL     1      17.255 -30.888  23.621  1.00  0.00     0.111 C 
BRANCH  10  11
ATOM     11  C   UNL     1      17.707 -32.283  23.264  1.00  0.00     0.163 C 
ATOM     12  O   UNL     1      18.708 -32.755  23.869  1.00  0.00    -0.294 OA
BRANCH  11  13
ATOM     13  C   UNL     1      17.039 -33.082  22.190  1.00  0.00    -0.002 C 
ATOM     14  C   UNL     1      17.659 -33.346  21.000  1.00  0.00    -0.069 C 
ATOM     15  C   UNL     1      19.080 -32.906  20.731  1.00  0.00     0.039 C 
ATOM     16  C   UNL     1      16.961 -34.123  19.905  1.00  0.00     0.039 C 
BRANCH  13  17
ATOM     17  C   UNL     1      15.670 -33.655  22.508  1.00  0.00     0.066 CG0
ATOM     18  G   UNL     1      14.622 -32.984  21.653  1.00  0.00     0.000 G0
ENDBRANCH  13  17
ENDBRANCH  11  13
ENDBRANCH  10  11
ENDBRANCH   1  10
TORSDOF 0
ENDMDL
MODEL 7
REMARK VINA RESULT:    -4.486      2.168      4.154
REMARK INTER + INTRA:          -5.567
REMARK INTER:                  -5.956
REMARK INTRA:                   0.388
REMARK UNBOUND:                 0.754
REMARK SMILES CC1=CCC(=C(C)C)C(=O)CC(C)=CCC1
REMARK SMILES IDX 12 1 14 2 13 3 15 4 16 5 2 6 1 7 3 8 11 10 9 11 10 12 5 13
REMARK SMILES IDX 6 14 7 15 8 16 4 17
REMARK H PARENT
REMARK Flexibility Score: 60.00
ROOT
ATOM      1  C   UNL     1      15.512 -31.346  23.303  1.00  0.00    -0.070 C 
ATOM      2  C   UNL     1      16.073 -30.423  22.487  1.00  0.00    -0.027 C 
ATOM      3  C   UNL     1      14.028 -31.239  23.557  1.00  0.00     0.039 C 
ENDROOT
BRANCH   2   4
ATOM      4  C   UNL     1      17.508 -30.402  22.015  1.00  0.00     0.032 C 
BRANCH   4   5
ATOM      5  C   UNL     1      17.774 -31.413  20.884  1.00  0.00     0.034 C 
BRANCH   5   6
ATOM      6  C   UNL     1      19.063 -32.183  21.097  1.00  0.00    -0.077 C 
ATOM      7  C   UNL     1      20.365 -31.424  21.054  1.00  0.00     0.039 C 
ATOM      8  C   UNL     1      19.114 -33.519  21.296  1.00  0.00    -0.023 CG0
ATOM      9  G   UNL     1      17.928 -34.452  21.334  1.00  0.00     0.000 G0
ENDBRANCH   5   6
ENDBRANCH   4   5
ENDBRANCH   2   4
BRANCH   1  10
ATOM     10  C   UNL     1      16.276 -32.508  23.916  1.00  0.00     0.111 C 
BRANCH  10  11
ATOM     11  C   UNL     1      16.184 -33.747  23.059  1.00  0.00     0.163 C 
ATOM     12  O   UNL     1      15.045 -34.103  22.651  1.00  0.00    -0.294 OA
BRANCH  11  13
ATOM     13  C   UNL     1      17.386 -34.577  22.736  1.00  0.00    -0.002 C 
ATOM     14  C   UNL     1      17.924 -35.447  23.644  1.00  0.00    -0.069 C 
ATOM     15  C   UNL     1      17.292 -35.670  25.000  1.00  0.00     0.039 C 
ATOM     16  C   UNL     1      19.162 -36.255  23.322  1.00  0.00     0.039 C 
BRANCH  13  17
ATOM     17  C   UNL     1      17.938 -34.471  21.326  1.00  0.00     0.066 CG0
ATOM     18  G   UNL     1      19.116 -33.527  21.307  1.00  0.00     0.000 G0
ENDBRANCH  13  17
ENDBRANCH  11  13
ENDBRANCH  10  11
ENDBRANCH   1  10
TORSDOF 0
ENDMDL
MODEL 8
REMARK VINA RESULT:    -4.429      1.837      4.356
REMARK INTER + INTRA:          -5.488
REMARK INTER:                  -6.006
REMARK INTRA:                   0.518
REMARK UNBOUND:                 0.754
REMARK SMILES CC1=CCC(=C(C)C)C(=O)CC(C)=CCC1
REMARK SMILES IDX 12 1 14 2 13 3 15 4 16 5 2 6 1 7 3 8 11 10 9 11 10 12 5 13
REMARK SMILES IDX 6 14 7 15 8 16 4 17
REMARK H PARENT
REMARK Flexibility Score: 60.00
ROOT
ATOM      1  C   UNL     1      14.058 -31.082  21.948  1.00  0.00    -0.070 C 
ATOM      2  C   UNL     1      14.814 -29.979  22.159  1.00  0.00    -0.027 C 
ATOM      3  C   UNL     1      12.589 -30.992  22.279  1.00  0.00     0.039 C 
ENDROOT
BRANCH   2   4
ATOM      4  C   UNL     1      16.272 -29.813  21.803  1.00  0.00     0.032 C 
BRANCH   4   5
ATOM      5  C   UNL     1      17.214 -30.374  22.885  1.00  0.00     0.034 C 
BRANCH   5   6
ATOM      6  C   UNL     1      18.385 -31.131  22.289  1.00  0.00    -0.077 C 
ATOM      7  C   UNL     1      19.401 -30.358  21.485  1.00  0.00     0.039 C 
ATOM      8  C   UNL     1      18.558 -32.465  22.414  1.00  0.00    -0.023 CG0
ATOM      9  G   UNL     1      17.635 -33.410  23.144  1.00  0.00     0.000 G0
ENDBRANCH   5   6
ENDBRANCH   4   5
ENDBRANCH   2   4
BRANCH   1  10
ATOM     10  C   UNL     1      14.593 -32.369  21.341  1.00  0.00     0.111 C 
BRANCH  10  11
ATOM     11  C   UNL     1      15.189 -33.273  22.391  1.00  0.00     0.163 C 
ATOM     12  O   UNL     1      14.541 -33.449  23.459  1.00  0.00    -0.294 OA
BRANCH  11  13
ATOM     13  C   UNL     1      16.531 -33.911  22.219  1.00  0.00    -0.002 C 
ATOM     14  C   UNL     1      16.770 -34.827  21.232  1.00  0.00    -0.069 C 
ATOM     15  C   UNL     1      15.711 -35.193  20.216  1.00  0.00     0.039 C 
ATOM     16  C   UNL     1      18.120 -35.495  21.088  1.00  0.00     0.039 C 
BRANCH  13  17
ATOM     17  C   UNL     1      17.642 -33.440  23.140  1.00  0.00     0.066 CG0
ATOM     18  G   UNL     1      18.537 -32.469  22.409  1.00  0.00     0.000 G0
ENDBRANCH  13  17
ENDBRANCH  11  13
ENDBRANCH  10  11
ENDBRANCH   1  10
TORSDOF 0
ENDMDL
MODEL 9
REMARK VINA RESULT:    -4.428      2.272      4.893
REMARK INTER + INTRA:          -5.486
REMARK INTER:                  -5.878
REMARK INTRA:                   0.393
REMARK UNBOUND:                 0.754
REMARK SMILES CC1=CCC(=C(C)C)C(=O)CC(C)=CCC1
REMARK SMILES IDX 12 1 14 2 13 3 15 4 16 5 2 6 1 7 3 8 11 10 9 11 10 12 5 13
REMARK SMILES IDX 6 14 7 15 8 16 4 17
REMARK H PARENT
REMARK Flexibility Score: 60.00
ROOT
ATOM      1  C   UNL     1      15.958 -34.692  20.723  1.00  0.00    -0.070 C 
ATOM      2  C   UNL     1      14.958 -33.902  20.268  1.00  0.00    -0.027 C 
ATOM      3  C   UNL     1      16.673 -35.559  19.716  1.00  0.00     0.039 C 
ENDROOT
BRANCH   2   4
ATOM      4  C   UNL     1      14.184 -32.885  21.073  1.00  0.00     0.032 C 
BRANCH   4   5
ATOM      5  C   UNL     1      15.009 -31.621  21.380  1.00  0.00     0.034 C 
BRANCH   5   6
ATOM      6  C   UNL     1      14.956 -31.246  22.848  1.00  0.00    -0.077 C 
ATOM      7  C   UNL     1      13.617 -30.903  23.452  1.00  0.00     0.039 C 
ATOM      8  C   UNL     1      16.047 -31.174  23.644  1.00  0.00    -0.023 CG0
ATOM      9  G   UNL     1      17.469 -31.442  23.217  1.00  0.00     0.000 G0
ENDBRANCH   5   6
ENDBRANCH   4   5
ENDBRANCH   2   4
BRANCH   1  10
ATOM     10  C   UNL     1      16.436 -34.703  22.166  1.00  0.00     0.111 C 
BRANCH  10  11
ATOM     11  C   UNL     1      17.672 -33.857  22.347  1.00  0.00     0.163 C 
ATOM     12  O   UNL     1      18.618 -34.004  21.526  1.00  0.00    -0.294 OA
BRANCH  11  13
ATOM     13  C   UNL     1      17.820 -32.904  23.492  1.00  0.00    -0.002 C 
ATOM     14  C   UNL     1      18.299 -33.310  24.707  1.00  0.00    -0.069 C 
ATOM     15  C   UNL     1      18.775 -34.726  24.940  1.00  0.00     0.039 C 
ATOM     16  C   UNL     1      18.410 -32.348  25.870  1.00  0.00     0.039 C 
BRANCH  13  17
ATOM     17  C   UNL     1      17.486 -31.448  23.224  1.00  0.00     0.066 CG0
ATOM     18  G   UNL     1      16.062 -31.165  23.635  1.00  0.00     0.000 G0
ENDBRANCH  13  17
ENDBRANCH  11  13
ENDBRANCH  10  11
ENDBRANCH   1  10
TORSDOF 0
ENDMDL
