MODEL 1
REMARK VINA RESULT:    -5.737      0.000      0.000
REMARK INTER + INTRA:          -8.928
REMARK INTER:                  -7.749
REMARK INTRA:                  -1.179
REMARK UNBOUND:                -1.179
REMARK SMILES CC(=O)CCC=C(C)CCC=C(C)C
REMARK SMILES IDX 7 1 6 2 8 3 9 4 10 5 11 6 13 7 12 8 14 9 5 10 4 11 2 12 3 13
REMARK SMILES IDX 1 14
REMARK H PARENT
REMARK Flexibility Score: inf
ROOT
ATOM      1  C   UNL     1     103.038 132.392  51.413  1.00  0.00    -0.077 C 
ATOM      2  C   UNL     1     103.459 133.361  52.259  1.00  0.00    -0.028 C 
ATOM      3  C   UNL     1     103.174 132.523  49.914  1.00  0.00     0.039 C 
ENDROOT
BRANCH   1   4
ATOM      4  C   UNL     1     102.462 131.112  51.982  1.00  0.00     0.034 C 
BRANCH   4   5
ATOM      5  C   UNL     1     100.928 131.126  51.977  1.00  0.00     0.032 C 
BRANCH   5   6
ATOM      6  C   UNL     1     100.382 132.105  52.991  1.00  0.00    -0.028 C 
ATOM      7  C   UNL     1      99.429 133.647  51.260  1.00  0.00     0.039 C 
ATOM      8  C   UNL     1      99.693 133.228  52.684  1.00  0.00    -0.080 C 
ATOM      9  C   UNL     1      99.137 134.090  53.788  1.00  0.00     0.039 C 
ENDBRANCH   5   6
ENDBRANCH   4   5
ENDBRANCH   1   4
BRANCH   2  10
ATOM     10  C   UNL     1     104.057 134.674  51.823  1.00  0.00     0.035 C 
BRANCH  10  11
ATOM     11  C   UNL     1     102.979 135.767  51.756  1.00  0.00     0.079 C 
BRANCH  11  12
ATOM     12  C   UNL     1     102.718 136.302  50.366  1.00  0.00     0.130 C 
ATOM     13  O   UNL     1     103.671 136.692  49.709  1.00  0.00    -0.300 OA
ATOM     14  C   UNL     1     101.343 136.379  49.762  1.00  0.00     0.087 C 
ENDBRANCH  11  12
ENDBRANCH  10  11
ENDBRANCH   2  10
TORSDOF 6
ENDMDL
MODEL 2
REMARK VINA RESULT:    -5.618      1.144      3.520
REMARK INTER + INTRA:          -8.767
REMARK INTER:                  -7.434
REMARK INTRA:                  -1.333
REMARK UNBOUND:                -1.179
REMARK SMILES CC(=O)CCC=C(C)CCC=C(C)C
REMARK SMILES IDX 7 1 6 2 8 3 9 4 10 5 11 6 13 7 12 8 14 9 5 10 4 11 2 12 3 13
REMARK SMILES IDX 1 14
REMARK H PARENT
REMARK Flexibility Score: inf
ROOT
ATOM      1  C   UNL     1      99.720 133.051  52.218  1.00  0.00    -0.077 C 
ATOM      2  C   UNL     1      99.737 133.379  50.905  1.00  0.00    -0.028 C 
ATOM      3  C   UNL     1      99.426 134.069  53.294  1.00  0.00     0.039 C 
ENDROOT
BRANCH   1   4
ATOM      4  C   UNL     1      99.951 131.610  52.622  1.00  0.00     0.034 C 
BRANCH   4   5
ATOM      5  C   UNL     1     101.297 131.082  52.109  1.00  0.00     0.032 C 
BRANCH   5   6
ATOM      6  C   UNL     1     102.436 131.991  52.511  1.00  0.00    -0.028 C 
ATOM      7  C   UNL     1     103.153 132.440  50.152  1.00  0.00     0.039 C 
ATOM      8  C   UNL     1     103.262 132.620  51.645  1.00  0.00    -0.080 C 
ATOM      9  C   UNL     1     104.319 133.559  52.168  1.00  0.00     0.039 C 
ENDBRANCH   5   6
ENDBRANCH   4   5
ENDBRANCH   1   4
BRANCH   2  10
ATOM     10  C   UNL     1      99.515 134.771  50.370  1.00  0.00     0.035 C 
BRANCH  10  11
ATOM     11  C   UNL     1     100.765 135.277  49.634  1.00  0.00     0.079 C 
BRANCH  11  12
ATOM     12  C   UNL     1     101.766 135.986  50.519  1.00  0.00     0.130 C 
ATOM     13  O   UNL     1     101.435 136.258  51.663  1.00  0.00    -0.300 OA
ATOM     14  C   UNL     1     103.142 136.374  50.052  1.00  0.00     0.087 C 
ENDBRANCH  11  12
ENDBRANCH  10  11
ENDBRANCH   2  10
TORSDOF 6
ENDMDL
MODEL 3
REMARK VINA RESULT:    -5.491      1.780      4.220
REMARK INTER + INTRA:          -8.595
REMARK INTER:                  -7.569
REMARK INTRA:                  -1.026
REMARK UNBOUND:                -1.179
REMARK SMILES CC(=O)CCC=C(C)CCC=C(C)C
REMARK SMILES IDX 7 1 6 2 8 3 9 4 10 5 11 6 13 7 12 8 14 9 5 10 4 11 2 12 3 13
REMARK SMILES IDX 1 14
REMARK H PARENT
REMARK Flexibility Score: inf
ROOT
ATOM      1  C   UNL     1     103.351 132.842  51.528  1.00  0.00    -0.077 C 
ATOM      2  C   UNL     1     102.639 132.344  52.566  1.00  0.00    -0.028 C 
ATOM      3  C   UNL     1     103.086 132.423  50.101  1.00  0.00     0.039 C 
ENDROOT
BRANCH   1   4
ATOM      4  C   UNL     1     104.411 133.890  51.795  1.00  0.00     0.034 C 
BRANCH   4   5
ATOM      5  C   UNL     1     103.808 135.179  52.366  1.00  0.00     0.032 C 
BRANCH   5   6
ATOM      6  C   UNL     1     102.507 135.531  51.680  1.00  0.00    -0.028 C 
ATOM      7  C   UNL     1     103.625 136.532  49.672  1.00  0.00     0.039 C 
ATOM      8  C   UNL     1     102.411 136.119  50.466  1.00  0.00    -0.080 C 
ATOM      9  C   UNL     1     101.054 136.355  49.854  1.00  0.00     0.039 C 
ENDBRANCH   5   6
ENDBRANCH   4   5
ENDBRANCH   1   4
BRANCH   2  10
ATOM     10  C   UNL     1     101.554 131.305  52.437  1.00  0.00     0.035 C 
BRANCH  10  11
ATOM     11  C   UNL     1     100.260 131.784  53.112  1.00  0.00     0.079 C 
BRANCH  11  12
ATOM     12  C   UNL     1      99.740 133.108  52.598  1.00  0.00     0.130 C 
ATOM     13  O   UNL     1      99.597 134.022  53.395  1.00  0.00    -0.300 OA
ATOM     14  C   UNL     1      99.389 133.346  51.155  1.00  0.00     0.087 C 
ENDBRANCH  11  12
ENDBRANCH  10  11
ENDBRANCH   2  10
TORSDOF 6
ENDMDL
MODEL 4
REMARK VINA RESULT:    -5.354      1.778      4.186
REMARK INTER + INTRA:          -8.411
REMARK INTER:                  -6.984
REMARK INTRA:                  -1.428
REMARK UNBOUND:                -1.179
REMARK SMILES CC(=O)CCC=C(C)CCC=C(C)C
REMARK SMILES IDX 7 1 6 2 8 3 9 4 10 5 11 6 13 7 12 8 14 9 5 10 4 11 2 12 3 13
REMARK SMILES IDX 1 14
REMARK H PARENT
REMARK Flexibility Score: inf
ROOT
ATOM      1  C   UNL     1     102.038 131.318  51.415  1.00  0.00    -0.077 C 
ATOM      2  C   UNL     1     100.806 131.877  51.384  1.00  0.00    -0.028 C 
ATOM      3  C   UNL     1     102.576 130.631  52.648  1.00  0.00     0.039 C 
ENDROOT
BRANCH   1   4
ATOM      4  C   UNL     1     102.888 131.334  50.161  1.00  0.00     0.034 C 
BRANCH   4   5
ATOM      5  C   UNL     1     103.303 132.758  49.770  1.00  0.00     0.032 C 
BRANCH   5   6
ATOM      6  C   UNL     1     103.868 133.511  50.952  1.00  0.00    -0.028 C 
ATOM      7  C   UNL     1     102.331 135.471  50.672  1.00  0.00     0.039 C 
ATOM      8  C   UNL     1     103.430 134.718  51.378  1.00  0.00    -0.080 C 
ATOM      9  C   UNL     1     104.028 135.337  52.615  1.00  0.00     0.039 C 
ENDBRANCH   5   6
ENDBRANCH   4   5
ENDBRANCH   1   4
BRANCH   2  10
ATOM     10  C   UNL     1      99.859 131.922  52.557  1.00  0.00     0.035 C 
BRANCH  10  11
ATOM     11  C   UNL     1      99.514 133.374  52.921  1.00  0.00     0.079 C 
BRANCH  11  12
ATOM     12  C   UNL     1     100.513 134.042  53.840  1.00  0.00     0.130 C 
ATOM     13  O   UNL     1     100.643 135.254  53.770  1.00  0.00    -0.300 OA
ATOM     14  C   UNL     1     101.352 133.281  54.830  1.00  0.00     0.087 C 
ENDBRANCH  11  12
ENDBRANCH  10  11
ENDBRANCH   2  10
TORSDOF 6
ENDMDL
MODEL 5
REMARK VINA RESULT:    -5.291      1.978      3.162
REMARK INTER + INTRA:          -8.325
REMARK INTER:                  -7.004
REMARK INTRA:                  -1.321
REMARK UNBOUND:                -1.179
REMARK SMILES CC(=O)CCC=C(C)CCC=C(C)C
REMARK SMILES IDX 7 1 6 2 8 3 9 4 10 5 11 6 13 7 12 8 14 9 5 10 4 11 2 12 3 13
REMARK SMILES IDX 1 14
REMARK H PARENT
REMARK Flexibility Score: inf
ROOT
ATOM      1  C   UNL     1     103.396 133.692  50.665  1.00  0.00    -0.077 C 
ATOM      2  C   UNL     1     102.562 134.753  50.559  1.00  0.00    -0.028 C 
ATOM      3  C   UNL     1     104.449 133.607  51.745  1.00  0.00     0.039 C 
ENDROOT
BRANCH   1   4
ATOM      4  C   UNL     1     103.239 132.529  49.708  1.00  0.00     0.034 C 
BRANCH   4   5
ATOM      5  C   UNL     1     102.753 131.263  50.423  1.00  0.00     0.032 C 
BRANCH   5   6
ATOM      6  C   UNL     1     101.467 131.514  51.177  1.00  0.00    -0.028 C 
ATOM      7  C   UNL     1     102.434 130.891  53.403  1.00  0.00     0.039 C 
ATOM      8  C   UNL     1     101.315 131.370  52.513  1.00  0.00    -0.080 C 
ATOM      9  C   UNL     1      99.999 131.720  53.159  1.00  0.00     0.039 C 
ENDBRANCH   5   6
ENDBRANCH   4   5
ENDBRANCH   1   4
BRANCH   2  10
ATOM     10  C   UNL     1     102.608 135.968  51.451  1.00  0.00     0.035 C 
BRANCH  10  11
ATOM     11  C   UNL     1     101.581 135.847  52.587  1.00  0.00     0.079 C 
BRANCH  11  12
ATOM     12  C   UNL     1     102.189 135.708  53.965  1.00  0.00     0.130 C 
ATOM     13  O   UNL     1     102.625 136.711  54.508  1.00  0.00    -0.300 OA
ATOM     14  C   UNL     1     102.284 134.394  54.690  1.00  0.00     0.087 C 
ENDBRANCH  11  12
ENDBRANCH  10  11
ENDBRANCH   2  10
TORSDOF 6
ENDMDL
MODEL 6
REMARK VINA RESULT:    -5.247      1.895      3.233
REMARK INTER + INTRA:          -8.266
REMARK INTER:                  -6.782
REMARK INTRA:                  -1.483
REMARK UNBOUND:                -1.179
REMARK SMILES CC(=O)CCC=C(C)CCC=C(C)C
REMARK SMILES IDX 7 1 6 2 8 3 9 4 10 5 11 6 13 7 12 8 14 9 5 10 4 11 2 12 3 13
REMARK SMILES IDX 1 14
REMARK H PARENT
REMARK Flexibility Score: inf
ROOT
ATOM      1  C   UNL     1     102.031 132.807  50.801  1.00  0.00    -0.077 C 
ATOM      2  C   UNL     1     101.765 134.023  51.333  1.00  0.00    -0.028 C 
ATOM      3  C   UNL     1     103.245 132.559  49.938  1.00  0.00     0.039 C 
ENDROOT
BRANCH   1   4
ATOM      4  C   UNL     1     101.116 131.644  51.123  1.00  0.00     0.034 C 
BRANCH   4   5
ATOM      5  C   UNL     1     101.035 131.381  52.632  1.00  0.00     0.032 C 
BRANCH   5   6
ATOM      6  C   UNL     1     102.343 130.850  53.171  1.00  0.00    -0.028 C 
ATOM      7  C   UNL     1     102.649 132.733  54.796  1.00  0.00     0.039 C 
ATOM      8  C   UNL     1     103.067 131.435  54.152  1.00  0.00    -0.080 C 
ATOM      9  C   UNL     1     104.323 130.770  54.654  1.00  0.00     0.039 C 
ENDBRANCH   5   6
ENDBRANCH   4   5
ENDBRANCH   1   4
BRANCH   2  10
ATOM     10  C   UNL     1     102.597 135.258  51.099  1.00  0.00     0.035 C 
BRANCH  10  11
ATOM     11  C   UNL     1     103.299 135.694  52.394  1.00  0.00     0.079 C 
BRANCH  11  12
ATOM     12  C   UNL     1     104.788 135.432  52.417  1.00  0.00     0.130 C 
ATOM     13  O   UNL     1     105.545 136.379  52.269  1.00  0.00    -0.300 OA
ATOM     14  C   UNL     1     105.376 134.060  52.607  1.00  0.00     0.087 C 
ENDBRANCH  11  12
ENDBRANCH  10  11
ENDBRANCH   2  10
TORSDOF 6
ENDMDL
MODEL 7
REMARK VINA RESULT:    -5.200      2.225      4.942
REMARK INTER + INTRA:          -8.203
REMARK INTER:                  -6.843
REMARK INTRA:                  -1.360
REMARK UNBOUND:                -1.179
REMARK SMILES CC(=O)CCC=C(C)CCC=C(C)C
REMARK SMILES IDX 7 1 6 2 8 3 9 4 10 5 11 6 13 7 12 8 14 9 5 10 4 11 2 12 3 13
REMARK SMILES IDX 1 14
REMARK H PARENT
REMARK Flexibility Score: inf
ROOT
ATOM      1  C   UNL     1      99.678 133.573  51.648  1.00  0.00    -0.077 C 
ATOM      2  C   UNL     1     100.120 132.306  51.469  1.00  0.00    -0.028 C 
ATOM      3  C   UNL     1      99.491 134.169  53.023  1.00  0.00     0.039 C 
ENDROOT
BRANCH   1   4
ATOM      4  C   UNL     1      99.411 134.440  50.435  1.00  0.00     0.034 C 
BRANCH   4   5
ATOM      5  C   UNL     1     100.699 134.754  49.663  1.00  0.00     0.032 C 
BRANCH   5   6
ATOM      6  C   UNL     1     101.690 135.502  50.525  1.00  0.00    -0.028 C 
ATOM      7  C   UNL     1     103.416 133.687  50.438  1.00  0.00     0.039 C 
ATOM      8  C   UNL     1     102.917 135.044  50.864  1.00  0.00    -0.080 C 
ATOM      9  C   UNL     1     103.844 135.916  51.672  1.00  0.00     0.039 C 
ENDBRANCH   5   6
ENDBRANCH   4   5
ENDBRANCH   1   4
BRANCH   2  10
ATOM     10  C   UNL     1     100.429 131.343  52.587  1.00  0.00     0.035 C 
BRANCH  10  11
ATOM     11  C   UNL     1     101.944 131.121  52.710  1.00  0.00     0.079 C 
BRANCH  11  12
ATOM     12  C   UNL     1     102.611 131.947  53.788  1.00  0.00     0.130 C 
ATOM     13  O   UNL     1     101.933 132.320  54.733  1.00  0.00    -0.300 OA
ATOM     14  C   UNL     1     104.064 132.330  53.744  1.00  0.00     0.087 C 
ENDBRANCH  11  12
ENDBRANCH  10  11
ENDBRANCH   2  10
TORSDOF 6
ENDMDL
MODEL 8
REMARK VINA RESULT:    -5.179      2.421      5.328
REMARK INTER + INTRA:          -8.174
REMARK INTER:                  -7.090
REMARK INTRA:                  -1.084
REMARK UNBOUND:                -1.179
REMARK SMILES CC(=O)CCC=C(C)CCC=C(C)C
REMARK SMILES IDX 7 1 6 2 8 3 9 4 10 5 11 6 13 7 12 8 14 9 5 10 4 11 2 12 3 13
REMARK SMILES IDX 1 14
REMARK H PARENT
REMARK Flexibility Score: inf
ROOT
ATOM      1  C   UNL     1     102.611 134.415  50.655  1.00  0.00    -0.077 C 
ATOM      2  C   UNL     1     103.246 133.221  50.598  1.00  0.00    -0.028 C 
ATOM      3  C   UNL     1     101.106 134.525  50.587  1.00  0.00     0.039 C 
ENDROOT
BRANCH   1   4
ATOM      4  C   UNL     1     103.426 135.677  50.846  1.00  0.00     0.034 C 
BRANCH   4   5
ATOM      5  C   UNL     1     103.862 135.860  52.305  1.00  0.00     0.032 C 
BRANCH   5   6
ATOM      6  C   UNL     1     105.354 135.675  52.462  1.00  0.00    -0.028 C 
ATOM      7  C   UNL     1     105.150 133.393  53.477  1.00  0.00     0.039 C 
ATOM      8  C   UNL     1     105.944 134.569  52.967  1.00  0.00    -0.080 C 
ATOM      9  C   UNL     1     107.448 134.476  53.007  1.00  0.00     0.039 C 
ENDBRANCH   5   6
ENDBRANCH   4   5
ENDBRANCH   1   4
BRANCH   2  10
ATOM     10  C   UNL     1     102.555 131.893  50.419  1.00  0.00     0.035 C 
BRANCH  10  11
ATOM     11  C   UNL     1     102.567 131.092  51.730  1.00  0.00     0.079 C 
BRANCH  11  12
ATOM     12  C   UNL     1     101.498 131.499  52.720  1.00  0.00     0.130 C 
ATOM     13  O   UNL     1     101.849 131.879  53.826  1.00  0.00    -0.300 OA
ATOM     14  C   UNL     1     100.028 131.450  52.405  1.00  0.00     0.087 C 
ENDBRANCH  11  12
ENDBRANCH  10  11
ENDBRANCH   2  10
TORSDOF 6
ENDMDL
