MODEL 1
REMARK VINA RESULT:    -4.340      0.000      0.000
REMARK INTER + INTRA:          -5.160
REMARK INTER:                  -4.974
REMARK INTRA:                  -0.186
REMARK UNBOUND:                -0.186
REMARK SMILES CC=Cc1ccc(O)c(OC)c1
REMARK SMILES IDX 4 1 12 2 9 3 7 4 6 5 5 6 3 7 1 8 2 9 10 10 11 11 8 12
REMARK H PARENT 8 13
REMARK Flexibility Score: inf
ROOT
ATOM      1  C   UNL     1      85.848  32.301  65.916  1.00  0.00    -0.022 A 
ATOM      2  C   UNL     1      84.861  31.849  65.028  1.00  0.00     0.058 A 
ATOM      3  C   UNL     1      83.581  31.491  65.499  1.00  0.00     0.161 A 
ATOM      4  C   UNL     1      83.310  31.572  66.878  1.00  0.00     0.157 A 
ATOM      5  C   UNL     1      84.305  31.994  67.763  1.00  0.00     0.051 A 
ATOM      6  C   UNL     1      85.570  32.349  67.290  1.00  0.00     0.012 A 
ENDROOT
BRANCH   1   7
ATOM      7  C   UNL     1      87.187  32.641  65.392  1.00  0.00     0.003 C 
ATOM      8  C   UNL     1      87.962  30.261  65.229  1.00  0.00     0.035 C 
ATOM      9  C   UNL     1      88.125  31.742  65.064  1.00  0.00    -0.030 C 
ENDBRANCH   1   7
BRANCH   3  10
ATOM     10  O   UNL     1      82.566  31.053  64.633  1.00  0.00    -0.493 OA
ATOM     11  C   UNL     1      82.474  29.735  64.100  1.00  0.00     0.278 C 
ENDBRANCH   3  10
BRANCH   4  12
ATOM     12  O   UNL     1      82.057  31.229  67.387  1.00  0.00    -0.504 OA
ATOM     13  H   UNL     1      81.202  31.380  66.864  1.00  0.00     0.293 HD
ENDBRANCH   4  12
TORSDOF 3
ENDMDL
MODEL 2
REMARK VINA RESULT:    -4.311      2.201      4.025
REMARK INTER + INTRA:          -5.127
REMARK INTER:                  -4.985
REMARK INTRA:                  -0.142
REMARK UNBOUND:                -0.186
REMARK SMILES CC=Cc1ccc(O)c(OC)c1
REMARK SMILES IDX 4 1 12 2 9 3 7 4 6 5 5 6 3 7 1 8 2 9 10 10 11 11 8 12
REMARK H PARENT 8 13
REMARK Flexibility Score: inf
ROOT
ATOM      1  C   UNL     1      83.841  31.433  65.529  1.00  0.00    -0.022 A 
ATOM      2  C   UNL     1      85.137  31.569  65.011  1.00  0.00     0.058 A 
ATOM      3  C   UNL     1      86.213  31.920  65.852  1.00  0.00     0.161 A 
ATOM      4  C   UNL     1      85.968  32.154  67.218  1.00  0.00     0.157 A 
ATOM      5  C   UNL     1      84.671  32.047  67.725  1.00  0.00     0.051 A 
ATOM      6  C   UNL     1      83.610  31.697  66.887  1.00  0.00     0.012 A 
ENDROOT
BRANCH   1   7
ATOM      7  C   UNL     1      82.732  31.091  64.614  1.00  0.00     0.003 C 
ATOM      8  C   UNL     1      83.347  28.666  64.432  1.00  0.00     0.035 C 
ATOM      9  C   UNL     1      82.492  29.862  64.138  1.00  0.00    -0.030 C 
ENDBRANCH   1   7
BRANCH   3  10
ATOM     10  O   UNL     1      87.525  32.047  65.368  1.00  0.00    -0.493 OA
ATOM     11  C   UNL     1      88.088  31.236  64.341  1.00  0.00     0.278 C 
ENDBRANCH   3  10
BRANCH   4  12
ATOM     12  O   UNL     1      87.003  32.502  68.086  1.00  0.00    -0.504 OA
ATOM     13  H   UNL     1      87.511  33.375  67.999  1.00  0.00     0.293 HD
ENDBRANCH   4  12
TORSDOF 3
ENDMDL
MODEL 3
REMARK VINA RESULT:    -4.106      1.043      1.312
REMARK INTER + INTRA:          -4.893
REMARK INTER:                  -4.674
REMARK INTRA:                  -0.218
REMARK UNBOUND:                -0.186
REMARK SMILES CC=Cc1ccc(O)c(OC)c1
REMARK SMILES IDX 4 1 12 2 9 3 7 4 6 5 5 6 3 7 1 8 2 9 10 10 11 11 8 12
REMARK H PARENT 8 13
REMARK Flexibility Score: inf
ROOT
ATOM      1  C   UNL     1      86.404  31.469  65.151  1.00  0.00    -0.022 A 
ATOM      2  C   UNL     1      85.073  31.231  64.779  1.00  0.00     0.058 A 
ATOM      3  C   UNL     1      84.027  31.394  65.711  1.00  0.00     0.161 A 
ATOM      4  C   UNL     1      84.336  31.780  67.029  1.00  0.00     0.157 A 
ATOM      5  C   UNL     1      85.666  31.987  67.403  1.00  0.00     0.051 A 
ATOM      6  C   UNL     1      86.696  31.825  66.476  1.00  0.00     0.012 A 
ENDROOT
BRANCH   1   7
ATOM      7  C   UNL     1      87.477  31.262  64.157  1.00  0.00     0.003 C 
ATOM      8  C   UNL     1      87.882  28.865  64.779  1.00  0.00     0.035 C 
ATOM      9  C   UNL     1      88.125  30.104  63.970  1.00  0.00    -0.030 C 
ENDBRANCH   1   7
BRANCH   3  10
ATOM     10  O   UNL     1      82.683  31.181  65.365  1.00  0.00    -0.493 OA
ATOM     11  C   UNL     1      82.222  30.122  64.532  1.00  0.00     0.278 C 
ENDBRANCH   3  10
BRANCH   4  12
ATOM     12  O   UNL     1      83.332  31.954  67.982  1.00  0.00    -0.504 OA
ATOM     13  H   UNL     1      82.384  32.204  67.728  1.00  0.00     0.293 HD
ENDBRANCH   4  12
TORSDOF 3
ENDMDL
MODEL 4
REMARK VINA RESULT:    -3.492     14.803     16.492
REMARK INTER + INTRA:          -4.189
REMARK INTER:                  -4.077
REMARK INTRA:                  -0.112
REMARK UNBOUND:                -0.186
REMARK SMILES CC=Cc1ccc(O)c(OC)c1
REMARK SMILES IDX 4 1 12 2 9 3 7 4 6 5 5 6 3 7 1 8 2 9 10 10 11 11 8 12
REMARK H PARENT 8 13
REMARK Flexibility Score: inf
ROOT
ATOM      1  C   UNL     1      77.516  34.957  51.476  1.00  0.00    -0.022 A 
ATOM      2  C   UNL     1      76.422  35.772  51.803  1.00  0.00     0.058 A 
ATOM      3  C   UNL     1      75.287  35.229  52.439  1.00  0.00     0.161 A 
ATOM      4  C   UNL     1      75.254  33.851  52.725  1.00  0.00     0.157 A 
ATOM      5  C   UNL     1      76.332  33.037  52.371  1.00  0.00     0.051 A 
ATOM      6  C   UNL     1      77.454  33.581  51.743  1.00  0.00     0.012 A 
ENDROOT
BRANCH   1   7
ATOM      7  C   UNL     1      78.678  35.554  50.785  1.00  0.00     0.003 C 
ATOM      8  C   UNL     1      80.214  35.374  52.760  1.00  0.00     0.035 C 
ATOM      9  C   UNL     1      79.885  35.724  51.339  1.00  0.00    -0.030 C 
ENDBRANCH   1   7
BRANCH   3  10
ATOM     10  O   UNL     1      74.184  36.022  52.795  1.00  0.00    -0.493 OA
ATOM     11  C   UNL     1      72.984  36.124  52.034  1.00  0.00     0.278 C 
ENDBRANCH   3  10
BRANCH   4  12
ATOM     12  O   UNL     1      74.151  33.273  53.354  1.00  0.00    -0.504 OA
ATOM     13  H   UNL     1      73.263  33.150  52.883  1.00  0.00     0.293 HD
ENDBRANCH   4  12
TORSDOF 3
ENDMDL
MODEL 5
REMARK VINA RESULT:    -3.417      1.713      3.258
REMARK INTER + INTRA:          -4.103
REMARK INTER:                  -3.985
REMARK INTRA:                  -0.117
REMARK UNBOUND:                -0.186
REMARK SMILES CC=Cc1ccc(O)c(OC)c1
REMARK SMILES IDX 4 1 12 2 9 3 7 4 6 5 5 6 3 7 1 8 2 9 10 10 11 11 8 12
REMARK H PARENT 8 13
REMARK Flexibility Score: inf
ROOT
ATOM      1  C   UNL     1      87.245  32.688  65.554  1.00  0.00    -0.022 A 
ATOM      2  C   UNL     1      85.939  32.721  66.065  1.00  0.00     0.058 A 
ATOM      3  C   UNL     1      85.065  31.631  65.873  1.00  0.00     0.161 A 
ATOM      4  C   UNL     1      85.511  30.514  65.141  1.00  0.00     0.157 A 
ATOM      5  C   UNL     1      86.802  30.498  64.608  1.00  0.00     0.051 A 
ATOM      6  C   UNL     1      87.663  31.579  64.803  1.00  0.00     0.012 A 
ENDROOT
BRANCH   1   7
ATOM      7  C   UNL     1      88.125  33.858  65.750  1.00  0.00     0.003 C 
ATOM      8  C   UNL     1      86.936  35.301  64.077  1.00  0.00     0.035 C 
ATOM      9  C   UNL     1      87.984  35.029  65.115  1.00  0.00    -0.030 C 
ENDBRANCH   1   7
BRANCH   3  10
ATOM     10  O   UNL     1      83.758  31.626  66.387  1.00  0.00    -0.493 OA
ATOM     11  C   UNL     1      83.414  31.993  67.720  1.00  0.00     0.278 C 
ENDBRANCH   3  10
BRANCH   4  12
ATOM     12  O   UNL     1      84.680  29.414  64.928  1.00  0.00    -0.504 OA
ATOM     13  H   UNL     1      83.713  29.401  65.232  1.00  0.00     0.293 HD
ENDBRANCH   4  12
TORSDOF 3
ENDMDL
MODEL 6
REMARK VINA RESULT:    -3.344     15.517     16.919
REMARK INTER + INTRA:          -4.019
REMARK INTER:                  -4.792
REMARK INTRA:                   0.773
REMARK UNBOUND:                -0.186
REMARK SMILES CC=Cc1ccc(O)c(OC)c1
REMARK SMILES IDX 4 1 12 2 9 3 7 4 6 5 5 6 3 7 1 8 2 9 10 10 11 11 8 12
REMARK H PARENT 8 13
REMARK Flexibility Score: inf
ROOT
ATOM      1  C   UNL     1      72.016  34.022  55.377  1.00  0.00    -0.022 A 
ATOM      2  C   UNL     1      72.804  35.120  55.003  1.00  0.00     0.058 A 
ATOM      3  C   UNL     1      73.830  34.976  54.047  1.00  0.00     0.161 A 
ATOM      4  C   UNL     1      74.072  33.708  53.486  1.00  0.00     0.157 A 
ATOM      5  C   UNL     1      73.306  32.610  53.883  1.00  0.00     0.051 A 
ATOM      6  C   UNL     1      72.289  32.760  54.828  1.00  0.00     0.012 A 
ENDROOT
BRANCH   1   7
ATOM      7  C   UNL     1      70.967  34.203  56.401  1.00  0.00     0.003 C 
ATOM      8  C   UNL     1      72.087  32.748  58.111  1.00  0.00     0.035 C 
ATOM      9  C   UNL     1      70.999  33.659  57.625  1.00  0.00    -0.030 C 
ENDBRANCH   1   7
BRANCH   3  10
ATOM     10  O   UNL     1      74.624  36.060  53.638  1.00  0.00    -0.493 OA
ATOM     11  C   UNL     1      75.325  36.125  52.400  1.00  0.00     0.278 C 
ENDBRANCH   3  10
BRANCH   4  12
ATOM     12  O   UNL     1      75.077  33.520  52.537  1.00  0.00    -0.504 OA
ATOM     13  H   UNL     1      76.055  33.687  52.745  1.00  0.00     0.293 HD
ENDBRANCH   4  12
TORSDOF 3
ENDMDL
MODEL 7
REMARK VINA RESULT:    -3.318      1.625      2.232
REMARK INTER + INTRA:          -3.989
REMARK INTER:                  -3.913
REMARK INTRA:                  -0.076
REMARK UNBOUND:                -0.186
REMARK SMILES CC=Cc1ccc(O)c(OC)c1
REMARK SMILES IDX 4 1 12 2 9 3 7 4 6 5 5 6 3 7 1 8 2 9 10 10 11 11 8 12
REMARK H PARENT 8 13
REMARK Flexibility Score: inf
ROOT
ATOM      1  C   UNL     1      85.861  31.324  65.994  1.00  0.00    -0.022 A 
ATOM      2  C   UNL     1      85.514  30.101  65.403  1.00  0.00     0.058 A 
ATOM      3  C   UNL     1      84.253  29.929  64.795  1.00  0.00     0.161 A 
ATOM      4  C   UNL     1      83.334  30.996  64.808  1.00  0.00     0.157 A 
ATOM      5  C   UNL     1      83.672  32.203  65.424  1.00  0.00     0.051 A 
ATOM      6  C   UNL     1      84.923  32.367  66.022  1.00  0.00     0.012 A 
ENDROOT
BRANCH   1   7
ATOM      7  C   UNL     1      87.180  31.461  66.646  1.00  0.00     0.003 C 
ATOM      8  C   UNL     1      87.991  33.268  65.106  1.00  0.00     0.035 C 
ATOM      9  C   UNL     1      88.125  32.335  66.272  1.00  0.00    -0.030 C 
ENDBRANCH   1   7
BRANCH   3  10
ATOM     10  O   UNL     1      83.883  28.723  64.179  1.00  0.00    -0.493 OA
ATOM     11  C   UNL     1      83.944  27.445  64.805  1.00  0.00     0.278 C 
ENDBRANCH   3  10
BRANCH   4  12
ATOM     12  O   UNL     1      82.077  30.870  64.218  1.00  0.00    -0.504 OA
ATOM     13  H   UNL     1      81.960  30.597  63.249  1.00  0.00     0.293 HD
ENDBRANCH   4  12
TORSDOF 3
ENDMDL
MODEL 8
REMARK VINA RESULT:    -1.593     15.268     16.684
REMARK INTER + INTRA:          -2.012
REMARK INTER:                  -1.796
REMARK INTRA:                  -0.216
REMARK UNBOUND:                -0.186
REMARK SMILES CC=Cc1ccc(O)c(OC)c1
REMARK SMILES IDX 4 1 12 2 9 3 7 4 6 5 5 6 3 7 1 8 2 9 10 10 11 11 8 12
REMARK H PARENT 8 13
REMARK Flexibility Score: inf
ROOT
ATOM      1  C   UNL     1      72.345  34.327  55.243  1.00  0.00    -0.022 A 
ATOM      2  C   UNL     1      72.938  33.497  54.281  1.00  0.00     0.058 A 
ATOM      3  C   UNL     1      74.000  33.967  53.482  1.00  0.00     0.161 A 
ATOM      4  C   UNL     1      74.448  35.292  53.648  1.00  0.00     0.157 A 
ATOM      5  C   UNL     1      73.836  36.125  54.587  1.00  0.00     0.051 A 
ATOM      6  C   UNL     1      72.785  35.652  55.375  1.00  0.00     0.012 A 
ENDROOT
BRANCH   1   7
ATOM      7  C   UNL     1      71.215  33.810  56.043  1.00  0.00     0.003 C 
ATOM      8  C   UNL     1      72.664  32.767  57.806  1.00  0.00     0.035 C 
ATOM      9  C   UNL     1      71.345  33.135  57.193  1.00  0.00    -0.030 C 
ENDBRANCH   1   7
BRANCH   3  10
ATOM     10  O   UNL     1      74.626  33.156  52.523  1.00  0.00    -0.493 OA
ATOM     11  C   UNL     1      75.795  32.378  52.763  1.00  0.00     0.278 C 
ENDBRANCH   3  10
BRANCH   4  12
ATOM     12  O   UNL     1      75.498  35.798  52.880  1.00  0.00    -0.504 OA
ATOM     13  H   UNL     1      75.563  35.638  51.882  1.00  0.00     0.293 HD
ENDBRANCH   4  12
TORSDOF 3
ENDMDL
