MODEL 1
REMARK VINA RESULT:    -2.404      0.000      0.000
REMARK INTER + INTRA:          -2.947
REMARK INTER:                  -2.826
REMARK INTRA:                  -0.121
REMARK UNBOUND:                -0.121
REMARK SMILES O=C([O-])CCC(=O)[O-]
REMARK SMILES IDX 4 1 2 2 1 3 3 4 5 5 6 6 7 7 8 8
REMARK H PARENT
REMARK Flexibility Score: inf
ROOT
ATOM      1  C   UNL     1     217.676 231.990 229.150  1.00  0.00     0.059 C 
ENDROOT
BRANCH   1   2
ATOM      2  C   UNL     1     217.050 231.026 230.107  1.00  0.00     0.042 C 
ATOM      3  O   UNL     1     216.923 231.331 231.322  1.00  0.00    -0.550 OA
ATOM      4  O   UNL     1     216.653 229.768 229.668  1.00  0.00    -0.550 OA
ENDBRANCH   1   2
BRANCH   1   5
ATOM      5  C   UNL     1     216.600 232.731 228.354  1.00  0.00     0.059 C 
BRANCH   5   6
ATOM      6  C   UNL     1     216.594 232.274 226.931  1.00  0.00     0.042 C 
ATOM      7  O   UNL     1     217.159 232.963 226.042  1.00  0.00    -0.550 OA
ATOM      8  O   UNL     1     215.920 231.111 226.576  1.00  0.00    -0.550 OA
ENDBRANCH   5   6
ENDBRANCH   1   5
TORSDOF 3
ENDMDL
MODEL 2
REMARK VINA RESULT:    -2.398     11.273     12.459
REMARK INTER + INTRA:          -2.939
REMARK INTER:                  -2.819
REMARK INTRA:                  -0.121
REMARK UNBOUND:                -0.121
REMARK SMILES O=C([O-])CCC(=O)[O-]
REMARK SMILES IDX 4 1 2 2 1 3 3 4 5 5 6 6 7 7 8 8
REMARK H PARENT
REMARK Flexibility Score: inf
ROOT
ATOM      1  C   UNL     1     217.650 220.478 223.214  1.00  0.00     0.059 C 
ENDROOT
BRANCH   1   2
ATOM      2  C   UNL     1     217.037 221.389 222.198  1.00  0.00     0.042 C 
ATOM      3  O   UNL     1     216.900 221.007 221.005  1.00  0.00    -0.550 OA
ATOM      4  O   UNL     1     216.663 222.679 222.554  1.00  0.00    -0.550 OA
ENDBRANCH   1   2
BRANCH   1   5
ATOM      5  C   UNL     1     216.564 219.781 224.034  1.00  0.00     0.059 C 
BRANCH   5   6
ATOM      6  C   UNL     1     216.565 220.285 225.442  1.00  0.00     0.042 C 
ATOM      7  O   UNL     1     216.879 219.517 226.389  1.00  0.00    -0.550 OA
ATOM      8  O   UNL     1     216.172 221.590 225.714  1.00  0.00    -0.550 OA
ENDBRANCH   5   6
ENDBRANCH   1   5
TORSDOF 3
ENDMDL
MODEL 3
REMARK VINA RESULT:    -2.389      0.190      3.766
REMARK INTER + INTRA:          -2.929
REMARK INTER:                  -2.811
REMARK INTRA:                  -0.119
REMARK UNBOUND:                -0.121
REMARK SMILES O=C([O-])CCC(=O)[O-]
REMARK SMILES IDX 4 1 2 2 1 3 3 4 5 5 6 6 7 7 8 8
REMARK H PARENT
REMARK Flexibility Score: inf
ROOT
ATOM      1  C   UNL     1     216.601 232.623 228.381  1.00  0.00     0.059 C 
ENDROOT
BRANCH   1   2
ATOM      2  C   UNL     1     216.562 232.144 226.965  1.00  0.00     0.042 C 
ATOM      3  O   UNL     1     216.875 232.920 226.024  1.00  0.00    -0.550 OA
ATOM      4  O   UNL     1     216.130 230.855 226.678  1.00  0.00    -0.550 OA
ENDBRANCH   1   2
BRANCH   1   5
ATOM      5  C   UNL     1     217.663 231.863 229.176  1.00  0.00     0.059 C 
BRANCH   5   6
ATOM      6  C   UNL     1     217.020 230.946 230.167  1.00  0.00     0.042 C 
ATOM      7  O   UNL     1     216.891 231.301 231.367  1.00  0.00    -0.550 OA
ATOM      8  O   UNL     1     216.608 229.678 229.775  1.00  0.00    -0.550 OA
ENDBRANCH   5   6
ENDBRANCH   1   5
TORSDOF 3
ENDMDL
MODEL 4
REMARK VINA RESULT:    -2.389     11.390     12.508
REMARK INTER + INTRA:          -2.929
REMARK INTER:                  -2.810
REMARK INTRA:                  -0.119
REMARK UNBOUND:                -0.121
REMARK SMILES O=C([O-])CCC(=O)[O-]
REMARK SMILES IDX 4 1 2 2 1 3 3 4 5 5 6 6 7 7 8 8
REMARK H PARENT
REMARK Flexibility Score: inf
ROOT
ATOM      1  C   UNL     1     217.764 220.533 223.232  1.00  0.00     0.059 C 
ENDROOT
BRANCH   1   2
ATOM      2  C   UNL     1     217.042 221.412 222.261  1.00  0.00     0.042 C 
ATOM      3  O   UNL     1     216.847 221.024 221.079  1.00  0.00    -0.550 OA
ATOM      4  O   UNL     1     216.629 222.682 222.646  1.00  0.00    -0.550 OA
ENDBRANCH   1   2
BRANCH   1   5
ATOM      5  C   UNL     1     216.775 219.644 223.989  1.00  0.00     0.059 C 
BRANCH   5   6
ATOM      6  C   UNL     1     216.629 220.107 225.403  1.00  0.00     0.042 C 
ATOM      7  O   UNL     1     215.877 221.080 225.675  1.00  0.00    -0.550 OA
ATOM      8  O   UNL     1     217.362 219.498 226.414  1.00  0.00    -0.550 OA
ENDBRANCH   5   6
ENDBRANCH   1   5
TORSDOF 3
ENDMDL
MODEL 5
REMARK VINA RESULT:    -2.372     21.201     21.742
REMARK INTER + INTRA:          -2.909
REMARK INTER:                  -2.788
REMARK INTRA:                  -0.121
REMARK UNBOUND:                -0.121
REMARK SMILES O=C([O-])CCC(=O)[O-]
REMARK SMILES IDX 4 1 2 2 1 3 3 4 5 5 6 6 7 7 8 8
REMARK H PARENT
REMARK Flexibility Score: inf
ROOT
ATOM      1  C   UNL     1     234.766 220.436 229.203  1.00  0.00     0.059 C 
ENDROOT
BRANCH   1   2
ATOM      2  C   UNL     1     235.379 221.377 230.190  1.00  0.00     0.042 C 
ATOM      3  O   UNL     1     235.532 221.027 231.390  1.00  0.00    -0.550 OA
ATOM      4  O   UNL     1     235.738 222.661 229.798  1.00  0.00    -0.550 OA
ENDBRANCH   1   2
BRANCH   1   5
ATOM      5  C   UNL     1     235.845 219.792 228.333  1.00  0.00     0.059 C 
BRANCH   5   6
ATOM      6  C   UNL     1     235.750 220.289 226.926  1.00  0.00     0.042 C 
ATOM      7  O   UNL     1     235.375 219.516 226.005  1.00  0.00    -0.550 OA
ATOM      8  O   UNL     1     236.123 221.593 226.622  1.00  0.00    -0.550 OA
ENDBRANCH   5   6
ENDBRANCH   1   5
TORSDOF 3
ENDMDL
MODEL 6
REMARK VINA RESULT:    -2.348     11.422     11.981
REMARK INTER + INTRA:          -2.881
REMARK INTER:                  -2.764
REMARK INTRA:                  -0.117
REMARK UNBOUND:                -0.121
REMARK SMILES O=C([O-])CCC(=O)[O-]
REMARK SMILES IDX 4 1 2 2 1 3 3 4 5 5 6 6 7 7 8 8
REMARK H PARENT
REMARK Flexibility Score: inf
ROOT
ATOM      1  C   UNL     1     216.838 219.614 224.002  1.00  0.00     0.059 C 
ENDROOT
BRANCH   1   2
ATOM      2  C   UNL     1     216.731 220.024 225.437  1.00  0.00     0.042 C 
ATOM      3  O   UNL     1     215.875 220.877 225.790  1.00  0.00    -0.550 OA
ATOM      4  O   UNL     1     217.612 219.503 226.377  1.00  0.00    -0.550 OA
ENDBRANCH   1   2
BRANCH   1   5
ATOM      5  C   UNL     1     217.830 220.510 223.260  1.00  0.00     0.059 C 
BRANCH   5   6
ATOM      6  C   UNL     1     217.109 221.428 222.326  1.00  0.00     0.042 C 
ATOM      7  O   UNL     1     216.978 221.122 221.112  1.00  0.00    -0.550 OA
ATOM      8  O   UNL     1     216.626 222.648 222.784  1.00  0.00    -0.550 OA
ENDBRANCH   5   6
ENDBRANCH   1   5
TORSDOF 3
ENDMDL
MODEL 7
REMARK VINA RESULT:    -2.323     21.135     21.899
REMARK INTER + INTRA:          -2.852
REMARK INTER:                  -2.731
REMARK INTRA:                  -0.121
REMARK UNBOUND:                -0.121
REMARK SMILES O=C([O-])CCC(=O)[O-]
REMARK SMILES IDX 4 1 2 2 1 3 3 4 5 5 6 6 7 7 8 8
REMARK H PARENT
REMARK Flexibility Score: inf
ROOT
ATOM      1  C   UNL     1     235.615 219.712 228.424  1.00  0.00     0.059 C 
ENDROOT
BRANCH   1   2
ATOM      2  C   UNL     1     235.611 220.196 227.009  1.00  0.00     0.042 C 
ATOM      3  O   UNL     1     235.186 219.452 226.086  1.00  0.00    -0.550 OA
ATOM      4  O   UNL     1     236.124 221.450 226.700  1.00  0.00    -0.550 OA
ENDBRANCH   1   2
BRANCH   1   5
ATOM      5  C   UNL     1     234.598 220.491 229.261  1.00  0.00     0.059 C 
BRANCH   5   6
ATOM      6  C   UNL     1     235.296 221.398 230.222  1.00  0.00     0.042 C 
ATOM      7  O   UNL     1     235.712 222.524 229.842  1.00  0.00    -0.550 OA
ATOM      8  O   UNL     1     235.532 220.981 231.527  1.00  0.00    -0.550 OA
ENDBRANCH   5   6
ENDBRANCH   1   5
TORSDOF 3
ENDMDL
MODEL 8
REMARK VINA RESULT:    -2.261     18.381     19.003
REMARK INTER + INTRA:          -2.778
REMARK INTER:                  -2.657
REMARK INTRA:                  -0.122
REMARK UNBOUND:                -0.121
REMARK SMILES O=C([O-])CCC(=O)[O-]
REMARK SMILES IDX 4 1 2 2 1 3 3 4 5 5 6 6 7 7 8 8
REMARK H PARENT
REMARK Flexibility Score: inf
ROOT
ATOM      1  C   UNL     1     235.456 232.694 223.995  1.00  0.00     0.059 C 
ENDROOT
BRANCH   1   2
ATOM      2  C   UNL     1     235.786 232.071 225.314  1.00  0.00     0.042 C 
ATOM      3  O   UNL     1     235.803 232.772 226.360  1.00  0.00    -0.550 OA
ATOM      4  O   UNL     1     236.124 230.724 225.383  1.00  0.00    -0.550 OA
ENDBRANCH   1   2
BRANCH   1   5
ATOM      5  C   UNL     1     234.208 232.047 223.392  1.00  0.00     0.059 C 
BRANCH   5   6
ATOM      6  C   UNL     1     234.556 231.296 222.148  1.00  0.00     0.042 C 
ATOM      7  O   UNL     1     235.738 230.908 221.952  1.00  0.00    -0.550 OA
ATOM      8  O   UNL     1     233.587 231.066 221.179  1.00  0.00    -0.550 OA
ENDBRANCH   5   6
ENDBRANCH   1   5
TORSDOF 3
ENDMDL
MODEL 9
REMARK VINA RESULT:    -2.097     18.703     19.542
REMARK INTER + INTRA:          -2.585
REMARK INTER:                  -2.467
REMARK INTRA:                  -0.118
REMARK UNBOUND:                -0.121
REMARK SMILES O=C([O-])CCC(=O)[O-]
REMARK SMILES IDX 4 1 2 2 1 3 3 4 5 5 6 6 7 7 8 8
REMARK H PARENT
REMARK Flexibility Score: inf
ROOT
ATOM      1  C   UNL     1     234.577 231.913 223.157  1.00  0.00     0.059 C 
ENDROOT
BRANCH   1   2
ATOM      2  C   UNL     1     235.239 230.946 222.228  1.00  0.00     0.042 C 
ATOM      3  O   UNL     1     235.726 229.873 222.672  1.00  0.00    -0.550 OA
ATOM      4  O   UNL     1     235.365 231.252 220.878  1.00  0.00    -0.550 OA
ENDBRANCH   1   2
BRANCH   1   5
ATOM      5  C   UNL     1     235.624 232.710 223.938  1.00  0.00     0.059 C 
BRANCH   5   6
ATOM      6  C   UNL     1     235.622 232.307 225.378  1.00  0.00     0.042 C 
ATOM      7  O   UNL     1     235.207 233.105 226.258  1.00  0.00    -0.550 OA
ATOM      8  O   UNL     1     236.125 231.067 225.754  1.00  0.00    -0.550 OA
ENDBRANCH   5   6
ENDBRANCH   1   5
TORSDOF 3
ENDMDL
