MODEL 1
REMARK VINA RESULT:    -3.366      0.000      0.000
REMARK INTER + INTRA:          -8.239
REMARK INTER:                  -5.924
REMARK INTRA:                  -2.315
REMARK UNBOUND:                -2.315
REMARK SMILES CCCCCCCCCCCCCCC(=O)[O-]
REMARK SMILES IDX 9 1 10 2 11 3 12 4 13 5 14 6 15 7 16 8 17 9 8 10 7 11 6 12
REMARK SMILES IDX 5 13 4 14 3 15 2 16 1 17
REMARK H PARENT
REMARK Flexibility Score: inf
ROOT
ATOM      1  C   UNL     1      -6.559   3.861  -0.612  1.00  0.00     0.000 C 
ENDROOT
BRANCH   1   2
ATOM      2  C   UNL     1      -7.349   2.746   0.089  1.00  0.00     0.000 C 
BRANCH   2   3
ATOM      3  C   UNL     1      -6.780   1.366  -0.265  1.00  0.00     0.000 C 
BRANCH   3   4
ATOM      4  C   UNL     1      -6.162   0.691   0.965  1.00  0.00     0.000 C 
BRANCH   4   5
ATOM      5  C   UNL     1      -5.239  -0.466   0.553  1.00  0.00     0.006 C 
BRANCH   5   6
ATOM      6  C   UNL     1      -5.698  -1.809   1.134  1.00  0.00     0.053 C 
BRANCH   6   7
ATOM      7  C   UNL     1      -6.936  -2.313   0.457  1.00  0.00     0.041 C 
ATOM      8  O   UNL     1      -8.060  -2.181   1.010  1.00  0.00    -0.550 OA
ATOM      9  O   UNL     1      -6.852  -2.897  -0.800  1.00  0.00    -0.550 OA
ENDBRANCH   6   7
ENDBRANCH   5   6
ENDBRANCH   4   5
ENDBRANCH   3   4
ENDBRANCH   2   3
ENDBRANCH   1   2
BRANCH   1  10
ATOM     10  C   UNL     1      -5.502   3.319  -1.588  1.00  0.00     0.000 C 
BRANCH  10  11
ATOM     11  C   UNL     1      -4.076   3.760  -1.217  1.00  0.00    -0.000 C 
BRANCH  11  12
ATOM     12  C   UNL     1      -3.319   2.692  -0.410  1.00  0.00    -0.000 C 
BRANCH  12  13
ATOM     13  C   UNL     1      -3.198   3.049   1.080  1.00  0.00    -0.000 C 
BRANCH  13  14
ATOM     14  C   UNL     1      -3.430   4.549   1.306  1.00  0.00    -0.000 C 
BRANCH  14  15
ATOM     15  C   UNL     1      -4.490   4.783   2.391  1.00  0.00    -0.000 C 
BRANCH  15  16
ATOM     16  C   UNL     1      -5.030   3.471   2.981  1.00  0.00    -0.003 C 
ATOM     17  C   UNL     1      -6.397   3.639   3.645  1.00  0.00     0.004 C 
ENDBRANCH  15  16
ENDBRANCH  14  15
ENDBRANCH  13  14
ENDBRANCH  12  13
ENDBRANCH  11  12
ENDBRANCH  10  11
ENDBRANCH   1  10
TORSDOF 13
ENDMDL
MODEL 2
REMARK VINA RESULT:    -3.335      3.149      5.791
REMARK INTER + INTRA:          -8.184
REMARK INTER:                  -6.392
REMARK INTRA:                  -1.792
REMARK UNBOUND:                -2.315
REMARK SMILES CCCCCCCCCCCCCCC(=O)[O-]
REMARK SMILES IDX 9 1 10 2 11 3 12 4 13 5 14 6 15 7 16 8 17 9 8 10 7 11 6 12
REMARK SMILES IDX 5 13 4 14 3 15 2 16 1 17
REMARK H PARENT
REMARK Flexibility Score: inf
ROOT
ATOM      1  C   UNL     1      -6.294   3.361  -0.817  1.00  0.00     0.000 C 
ENDROOT
BRANCH   1   2
ATOM      2  C   UNL     1      -5.091   3.731  -1.696  1.00  0.00     0.000 C 
BRANCH   2   3
ATOM      3  C   UNL     1      -3.869   4.079  -0.836  1.00  0.00     0.000 C 
BRANCH   3   4
ATOM      4  C   UNL     1      -3.400   2.864  -0.026  1.00  0.00     0.000 C 
BRANCH   4   5
ATOM      5  C   UNL     1      -3.102   3.254   1.430  1.00  0.00     0.006 C 
BRANCH   5   6
ATOM      6  C   UNL     1      -4.376   3.330   2.281  1.00  0.00     0.053 C 
BRANCH   6   7
ATOM      7  C   UNL     1      -4.585   4.702   2.845  1.00  0.00     0.041 C 
ATOM      8  O   UNL     1      -4.141   4.993   3.988  1.00  0.00    -0.550 OA
ATOM      9  O   UNL     1      -5.241   5.670   2.095  1.00  0.00    -0.550 OA
ENDBRANCH   6   7
ENDBRANCH   5   6
ENDBRANCH   4   5
ENDBRANCH   3   4
ENDBRANCH   2   3
ENDBRANCH   1   2
BRANCH   1  10
ATOM     10  C   UNL     1      -6.737   1.900  -1.001  1.00  0.00     0.000 C 
BRANCH  10  11
ATOM     11  C   UNL     1      -7.490   1.353   0.224  1.00  0.00    -0.000 C 
BRANCH  11  12
ATOM     12  C   UNL     1      -6.566   0.603   1.198  1.00  0.00    -0.000 C 
BRANCH  12  13
ATOM     13  C   UNL     1      -5.318   0.029   0.509  1.00  0.00    -0.000 C 
BRANCH  13  14
ATOM     14  C   UNL     1      -5.232  -1.490   0.708  1.00  0.00    -0.000 C 
BRANCH  14  15
ATOM     15  C   UNL     1      -6.630  -2.102   0.880  1.00  0.00    -0.000 C 
BRANCH  15  16
ATOM     16  C   UNL     1      -7.149  -2.756  -0.410  1.00  0.00    -0.003 C 
ATOM     17  C   UNL     1      -8.420  -2.092  -0.939  1.00  0.00     0.004 C 
ENDBRANCH  15  16
ENDBRANCH  14  15
ENDBRANCH  13  14
ENDBRANCH  12  13
ENDBRANCH  11  12
ENDBRANCH  10  11
ENDBRANCH   1  10
TORSDOF 13
ENDMDL
MODEL 3
REMARK VINA RESULT:    -3.322      3.520      5.862
REMARK INTER + INTRA:          -8.163
REMARK INTER:                  -6.576
REMARK INTRA:                  -1.586
REMARK UNBOUND:                -2.315
REMARK SMILES CCCCCCCCCCCCCCC(=O)[O-]
REMARK SMILES IDX 9 1 10 2 11 3 12 4 13 5 14 6 15 7 16 8 17 9 8 10 7 11 6 12
REMARK SMILES IDX 5 13 4 14 3 15 2 16 1 17
REMARK H PARENT
REMARK Flexibility Score: inf
ROOT
ATOM      1  C   UNL     1      -3.096   2.912   0.796  1.00  0.00     0.000 C 
ENDROOT
BRANCH   1   2
ATOM      2  C   UNL     1      -3.679   4.175   1.446  1.00  0.00     0.000 C 
BRANCH   2   3
ATOM      3  C   UNL     1      -4.164   3.885   2.872  1.00  0.00     0.000 C 
BRANCH   3   4
ATOM      4  C   UNL     1      -5.450   3.050   2.859  1.00  0.00     0.000 C 
BRANCH   4   5
ATOM      5  C   UNL     1      -6.471   3.594   3.869  1.00  0.00     0.006 C 
BRANCH   5   6
ATOM      6  C   UNL     1      -5.948   4.829   4.614  1.00  0.00     0.053 C 
BRANCH   6   7
ATOM      7  C   UNL     1      -6.334   4.809   6.062  1.00  0.00     0.041 C 
ATOM      8  O   UNL     1      -5.493   4.477   6.939  1.00  0.00    -0.550 OA
ATOM      9  O   UNL     1      -7.614   5.191   6.445  1.00  0.00    -0.550 OA
ENDBRANCH   6   7
ENDBRANCH   5   6
ENDBRANCH   4   5
ENDBRANCH   3   4
ENDBRANCH   2   3
ENDBRANCH   1   2
BRANCH   1  10
ATOM     10  C   UNL     1      -3.803   2.540  -0.518  1.00  0.00     0.000 C 
BRANCH  10  11
ATOM     11  C   UNL     1      -4.851   3.584  -0.940  1.00  0.00    -0.000 C 
BRANCH  11  12
ATOM     12  C   UNL     1      -6.167   2.942  -1.411  1.00  0.00    -0.000 C 
BRANCH  12  13
ATOM     13  C   UNL     1      -7.034   2.441  -0.246  1.00  0.00    -0.000 C 
BRANCH  13  14
ATOM     14  C   UNL     1      -7.148   0.911  -0.265  1.00  0.00    -0.000 C 
BRANCH  14  15
ATOM     15  C   UNL     1      -6.564   0.301   1.018  1.00  0.00    -0.000 C 
BRANCH  15  16
ATOM     16  C   UNL     1      -5.154  -0.272   0.810  1.00  0.00    -0.003 C 
ATOM     17  C   UNL     1      -5.169  -1.743   0.394  1.00  0.00     0.004 C 
ENDBRANCH  15  16
ENDBRANCH  14  15
ENDBRANCH  13  14
ENDBRANCH  12  13
ENDBRANCH  11  12
ENDBRANCH  10  11
ENDBRANCH   1  10
TORSDOF 13
ENDMDL
MODEL 4
REMARK VINA RESULT:    -3.289      0.791      2.825
REMARK INTER + INTRA:          -8.104
REMARK INTER:                  -6.019
REMARK INTRA:                  -2.086
REMARK UNBOUND:                -2.315
REMARK SMILES CCCCCCCCCCCCCCC(=O)[O-]
REMARK SMILES IDX 9 1 10 2 11 3 12 4 13 5 14 6 15 7 16 8 17 9 8 10 7 11 6 12
REMARK SMILES IDX 5 13 4 14 3 15 2 16 1 17
REMARK H PARENT
REMARK Flexibility Score: inf
ROOT
ATOM      1  C   UNL     1      -6.277   3.128   3.179  1.00  0.00     0.000 C 
ENDROOT
BRANCH   1   2
ATOM      2  C   UNL     1      -6.778   2.749   1.777  1.00  0.00     0.000 C 
BRANCH   2   3
ATOM      3  C   UNL     1      -6.991   1.235   1.661  1.00  0.00     0.000 C 
BRANCH   3   4
ATOM      4  C   UNL     1      -6.257   0.665   0.442  1.00  0.00     0.000 C 
BRANCH   4   5
ATOM      5  C   UNL     1      -5.158  -0.319   0.871  1.00  0.00     0.006 C 
BRANCH   5   6
ATOM      6  C   UNL     1      -5.342  -1.705   0.239  1.00  0.00     0.053 C 
BRANCH   6   7
ATOM      7  C   UNL     1      -6.731  -2.229   0.445  1.00  0.00     0.041 C 
ATOM      8  O   UNL     1      -7.146  -2.486   1.606  1.00  0.00    -0.550 OA
ATOM      9  O   UNL     1      -7.577  -2.402  -0.643  1.00  0.00    -0.550 OA
ENDBRANCH   6   7
ENDBRANCH   5   6
ENDBRANCH   4   5
ENDBRANCH   3   4
ENDBRANCH   2   3
ENDBRANCH   1   2
BRANCH   1  10
ATOM     10  C   UNL     1      -4.857   3.716   3.164  1.00  0.00     0.000 C 
BRANCH  10  11
ATOM     11  C   UNL     1      -4.661   4.757   2.048  1.00  0.00    -0.000 C 
BRANCH  11  12
ATOM     12  C   UNL     1      -3.407   4.487   1.201  1.00  0.00    -0.000 C 
BRANCH  12  13
ATOM     13  C   UNL     1      -3.117   2.987   1.032  1.00  0.00    -0.000 C 
BRANCH  13  14
ATOM     14  C   UNL     1      -3.217   2.572  -0.442  1.00  0.00    -0.000 C 
BRANCH  14  15
ATOM     15  C   UNL     1      -3.816   3.702  -1.291  1.00  0.00    -0.000 C 
BRANCH  15  16
ATOM     16  C   UNL     1      -5.314   3.501  -1.569  1.00  0.00    -0.003 C 
ATOM     17  C   UNL     1      -6.133   4.772  -1.345  1.00  0.00     0.004 C 
ENDBRANCH  15  16
ENDBRANCH  14  15
ENDBRANCH  13  14
ENDBRANCH  12  13
ENDBRANCH  11  12
ENDBRANCH  10  11
ENDBRANCH   1  10
TORSDOF 13
ENDMDL
MODEL 5
REMARK VINA RESULT:    -3.268      4.002      6.268
REMARK INTER + INTRA:          -8.067
REMARK INTER:                  -6.330
REMARK INTRA:                  -1.737
REMARK UNBOUND:                -2.315
REMARK SMILES CCCCCCCCCCCCCCC(=O)[O-]
REMARK SMILES IDX 9 1 10 2 11 3 12 4 13 5 14 6 15 7 16 8 17 9 8 10 7 11 6 12
REMARK SMILES IDX 5 13 4 14 3 15 2 16 1 17
REMARK H PARENT
REMARK Flexibility Score: inf
ROOT
ATOM      1  C   UNL     1      -3.572   2.740  -0.775  1.00  0.00     0.000 C 
ENDROOT
BRANCH   1   2
ATOM      2  C   UNL     1      -3.148   2.606   0.695  1.00  0.00     0.000 C 
BRANCH   2   3
ATOM      3  C   UNL     1      -3.492   3.875   1.484  1.00  0.00     0.000 C 
BRANCH   3   4
ATOM      4  C   UNL     1      -4.407   3.555   2.672  1.00  0.00     0.000 C 
BRANCH   4   5
ATOM      5  C   UNL     1      -5.015   4.838   3.260  1.00  0.00     0.006 C 
BRANCH   5   6
ATOM      6  C   UNL     1      -4.773   4.954   4.771  1.00  0.00     0.053 C 
BRANCH   6   7
ATOM      7  C   UNL     1      -4.632   6.382   5.202  1.00  0.00     0.041 C 
ATOM      8  O   UNL     1      -3.549   6.999   5.011  1.00  0.00    -0.550 OA
ATOM      9  O   UNL     1      -5.707   7.042   5.783  1.00  0.00    -0.550 OA
ENDBRANCH   6   7
ENDBRANCH   5   6
ENDBRANCH   4   5
ENDBRANCH   3   4
ENDBRANCH   2   3
ENDBRANCH   1   2
BRANCH   1  10
ATOM     10  C   UNL     1      -4.268   4.078  -1.073  1.00  0.00     0.000 C 
BRANCH  10  11
ATOM     11  C   UNL     1      -5.623   3.894  -1.777  1.00  0.00    -0.000 C 
BRANCH  11  12
ATOM     12  C   UNL     1      -6.376   2.645  -1.291  1.00  0.00    -0.000 C 
BRANCH  12  13
ATOM     13  C   UNL     1      -7.096   2.869   0.048  1.00  0.00    -0.000 C 
BRANCH  13  14
ATOM     14  C   UNL     1      -6.909   1.664   0.980  1.00  0.00    -0.000 C 
BRANCH  14  15
ATOM     15  C   UNL     1      -6.470   0.422   0.190  1.00  0.00    -0.000 C 
BRANCH  15  16
ATOM     16  C   UNL     1      -5.934  -0.695   1.099  1.00  0.00    -0.003 C 
ATOM     17  C   UNL     1      -5.023  -1.673   0.358  1.00  0.00     0.004 C 
ENDBRANCH  15  16
ENDBRANCH  14  15
ENDBRANCH  13  14
ENDBRANCH  12  13
ENDBRANCH  11  12
ENDBRANCH  10  11
ENDBRANCH   1  10
TORSDOF 13
ENDMDL
MODEL 6
REMARK VINA RESULT:    -3.242      2.837      5.375
REMARK INTER + INTRA:          -8.022
REMARK INTER:                  -5.559
REMARK INTRA:                  -2.463
REMARK UNBOUND:                -2.315
REMARK SMILES CCCCCCCCCCCCCCC(=O)[O-]
REMARK SMILES IDX 9 1 10 2 11 3 12 4 13 5 14 6 15 7 16 8 17 9 8 10 7 11 6 12
REMARK SMILES IDX 5 13 4 14 3 15 2 16 1 17
REMARK H PARENT
REMARK Flexibility Score: inf
ROOT
ATOM      1  C   UNL     1      -3.703   2.061  -0.025  1.00  0.00     0.000 C 
ENDROOT
BRANCH   1   2
ATOM      2  C   UNL     1      -3.171   3.008   1.062  1.00  0.00     0.000 C 
BRANCH   2   3
ATOM      3  C   UNL     1      -3.724   4.426   0.873  1.00  0.00     0.000 C 
BRANCH   3   4
ATOM      4  C   UNL     1      -4.486   4.892   2.119  1.00  0.00     0.000 C 
BRANCH   4   5
ATOM      5  C   UNL     1      -4.785   3.712   3.056  1.00  0.00     0.006 C 
BRANCH   5   6
ATOM      6  C   UNL     1      -6.284   3.396   3.130  1.00  0.00     0.053 C 
BRANCH   6   7
ATOM      7  C   UNL     1      -6.797   3.465   4.536  1.00  0.00     0.041 C 
ATOM      8  O   UNL     1      -7.338   2.457   5.065  1.00  0.00    -0.550 OA
ATOM      9  O   UNL     1      -6.647   4.632   5.274  1.00  0.00    -0.550 OA
ENDBRANCH   6   7
ENDBRANCH   5   6
ENDBRANCH   4   5
ENDBRANCH   3   4
ENDBRANCH   2   3
ENDBRANCH   1   2
BRANCH   1  10
ATOM     10  C   UNL     1      -4.646   0.983   0.536  1.00  0.00     0.000 C 
BRANCH  10  11
ATOM     11  C   UNL     1      -6.096   1.158   0.052  1.00  0.00    -0.000 C 
BRANCH  11  12
ATOM     12  C   UNL     1      -6.231   2.246  -1.026  1.00  0.00    -0.000 C 
BRANCH  12  13
ATOM     13  C   UNL     1      -7.100   3.429  -0.569  1.00  0.00    -0.000 C 
BRANCH  13  14
ATOM     14  C   UNL     1      -6.712   4.714  -1.312  1.00  0.00    -0.000 C 
BRANCH  14  15
ATOM     15  C   UNL     1      -5.856   4.397  -2.547  1.00  0.00    -0.000 C 
BRANCH  15  16
ATOM     16  C   UNL     1      -4.586   5.259  -2.622  1.00  0.00    -0.003 C 
ATOM     17  C   UNL     1      -3.324   4.432  -2.866  1.00  0.00     0.004 C 
ENDBRANCH  15  16
ENDBRANCH  14  15
ENDBRANCH  13  14
ENDBRANCH  12  13
ENDBRANCH  11  12
ENDBRANCH  10  11
ENDBRANCH   1  10
TORSDOF 13
ENDMDL
MODEL 7
REMARK VINA RESULT:    -3.203      4.373      8.126
REMARK INTER + INTRA:          -7.953
REMARK INTER:                  -7.263
REMARK INTRA:                  -0.690
REMARK UNBOUND:                -2.315
REMARK SMILES CCCCCCCCCCCCCCC(=O)[O-]
REMARK SMILES IDX 9 1 10 2 11 3 12 4 13 5 14 6 15 7 16 8 17 9 8 10 7 11 6 12
REMARK SMILES IDX 5 13 4 14 3 15 2 16 1 17
REMARK H PARENT
REMARK Flexibility Score: inf
ROOT
ATOM      1  C   UNL     1      -7.306  -0.525   0.056  1.00  0.00     0.000 C 
ENDROOT
BRANCH   1   2
ATOM      2  C   UNL     1      -5.948  -0.961   0.627  1.00  0.00     0.000 C 
BRANCH   2   3
ATOM      3  C   UNL     1      -4.928   0.182   0.553  1.00  0.00     0.000 C 
BRANCH   3   4
ATOM      4  C   UNL     1      -5.564   1.454  -0.019  1.00  0.00     0.000 C 
BRANCH   4   5
ATOM      5  C   UNL     1      -4.493   2.400  -0.581  1.00  0.00     0.006 C 
BRANCH   5   6
ATOM      6  C   UNL     1      -3.276   2.513   0.345  1.00  0.00     0.053 C 
BRANCH   6   7
ATOM      7  C   UNL     1      -3.356   3.725   1.223  1.00  0.00     0.041 C 
ATOM      8  O   UNL     1      -3.615   4.853   0.725  1.00  0.00    -0.550 OA
ATOM      9  O   UNL     1      -3.179   3.603   2.595  1.00  0.00    -0.550 OA
ENDBRANCH   6   7
ENDBRANCH   5   6
ENDBRANCH   4   5
ENDBRANCH   3   4
ENDBRANCH   2   3
ENDBRANCH   1   2
BRANCH   1  10
ATOM     10  C   UNL     1      -8.182  -1.714  -0.370  1.00  0.00     0.000 C 
BRANCH  10  11
ATOM     11  C   UNL     1      -7.398  -3.037  -0.417  1.00  0.00    -0.000 C 
BRANCH  11  12
ATOM     12  C   UNL     1      -7.322  -3.629  -1.834  1.00  0.00    -0.000 C 
BRANCH  12  13
ATOM     13  C   UNL     1      -5.934  -4.197  -2.167  1.00  0.00    -0.000 C 
BRANCH  13  14
ATOM     14  C   UNL     1      -6.050  -5.459  -3.032  1.00  0.00    -0.000 C 
BRANCH  14  15
ATOM     15  C   UNL     1      -5.040  -6.525  -2.586  1.00  0.00    -0.000 C 
BRANCH  15  16
ATOM     16  C   UNL     1      -4.261  -7.129  -3.764  1.00  0.00    -0.003 C 
ATOM     17  C   UNL     1      -3.311  -8.248  -3.335  1.00  0.00     0.004 C 
ENDBRANCH  15  16
ENDBRANCH  14  15
ENDBRANCH  13  14
ENDBRANCH  12  13
ENDBRANCH  11  12
ENDBRANCH  10  11
ENDBRANCH   1  10
TORSDOF 13
ENDMDL
MODEL 8
REMARK VINA RESULT:    -3.200      3.478      5.197
REMARK INTER + INTRA:          -7.948
REMARK INTER:                  -6.363
REMARK INTRA:                  -1.585
REMARK UNBOUND:                -2.315
REMARK SMILES CCCCCCCCCCCCCCC(=O)[O-]
REMARK SMILES IDX 9 1 10 2 11 3 12 4 13 5 14 6 15 7 16 8 17 9 8 10 7 11 6 12
REMARK SMILES IDX 5 13 4 14 3 15 2 16 1 17
REMARK H PARENT
REMARK Flexibility Score: inf
ROOT
ATOM      1  C   UNL     1      -7.755   2.638  -1.433  1.00  0.00     0.000 C 
ENDROOT
BRANCH   1   2
ATOM      2  C   UNL     1      -7.534   3.791  -2.422  1.00  0.00     0.000 C 
BRANCH   2   3
ATOM      3  C   UNL     1      -6.334   4.651  -2.005  1.00  0.00     0.000 C 
BRANCH   3   4
ATOM      4  C   UNL     1      -5.267   4.680  -3.105  1.00  0.00     0.000 C 
BRANCH   4   5
ATOM      5  C   UNL     1      -3.855   4.594  -2.505  1.00  0.00     0.006 C 
BRANCH   5   6
ATOM      6  C   UNL     1      -2.775   5.038  -3.499  1.00  0.00     0.053 C 
BRANCH   6   7
ATOM      7  C   UNL     1      -2.048   3.868  -4.088  1.00  0.00     0.041 C 
ATOM      8  O   UNL     1      -1.354   3.116  -3.353  1.00  0.00    -0.550 OA
ATOM      9  O   UNL     1      -2.164   3.588  -5.444  1.00  0.00    -0.550 OA
ENDBRANCH   6   7
ENDBRANCH   5   6
ENDBRANCH   4   5
ENDBRANCH   3   4
ENDBRANCH   2   3
ENDBRANCH   1   2
BRANCH   1  10
ATOM     10  C   UNL     1      -6.679   2.581  -0.336  1.00  0.00     0.000 C 
BRANCH  10  11
ATOM     11  C   UNL     1      -6.003   1.202  -0.244  1.00  0.00    -0.000 C 
BRANCH  11  12
ATOM     12  C   UNL     1      -4.751   1.217   0.648  1.00  0.00    -0.000 C 
BRANCH  12  13
ATOM     13  C   UNL     1      -3.649   2.143   0.109  1.00  0.00    -0.000 C 
BRANCH  13  14
ATOM     14  C   UNL     1      -3.091   3.038   1.224  1.00  0.00    -0.000 C 
BRANCH  14  15
ATOM     15  C   UNL     1      -4.123   4.093   1.649  1.00  0.00    -0.000 C 
BRANCH  15  16
ATOM     16  C   UNL     1      -4.459   4.018   3.147  1.00  0.00    -0.003 C 
ATOM     17  C   UNL     1      -5.840   3.418   3.415  1.00  0.00     0.004 C 
ENDBRANCH  15  16
ENDBRANCH  14  15
ENDBRANCH  13  14
ENDBRANCH  12  13
ENDBRANCH  11  12
ENDBRANCH  10  11
ENDBRANCH   1  10
TORSDOF 13
ENDMDL
MODEL 9
REMARK VINA RESULT:    -3.129      1.352      2.787
REMARK INTER + INTRA:          -7.822
REMARK INTER:                  -5.886
REMARK INTRA:                  -1.936
REMARK UNBOUND:                -2.315
REMARK SMILES CCCCCCCCCCCCCCC(=O)[O-]
REMARK SMILES IDX 9 1 10 2 11 3 12 4 13 5 14 6 15 7 16 8 17 9 8 10 7 11 6 12
REMARK SMILES IDX 5 13 4 14 3 15 2 16 1 17
REMARK H PARENT
REMARK Flexibility Score: inf
ROOT
ATOM      1  C   UNL     1      -7.208   1.596   0.625  1.00  0.00     0.000 C 
ENDROOT
BRANCH   1   2
ATOM      2  C   UNL     1      -6.537   0.424   1.355  1.00  0.00     0.000 C 
BRANCH   2   3
ATOM      3  C   UNL     1      -5.281  -0.041   0.608  1.00  0.00     0.000 C 
BRANCH   3   4
ATOM      4  C   UNL     1      -5.241  -1.569   0.491  1.00  0.00     0.000 C 
BRANCH   4   5
ATOM      5  C   UNL     1      -6.655  -2.164   0.566  1.00  0.00     0.006 C 
BRANCH   5   6
ATOM      6  C   UNL     1      -7.029  -2.934  -0.707  1.00  0.00     0.053 C 
BRANCH   6   7
ATOM      7  C   UNL     1      -8.418  -2.608  -1.165  1.00  0.00     0.041 C 
ATOM      8  O   UNL     1      -9.223  -3.532  -1.458  1.00  0.00    -0.550 OA
ATOM      9  O   UNL     1      -8.835  -1.285  -1.235  1.00  0.00    -0.550 OA
ENDBRANCH   6   7
ENDBRANCH   5   6
ENDBRANCH   4   5
ENDBRANCH   3   4
ENDBRANCH   2   3
ENDBRANCH   1   2
BRANCH   1  10
ATOM     10  C   UNL     1      -6.910   1.606  -0.884  1.00  0.00     0.000 C 
BRANCH  10  11
ATOM     11  C   UNL     1      -7.309   2.932  -1.555  1.00  0.00    -0.000 C 
BRANCH  11  12
ATOM     12  C   UNL     1      -6.344   4.079  -1.216  1.00  0.00    -0.000 C 
BRANCH  12  13
ATOM     13  C   UNL     1      -4.998   3.958  -1.947  1.00  0.00    -0.000 C 
BRANCH  13  14
ATOM     14  C   UNL     1      -3.826   4.172  -0.979  1.00  0.00    -0.000 C 
BRANCH  14  15
ATOM     15  C   UNL     1      -3.395   2.845  -0.337  1.00  0.00    -0.000 C 
BRANCH  15  16
ATOM     16  C   UNL     1      -3.106   2.984   1.166  1.00  0.00    -0.003 C 
ATOM     17  C   UNL     1      -4.326   3.447   1.963  1.00  0.00     0.004 C 
ENDBRANCH  15  16
ENDBRANCH  14  15
ENDBRANCH  13  14
ENDBRANCH  12  13
ENDBRANCH  11  12
ENDBRANCH  10  11
ENDBRANCH   1  10
TORSDOF 13
ENDMDL
