MODEL 1
REMARK VINA RESULT:    -4.988      0.000      0.000
REMARK INTER + INTRA:          -6.416
REMARK INTER:                  -6.155
REMARK INTRA:                  -0.261
REMARK UNBOUND:                -0.261
REMARK SMILES C=CC[C@@H](C)C(=O)CC
REMARK SMILES IDX 4 1 5 2 6 3 7 4 8 5 9 6 3 7 2 8 1 9
REMARK H PARENT
REMARK Flexibility Score: inf
ROOT
ATOM      1  C   UNL     1      27.917 -19.860  19.706  1.00  0.00     0.057 C 
ATOM      2  C   UNL     1      28.770 -18.587  19.753  1.00  0.00     0.016 C 
ENDROOT
BRANCH   1   3
ATOM      3  C   UNL     1      26.463 -19.522  19.433  1.00  0.00     0.135 C 
ATOM      4  O   UNL     1      26.014 -18.463  19.847  1.00  0.00    -0.299 OA
BRANCH   3   5
ATOM      5  C   UNL     1      25.559 -20.439  18.645  1.00  0.00     0.072 C 
ATOM      6  C   UNL     1      24.513 -19.646  17.866  1.00  0.00     0.012 C 
ENDBRANCH   3   5
ENDBRANCH   1   3
BRANCH   1   7
ATOM      7  C   UNL     1      28.481 -20.863  18.678  1.00  0.00     0.038 C 
BRANCH   7   8
ATOM      8  C   UNL     1      29.203 -22.010  19.336  1.00  0.00    -0.034 C 
ATOM      9  C   UNL     1      28.564 -23.123  19.710  1.00  0.00     0.004 C 
ENDBRANCH   7   8
ENDBRANCH   1   7
TORSDOF 4
ENDMDL
MODEL 2
REMARK VINA RESULT:    -4.899      4.846      6.092
REMARK INTER + INTRA:          -6.306
REMARK INTER:                  -6.035
REMARK INTRA:                  -0.271
REMARK UNBOUND:                -0.261
REMARK SMILES C=CC[C@@H](C)C(=O)CC
REMARK SMILES IDX 4 1 5 2 6 3 7 4 8 5 9 6 3 7 2 8 1 9
REMARK H PARENT
REMARK Flexibility Score: inf
ROOT
ATOM      1  C   UNL     1      22.157 -22.632  20.513  1.00  0.00     0.057 C 
ATOM      2  C   UNL     1      21.659 -21.251  20.955  1.00  0.00     0.016 C 
ENDROOT
BRANCH   1   3
ATOM      3  C   UNL     1      23.239 -22.499  19.457  1.00  0.00     0.135 C 
ATOM      4  O   UNL     1      23.859 -21.449  19.375  1.00  0.00    -0.299 OA
BRANCH   3   5
ATOM      5  C   UNL     1      23.591 -23.630  18.521  1.00  0.00     0.072 C 
ATOM      6  C   UNL     1      24.852 -24.355  18.981  1.00  0.00     0.012 C 
ENDBRANCH   3   5
ENDBRANCH   1   3
BRANCH   1   7
ATOM      7  C   UNL     1      22.631 -23.459  21.727  1.00  0.00     0.038 C 
BRANCH   7   8
ATOM      8  C   UNL     1      22.224 -24.907  21.625  1.00  0.00    -0.034 C 
ATOM      9  C   UNL     1      22.645 -25.820  22.505  1.00  0.00     0.004 C 
ENDBRANCH   7   8
ENDBRANCH   1   7
TORSDOF 4
ENDMDL
MODEL 3
REMARK VINA RESULT:    -4.872      5.373      6.398
REMARK INTER + INTRA:          -6.272
REMARK INTER:                  -6.115
REMARK INTRA:                  -0.157
REMARK UNBOUND:                -0.261
REMARK SMILES C=CC[C@@H](C)C(=O)CC
REMARK SMILES IDX 4 1 5 2 6 3 7 4 8 5 9 6 3 7 2 8 1 9
REMARK H PARENT
REMARK Flexibility Score: inf
ROOT
ATOM      1  C   UNL     1      22.675 -22.021  20.722  1.00  0.00     0.057 C 
ATOM      2  C   UNL     1      23.388 -21.550  19.449  1.00  0.00     0.016 C 
ENDROOT
BRANCH   1   3
ATOM      3  C   UNL     1      21.311 -21.367  20.845  1.00  0.00     0.135 C 
ATOM      4  O   UNL     1      20.363 -21.859  20.251  1.00  0.00    -0.299 OA
BRANCH   3   5
ATOM      5  C   UNL     1      21.081 -20.143  21.699  1.00  0.00     0.072 C 
ATOM      6  C   UNL     1      19.606 -19.755  21.720  1.00  0.00     0.012 C 
ENDBRANCH   3   5
ENDBRANCH   1   3
BRANCH   1   7
ATOM      7  C   UNL     1      22.585 -23.561  20.764  1.00  0.00     0.038 C 
BRANCH   7   8
ATOM      8  C   UNL     1      22.657 -24.099  22.170  1.00  0.00    -0.034 C 
ATOM      9  C   UNL     1      22.302 -25.354  22.463  1.00  0.00     0.004 C 
ENDBRANCH   7   8
ENDBRANCH   1   7
TORSDOF 4
ENDMDL
MODEL 4
REMARK VINA RESULT:    -4.862      4.850      5.894
REMARK INTER + INTRA:          -6.260
REMARK INTER:                  -6.060
REMARK INTRA:                  -0.200
REMARK UNBOUND:                -0.261
REMARK SMILES C=CC[C@@H](C)C(=O)CC
REMARK SMILES IDX 4 1 5 2 6 3 7 4 8 5 9 6 3 7 2 8 1 9
REMARK H PARENT
REMARK Flexibility Score: inf
ROOT
ATOM      1  C   UNL     1      21.946 -22.219  20.586  1.00  0.00     0.057 C 
ATOM      2  C   UNL     1      21.202 -21.053  21.247  1.00  0.00     0.016 C 
ENDROOT
BRANCH   1   3
ATOM      3  C   UNL     1      22.972 -21.707  19.592  1.00  0.00     0.135 C 
ATOM      4  O   UNL     1      23.521 -20.636  19.807  1.00  0.00    -0.299 OA
BRANCH   3   5
ATOM      5  C   UNL     1      23.355 -22.488  18.358  1.00  0.00     0.072 C 
ATOM      6  C   UNL     1      22.583 -22.001  17.135  1.00  0.00     0.012 C 
ENDBRANCH   3   5
ENDBRANCH   1   3
BRANCH   1   7
ATOM      7  C   UNL     1      22.580 -23.140  21.650  1.00  0.00     0.038 C 
BRANCH   7   8
ATOM      8  C   UNL     1      22.460 -24.598  21.288  1.00  0.00    -0.034 C 
ATOM      9  C   UNL     1      22.127 -25.524  22.193  1.00  0.00     0.004 C 
ENDBRANCH   7   8
ENDBRANCH   1   7
TORSDOF 4
ENDMDL
MODEL 5
REMARK VINA RESULT:    -4.851      5.094      6.824
REMARK INTER + INTRA:          -6.247
REMARK INTER:                  -6.034
REMARK INTRA:                  -0.213
REMARK UNBOUND:                -0.261
REMARK SMILES C=CC[C@@H](C)C(=O)CC
REMARK SMILES IDX 4 1 5 2 6 3 7 4 8 5 9 6 3 7 2 8 1 9
REMARK H PARENT
REMARK Flexibility Score: inf
ROOT
ATOM      1  C   UNL     1      22.882 -22.563  19.864  1.00  0.00     0.057 C 
ATOM      2  C   UNL     1      24.003 -22.080  18.935  1.00  0.00     0.016 C 
ENDROOT
BRANCH   1   3
ATOM      3  C   UNL     1      23.251 -23.888  20.505  1.00  0.00     0.135 C 
ATOM      4  O   UNL     1      23.831 -24.729  19.833  1.00  0.00    -0.299 OA
BRANCH   3   5
ATOM      5  C   UNL     1      22.947 -24.193  21.952  1.00  0.00     0.072 C 
ATOM      6  C   UNL     1      22.178 -25.503  22.090  1.00  0.00     0.012 C 
ENDBRANCH   3   5
ENDBRANCH   1   3
BRANCH   1   7
ATOM      7  C   UNL     1      22.538 -21.487  20.915  1.00  0.00     0.038 C 
BRANCH   7   8
ATOM      8  C   UNL     1      21.062 -21.188  20.963  1.00  0.00    -0.034 C 
ATOM      9  C   UNL     1      20.571 -20.178  21.688  1.00  0.00     0.004 C 
ENDBRANCH   7   8
ENDBRANCH   1   7
TORSDOF 4
ENDMDL
MODEL 6
REMARK VINA RESULT:    -4.813      4.777      6.314
REMARK INTER + INTRA:          -6.200
REMARK INTER:                  -5.997
REMARK INTRA:                  -0.202
REMARK UNBOUND:                -0.261
REMARK SMILES C=CC[C@@H](C)C(=O)CC
REMARK SMILES IDX 4 1 5 2 6 3 7 4 8 5 9 6 3 7 2 8 1 9
REMARK H PARENT
REMARK Flexibility Score: inf
ROOT
ATOM      1  C   UNL     1      23.291 -23.532  19.535  1.00  0.00     0.057 C 
ATOM      2  C   UNL     1      24.618 -24.293  19.436  1.00  0.00     0.016 C 
ENDROOT
BRANCH   1   3
ATOM      3  C   UNL     1      22.873 -23.369  20.985  1.00  0.00     0.135 C 
ATOM      4  O   UNL     1      22.220 -22.387  21.306  1.00  0.00    -0.299 OA
BRANCH   3   5
ATOM      5  C   UNL     1      23.217 -24.393  22.040  1.00  0.00     0.072 C 
ATOM      6  C   UNL     1      22.152 -25.483  22.119  1.00  0.00     0.012 C 
ENDBRANCH   3   5
ENDBRANCH   1   3
BRANCH   1   7
ATOM      7  C   UNL     1      23.378 -22.177  18.802  1.00  0.00     0.038 C 
BRANCH   7   8
ATOM      8  C   UNL     1      22.445 -22.105  17.622  1.00  0.00    -0.034 C 
ATOM      9  C   UNL     1      22.874 -21.758  16.404  1.00  0.00     0.004 C 
ENDBRANCH   7   8
ENDBRANCH   1   7
TORSDOF 4
ENDMDL
MODEL 7
REMARK VINA RESULT:    -4.792      4.600      6.218
REMARK INTER + INTRA:          -6.174
REMARK INTER:                  -6.001
REMARK INTRA:                  -0.174
REMARK UNBOUND:                -0.261
REMARK SMILES C=CC[C@@H](C)C(=O)CC
REMARK SMILES IDX 4 1 5 2 6 3 7 4 8 5 9 6 3 7 2 8 1 9
REMARK H PARENT
REMARK Flexibility Score: inf
ROOT
ATOM      1  C   UNL     1      22.703 -22.081  20.460  1.00  0.00     0.057 C 
ATOM      2  C   UNL     1      21.231 -21.752  20.732  1.00  0.00     0.016 C 
ENDROOT
BRANCH   1   3
ATOM      3  C   UNL     1      22.991 -23.541  20.758  1.00  0.00     0.135 C 
ATOM      4  O   UNL     1      23.363 -24.268  19.848  1.00  0.00    -0.299 OA
BRANCH   3   5
ATOM      5  C   UNL     1      22.858 -24.119  22.146  1.00  0.00     0.072 C 
ATOM      6  C   UNL     1      22.174 -25.483  22.112  1.00  0.00     0.012 C 
ENDBRANCH   3   5
ENDBRANCH   1   3
BRANCH   1   7
ATOM      7  C   UNL     1      23.095 -21.695  19.018  1.00  0.00     0.038 C 
BRANCH   7   8
ATOM      8  C   UNL     1      24.271 -20.754  18.977  1.00  0.00    -0.034 C 
ATOM      9  C   UNL     1      24.458 -19.904  17.963  1.00  0.00     0.004 C 
ENDBRANCH   7   8
ENDBRANCH   1   7
TORSDOF 4
ENDMDL
MODEL 8
REMARK VINA RESULT:    -4.783      1.462      4.316
REMARK INTER + INTRA:          -6.163
REMARK INTER:                  -5.971
REMARK INTRA:                  -0.192
REMARK UNBOUND:                -0.261
REMARK SMILES C=CC[C@@H](C)C(=O)CC
REMARK SMILES IDX 4 1 5 2 6 3 7 4 8 5 9 6 3 7 2 8 1 9
REMARK H PARENT
REMARK Flexibility Score: inf
ROOT
ATOM      1  C   UNL     1      24.791 -19.361  18.879  1.00  0.00     0.057 C 
ATOM      2  C   UNL     1      23.828 -19.708  20.020  1.00  0.00     0.016 C 
ENDROOT
BRANCH   1   3
ATOM      3  C   UNL     1      26.232 -19.547  19.318  1.00  0.00     0.135 C 
ATOM      4  O   UNL     1      26.687 -18.809  20.180  1.00  0.00    -0.299 OA
BRANCH   3   5
ATOM      5  C   UNL     1      27.114 -20.629  18.744  1.00  0.00     0.072 C 
ATOM      6  C   UNL     1      28.577 -20.401  19.111  1.00  0.00     0.012 C 
ENDBRANCH   3   5
ENDBRANCH   1   3
BRANCH   1   7
ATOM      7  C   UNL     1      24.462 -20.180  17.613  1.00  0.00     0.038 C 
BRANCH   7   8
ATOM      8  C   UNL     1      24.098 -19.302  16.444  1.00  0.00    -0.034 C 
ATOM      9  C   UNL     1      24.418 -19.633  15.188  1.00  0.00     0.004 C 
ENDBRANCH   7   8
ENDBRANCH   1   7
TORSDOF 4
ENDMDL
MODEL 9
REMARK VINA RESULT:    -4.648      4.733      5.664
REMARK INTER + INTRA:          -5.996
REMARK INTER:                  -5.816
REMARK INTRA:                  -0.180
REMARK UNBOUND:                -0.261
REMARK SMILES C=CC[C@@H](C)C(=O)CC
REMARK SMILES IDX 4 1 5 2 6 3 7 4 8 5 9 6 3 7 2 8 1 9
REMARK H PARENT
REMARK Flexibility Score: inf
ROOT
ATOM      1  C   UNL     1      23.755 -23.213  19.668  1.00  0.00     0.057 C 
ATOM      2  C   UNL     1      24.174 -24.541  19.027  1.00  0.00     0.016 C 
ENDROOT
BRANCH   1   3
ATOM      3  C   UNL     1      23.330 -22.215  18.607  1.00  0.00     0.135 C 
ATOM      4  O   UNL     1      23.486 -21.022  18.821  1.00  0.00    -0.299 OA
BRANCH   3   5
ATOM      5  C   UNL     1      22.745 -22.649  17.284  1.00  0.00     0.072 C 
ATOM      6  C   UNL     1      22.902 -21.560  16.228  1.00  0.00     0.012 C 
ENDBRANCH   3   5
ENDBRANCH   1   3
BRANCH   1   7
ATOM      7  C   UNL     1      22.653 -23.438  20.726  1.00  0.00     0.038 C 
BRANCH   7   8
ATOM      8  C   UNL     1      23.004 -24.541  21.690  1.00  0.00    -0.034 C 
ATOM      9  C   UNL     1      22.116 -25.475  22.046  1.00  0.00     0.004 C 
ENDBRANCH   7   8
ENDBRANCH   1   7
TORSDOF 4
ENDMDL
