MODEL 1
REMARK VINA RESULT:    -5.621      0.000      0.000
REMARK INTER + INTRA:          -6.456
REMARK INTER:                  -5.950
REMARK INTRA:                  -0.506
REMARK UNBOUND:                -0.506
REMARK SMILES CC1=C[C@H]2C(=C(C)CC[C@H]2C(C)C)CC1
REMARK SMILES IDX 1 1 2 2 3 3 4 4 10 5 9 6 8 7 6 8 5 9 14 10 15 11 7 12 11 13
REMARK SMILES IDX 12 14 13 15
REMARK H PARENT
REMARK Flexibility Score: inf
ROOT
ATOM      1  C   UNL     1     168.859 166.383 203.529  1.00  0.00     0.039 C 
ATOM      2  C   UNL     1     168.757 166.979 202.151  1.00  0.00    -0.076 C 
ATOM      3  C   UNL     1     168.280 168.232 202.012  1.00  0.00    -0.020 C 
ATOM      4  C   UNL     1     168.153 168.936 200.680  1.00  0.00     0.041 C 
ATOM      5  C   UNL     1     166.710 169.477 200.363  1.00  0.00     0.003 C 
ATOM      6  C   UNL     1     166.560 169.914 198.868  1.00  0.00     0.009 C 
ATOM      7  C   UNL     1     167.896 170.021 198.126  1.00  0.00     0.031 C 
ATOM      8  C   UNL     1     168.671 168.730 198.276  1.00  0.00    -0.073 C 
ATOM      9  C   UNL     1     168.763 168.172 199.511  1.00  0.00    -0.064 C 
ATOM     10  C   UNL     1     169.660 166.985 199.796  1.00  0.00     0.036 C 
ATOM     11  C   UNL     1     169.120 166.140 200.948  1.00  0.00     0.035 C 
ATOM     12  C   UNL     1     169.319 168.114 197.060  1.00  0.00     0.039 C 
ENDROOT
BRANCH   5  13
ATOM     13  C   UNL     1     165.486 168.582 200.770  1.00  0.00    -0.013 C 
ATOM     14  C   UNL     1     164.170 169.356 200.935  1.00  0.00     0.007 C 
ATOM     15  C   UNL     1     165.286 167.353 199.866  1.00  0.00     0.007 C 
ENDBRANCH   5  13
TORSDOF 1
ENDMDL
MODEL 2
REMARK VINA RESULT:    -5.584      4.407      6.913
REMARK INTER + INTRA:          -6.416
REMARK INTER:                  -5.911
REMARK INTRA:                  -0.505
REMARK UNBOUND:                -0.506
REMARK SMILES CC1=C[C@H]2C(=C(C)CC[C@H]2C(C)C)CC1
REMARK SMILES IDX 1 1 2 2 3 3 4 4 10 5 9 6 8 7 6 8 5 9 14 10 15 11 7 12 11 13
REMARK SMILES IDX 12 14 13 15
REMARK H PARENT
REMARK Flexibility Score: inf
ROOT
ATOM      1  C   UNL     1     163.079 165.586 203.451  1.00  0.00     0.039 C 
ATOM      2  C   UNL     1     163.212 164.984 202.079  1.00  0.00    -0.076 C 
ATOM      3  C   UNL     1     163.720 163.742 201.954  1.00  0.00    -0.020 C 
ATOM      4  C   UNL     1     163.881 163.032 200.629  1.00  0.00     0.041 C 
ATOM      5  C   UNL     1     165.340 162.524 200.332  1.00  0.00     0.003 C 
ATOM      6  C   UNL     1     165.518 162.082 198.842  1.00  0.00     0.009 C 
ATOM      7  C   UNL     1     164.193 161.937 198.085  1.00  0.00     0.031 C 
ATOM      8  C   UNL     1     163.386 163.210 198.217  1.00  0.00    -0.073 C 
ATOM      9  C   UNL     1     163.266 163.773 199.447  1.00  0.00    -0.064 C 
ATOM     10  C   UNL     1     162.337 164.940 199.713  1.00  0.00     0.036 C 
ATOM     11  C   UNL     1     162.842 165.805 200.865  1.00  0.00     0.035 C 
ATOM     12  C   UNL     1     162.738 163.802 196.989  1.00  0.00     0.039 C 
ENDROOT
BRANCH   5  13
ATOM     13  C   UNL     1     166.537 163.452 200.747  1.00  0.00    -0.013 C 
ATOM     14  C   UNL     1     167.835 162.696 201.066  1.00  0.00     0.007 C 
ATOM     15  C   UNL     1     166.804 164.602 199.761  1.00  0.00     0.007 C 
ENDBRANCH   5  13
TORSDOF 1
ENDMDL
MODEL 3
REMARK VINA RESULT:    -5.428      4.639      6.714
REMARK INTER + INTRA:          -6.251
REMARK INTER:                  -5.791
REMARK INTRA:                  -0.460
REMARK UNBOUND:                -0.506
REMARK SMILES CC1=C[C@H]2C(=C(C)CC[C@H]2C(C)C)CC1
REMARK SMILES IDX 1 1 2 2 3 3 4 4 10 5 9 6 8 7 6 8 5 9 14 10 15 11 7 12 11 13
REMARK SMILES IDX 12 14 13 15
REMARK H PARENT
REMARK Flexibility Score: inf
ROOT
ATOM      1  C   UNL     1     165.242 161.927 195.894  1.00  0.00     0.039 C 
ATOM      2  C   UNL     1     165.605 162.241 197.319  1.00  0.00    -0.076 C 
ATOM      3  C   UNL     1     164.707 161.995 198.294  1.00  0.00    -0.020 C 
ATOM      4  C   UNL     1     164.972 162.252 199.760  1.00  0.00     0.041 C 
ATOM      5  C   UNL     1     163.910 163.176 200.463  1.00  0.00     0.003 C 
ATOM      6  C   UNL     1     164.389 163.657 201.873  1.00  0.00     0.009 C 
ATOM      7  C   UNL     1     165.610 162.895 202.396  1.00  0.00     0.031 C 
ATOM      8  C   UNL     1     166.718 162.934 201.365  1.00  0.00    -0.073 C 
ATOM      9  C   UNL     1     166.405 162.665 200.071  1.00  0.00    -0.064 C 
ATOM     10  C   UNL     1     167.466 162.502 199.002  1.00  0.00     0.036 C 
ATOM     11  C   UNL     1     166.934 162.892 197.624  1.00  0.00     0.035 C 
ATOM     12  C   UNL     1     168.124 163.258 201.808  1.00  0.00     0.039 C 
ENDROOT
BRANCH   5  13
ATOM     13  C   UNL     1     163.357 164.403 199.653  1.00  0.00    -0.013 C 
ATOM     14  C   UNL     1     162.148 165.092 200.305  1.00  0.00     0.007 C 
ATOM     15  C   UNL     1     164.433 165.435 199.276  1.00  0.00     0.007 C 
ENDBRANCH   5  13
TORSDOF 1
ENDMDL
MODEL 4
REMARK VINA RESULT:    -5.341      1.471      4.985
REMARK INTER + INTRA:          -6.159
REMARK INTER:                  -5.664
REMARK INTRA:                  -0.495
REMARK UNBOUND:                -0.506
REMARK SMILES CC1=C[C@H]2C(=C(C)CC[C@H]2C(C)C)CC1
REMARK SMILES IDX 1 1 2 2 3 3 4 4 10 5 9 6 8 7 6 8 5 9 14 10 15 11 7 12 11 13
REMARK SMILES IDX 12 14 13 15
REMARK H PARENT
REMARK Flexibility Score: inf
ROOT
ATOM      1  C   UNL     1     166.786 169.952 196.492  1.00  0.00     0.039 C 
ATOM      2  C   UNL     1     166.536 169.709 197.955  1.00  0.00    -0.076 C 
ATOM      3  C   UNL     1     167.586 169.660 198.800  1.00  0.00    -0.020 C 
ATOM      4  C   UNL     1     167.451 169.442 200.290  1.00  0.00     0.041 C 
ATOM      5  C   UNL     1     168.287 168.233 200.851  1.00  0.00     0.003 C 
ATOM      6  C   UNL     1     167.878 167.863 202.315  1.00  0.00     0.009 C 
ATOM      7  C   UNL     1     167.002 168.922 202.991  1.00  0.00     0.031 C 
ATOM      8  C   UNL     1     165.806 169.231 202.117  1.00  0.00    -0.073 C 
ATOM      9  C   UNL     1     166.012 169.442 200.791  1.00  0.00    -0.064 C 
ATOM     10  C   UNL     1     164.912 169.932 199.871  1.00  0.00     0.036 C 
ATOM     11  C   UNL     1     165.128 169.452 198.438  1.00  0.00     0.035 C 
ATOM     12  C   UNL     1     164.434 169.304 202.745  1.00  0.00     0.039 C 
ENDROOT
BRANCH   5  13
ATOM     13  C   UNL     1     168.358 166.926 199.983  1.00  0.00    -0.013 C 
ATOM     14  C   UNL     1     169.699 166.183 200.076  1.00  0.00     0.007 C 
ATOM     15  C   UNL     1     167.184 165.960 200.215  1.00  0.00     0.007 C 
ENDBRANCH   5  13
TORSDOF 1
ENDMDL
MODEL 5
REMARK VINA RESULT:    -5.335      1.639      2.632
REMARK INTER + INTRA:          -6.153
REMARK INTER:                  -5.647
REMARK INTRA:                  -0.505
REMARK UNBOUND:                -0.506
REMARK SMILES CC1=C[C@H]2C(=C(C)CC[C@H]2C(C)C)CC1
REMARK SMILES IDX 1 1 2 2 3 3 4 4 10 5 9 6 8 7 6 8 5 9 14 10 15 11 7 12 11 13
REMARK SMILES IDX 12 14 13 15
REMARK H PARENT
REMARK Flexibility Score: inf
ROOT
ATOM      1  C   UNL     1     169.584 163.510 199.954  1.00  0.00     0.039 C 
ATOM      2  C   UNL     1     169.176 164.846 199.396  1.00  0.00    -0.076 C 
ATOM      3  C   UNL     1     169.573 165.969 200.027  1.00  0.00    -0.020 C 
ATOM      4  C   UNL     1     169.239 167.363 199.546  1.00  0.00     0.041 C 
ATOM      5  C   UNL     1     168.526 168.270 200.616  1.00  0.00     0.003 C 
ATOM      6  C   UNL     1     167.932 169.572 199.982  1.00  0.00     0.009 C 
ATOM      7  C   UNL     1     168.430 169.840 198.558  1.00  0.00     0.031 C 
ATOM      8  C   UNL     1     168.196 168.620 197.696  1.00  0.00    -0.073 C 
ATOM      9  C   UNL     1     168.548 167.404 198.188  1.00  0.00    -0.064 C 
ATOM     10  C   UNL     1     168.521 166.150 197.338  1.00  0.00     0.036 C 
ATOM     11  C   UNL     1     168.272 164.905 198.187  1.00  0.00     0.035 C 
ATOM     12  C   UNL     1     167.593 168.793 196.322  1.00  0.00     0.039 C 
ENDROOT
BRANCH   5  13
ATOM     13  C   UNL     1     167.448 167.602 201.541  1.00  0.00    -0.013 C 
ATOM     14  C   UNL     1     167.203 168.349 202.860  1.00  0.00     0.007 C 
ATOM     15  C   UNL     1     166.117 167.302 200.830  1.00  0.00     0.007 C 
ENDBRANCH   5  13
TORSDOF 1
ENDMDL
MODEL 6
REMARK VINA RESULT:    -5.306      4.582      6.602
REMARK INTER + INTRA:          -6.122
REMARK INTER:                  -5.886
REMARK INTRA:                  -0.236
REMARK UNBOUND:                -0.506
REMARK SMILES CC1=C[C@H]2C(=C(C)CC[C@H]2C(C)C)CC1
REMARK SMILES IDX 1 1 2 2 3 3 4 4 10 5 9 6 8 7 6 8 5 9 14 10 15 11 7 12 11 13
REMARK SMILES IDX 12 14 13 15
REMARK H PARENT
REMARK Flexibility Score: inf
ROOT
ATOM      1  C   UNL     1     167.393 162.459 203.396  1.00  0.00     0.039 C 
ATOM      2  C   UNL     1     166.662 162.559 202.085  1.00  0.00    -0.076 C 
ATOM      3  C   UNL     1     167.226 162.035 200.978  1.00  0.00    -0.020 C 
ATOM      4  C   UNL     1     166.574 162.060 199.614  1.00  0.00     0.041 C 
ATOM      5  C   UNL     1     167.455 162.706 198.481  1.00  0.00     0.003 C 
ATOM      6  C   UNL     1     166.630 162.986 197.182  1.00  0.00     0.009 C 
ATOM      7  C   UNL     1     165.259 162.302 197.169  1.00  0.00     0.031 C 
ATOM      8  C   UNL     1     164.496 162.660 198.425  1.00  0.00    -0.073 C 
ATOM      9  C   UNL     1     165.144 162.586 199.617  1.00  0.00    -0.064 C 
ATOM     10  C   UNL     1     164.423 162.749 200.940  1.00  0.00     0.036 C 
ATOM     11  C   UNL     1     165.351 163.306 202.017  1.00  0.00     0.035 C 
ATOM     12  C   UNL     1     163.049 163.074 198.316  1.00  0.00     0.039 C 
ENDROOT
BRANCH   5  13
ATOM     13  C   UNL     1     168.300 163.978 198.847  1.00  0.00    -0.013 C 
ATOM     14  C   UNL     1     169.731 163.669 199.310  1.00  0.00     0.007 C 
ATOM     15  C   UNL     1     168.304 165.059 197.752  1.00  0.00     0.007 C 
ENDBRANCH   5  13
TORSDOF 1
ENDMDL
MODEL 7
REMARK VINA RESULT:    -5.301      1.617      4.902
REMARK INTER + INTRA:          -6.116
REMARK INTER:                  -5.613
REMARK INTRA:                  -0.504
REMARK UNBOUND:                -0.506
REMARK SMILES CC1=C[C@H]2C(=C(C)CC[C@H]2C(C)C)CC1
REMARK SMILES IDX 1 1 2 2 3 3 4 4 10 5 9 6 8 7 6 8 5 9 14 10 15 11 7 12 11 13
REMARK SMILES IDX 12 14 13 15
REMARK H PARENT
REMARK Flexibility Score: inf
ROOT
ATOM      1  C   UNL     1     166.768 170.048 196.051  1.00  0.00     0.039 C 
ATOM      2  C   UNL     1     167.149 169.513 197.405  1.00  0.00    -0.076 C 
ATOM      3  C   UNL     1     168.299 168.823 197.538  1.00  0.00    -0.020 C 
ATOM      4  C   UNL     1     168.790 168.259 198.852  1.00  0.00     0.041 C 
ATOM      5  C   UNL     1     169.093 166.715 198.827  1.00  0.00     0.003 C 
ATOM      6  C   UNL     1     169.295 166.131 200.264  1.00  0.00     0.009 C 
ATOM      7  C   UNL     1     169.468 167.206 201.342  1.00  0.00     0.031 C 
ATOM      8  C   UNL     1     168.319 168.188 201.274  1.00  0.00    -0.073 C 
ATOM      9  C   UNL     1     167.955 168.672 200.058  1.00  0.00    -0.064 C 
ATOM     10  C   UNL     1     166.943 169.789 199.904  1.00  0.00     0.036 C 
ATOM     11  C   UNL     1     166.205 169.694 198.571  1.00  0.00     0.035 C 
ATOM     12  C   UNL     1     167.628 168.604 202.550  1.00  0.00     0.039 C 
ENDROOT
BRANCH   5  13
ATOM     13  C   UNL     1     168.114 165.789 198.020  1.00  0.00    -0.013 C 
ATOM     14  C   UNL     1     168.712 164.427 197.637  1.00  0.00     0.007 C 
ATOM     15  C   UNL     1     166.737 165.613 198.682  1.00  0.00     0.007 C 
ENDBRANCH   5  13
TORSDOF 1
ENDMDL
MODEL 8
REMARK VINA RESULT:    -5.298      1.931      3.090
REMARK INTER + INTRA:          -6.114
REMARK INTER:                  -5.866
REMARK INTRA:                  -0.248
REMARK UNBOUND:                -0.506
REMARK SMILES CC1=C[C@H]2C(=C(C)CC[C@H]2C(C)C)CC1
REMARK SMILES IDX 1 1 2 2 3 3 4 4 10 5 9 6 8 7 6 8 5 9 14 10 15 11 7 12 11 13
REMARK SMILES IDX 12 14 13 15
REMARK H PARENT
REMARK Flexibility Score: inf
ROOT
ATOM      1  C   UNL     1     164.644 169.520 203.398  1.00  0.00     0.039 C 
ATOM      2  C   UNL     1     165.350 169.432 202.073  1.00  0.00    -0.076 C 
ATOM      3  C   UNL     1     164.782 169.996 200.988  1.00  0.00    -0.020 C 
ATOM      4  C   UNL     1     165.411 169.985 199.613  1.00  0.00     0.041 C 
ATOM      5  C   UNL     1     164.495 169.388 198.481  1.00  0.00     0.003 C 
ATOM      6  C   UNL     1     165.292 169.117 197.162  1.00  0.00     0.009 C 
ATOM      7  C   UNL     1     166.679 169.766 197.141  1.00  0.00     0.031 C 
ATOM      8  C   UNL     1     167.453 169.360 198.376  1.00  0.00    -0.073 C 
ATOM      9  C   UNL     1     166.827 169.422 199.580  1.00  0.00    -0.064 C 
ATOM     10  C   UNL     1     167.565 169.211 200.886  1.00  0.00     0.036 C 
ATOM     11  C   UNL     1     166.641 168.653 201.966  1.00  0.00     0.035 C 
ATOM     12  C   UNL     1     168.887 168.912 198.233  1.00  0.00     0.039 C 
ENDROOT
BRANCH   5  13
ATOM     13  C   UNL     1     163.624 168.130 198.832  1.00  0.00    -0.013 C 
ATOM     14  C   UNL     1     162.199 168.465 199.299  1.00  0.00     0.007 C 
ATOM     15  C   UNL     1     163.597 167.062 197.726  1.00  0.00     0.007 C 
ENDBRANCH   5  13
TORSDOF 1
ENDMDL
MODEL 9
REMARK VINA RESULT:    -5.292      4.270      6.680
REMARK INTER + INTRA:          -6.107
REMARK INTER:                  -5.603
REMARK INTRA:                  -0.504
REMARK UNBOUND:                -0.506
REMARK SMILES CC1=C[C@H]2C(=C(C)CC[C@H]2C(C)C)CC1
REMARK SMILES IDX 1 1 2 2 3 3 4 4 10 5 9 6 8 7 6 8 5 9 14 10 15 11 7 12 11 13
REMARK SMILES IDX 12 14 13 15
REMARK H PARENT
REMARK Flexibility Score: inf
ROOT
ATOM      1  C   UNL     1     162.292 168.539 199.750  1.00  0.00     0.039 C 
ATOM      2  C   UNL     1     162.750 167.189 199.268  1.00  0.00    -0.076 C 
ATOM      3  C   UNL     1     162.361 166.087 199.941  1.00  0.00    -0.020 C 
ATOM      4  C   UNL     1     162.745 164.681 199.536  1.00  0.00     0.041 C 
ATOM      5  C   UNL     1     163.447 163.844 200.668  1.00  0.00     0.003 C 
ATOM      6  C   UNL     1     164.091 162.530 200.115  1.00  0.00     0.009 C 
ATOM      7  C   UNL     1     163.644 162.182 198.692  1.00  0.00     0.031 C 
ATOM      8  C   UNL     1     163.874 163.367 197.779  1.00  0.00    -0.073 C 
ATOM      9  C   UNL     1     163.478 164.595 198.203  1.00  0.00    -0.064 C 
ATOM     10  C   UNL     1     163.499 165.808 197.295  1.00  0.00     0.036 C 
ATOM     11  C   UNL     1     163.692 167.097 198.090  1.00  0.00     0.035 C 
ATOM     12  C   UNL     1     164.522 163.145 196.434  1.00  0.00     0.039 C 
ENDROOT
BRANCH   5  13
ATOM     13  C   UNL     1     164.479 164.583 201.592  1.00  0.00    -0.013 C 
ATOM     14  C   UNL     1     164.742 163.877 202.930  1.00  0.00     0.007 C 
ATOM     15  C   UNL     1     165.803 164.931 200.891  1.00  0.00     0.007 C 
ENDBRANCH   5  13
TORSDOF 1
ENDMDL
