MODEL 1
REMARK VINA RESULT:    -4.324      0.000      0.000
REMARK INTER + INTRA:          -5.647
REMARK INTER:                  -5.209
REMARK INTRA:                  -0.438
REMARK UNBOUND:                -0.438
REMARK SMILES NC(=O)C[C@H]([NH3+])C(=O)[O-]
REMARK SMILES IDX 4 1 5 2 6 3 7 7 8 8 9 9 2 10 3 11 1 12
REMARK H PARENT 6 4 6 5 6 6 1 13 1 14
REMARK Flexibility Score: inf
ROOT
ATOM      1  C   UNL     1       1.574  36.031  25.205  1.00  0.00     0.171 C 
ENDROOT
BRANCH   1   2
ATOM      2  C   UNL     1       0.104  35.656  24.934  1.00  0.00     0.237 C 
BRANCH   2   3
ATOM      3  N   UNL     1      -0.436  34.860  26.041  1.00  0.00    -0.350 N 
ATOM      4  H   UNL     1      -0.057  33.886  25.994  1.00  0.00     0.345 HD
ATOM      5  H   UNL     1      -1.481  34.821  25.996  1.00  0.00     0.345 HD
ATOM      6  H   UNL     1      -0.146  35.278  26.956  1.00  0.00     0.345 HD
ENDBRANCH   2   3
BRANCH   2   7
ATOM      7  C   UNL     1      -0.033  34.902  23.635  1.00  0.00     0.100 C 
ATOM      8  O   UNL     1      -1.153  34.806  23.067  1.00  0.00    -0.544 OA
ATOM      9  O   UNL     1       1.078  34.290  23.068  1.00  0.00    -0.544 OA
ENDBRANCH   2   7
ENDBRANCH   1   2
BRANCH   1  10
ATOM     10  C   UNL     1       2.278  34.973  26.005  1.00  0.00     0.223 C 
ATOM     11  O   UNL     1       2.176  34.967  27.261  1.00  0.00    -0.275 OA
ATOM     12  N   UNL     1       3.094  33.997  25.357  1.00  0.00    -0.369 N 
ATOM     13  H   UNL     1       3.594  33.273  25.918  1.00  0.00     0.159 HD
ATOM     14  H   UNL     1       3.205  33.999  24.319  1.00  0.00     0.159 HD
ENDBRANCH   1  10
TORSDOF 4
ENDMDL
MODEL 2
REMARK VINA RESULT:    -4.031     13.347     14.428
REMARK INTER + INTRA:          -5.293
REMARK INTER:                  -4.938
REMARK INTRA:                  -0.356
REMARK UNBOUND:                -0.438
REMARK SMILES NC(=O)C[C@H]([NH3+])C(=O)[O-]
REMARK SMILES IDX 4 1 5 2 6 3 7 7 8 8 9 9 2 10 3 11 1 12
REMARK H PARENT 6 4 6 5 6 6 1 13 1 14
REMARK Flexibility Score: inf
ROOT
ATOM      1  C   UNL     1      -1.445  25.571  36.030  1.00  0.00     0.171 C 
ENDROOT
BRANCH   1   2
ATOM      2  C   UNL     1       0.017  25.264  35.651  1.00  0.00     0.237 C 
BRANCH   2   3
ATOM      3  N   UNL     1       0.570  26.339  34.819  1.00  0.00    -0.350 N 
ATOM      4  H   UNL     1       0.616  26.026  33.822  1.00  0.00     0.345 HD
ATOM      5  H   UNL     1       1.532  26.599  35.139  1.00  0.00     0.345 HD
ATOM      6  H   UNL     1      -0.049  27.182  34.869  1.00  0.00     0.345 HD
ENDBRANCH   2   3
BRANCH   2   7
ATOM      7  C   UNL     1       0.126  23.943  34.933  1.00  0.00     0.100 C 
ATOM      8  O   UNL     1       1.231  23.341  34.865  1.00  0.00    -0.544 OA
ATOM      9  O   UNL     1      -0.994  23.390  34.325  1.00  0.00    -0.544 OA
ENDBRANCH   2   7
ENDBRANCH   1   2
BRANCH   1  10
ATOM     10  C   UNL     1      -2.177  26.250  34.908  1.00  0.00     0.223 C 
ATOM     11  O   UNL     1      -2.061  27.494  34.747  1.00  0.00    -0.275 OA
ATOM     12  N   UNL     1      -3.035  25.501  34.046  1.00  0.00    -0.369 N 
ATOM     13  H   UNL     1      -3.555  25.979  33.277  1.00  0.00     0.159 HD
ATOM     14  H   UNL     1      -3.158  24.473  34.177  1.00  0.00     0.159 HD
ENDBRANCH   1  10
TORSDOF 4
ENDMDL
MODEL 3
REMARK VINA RESULT:    -4.001      2.241      3.396
REMARK INTER + INTRA:          -5.258
REMARK INTER:                  -4.929
REMARK INTRA:                  -0.329
REMARK UNBOUND:                -0.438
REMARK SMILES NC(=O)C[C@H]([NH3+])C(=O)[O-]
REMARK SMILES IDX 4 1 5 2 6 3 7 7 8 8 9 9 2 10 3 11 1 12
REMARK H PARENT 6 4 6 5 6 6 1 13 1 14
REMARK Flexibility Score: inf
ROOT
ATOM      1  C   UNL     1       2.470  36.235  26.200  1.00  0.00     0.171 C 
ENDROOT
BRANCH   1   2
ATOM      2  C   UNL     1       1.557  36.005  27.421  1.00  0.00     0.237 C 
BRANCH   2   3
ATOM      3  N   UNL     1       1.049  34.628  27.432  1.00  0.00    -0.350 N 
ATOM      4  H   UNL     1       1.093  34.228  26.467  1.00  0.00     0.345 HD
ATOM      5  H   UNL     1       0.058  34.601  27.768  1.00  0.00     0.345 HD
ATOM      6  H   UNL     1       1.642  34.035  28.058  1.00  0.00     0.345 HD
ENDBRANCH   2   3
BRANCH   2   7
ATOM      7  C   UNL     1       0.410  36.983  27.433  1.00  0.00     0.100 C 
ATOM      8  O   UNL     1       0.527  38.099  28.006  1.00  0.00    -0.544 OA
ATOM      9  O   UNL     1      -0.793  36.648  26.826  1.00  0.00    -0.544 OA
ENDBRANCH   2   7
ENDBRANCH   1   2
BRANCH   1  10
ATOM     10  C   UNL     1       2.345  35.123  25.199  1.00  0.00     0.223 C 
ATOM     11  O   UNL     1       1.280  34.991  24.539  1.00  0.00    -0.275 OA
ATOM     12  N   UNL     1       3.410  34.189  25.018  1.00  0.00    -0.369 N 
ATOM     13  H   UNL     1       3.313  33.407  24.332  1.00  0.00     0.159 HD
ATOM     14  H   UNL     1       4.292  34.270  25.570  1.00  0.00     0.159 HD
ENDBRANCH   1  10
TORSDOF 4
ENDMDL
MODEL 4
REMARK VINA RESULT:    -3.976      1.834      3.871
REMARK INTER + INTRA:          -5.228
REMARK INTER:                  -5.140
REMARK INTRA:                  -0.088
REMARK UNBOUND:                -0.438
REMARK SMILES NC(=O)C[C@H]([NH3+])C(=O)[O-]
REMARK SMILES IDX 4 1 5 2 6 3 7 7 8 8 9 9 2 10 3 11 1 12
REMARK H PARENT 6 4 6 5 6 6 1 13 1 14
REMARK Flexibility Score: inf
ROOT
ATOM      1  C   UNL     1       0.033  35.778  25.061  1.00  0.00     0.171 C 
ENDROOT
BRANCH   1   2
ATOM      2  C   UNL     1       1.312  35.438  25.852  1.00  0.00     0.237 C 
BRANCH   2   3
ATOM      3  N   UNL     1       0.995  34.576  26.997  1.00  0.00    -0.350 N 
ATOM      4  H   UNL     1       1.129  33.573  26.732  1.00  0.00     0.345 HD
ATOM      5  H   UNL     1       0.006  34.718  27.306  1.00  0.00     0.345 HD
ATOM      6  H   UNL     1       1.639  34.792  27.794  1.00  0.00     0.345 HD
ENDBRANCH   2   3
BRANCH   2   7
ATOM      7  C   UNL     1       2.008  36.690  26.320  1.00  0.00     0.100 C 
ATOM      8  O   UNL     1       3.217  36.897  26.029  1.00  0.00    -0.544 OA
ATOM      9  O   UNL     1       1.324  37.617  27.095  1.00  0.00    -0.544 OA
ENDBRANCH   2   7
ENDBRANCH   1   2
BRANCH   1  10
ATOM     10  C   UNL     1      -0.015  35.053  23.747  1.00  0.00     0.223 C 
ATOM     11  O   UNL     1       1.003  34.433  23.337  1.00  0.00    -0.275 OA
ATOM     12  N   UNL     1      -1.192  35.094  22.939  1.00  0.00    -0.369 N 
ATOM     13  H   UNL     1      -1.215  34.603  22.018  1.00  0.00     0.159 HD
ATOM     14  H   UNL     1      -2.037  35.619  23.254  1.00  0.00     0.159 HD
ENDBRANCH   1  10
TORSDOF 4
ENDMDL
MODEL 5
REMARK VINA RESULT:    -3.933      1.847      2.109
REMARK INTER + INTRA:          -5.176
REMARK INTER:                  -4.687
REMARK INTRA:                  -0.489
REMARK UNBOUND:                -0.438
REMARK SMILES NC(=O)C[C@H]([NH3+])C(=O)[O-]
REMARK SMILES IDX 4 1 5 2 6 3 7 7 8 8 9 9 2 10 3 11 1 12
REMARK H PARENT 6 4 6 5 6 6 1 13 1 14
REMARK Flexibility Score: inf
ROOT
ATOM      1  C   UNL     1       1.566  36.259  25.672  1.00  0.00     0.171 C 
ENDROOT
BRANCH   1   2
ATOM      2  C   UNL     1       0.388  35.916  26.605  1.00  0.00     0.237 C 
BRANCH   2   3
ATOM      3  N   UNL     1       0.640  34.654  27.310  1.00  0.00    -0.350 N 
ATOM      4  H   UNL     1       0.441  33.848  26.674  1.00  0.00     0.345 HD
ATOM      5  H   UNL     1       0.035  34.576  28.160  1.00  0.00     0.345 HD
ATOM      6  H   UNL     1       1.646  34.602  27.598  1.00  0.00     0.345 HD
ENDBRANCH   2   3
BRANCH   2   7
ATOM      7  C   UNL     1      -0.907  35.832  25.836  1.00  0.00     0.100 C 
ATOM      8  O   UNL     1      -1.996  36.154  26.381  1.00  0.00    -0.544 OA
ATOM      9  O   UNL     1      -0.906  35.378  24.524  1.00  0.00    -0.544 OA
ENDBRANCH   2   7
ENDBRANCH   1   2
BRANCH   1  10
ATOM     10  C   UNL     1       2.317  35.028  25.253  1.00  0.00     0.223 C 
ATOM     11  O   UNL     1       3.297  34.630  25.937  1.00  0.00    -0.275 OA
ATOM     12  N   UNL     1       1.954  34.328  24.062  1.00  0.00    -0.369 N 
ATOM     13  H   UNL     1       2.489  33.483  23.765  1.00  0.00     0.159 HD
ATOM     14  H   UNL     1       1.157  34.656  23.473  1.00  0.00     0.159 HD
ENDBRANCH   1  10
TORSDOF 4
ENDMDL
MODEL 6
REMARK VINA RESULT:    -3.878     13.532     14.325
REMARK INTER + INTRA:          -5.110
REMARK INTER:                  -4.618
REMARK INTRA:                  -0.492
REMARK UNBOUND:                -0.438
REMARK SMILES NC(=O)C[C@H]([NH3+])C(=O)[O-]
REMARK SMILES IDX 4 1 5 2 6 3 7 7 8 8 9 9 2 10 3 11 1 12
REMARK H PARENT 6 4 6 5 6 6 1 13 1 14
REMARK Flexibility Score: inf
ROOT
ATOM      1  C   UNL     1      -1.511  25.688  36.221  1.00  0.00     0.171 C 
ENDROOT
BRANCH   1   2
ATOM      2  C   UNL     1      -0.421  26.706  35.833  1.00  0.00     0.237 C 
BRANCH   2   3
ATOM      3  N   UNL     1      -0.758  27.364  34.566  1.00  0.00    -0.350 N 
ATOM      4  H   UNL     1      -0.170  26.971  33.796  1.00  0.00     0.345 HD
ATOM      5  H   UNL     1      -0.595  28.395  34.628  1.00  0.00     0.345 HD
ATOM      6  H   UNL     1      -1.764  27.188  34.330  1.00  0.00     0.345 HD
ENDBRANCH   2   3
BRANCH   2   7
ATOM      7  C   UNL     1       0.929  26.043  35.731  1.00  0.00     0.100 C 
ATOM      8  O   UNL     1       1.985  26.714  35.887  1.00  0.00    -0.544 OA
ATOM      9  O   UNL     1       1.017  24.687  35.445  1.00  0.00    -0.544 OA
ENDBRANCH   2   7
ENDBRANCH   1   2
BRANCH   1  10
ATOM     10  C   UNL     1      -2.265  25.199  35.019  1.00  0.00     0.223 C 
ATOM     11  O   UNL     1      -3.290  25.819  34.628  1.00  0.00    -0.275 OA
ATOM     12  N   UNL     1      -1.854  24.013  34.338  1.00  0.00    -0.369 N 
ATOM     13  H   UNL     1      -2.391  23.666  33.512  1.00  0.00     0.159 HD
ATOM     14  H   UNL     1      -1.019  23.475  34.660  1.00  0.00     0.159 HD
ENDBRANCH   1  10
TORSDOF 4
ENDMDL
MODEL 7
REMARK VINA RESULT:    -3.864     13.683     14.352
REMARK INTER + INTRA:          -5.093
REMARK INTER:                  -4.580
REMARK INTRA:                  -0.513
REMARK UNBOUND:                -0.438
REMARK SMILES NC(=O)C[C@H]([NH3+])C(=O)[O-]
REMARK SMILES IDX 4 1 5 2 6 3 7 7 8 8 9 9 2 10 3 11 1 12
REMARK H PARENT 6 4 6 5 6 6 1 13 1 14
REMARK Flexibility Score: inf
ROOT
ATOM      1  C   UNL     1      -2.350  26.127  36.525  1.00  0.00     0.171 C 
ENDROOT
BRANCH   1   2
ATOM      2  C   UNL     1      -1.954  27.614  36.443  1.00  0.00     0.237 C 
BRANCH   2   3
ATOM      3  N   UNL     1      -1.985  28.079  35.052  1.00  0.00    -0.350 N 
ATOM      4  H   UNL     1      -1.392  28.934  34.951  1.00  0.00     0.345 HD
ATOM      5  H   UNL     1      -2.964  28.307  34.759  1.00  0.00     0.345 HD
ATOM      6  H   UNL     1      -1.600  27.338  34.420  1.00  0.00     0.345 HD
ENDBRANCH   2   3
BRANCH   2   7
ATOM      7  C   UNL     1      -0.588  27.845  37.038  1.00  0.00     0.100 C 
ATOM      8  O   UNL     1      -0.461  28.464  38.129  1.00  0.00    -0.544 OA
ATOM      9  O   UNL     1       0.544  27.392  36.373  1.00  0.00    -0.544 OA
ENDBRANCH   2   7
ENDBRANCH   1   2
BRANCH   1  10
ATOM     10  C   UNL     1      -2.069  25.407  35.238  1.00  0.00     0.223 C 
ATOM     11  O   UNL     1      -2.968  25.323  34.359  1.00  0.00    -0.275 OA
ATOM     12  N   UNL     1      -0.804  24.782  35.018  1.00  0.00    -0.369 N 
ATOM     13  H   UNL     1      -0.618  24.268  34.128  1.00  0.00     0.159 HD
ATOM     14  H   UNL     1      -0.054  24.825  35.744  1.00  0.00     0.159 HD
ENDBRANCH   1  10
TORSDOF 4
ENDMDL
MODEL 8
REMARK VINA RESULT:    -3.853      2.743      3.494
REMARK INTER + INTRA:          -5.080
REMARK INTER:                  -4.812
REMARK INTRA:                  -0.268
REMARK UNBOUND:                -0.438
REMARK SMILES NC(=O)C[C@H]([NH3+])C(=O)[O-]
REMARK SMILES IDX 4 1 5 2 6 3 7 7 8 8 9 9 2 10 3 11 1 12
REMARK H PARENT 6 4 6 5 6 6 1 13 1 14
REMARK Flexibility Score: inf
ROOT
ATOM      1  C   UNL     1       1.282  35.285  26.069  1.00  0.00     0.171 C 
ENDROOT
BRANCH   1   2
ATOM      2  C   UNL     1       1.098  35.359  27.598  1.00  0.00     0.237 C 
BRANCH   2   3
ATOM      3  N   UNL     1       2.297  34.864  28.285  1.00  0.00    -0.350 N 
ATOM      4  H   UNL     1       2.579  35.537  29.034  1.00  0.00     0.345 HD
ATOM      5  H   UNL     1       3.090  34.750  27.612  1.00  0.00     0.345 HD
ATOM      6  H   UNL     1       2.093  33.941  28.735  1.00  0.00     0.345 HD
ENDBRANCH   2   3
BRANCH   2   7
ATOM      7  C   UNL     1      -0.113  34.577  28.037  1.00  0.00     0.100 C 
ATOM      8  O   UNL     1      -0.008  33.667  28.902  1.00  0.00    -0.544 OA
ATOM      9  O   UNL     1      -1.354  34.845  27.474  1.00  0.00    -0.544 OA
ENDBRANCH   2   7
ENDBRANCH   1   2
BRANCH   1  10
ATOM     10  C   UNL     1       2.732  35.330  25.683  1.00  0.00     0.223 C 
ATOM     11  O   UNL     1       3.401  36.379  25.884  1.00  0.00    -0.275 OA
ATOM     12  N   UNL     1       3.349  34.208  25.052  1.00  0.00    -0.369 N 
ATOM     13  H   UNL     1       4.354  34.249  24.770  1.00  0.00     0.159 HD
ATOM     14  H   UNL     1       2.805  33.338  24.860  1.00  0.00     0.159 HD
ENDBRANCH   1  10
TORSDOF 4
ENDMDL
MODEL 9
REMARK VINA RESULT:    -3.844     13.435     14.159
REMARK INTER + INTRA:          -5.069
REMARK INTER:                  -4.773
REMARK INTRA:                  -0.296
REMARK UNBOUND:                -0.438
REMARK SMILES NC(=O)C[C@H]([NH3+])C(=O)[O-]
REMARK SMILES IDX 4 1 5 2 6 3 7 7 8 8 9 9 2 10 3 11 1 12
REMARK H PARENT 6 4 6 5 6 6 1 13 1 14
REMARK Flexibility Score: inf
ROOT
ATOM      1  C   UNL     1      -1.846  27.255  34.842  1.00  0.00     0.171 C 
ENDROOT
BRANCH   1   2
ATOM      2  C   UNL     1      -0.369  27.023  35.219  1.00  0.00     0.237 C 
BRANCH   2   3
ATOM      3  N   UNL     1      -0.095  25.589  35.365  1.00  0.00    -0.350 N 
ATOM      4  H   UNL     1      -0.494  25.243  36.267  1.00  0.00     0.345 HD
ATOM      5  H   UNL     1       0.936  25.405  35.356  1.00  0.00     0.345 HD
ATOM      6  H   UNL     1      -0.546  25.059  34.583  1.00  0.00     0.345 HD
ENDBRANCH   2   3
BRANCH   2   7
ATOM      7  C   UNL     1      -0.012  27.753  36.489  1.00  0.00     0.100 C 
ATOM      8  O   UNL     1       1.131  28.263  36.633  1.00  0.00    -0.544 OA
ATOM      9  O   UNL     1      -0.940  27.850  37.518  1.00  0.00    -0.544 OA
ENDBRANCH   2   7
ENDBRANCH   1   2
BRANCH   1  10
ATOM     10  C   UNL     1      -2.664  26.008  35.016  1.00  0.00     0.223 C 
ATOM     11  O   UNL     1      -2.988  25.628  36.173  1.00  0.00    -0.275 OA
ATOM     12  N   UNL     1      -3.044  25.228  33.882  1.00  0.00    -0.369 N 
ATOM     13  H   UNL     1      -3.599  24.352  34.008  1.00  0.00     0.159 HD
ATOM     14  H   UNL     1      -2.768  25.517  32.918  1.00  0.00     0.159 HD
ENDBRANCH   1  10
TORSDOF 4
ENDMDL
