MODEL 1
REMARK VINA RESULT:    -5.165      0.000      0.000
REMARK INTER + INTRA:          -6.384
REMARK INTER:                  -6.070
REMARK INTRA:                  -0.313
REMARK UNBOUND:                -0.313
REMARK SMILES O=c1c(O)c(-c2ccc(O)c(O)c2)oc2cc(O)ccc12
REMARK SMILES IDX 5 1 3 2 2 3 1 4 21 5 15 6 14 7 16 8 17 9 19 10 20 11 6 12
REMARK SMILES IDX 7 13 8 14 9 15 13 16 11 17 10 18 12 20 4 22 18 24
REMARK H PARENT 10 19 12 21 4 23 18 25
REMARK Flexibility Score: inf
ROOT
ATOM      1  C   UNL     1     125.013  16.195 150.858  1.00  0.00     0.180 A 
ATOM      2  C   UNL     1     126.340  15.925 151.255  1.00  0.00     0.208 A 
ATOM      3  C   UNL     1     127.250  16.991 151.340  1.00  0.00     0.235 A 
ATOM      4  O   UNL     1     128.439  16.777 151.703  1.00  0.00    -0.285 OA
ATOM      5  C   UNL     1     126.826  18.288 151.014  1.00  0.00     0.069 A 
ATOM      6  C   UNL     1     125.489  18.472 150.604  1.00  0.00     0.142 A 
ATOM      7  O   UNL     1     124.656  17.438 150.543  1.00  0.00    -0.452 OA
ATOM      8  C   UNL     1     125.031  19.749 150.260  1.00  0.00     0.094 A 
ATOM      9  C   UNL     1     125.897  20.850 150.324  1.00  0.00     0.119 A 
ATOM     10  C   UNL     1     127.222  20.671 150.731  1.00  0.00     0.047 A 
ATOM     11  C   UNL     1     127.690  19.398 151.076  1.00  0.00     0.020 A 
ENDROOT
BRANCH   1  12
ATOM     12  C   UNL     1     123.991  15.130 150.760  1.00  0.00     0.025 A 
ATOM     13  C   UNL     1     123.761  14.444 149.557  1.00  0.00     0.016 A 
ATOM     14  C   UNL     1     122.808  13.426 149.495  1.00  0.00     0.051 A 
ATOM     15  C   UNL     1     122.076  13.063 150.631  1.00  0.00     0.157 A 
ATOM     16  C   UNL     1     123.274  14.752 151.906  1.00  0.00     0.062 A 
ATOM     17  C   UNL     1     122.315  13.732 151.854  1.00  0.00     0.158 A 
BRANCH  15  18
ATOM     18  O   UNL     1     121.135  12.039 150.501  1.00  0.00    -0.504 OA
ATOM     19  H   UNL     1     121.000  11.307 151.183  1.00  0.00     0.293 HD
ENDBRANCH  15  18
BRANCH  17  20
ATOM     20  O   UNL     1     121.631  13.420 153.031  1.00  0.00    -0.504 OA
ATOM     21  H   UNL     1     121.055  12.599 153.148  1.00  0.00     0.293 HD
ENDBRANCH  17  20
ENDBRANCH   1  12
BRANCH   2  22
ATOM     22  O   UNL     1     126.745  14.616 151.525  1.00  0.00    -0.502 OA
ATOM     23  H   UNL     1     126.975  14.304 152.461  1.00  0.00     0.293 HD
ENDBRANCH   2  22
BRANCH   9  24
ATOM     24  O   UNL     1     125.449  22.125 149.985  1.00  0.00    -0.508 OA
ATOM     25  H   UNL     1     126.035  22.942 150.107  1.00  0.00     0.293 HD
ENDBRANCH   9  24
TORSDOF 5
ENDMDL
MODEL 2
REMARK VINA RESULT:    -4.808     10.056     12.069
REMARK INTER + INTRA:          -5.965
REMARK INTER:                  -5.787
REMARK INTRA:                  -0.178
REMARK UNBOUND:                -0.313
REMARK SMILES O=c1c(O)c(-c2ccc(O)c(O)c2)oc2cc(O)ccc12
REMARK SMILES IDX 5 1 3 2 2 3 1 4 21 5 15 6 14 7 16 8 17 9 19 10 20 11 6 12
REMARK SMILES IDX 7 13 8 14 9 15 13 16 11 17 10 18 12 20 4 22 18 24
REMARK H PARENT 10 19 12 21 4 23 18 25
REMARK Flexibility Score: inf
ROOT
ATOM      1  C   UNL     1     114.990  13.941 147.352  1.00  0.00     0.180 A 
ATOM      2  C   UNL     1     114.601  12.585 147.383  1.00  0.00     0.208 A 
ATOM      3  C   UNL     1     114.238  12.013 148.613  1.00  0.00     0.235 A 
ATOM      4  O   UNL     1     113.876  10.806 148.664  1.00  0.00    -0.285 OA
ATOM      5  C   UNL     1     114.288  12.794 149.778  1.00  0.00     0.069 A 
ATOM      6  C   UNL     1     114.710  14.136 149.667  1.00  0.00     0.142 A 
ATOM      7  O   UNL     1     115.038  14.641 148.483  1.00  0.00    -0.452 OA
ATOM      8  C   UNL     1     114.784  14.943 150.808  1.00  0.00     0.094 A 
ATOM      9  C   UNL     1     114.437  14.425 152.063  1.00  0.00     0.119 A 
ATOM     10  C   UNL     1     114.017  13.096 152.176  1.00  0.00     0.047 A 
ATOM     11  C   UNL     1     113.941  12.280 151.042  1.00  0.00     0.020 A 
ENDROOT
BRANCH   1  12
ATOM     12  C   UNL     1     115.370  14.620 146.093  1.00  0.00     0.025 A 
ATOM     13  C   UNL     1     114.446  14.803 145.052  1.00  0.00     0.016 A 
ATOM     14  C   UNL     1     114.822  15.467 143.884  1.00  0.00     0.051 A 
ATOM     15  C   UNL     1     116.118  15.976 143.736  1.00  0.00     0.157 A 
ATOM     16  C   UNL     1     116.663  15.148 145.956  1.00  0.00     0.062 A 
ATOM     17  C   UNL     1     117.049  15.817 144.788  1.00  0.00     0.158 A 
BRANCH  15  18
ATOM     18  O   UNL     1     116.430  16.628 142.541  1.00  0.00    -0.504 OA
ATOM     19  H   UNL     1     117.085  17.394 142.471  1.00  0.00     0.293 HD
ENDBRANCH  15  18
BRANCH  17  20
ATOM     20  O   UNL     1     118.356  16.305 144.718  1.00  0.00    -0.504 OA
ATOM     21  H   UNL     1     119.093  16.038 145.354  1.00  0.00     0.293 HD
ENDBRANCH  17  20
ENDBRANCH   1  12
BRANCH   2  22
ATOM     22  O   UNL     1     114.608  11.820 146.214  1.00  0.00    -0.502 OA
ATOM     23  H   UNL     1     114.520  12.236 145.295  1.00  0.00     0.293 HD
ENDBRANCH   2  22
BRANCH   9  24
ATOM     24  O   UNL     1     114.506  15.222 153.204  1.00  0.00    -0.508 OA
ATOM     25  H   UNL     1     115.372  15.339 153.716  1.00  0.00     0.293 HD
ENDBRANCH   9  24
TORSDOF 5
ENDMDL
MODEL 3
REMARK VINA RESULT:    -4.777     14.553     16.089
REMARK INTER + INTRA:          -5.929
REMARK INTER:                  -5.722
REMARK INTRA:                  -0.207
REMARK UNBOUND:                -0.313
REMARK SMILES O=c1c(O)c(-c2ccc(O)c(O)c2)oc2cc(O)ccc12
REMARK SMILES IDX 5 1 3 2 2 3 1 4 21 5 15 6 14 7 16 8 17 9 19 10 20 11 6 12
REMARK SMILES IDX 7 13 8 14 9 15 13 16 11 17 10 18 12 20 4 22 18 24
REMARK H PARENT 10 19 12 21 4 23 18 25
REMARK Flexibility Score: inf
ROOT
ATOM      1  C   UNL     1     116.464  17.999 137.787  1.00  0.00     0.180 A 
ATOM      2  C   UNL     1     115.640  17.604 136.711  1.00  0.00     0.208 A 
ATOM      3  C   UNL     1     115.837  18.199 135.455  1.00  0.00     0.235 A 
ATOM      4  O   UNL     1     115.121  17.855 134.475  1.00  0.00    -0.285 OA
ATOM      5  C   UNL     1     116.830  19.180 135.304  1.00  0.00     0.069 A 
ATOM      6  C   UNL     1     117.596  19.537 136.434  1.00  0.00     0.142 A 
ATOM      7  O   UNL     1     117.384  18.944 137.604  1.00  0.00    -0.452 OA
ATOM      8  C   UNL     1     118.588  20.517 136.326  1.00  0.00     0.094 A 
ATOM      9  C   UNL     1     118.827  21.148 135.096  1.00  0.00     0.119 A 
ATOM     10  C   UNL     1     118.070  20.795 133.975  1.00  0.00     0.047 A 
ATOM     11  C   UNL     1     117.076  19.816 134.072  1.00  0.00     0.020 A 
ENDROOT
BRANCH   1  12
ATOM     12  C   UNL     1     116.330  17.408 139.137  1.00  0.00     0.025 A 
ATOM     13  C   UNL     1     115.793  18.140 140.207  1.00  0.00     0.016 A 
ATOM     14  C   UNL     1     115.655  17.553 141.466  1.00  0.00     0.051 A 
ATOM     15  C   UNL     1     116.035  16.223 141.679  1.00  0.00     0.157 A 
ATOM     16  C   UNL     1     116.691  16.067 139.343  1.00  0.00     0.062 A 
ATOM     17  C   UNL     1     116.556  15.469 140.602  1.00  0.00     0.158 A 
BRANCH  15  18
ATOM     18  O   UNL     1     115.874  15.696 142.962  1.00  0.00    -0.504 OA
ATOM     19  H   UNL     1     116.572  15.142 143.437  1.00  0.00     0.293 HD
ENDBRANCH  15  18
BRANCH  17  20
ATOM     20  O   UNL     1     116.948  14.135 140.735  1.00  0.00    -0.504 OA
ATOM     21  H   UNL     1     117.865  13.789 140.493  1.00  0.00     0.293 HD
ENDBRANCH  17  20
ENDBRANCH   1  12
BRANCH   2  22
ATOM     22  O   UNL     1     114.628  16.662 136.904  1.00  0.00    -0.502 OA
ATOM     23  H   UNL     1     114.681  15.951 137.624  1.00  0.00     0.293 HD
ENDBRANCH   2  22
BRANCH   9  24
ATOM     24  O   UNL     1     119.813  22.124 134.980  1.00  0.00    -0.508 OA
ATOM     25  H   UNL     1     119.877  22.718 134.161  1.00  0.00     0.293 HD
ENDBRANCH   9  24
TORSDOF 5
ENDMDL
MODEL 4
REMARK VINA RESULT:    -4.538     14.572     16.067
REMARK INTER + INTRA:          -5.648
REMARK INTER:                  -5.333
REMARK INTRA:                  -0.315
REMARK UNBOUND:                -0.313
REMARK SMILES O=c1c(O)c(-c2ccc(O)c(O)c2)oc2cc(O)ccc12
REMARK SMILES IDX 5 1 3 2 2 3 1 4 21 5 15 6 14 7 16 8 17 9 19 10 20 11 6 12
REMARK SMILES IDX 7 13 8 14 9 15 13 16 11 17 10 18 12 20 4 22 18 24
REMARK H PARENT 10 19 12 21 4 23 18 25
REMARK Flexibility Score: inf
ROOT
ATOM      1  C   UNL     1     129.867   6.017 140.147  1.00  0.00     0.180 A 
ATOM      2  C   UNL     1     130.360   4.715 139.922  1.00  0.00     0.208 A 
ATOM      3  C   UNL     1     131.530   4.310 140.583  1.00  0.00     0.235 A 
ATOM      4  O   UNL     1     131.984   3.147 140.407  1.00  0.00    -0.285 OA
ATOM      5  C   UNL     1     132.189   5.213 141.433  1.00  0.00     0.069 A 
ATOM      6  C   UNL     1     131.646   6.506 141.587  1.00  0.00     0.142 A 
ATOM      7  O   UNL     1     130.531   6.847 140.949  1.00  0.00    -0.452 OA
ATOM      8  C   UNL     1     132.279   7.437 142.416  1.00  0.00     0.094 A 
ATOM      9  C   UNL     1     133.453   7.091 143.100  1.00  0.00     0.119 A 
ATOM     10  C   UNL     1     133.993   5.809 142.950  1.00  0.00     0.047 A 
ATOM     11  C   UNL     1     133.368   4.871 142.122  1.00  0.00     0.020 A 
ENDROOT
BRANCH   1  12
ATOM     12  C   UNL     1     128.631   6.512 139.500  1.00  0.00     0.025 A 
ATOM     13  C   UNL     1     128.656   7.097 138.224  1.00  0.00     0.016 A 
ATOM     14  C   UNL     1     127.473   7.534 137.625  1.00  0.00     0.051 A 
ATOM     15  C   UNL     1     126.244   7.386 138.278  1.00  0.00     0.157 A 
ATOM     16  C   UNL     1     127.397   6.342 140.147  1.00  0.00     0.062 A 
ATOM     17  C   UNL     1     126.205   6.778 139.554  1.00  0.00     0.158 A 
BRANCH  15  18
ATOM     18  O   UNL     1     125.099   7.847 137.625  1.00  0.00    -0.504 OA
ATOM     19  H   UNL     1     124.519   8.600 137.968  1.00  0.00     0.293 HD
ENDBRANCH  15  18
BRANCH  17  20
ATOM     20  O   UNL     1     125.017   6.587 140.263  1.00  0.00    -0.504 OA
ATOM     21  H   UNL     1     124.909   5.921 141.015  1.00  0.00     0.293 HD
ENDBRANCH  17  20
ENDBRANCH   1  12
BRANCH   2  22
ATOM     22  O   UNL     1     129.709   3.856 139.032  1.00  0.00    -0.502 OA
ATOM     23  H   UNL     1     128.703   3.747 139.024  1.00  0.00     0.293 HD
ENDBRANCH   2  22
BRANCH   9  24
ATOM     24  O   UNL     1     134.090   8.011 143.929  1.00  0.00    -0.508 OA
ATOM     25  H   UNL     1     134.722   8.710 143.558  1.00  0.00     0.293 HD
ENDBRANCH   9  24
TORSDOF 5
ENDMDL
MODEL 5
REMARK VINA RESULT:    -4.464      2.980      6.665
REMARK INTER + INTRA:          -5.560
REMARK INTER:                  -5.238
REMARK INTRA:                  -0.323
REMARK UNBOUND:                -0.313
REMARK SMILES O=c1c(O)c(-c2ccc(O)c(O)c2)oc2cc(O)ccc12
REMARK SMILES IDX 5 1 3 2 2 3 1 4 21 5 15 6 14 7 16 8 17 9 19 10 20 11 6 12
REMARK SMILES IDX 7 13 8 14 9 15 13 16 11 17 10 18 12 20 4 22 18 24
REMARK H PARENT 10 19 12 21 4 23 18 25
REMARK Flexibility Score: inf
ROOT
ATOM      1  C   UNL     1     127.655  15.384 151.487  1.00  0.00     0.180 A 
ATOM      2  C   UNL     1     127.389  16.436 150.586  1.00  0.00     0.208 A 
ATOM      3  C   UNL     1     126.055  16.808 150.357  1.00  0.00     0.235 A 
ATOM      4  O   UNL     1     125.791  17.753 149.564  1.00  0.00    -0.285 OA
ATOM      5  C   UNL     1     125.023  16.116 151.010  1.00  0.00     0.069 A 
ATOM      6  C   UNL     1     125.371  15.060 151.879  1.00  0.00     0.142 A 
ATOM      7  O   UNL     1     126.646  14.744 152.075  1.00  0.00    -0.452 OA
ATOM      8  C   UNL     1     124.371  14.340 152.541  1.00  0.00     0.094 A 
ATOM      9  C   UNL     1     123.021  14.665 152.347  1.00  0.00     0.119 A 
ATOM     10  C   UNL     1     122.673  15.712 151.488  1.00  0.00     0.047 A 
ATOM     11  C   UNL     1     123.666  16.437 150.821  1.00  0.00     0.020 A 
ENDROOT
BRANCH   1  12
ATOM     12  C   UNL     1     129.034  14.944 151.796  1.00  0.00     0.025 A 
ATOM     13  C   UNL     1     129.784  15.549 152.817  1.00  0.00     0.016 A 
ATOM     14  C   UNL     1     131.075  15.102 153.104  1.00  0.00     0.051 A 
ATOM     15  C   UNL     1     131.637  14.035 152.393  1.00  0.00     0.157 A 
ATOM     16  C   UNL     1     129.587  13.861 151.096  1.00  0.00     0.062 A 
ATOM     17  C   UNL     1     130.881  13.404 151.378  1.00  0.00     0.158 A 
BRANCH  15  18
ATOM     18  O   UNL     1     132.933  13.638 152.729  1.00  0.00    -0.504 OA
ATOM     19  H   UNL     1     133.767  14.028 152.315  1.00  0.00     0.293 HD
ENDBRANCH  15  18
BRANCH  17  20
ATOM     20  O   UNL     1     131.370  12.329 150.632  1.00  0.00    -0.504 OA
ATOM     21  H   UNL     1     132.145  11.749 150.919  1.00  0.00     0.293 HD
ENDBRANCH  17  20
ENDBRANCH   1  12
BRANCH   2  22
ATOM     22  O   UNL     1     128.433  17.073 149.913  1.00  0.00    -0.502 OA
ATOM     23  H   UNL     1     129.228  16.565 149.544  1.00  0.00     0.293 HD
ENDBRANCH   2  22
BRANCH   9  24
ATOM     24  O   UNL     1     122.018  13.954 153.003  1.00  0.00    -0.508 OA
ATOM     25  H   UNL     1     122.216  13.399 153.828  1.00  0.00     0.293 HD
ENDBRANCH   9  24
TORSDOF 5
ENDMDL
MODEL 6
REMARK VINA RESULT:    -4.422     11.397     13.932
REMARK INTER + INTRA:          -5.510
REMARK INTER:                  -5.248
REMARK INTRA:                  -0.262
REMARK UNBOUND:                -0.313
REMARK SMILES O=c1c(O)c(-c2ccc(O)c(O)c2)oc2cc(O)ccc12
REMARK SMILES IDX 5 1 3 2 2 3 1 4 21 5 15 6 14 7 16 8 17 9 19 10 20 11 6 12
REMARK SMILES IDX 7 13 8 14 9 15 13 16 11 17 10 18 12 20 4 22 18 24
REMARK H PARENT 10 19 12 21 4 23 18 25
REMARK Flexibility Score: inf
ROOT
ATOM      1  C   UNL     1     116.099  16.410 141.373  1.00  0.00     0.180 A 
ATOM      2  C   UNL     1     115.150  15.373 141.493  1.00  0.00     0.208 A 
ATOM      3  C   UNL     1     114.871  14.856 142.769  1.00  0.00     0.235 A 
ATOM      4  O   UNL     1     114.018  13.936 142.904  1.00  0.00    -0.285 OA
ATOM      5  C   UNL     1     115.553  15.367 143.884  1.00  0.00     0.069 A 
ATOM      6  C   UNL     1     116.505  16.388 143.677  1.00  0.00     0.142 A 
ATOM      7  O   UNL     1     116.733  16.855 142.454  1.00  0.00    -0.452 OA
ATOM      8  C   UNL     1     117.213  16.915 144.762  1.00  0.00     0.094 A 
ATOM      9  C   UNL     1     116.979  16.435 146.059  1.00  0.00     0.119 A 
ATOM     10  C   UNL     1     116.035  15.425 146.267  1.00  0.00     0.047 A 
ATOM     11  C   UNL     1     115.323  14.890 145.188  1.00  0.00     0.020 A 
ENDROOT
BRANCH   1  12
ATOM     12  C   UNL     1     116.435  17.019 140.066  1.00  0.00     0.025 A 
ATOM     13  C   UNL     1     117.245  16.351 139.134  1.00  0.00     0.016 A 
ATOM     14  C   UNL     1     117.529  16.936 137.899  1.00  0.00     0.051 A 
ATOM     15  C   UNL     1     117.000  18.187 137.562  1.00  0.00     0.157 A 
ATOM     16  C   UNL     1     115.886  18.263 139.722  1.00  0.00     0.062 A 
ATOM     17  C   UNL     1     116.164  18.858 138.485  1.00  0.00     0.158 A 
BRANCH  15  18
ATOM     18  O   UNL     1     117.325  18.718 136.312  1.00  0.00    -0.504 OA
ATOM     19  H   UNL     1     117.404  18.168 135.469  1.00  0.00     0.293 HD
ENDBRANCH  15  18
BRANCH  17  20
ATOM     20  O   UNL     1     115.593  20.104 138.217  1.00  0.00    -0.504 OA
ATOM     21  H   UNL     1     115.243  20.730 138.929  1.00  0.00     0.293 HD
ENDBRANCH  17  20
ENDBRANCH   1  12
BRANCH   2  22
ATOM     22  O   UNL     1     114.524  14.851 140.359  1.00  0.00    -0.502 OA
ATOM     23  H   UNL     1     114.539  15.326 139.465  1.00  0.00     0.293 HD
ENDBRANCH   2  22
BRANCH   9  24
ATOM     24  O   UNL     1     117.678  16.956 147.145  1.00  0.00    -0.508 OA
ATOM     25  H   UNL     1     118.136  17.858 147.097  1.00  0.00     0.293 HD
ENDBRANCH   9  24
TORSDOF 5
ENDMDL
MODEL 7
REMARK VINA RESULT:    -4.364      1.584      3.286
REMARK INTER + INTRA:          -5.442
REMARK INTER:                  -5.307
REMARK INTRA:                  -0.136
REMARK UNBOUND:                -0.313
REMARK SMILES O=c1c(O)c(-c2ccc(O)c(O)c2)oc2cc(O)ccc12
REMARK SMILES IDX 5 1 3 2 2 3 1 4 21 5 15 6 14 7 16 8 17 9 19 10 20 11 6 12
REMARK SMILES IDX 7 13 8 14 9 15 13 16 11 17 10 18 12 20 4 22 18 24
REMARK H PARENT 10 19 12 21 4 23 18 25
REMARK Flexibility Score: inf
ROOT
ATOM      1  C   UNL     1     124.598  17.649 150.805  1.00  0.00     0.180 A 
ATOM      2  C   UNL     1     123.907  18.878 150.817  1.00  0.00     0.208 A 
ATOM      3  C   UNL     1     124.647  20.071 150.790  1.00  0.00     0.235 A 
ATOM      4  O   UNL     1     124.051  21.183 150.789  1.00  0.00    -0.285 OA
ATOM      5  C   UNL     1     126.049  20.013 150.771  1.00  0.00     0.069 A 
ATOM      6  C   UNL     1     126.667  18.744 150.784  1.00  0.00     0.142 A 
ATOM      7  O   UNL     1     125.930  17.638 150.802  1.00  0.00    -0.452 OA
ATOM      8  C   UNL     1     128.062  18.644 150.777  1.00  0.00     0.094 A 
ATOM      9  C   UNL     1     128.853  19.802 150.753  1.00  0.00     0.119 A 
ATOM     10  C   UNL     1     128.243  21.060 150.739  1.00  0.00     0.047 A 
ATOM     11  C   UNL     1     126.849  21.171 150.747  1.00  0.00     0.020 A 
ENDROOT
BRANCH   1  12
ATOM     12  C   UNL     1     123.890  16.349 150.815  1.00  0.00     0.025 A 
ATOM     13  C   UNL     1     123.069  15.971 151.889  1.00  0.00     0.016 A 
ATOM     14  C   UNL     1     122.393  14.750 151.865  1.00  0.00     0.051 A 
ATOM     15  C   UNL     1     122.509  13.891 150.766  1.00  0.00     0.157 A 
ATOM     16  C   UNL     1     123.990  15.499 149.703  1.00  0.00     0.062 A 
ATOM     17  C   UNL     1     123.315  14.272 149.669  1.00  0.00     0.158 A 
BRANCH  15  18
ATOM     18  O   UNL     1     121.808  12.683 150.806  1.00  0.00    -0.504 OA
ATOM     19  H   UNL     1     122.109  11.841 150.338  1.00  0.00     0.293 HD
ENDBRANCH  15  18
BRANCH  17  20
ATOM     20  O   UNL     1     123.472  13.473 148.535  1.00  0.00    -0.504 OA
ATOM     21  H   UNL     1     123.718  12.494 148.564  1.00  0.00     0.293 HD
ENDBRANCH  17  20
ENDBRANCH   1  12
BRANCH   2  22
ATOM     22  O   UNL     1     122.512  18.905 150.886  1.00  0.00    -0.502 OA
ATOM     23  H   UNL     1     121.949  19.457 150.250  1.00  0.00     0.293 HD
ENDBRANCH   2  22
BRANCH   9  24
ATOM     24  O   UNL     1     130.243  19.711 150.744  1.00  0.00    -0.508 OA
ATOM     25  H   UNL     1     130.715  18.838 150.542  1.00  0.00     0.293 HD
ENDBRANCH   9  24
TORSDOF 5
ENDMDL
MODEL 8
REMARK VINA RESULT:    -4.363     11.577     13.404
REMARK INTER + INTRA:          -5.442
REMARK INTER:                  -5.165
REMARK INTRA:                  -0.277
REMARK UNBOUND:                -0.313
REMARK SMILES O=c1c(O)c(-c2ccc(O)c(O)c2)oc2cc(O)ccc12
REMARK SMILES IDX 5 1 3 2 2 3 1 4 21 5 15 6 14 7 16 8 17 9 19 10 20 11 6 12
REMARK SMILES IDX 7 13 8 14 9 15 13 16 11 17 10 18 12 20 4 22 18 24
REMARK H PARENT 10 19 12 21 4 23 18 25
REMARK Flexibility Score: inf
ROOT
ATOM      1  C   UNL     1     115.993  16.509 141.657  1.00  0.00     0.180 A 
ATOM      2  C   UNL     1     116.482  15.716 140.597  1.00  0.00     0.208 A 
ATOM      3  C   UNL     1     116.598  16.291 139.321  1.00  0.00     0.235 A 
ATOM      4  O   UNL     1     117.043  15.606 138.359  1.00  0.00    -0.285 OA
ATOM      5  C   UNL     1     116.207  17.625 139.127  1.00  0.00     0.069 A 
ATOM      6  C   UNL     1     115.706  18.343 140.233  1.00  0.00     0.142 A 
ATOM      7  O   UNL     1     115.620  17.766 141.427  1.00  0.00    -0.452 OA
ATOM      8  C   UNL     1     115.297  19.672 140.077  1.00  0.00     0.094 A 
ATOM      9  C   UNL     1     115.386  20.296 138.825  1.00  0.00     0.119 A 
ATOM     10  C   UNL     1     115.884  19.587 137.728  1.00  0.00     0.047 A 
ATOM     11  C   UNL     1     116.295  18.258 137.873  1.00  0.00     0.020 A 
ENDROOT
BRANCH   1  12
ATOM     12  C   UNL     1     115.858  15.982 143.034  1.00  0.00     0.025 A 
ATOM     13  C   UNL     1     114.782  15.157 143.400  1.00  0.00     0.016 A 
ATOM     14  C   UNL     1     114.689  14.654 144.698  1.00  0.00     0.051 A 
ATOM     15  C   UNL     1     115.671  14.948 145.651  1.00  0.00     0.157 A 
ATOM     16  C   UNL     1     116.855  16.260 143.981  1.00  0.00     0.062 A 
ATOM     17  C   UNL     1     116.771  15.759 145.286  1.00  0.00     0.158 A 
BRANCH  15  18
ATOM     18  O   UNL     1     115.517  14.415 146.932  1.00  0.00    -0.504 OA
ATOM     19  H   UNL     1     115.527  14.967 147.778  1.00  0.00     0.293 HD
ENDBRANCH  15  18
BRANCH  17  20
ATOM     20  O   UNL     1     117.794  16.089 146.178  1.00  0.00    -0.504 OA
ATOM     21  H   UNL     1     117.902  15.671 147.091  1.00  0.00     0.293 HD
ENDBRANCH  17  20
ENDBRANCH   1  12
BRANCH   2  22
ATOM     22  O   UNL     1     116.816  14.377 140.810  1.00  0.00    -0.502 OA
ATOM     23  H   UNL     1     116.276  13.775 141.420  1.00  0.00     0.293 HD
ENDBRANCH   2  22
BRANCH   9  24
ATOM     24  O   UNL     1     114.982  21.620 138.662  1.00  0.00    -0.508 OA
ATOM     25  H   UNL     1     115.279  22.169 137.864  1.00  0.00     0.293 HD
ENDBRANCH   9  24
TORSDOF 5
ENDMDL
MODEL 9
REMARK VINA RESULT:    -4.296     14.730     16.526
REMARK INTER + INTRA:          -5.363
REMARK INTER:                  -5.279
REMARK INTRA:                  -0.084
REMARK UNBOUND:                -0.313
REMARK SMILES O=c1c(O)c(-c2ccc(O)c(O)c2)oc2cc(O)ccc12
REMARK SMILES IDX 5 1 3 2 2 3 1 4 21 5 15 6 14 7 16 8 17 9 19 10 20 11 6 12
REMARK SMILES IDX 7 13 8 14 9 15 13 16 11 17 10 18 12 20 4 22 18 24
REMARK H PARENT 10 19 12 21 4 23 18 25
REMARK Flexibility Score: inf
ROOT
ATOM      1  C   UNL     1     117.674   5.363 142.630  1.00  0.00     0.180 A 
ATOM      2  C   UNL     1     117.181   4.397 143.532  1.00  0.00     0.208 A 
ATOM      3  C   UNL     1     117.986   3.289 143.842  1.00  0.00     0.235 A 
ATOM      4  O   UNL     1     117.572   2.417 144.655  1.00  0.00    -0.285 OA
ATOM      5  C   UNL     1     119.246   3.160 143.236  1.00  0.00     0.069 A 
ATOM      6  C   UNL     1     119.656   4.157 142.327  1.00  0.00     0.142 A 
ATOM      7  O   UNL     1     118.868   5.195 142.067  1.00  0.00    -0.452 OA
ATOM      8  C   UNL     1     120.901   4.059 141.695  1.00  0.00     0.094 A 
ATOM      9  C   UNL     1     121.745   2.972 141.963  1.00  0.00     0.119 A 
ATOM     10  C   UNL     1     121.341   1.983 142.865  1.00  0.00     0.047 A 
ATOM     11  C   UNL     1     120.098   2.072 143.502  1.00  0.00     0.020 A 
ENDROOT
BRANCH   1  12
ATOM     12  C   UNL     1     116.894   6.568 142.266  1.00  0.00     0.025 A 
ATOM     13  C   UNL     1     116.509   6.816 140.939  1.00  0.00     0.016 A 
ATOM     14  C   UNL     1     115.754   7.947 140.623  1.00  0.00     0.051 A 
ATOM     15  C   UNL     1     115.355   8.842 141.623  1.00  0.00     0.157 A 
ATOM     16  C   UNL     1     116.477   7.451 143.272  1.00  0.00     0.062 A 
ATOM     17  C   UNL     1     115.719   8.589 142.966  1.00  0.00     0.158 A 
BRANCH  15  18
ATOM     18  O   UNL     1     114.603   9.955 141.240  1.00  0.00    -0.504 OA
ATOM     19  H   UNL     1     114.028   9.989 140.410  1.00  0.00     0.293 HD
ENDBRANCH  15  18
BRANCH  17  20
ATOM     20  O   UNL     1     115.351   9.430 144.018  1.00  0.00    -0.504 OA
ATOM     21  H   UNL     1     115.916   9.587 144.840  1.00  0.00     0.293 HD
ENDBRANCH  17  20
ENDBRANCH   1  12
BRANCH   2  22
ATOM     22  O   UNL     1     115.904   4.528 144.081  1.00  0.00    -0.502 OA
ATOM     23  H   UNL     1     115.072   4.594 143.507  1.00  0.00     0.293 HD
ENDBRANCH   2  22
BRANCH   9  24
ATOM     24  O   UNL     1     122.986   2.867 141.340  1.00  0.00    -0.508 OA
ATOM     25  H   UNL     1     123.706   2.248 141.694  1.00  0.00     0.293 HD
ENDBRANCH   9  24
TORSDOF 5
ENDMDL
