MODEL 1
REMARK VINA RESULT:    -3.428      0.000      0.000
REMARK INTER + INTRA:          -3.893
REMARK INTER:                  -3.628
REMARK INTRA:                  -0.265
REMARK UNBOUND:                -0.265
REMARK SMILES O=c1cc(-c2ccccc2)oc2ccccc12
REMARK SMILES IDX 4 1 3 2 2 3 1 4 17 5 16 6 15 7 14 8 13 9 12 10 11 11 5 12
REMARK SMILES IDX 8 13 7 14 9 15 6 16 10 17
REMARK H PARENT
REMARK Flexibility Score: inf
ROOT
ATOM      1  C   UNL     1       8.109 -34.543  15.557  1.00  0.00     0.138 A 
ATOM      2  C   UNL     1       8.922 -33.898  14.602  1.00  0.00     0.100 A 
ATOM      3  C   UNL     1       9.622 -32.744  14.961  1.00  0.00     0.193 A 
ATOM      4  O   UNL     1      10.349 -32.167  14.107  1.00  0.00    -0.289 OA
ATOM      5  C   UNL     1       9.505 -32.243  16.265  1.00  0.00     0.065 A 
ATOM      6  C   UNL     1      10.183 -31.087  16.691  1.00  0.00     0.016 A 
ATOM      7  C   UNL     1      10.031 -30.630  18.005  1.00  0.00     0.001 A 
ATOM      8  C   UNL     1       9.208 -31.321  18.898  1.00  0.00     0.004 A 
ATOM      9  C   UNL     1       8.531 -32.471  18.483  1.00  0.00     0.048 A 
ATOM     10  C   UNL     1       8.675 -32.937  17.171  1.00  0.00     0.138 A 
ATOM     11  O   UNL     1       8.027 -34.032  16.786  1.00  0.00    -0.456 OA
ENDROOT
BRANCH   1  12
ATOM     12  C   UNL     1       7.326 -35.782  15.256  1.00  0.00     0.017 A 
ATOM     13  C   UNL     1       5.875 -38.111  14.594  1.00  0.00     0.000 A 
ATOM     14  C   UNL     1       5.893 -37.649  15.910  1.00  0.00     0.001 A 
ATOM     15  C   UNL     1       6.575 -37.420  13.606  1.00  0.00     0.001 A 
ATOM     16  C   UNL     1       6.610 -36.497  16.244  1.00  0.00     0.012 A 
ATOM     17  C   UNL     1       7.294 -36.267  13.930  1.00  0.00     0.012 A 
ENDBRANCH   1  12
TORSDOF 1
ENDMDL
MODEL 2
REMARK VINA RESULT:    -3.359      1.175      2.753
REMARK INTER + INTRA:          -3.821
REMARK INTER:                  -3.556
REMARK INTRA:                  -0.265
REMARK UNBOUND:                -0.265
REMARK SMILES O=c1cc(-c2ccccc2)oc2ccccc12
REMARK SMILES IDX 4 1 3 2 2 3 1 4 17 5 16 6 15 7 14 8 13 9 12 10 11 11 5 12
REMARK SMILES IDX 8 13 7 14 9 15 6 16 10 17
REMARK H PARENT
REMARK Flexibility Score: inf
ROOT
ATOM      1  C   UNL     1       7.440 -34.911  16.204  1.00  0.00     0.138 A 
ATOM      2  C   UNL     1       6.981 -34.929  17.537  1.00  0.00     0.100 A 
ATOM      3  C   UNL     1       7.425 -33.955  18.432  1.00  0.00     0.193 A 
ATOM      4  O   UNL     1       7.014 -33.971  19.625  1.00  0.00    -0.289 OA
ATOM      5  C   UNL     1       8.323 -32.972  17.993  1.00  0.00     0.065 A 
ATOM      6  C   UNL     1       8.810 -31.962  18.843  1.00  0.00     0.016 A 
ATOM      7  C   UNL     1       9.705 -31.006  18.353  1.00  0.00     0.001 A 
ATOM      8  C   UNL     1      10.118 -31.048  17.018  1.00  0.00     0.004 A 
ATOM      9  C   UNL     1       9.640 -32.048  16.168  1.00  0.00     0.048 A 
ATOM     10  C   UNL     1       8.744 -33.011  16.647  1.00  0.00     0.138 A 
ATOM     11  O   UNL     1       8.295 -33.957  15.829  1.00  0.00    -0.456 OA
ENDROOT
BRANCH   1  12
ATOM     12  C   UNL     1       7.015 -35.916  15.181  1.00  0.00     0.017 A 
ATOM     13  C   UNL     1       6.172 -37.867  13.324  1.00  0.00     0.000 A 
ATOM     14  C   UNL     1       6.885 -36.751  12.888  1.00  0.00     0.001 A 
ATOM     15  C   UNL     1       5.875 -38.018  14.677  1.00  0.00     0.001 A 
ATOM     16  C   UNL     1       7.305 -35.781  13.804  1.00  0.00     0.012 A 
ATOM     17  C   UNL     1       6.291 -37.054  15.599  1.00  0.00     0.012 A 
ENDBRANCH   1  12
TORSDOF 1
ENDMDL
MODEL 3
REMARK VINA RESULT:    -3.252      1.268      5.828
REMARK INTER + INTRA:          -3.708
REMARK INTER:                  -3.450
REMARK INTRA:                  -0.258
REMARK UNBOUND:                -0.265
REMARK SMILES O=c1cc(-c2ccccc2)oc2ccccc12
REMARK SMILES IDX 4 1 3 2 2 3 1 4 17 5 16 6 15 7 14 8 13 9 12 10 11 11 5 12
REMARK SMILES IDX 8 13 7 14 9 15 6 16 10 17
REMARK H PARENT
REMARK Flexibility Score: inf
ROOT
ATOM      1  C   UNL     1       8.062 -33.848  16.285  1.00  0.00     0.138 A 
ATOM      2  C   UNL     1       8.022 -33.753  14.879  1.00  0.00     0.100 A 
ATOM      3  C   UNL     1       7.464 -34.792  14.133  1.00  0.00     0.193 A 
ATOM      4  O   UNL     1       7.428 -34.707  12.875  1.00  0.00    -0.289 OA
ATOM      5  C   UNL     1       6.949 -35.917  14.794  1.00  0.00     0.065 A 
ATOM      6  C   UNL     1       6.373 -36.998  14.103  1.00  0.00     0.016 A 
ATOM      7  C   UNL     1       5.875 -38.097  14.812  1.00  0.00     0.001 A 
ATOM      8  C   UNL     1       5.948 -38.124  16.208  1.00  0.00     0.004 A 
ATOM      9  C   UNL     1       6.519 -37.053  16.901  1.00  0.00     0.048 A 
ATOM     10  C   UNL     1       7.020 -35.950  16.203  1.00  0.00     0.138 A 
ATOM     11  O   UNL     1       7.562 -34.937  16.872  1.00  0.00    -0.456 OA
ENDROOT
BRANCH   1  12
ATOM     12  C   UNL     1       8.643 -32.782  17.158  1.00  0.00     0.017 A 
ATOM     13  C   UNL     1       9.796 -30.742  18.731  1.00  0.00     0.000 A 
ATOM     14  C   UNL     1       8.817 -31.572  19.274  1.00  0.00     0.001 A 
ATOM     15  C   UNL     1      10.205 -30.920  17.410  1.00  0.00     0.001 A 
ATOM     16  C   UNL     1       8.241 -32.584  18.500  1.00  0.00     0.012 A 
ATOM     17  C   UNL     1       9.635 -31.928  16.629  1.00  0.00     0.012 A 
ENDBRANCH   1  12
TORSDOF 1
ENDMDL
MODEL 4
REMARK VINA RESULT:    -2.970      1.281      6.330
REMARK INTER + INTRA:          -3.409
REMARK INTER:                  -3.151
REMARK INTRA:                  -0.258
REMARK UNBOUND:                -0.265
REMARK SMILES O=c1cc(-c2ccccc2)oc2ccccc12
REMARK SMILES IDX 4 1 3 2 2 3 1 4 17 5 16 6 15 7 14 8 13 9 12 10 11 11 5 12
REMARK SMILES IDX 8 13 7 14 9 15 6 16 10 17
REMARK H PARENT
REMARK Flexibility Score: inf
ROOT
ATOM      1  C   UNL     1       8.053 -34.124  16.732  1.00  0.00     0.138 A 
ATOM      2  C   UNL     1       7.643 -35.178  17.574  1.00  0.00     0.100 A 
ATOM      3  C   UNL     1       6.987 -36.282  17.027  1.00  0.00     0.193 A 
ATOM      4  O   UNL     1       6.621 -37.225  17.780  1.00  0.00    -0.289 OA
ATOM      5  C   UNL     1       6.746 -36.327  15.647  1.00  0.00     0.065 A 
ATOM      6  C   UNL     1       6.091 -37.409  15.031  1.00  0.00     0.016 A 
ATOM      7  C   UNL     1       5.875 -37.403  13.649  1.00  0.00     0.001 A 
ATOM      8  C   UNL     1       6.309 -36.323  12.875  1.00  0.00     0.004 A 
ATOM      9  C   UNL     1       6.961 -35.244  13.479  1.00  0.00     0.048 A 
ATOM     10  C   UNL     1       7.182 -35.239  14.860  1.00  0.00     0.138 A 
ATOM     11  O   UNL     1       7.802 -34.208  15.425  1.00  0.00    -0.456 OA
ENDROOT
BRANCH   1  12
ATOM     12  C   UNL     1       8.760 -32.906  17.237  1.00  0.00     0.017 A 
ATOM     13  C   UNL     1      10.051 -30.621  18.275  1.00  0.00     0.000 A 
ATOM     14  C   UNL     1      10.262 -31.000  16.950  1.00  0.00     0.001 A 
ATOM     15  C   UNL     1       9.202 -31.372  19.086  1.00  0.00     0.001 A 
ATOM     16  C   UNL     1       9.626 -32.132  16.430  1.00  0.00     0.012 A 
ATOM     17  C   UNL     1       8.562 -32.504  18.575  1.00  0.00     0.012 A 
ENDBRANCH   1  12
TORSDOF 1
ENDMDL
MODEL 5
REMARK VINA RESULT:    -2.297      1.332      5.758
REMARK INTER + INTRA:          -2.696
REMARK INTER:                  -2.437
REMARK INTRA:                  -0.259
REMARK UNBOUND:                -0.265
REMARK SMILES O=c1cc(-c2ccccc2)oc2ccccc12
REMARK SMILES IDX 4 1 3 2 2 3 1 4 17 5 16 6 15 7 14 8 13 9 12 10 11 11 5 12
REMARK SMILES IDX 8 13 7 14 9 15 6 16 10 17
REMARK H PARENT
REMARK Flexibility Score: inf
ROOT
ATOM      1  C   UNL     1       8.419 -34.093  15.806  1.00  0.00     0.138 A 
ATOM      2  C   UNL     1       9.375 -34.089  14.769  1.00  0.00     0.100 A 
ATOM      3  C   UNL     1       9.348 -35.097  13.803  1.00  0.00     0.193 A 
ATOM      4  O   UNL     1      10.203 -35.094  12.876  1.00  0.00    -0.289 OA
ATOM      5  C   UNL     1       8.370 -36.099  13.878  1.00  0.00     0.065 A 
ATOM      6  C   UNL     1       8.287 -37.142  12.939  1.00  0.00     0.016 A 
ATOM      7  C   UNL     1       7.290 -38.116  13.060  1.00  0.00     0.001 A 
ATOM      8  C   UNL     1       6.374 -38.057  14.115  1.00  0.00     0.004 A 
ATOM      9  C   UNL     1       6.450 -37.023  15.053  1.00  0.00     0.048 A 
ATOM     10  C   UNL     1       7.443 -36.044  14.941  1.00  0.00     0.138 A 
ATOM     11  O   UNL     1       7.507 -35.065  15.838  1.00  0.00    -0.456 OA
ENDROOT
BRANCH   1  12
ATOM     12  C   UNL     1       8.378 -33.052  16.879  1.00  0.00     0.017 A 
ATOM     13  C   UNL     1       8.205 -31.107  18.917  1.00  0.00     0.000 A 
ATOM     14  C   UNL     1       9.418 -31.330  18.267  1.00  0.00     0.001 A 
ATOM     15  C   UNL     1       7.078 -31.845  18.560  1.00  0.00     0.001 A 
ATOM     16  C   UNL     1       9.510 -32.293  17.257  1.00  0.00     0.012 A 
ATOM     17  C   UNL     1       7.161 -32.809  17.552  1.00  0.00     0.012 A 
ENDBRANCH   1  12
TORSDOF 1
ENDMDL
MODEL 6
REMARK VINA RESULT:    -1.885      1.628      6.005
REMARK INTER + INTRA:          -2.261
REMARK INTER:                  -2.036
REMARK INTRA:                  -0.225
REMARK UNBOUND:                -0.265
REMARK SMILES O=c1cc(-c2ccccc2)oc2ccccc12
REMARK SMILES IDX 4 1 3 2 2 3 1 4 17 5 16 6 15 7 14 8 13 9 12 10 11 11 5 12
REMARK SMILES IDX 8 13 7 14 9 15 6 16 10 17
REMARK H PARENT
REMARK Flexibility Score: inf
ROOT
ATOM      1  C   UNL     1       8.273 -33.223  15.705  1.00  0.00     0.138 A 
ATOM      2  C   UNL     1       7.302 -32.735  14.806  1.00  0.00     0.100 A 
ATOM      3  C   UNL     1       6.749 -33.596  13.856  1.00  0.00     0.193 A 
ATOM      4  O   UNL     1       5.881 -33.159  13.052  1.00  0.00    -0.289 OA
ATOM      5  C   UNL     1       7.167 -34.933  13.809  1.00  0.00     0.065 A 
ATOM      6  C   UNL     1       6.650 -35.852  12.878  1.00  0.00     0.016 A 
ATOM      7  C   UNL     1       7.103 -37.175  12.875  1.00  0.00     0.001 A 
ATOM      8  C   UNL     1       8.068 -37.590  13.797  1.00  0.00     0.004 A 
ATOM      9  C   UNL     1       8.587 -36.684  14.726  1.00  0.00     0.048 A 
ATOM     10  C   UNL     1       8.142 -35.357  14.738  1.00  0.00     0.138 A 
ATOM     11  O   UNL     1       8.641 -34.503  15.625  1.00  0.00    -0.456 OA
ENDROOT
BRANCH   1  12
ATOM     12  C   UNL     1       8.915 -32.370  16.752  1.00  0.00     0.017 A 
ATOM     13  C   UNL     1      10.068 -30.799  18.794  1.00  0.00     0.000 A 
ATOM     14  C   UNL     1      10.520 -30.677  17.481  1.00  0.00     0.001 A 
ATOM     15  C   UNL     1       9.046 -31.697  19.098  1.00  0.00     0.001 A 
ATOM     16  C   UNL     1       9.953 -31.453  16.465  1.00  0.00     0.012 A 
ATOM     17  C   UNL     1       8.474 -32.476  18.089  1.00  0.00     0.012 A 
ENDBRANCH   1  12
TORSDOF 1
ENDMDL
MODEL 7
REMARK VINA RESULT:    -0.870      1.747      6.366
REMARK INTER + INTRA:          -1.187
REMARK INTER:                  -0.921
REMARK INTRA:                  -0.266
REMARK UNBOUND:                -0.265
REMARK SMILES O=c1cc(-c2ccccc2)oc2ccccc12
REMARK SMILES IDX 4 1 3 2 2 3 1 4 17 5 16 6 15 7 14 8 13 9 12 10 11 11 5 12
REMARK SMILES IDX 8 13 7 14 9 15 6 16 10 17
REMARK H PARENT
REMARK Flexibility Score: inf
ROOT
ATOM      1  C   UNL     1       8.791 -34.111  14.959  1.00  0.00     0.138 A 
ATOM      2  C   UNL     1       7.950 -34.219  16.085  1.00  0.00     0.100 A 
ATOM      3  C   UNL     1       6.994 -35.235  16.137  1.00  0.00     0.193 A 
ATOM      4  O   UNL     1       6.242 -35.332  17.145  1.00  0.00    -0.289 OA
ATOM      5  C   UNL     1       6.885 -36.135  15.068  1.00  0.00     0.065 A 
ATOM      6  C   UNL     1       5.945 -37.181  15.057  1.00  0.00     0.016 A 
ATOM      7  C   UNL     1       5.879 -38.051  13.963  1.00  0.00     0.001 A 
ATOM      8  C   UNL     1       6.745 -37.885  12.879  1.00  0.00     0.004 A 
ATOM      9  C   UNL     1       7.682 -36.848  12.882  1.00  0.00     0.048 A 
ATOM     10  C   UNL     1       7.757 -35.971  13.970  1.00  0.00     0.138 A 
ATOM     11  O   UNL     1       8.652 -34.988  13.964  1.00  0.00    -0.456 OA
ENDROOT
BRANCH   1  12
ATOM     12  C   UNL     1       9.839 -33.052  14.823  1.00  0.00     0.017 A 
ATOM     13  C   UNL     1      11.789 -31.018  14.652  1.00  0.00     0.000 A 
ATOM     14  C   UNL     1      11.650 -31.941  13.616  1.00  0.00     0.001 A 
ATOM     15  C   UNL     1      10.963 -31.102  15.773  1.00  0.00     0.001 A 
ATOM     16  C   UNL     1      10.686 -32.951  13.695  1.00  0.00     0.012 A 
ATOM     17  C   UNL     1       9.997 -32.108  15.860  1.00  0.00     0.012 A 
ENDBRANCH   1  12
TORSDOF 1
ENDMDL
