MODEL 1
REMARK VINA RESULT:    -2.246      0.000      0.000
REMARK INTER + INTRA:          -2.246
REMARK INTER:                  -2.246
REMARK INTRA:                   0.000
REMARK UNBOUND:                 0.000
REMARK SMILES CC(=O)[O-]
REMARK SMILES IDX 1 1 2 2 3 3 4 4
REMARK H PARENT
REMARK Flexibility Score: inf
ROOT
ATOM      1  C   UNL     1      48.247  -4.073  16.929  1.00  0.00     0.063 C 
ATOM      2  C   UNL     1      47.182  -3.150  16.443  1.00  0.00     0.038 C 
ATOM      3  O   UNL     1      47.062  -2.003  16.947  1.00  0.00    -0.550 OA
ATOM      4  O   UNL     1      46.287  -3.572  15.468  1.00  0.00    -0.550 OA
ENDROOT
TORSDOF 0
ENDMDL
MODEL 2
REMARK VINA RESULT:    -2.192      0.815      1.724
REMARK INTER + INTRA:          -2.192
REMARK INTER:                  -2.192
REMARK INTRA:                   0.000
REMARK UNBOUND:                 0.000
REMARK SMILES CC(=O)[O-]
REMARK SMILES IDX 1 1 2 2 3 3 4 4
REMARK H PARENT
REMARK Flexibility Score: inf
ROOT
ATOM      1  C   UNL     1      47.862  -3.501  16.825  1.00  0.00     0.063 C 
ATOM      2  C   UNL     1      46.831  -2.856  15.962  1.00  0.00     0.038 C 
ATOM      3  O   UNL     1      46.003  -3.564  15.332  1.00  0.00    -0.550 OA
ATOM      4  O   UNL     1      46.815  -1.475  15.811  1.00  0.00    -0.550 OA
ENDROOT
TORSDOF 0
ENDMDL
MODEL 3
REMARK VINA RESULT:    -2.164     11.169     11.657
REMARK INTER + INTRA:          -2.164
REMARK INTER:                  -2.164
REMARK INTRA:                   0.000
REMARK UNBOUND:                 0.000
REMARK SMILES CC(=O)[O-]
REMARK SMILES IDX 1 1 2 2 3 3 4 4
REMARK H PARENT
REMARK Flexibility Score: inf
ROOT
ATOM      1  C   UNL     1      48.054   6.662  22.199  1.00  0.00     0.063 C 
ATOM      2  C   UNL     1      47.070   7.400  21.356  1.00  0.00     0.038 C 
ATOM      3  O   UNL     1      46.352   8.301  21.865  1.00  0.00    -0.550 OA
ATOM      4  O   UNL     1      46.906   7.060  20.019  1.00  0.00    -0.550 OA
ENDROOT
TORSDOF 0
ENDMDL
MODEL 4
REMARK VINA RESULT:    -2.133     11.526     12.209
REMARK INTER + INTRA:          -2.133
REMARK INTER:                  -2.133
REMARK INTRA:                   0.000
REMARK UNBOUND:                 0.000
REMARK SMILES CC(=O)[O-]
REMARK SMILES IDX 1 1 2 2 3 3 4 4
REMARK H PARENT
REMARK Flexibility Score: inf
ROOT
ATOM      1  C   UNL     1      46.833   7.395  20.939  1.00  0.00     0.063 C 
ATOM      2  C   UNL     1      47.719   7.346  22.137  1.00  0.00     0.038 C 
ATOM      3  O   UNL     1      48.223   6.253  22.506  1.00  0.00    -0.550 OA
ATOM      4  O   UNL     1      47.947   8.498  22.880  1.00  0.00    -0.550 OA
ENDROOT
TORSDOF 0
ENDMDL
MODEL 5
REMARK VINA RESULT:    -2.097     18.160     18.724
REMARK INTER + INTRA:          -2.097
REMARK INTER:                  -2.097
REMARK INTRA:                   0.000
REMARK UNBOUND:                 0.000
REMARK SMILES CC(=O)[O-]
REMARK SMILES IDX 1 1 2 2 3 3 4 4
REMARK H PARENT
REMARK Flexibility Score: inf
ROOT
ATOM      1  C   UNL     1      48.069   6.721  30.551  1.00  0.00     0.063 C 
ATOM      2  C   UNL     1      48.365   7.055  31.973  1.00  0.00     0.038 C 
ATOM      3  O   UNL     1      48.720   6.152  32.774  1.00  0.00    -0.550 OA
ATOM      4  O   UNL     1      48.198   8.357  32.431  1.00  0.00    -0.550 OA
ENDROOT
TORSDOF 0
ENDMDL
MODEL 6
REMARK VINA RESULT:    -2.020      1.823      2.030
REMARK INTER + INTRA:          -2.020
REMARK INTER:                  -2.020
REMARK INTRA:                   0.000
REMARK UNBOUND:                 0.000
REMARK SMILES CC(=O)[O-]
REMARK SMILES IDX 1 1 2 2 3 3 4 4
REMARK H PARENT
REMARK Flexibility Score: inf
ROOT
ATOM      1  C   UNL     1      46.103  -3.179  15.015  1.00  0.00     0.063 C 
ATOM      2  C   UNL     1      46.884  -2.322  15.953  1.00  0.00     0.038 C 
ATOM      3  O   UNL     1      46.381  -1.263  16.409  1.00  0.00    -0.550 OA
ATOM      4  O   UNL     1      48.189  -2.665  16.284  1.00  0.00    -0.550 OA
ENDROOT
TORSDOF 0
ENDMDL
MODEL 7
REMARK VINA RESULT:    -1.990     11.099     11.575
REMARK INTER + INTRA:          -1.990
REMARK INTER:                  -1.990
REMARK INTRA:                   0.000
REMARK UNBOUND:                 0.000
REMARK SMILES CC(=O)[O-]
REMARK SMILES IDX 1 1 2 2 3 3 4 4
REMARK H PARENT
REMARK Flexibility Score: inf
ROOT
ATOM      1  C   UNL     1      46.647   7.173  19.175  1.00  0.00     0.063 C 
ATOM      2  C   UNL     1      46.684   7.467  20.636  1.00  0.00     0.038 C 
ATOM      3  O   UNL     1      45.907   8.326  21.128  1.00  0.00    -0.550 OA
ATOM      4  O   UNL     1      47.614   6.831  21.449  1.00  0.00    -0.550 OA
ENDROOT
TORSDOF 0
ENDMDL
MODEL 8
REMARK VINA RESULT:    -1.949     18.994     19.506
REMARK INTER + INTRA:          -1.949
REMARK INTER:                  -1.949
REMARK INTRA:                   0.000
REMARK UNBOUND:                 0.000
REMARK SMILES CC(=O)[O-]
REMARK SMILES IDX 1 1 2 2 3 3 4 4
REMARK H PARENT
REMARK Flexibility Score: inf
ROOT
ATOM      1  C   UNL     1      49.644   7.715  33.777  1.00  0.00     0.063 C 
ATOM      2  C   UNL     1      49.020   6.500  33.179  1.00  0.00     0.038 C 
ATOM      3  O   UNL     1      48.968   5.429  33.837  1.00  0.00    -0.550 OA
ATOM      4  O   UNL     1      48.544   6.534  31.875  1.00  0.00    -0.550 OA
ENDROOT
TORSDOF 0
ENDMDL
MODEL 9
REMARK VINA RESULT:    -1.929      9.503     10.095
REMARK INTER + INTRA:          -1.929
REMARK INTER:                  -1.929
REMARK INTRA:                   0.000
REMARK UNBOUND:                 0.000
REMARK SMILES CC(=O)[O-]
REMARK SMILES IDX 1 1 2 2 3 3 4 4
REMARK H PARENT
REMARK Flexibility Score: inf
ROOT
ATOM      1  C   UNL     1      45.429   7.035  16.645  1.00  0.00     0.063 C 
ATOM      2  C   UNL     1      46.604   6.539  17.418  1.00  0.00     0.038 C 
ATOM      3  O   UNL     1      47.426   5.751  16.882  1.00  0.00    -0.550 OA
ATOM      4  O   UNL     1      46.766   6.905  18.749  1.00  0.00    -0.550 OA
ENDROOT
TORSDOF 0
ENDMDL
