MODEL 1
REMARK VINA RESULT:    -4.717      0.000      0.000
REMARK INTER + INTRA:          -7.496
REMARK INTER:                  -6.923
REMARK INTRA:                  -0.573
REMARK UNBOUND:                -0.573
REMARK SMILES O=C([O-])CCCCCCCC(=O)[O-]
REMARK SMILES IDX 7 1 6 2 5 3 4 4 2 5 1 6 3 7 8 8 9 9 10 10 11 11 12 12 13 13
REMARK H PARENT
REMARK Flexibility Score: inf
ROOT
ATOM      1  C   UNL     1     104.634 108.036 230.502  1.00  0.00     0.000 C 
ENDROOT
BRANCH   1   2
ATOM      2  C   UNL     1     103.136 107.902 230.818  1.00  0.00     0.000 C 
BRANCH   2   3
ATOM      3  C   UNL     1     102.831 106.721 231.752  1.00  0.00     0.006 C 
BRANCH   3   4
ATOM      4  C   UNL     1     104.112 105.959 232.107  1.00  0.00     0.053 C 
BRANCH   4   5
ATOM      5  C   UNL     1     104.395 106.066 233.572  1.00  0.00     0.041 C 
ATOM      6  O   UNL     1     105.583 106.101 233.987  1.00  0.00    -0.550 OA
ATOM      7  O   UNL     1     103.347 106.077 234.484  1.00  0.00    -0.550 OA
ENDBRANCH   4   5
ENDBRANCH   3   4
ENDBRANCH   2   3
ENDBRANCH   1   2
BRANCH   1   8
ATOM      8  C   UNL     1     104.908 108.251 229.006  1.00  0.00     0.000 C 
BRANCH   8   9
ATOM      9  C   UNL     1     104.508 107.016 228.192  1.00  0.00     0.006 C 
BRANCH   9  10
ATOM     10  C   UNL     1     105.336 105.795 228.602  1.00  0.00     0.053 C 
BRANCH  10  11
ATOM     11  C   UNL     1     105.348 104.777 227.505  1.00  0.00     0.041 C 
ATOM     12  O   UNL     1     104.475 104.812 226.599  1.00  0.00    -0.550 OA
ATOM     13  O   UNL     1     106.353 103.819 227.457  1.00  0.00    -0.550 OA
ENDBRANCH  10  11
ENDBRANCH   9  10
ENDBRANCH   8   9
ENDBRANCH   1   8
TORSDOF 8
ENDMDL
MODEL 2
REMARK VINA RESULT:    -4.686      2.411      3.219
REMARK INTER + INTRA:          -7.451
REMARK INTER:                  -6.528
REMARK INTRA:                  -0.923
REMARK UNBOUND:                -0.573
REMARK SMILES O=C([O-])CCCCCCCC(=O)[O-]
REMARK SMILES IDX 7 1 6 2 5 3 4 4 2 5 1 6 3 7 8 8 9 9 10 10 11 11 12 12 13 13
REMARK H PARENT
REMARK Flexibility Score: inf
ROOT
ATOM      1  C   UNL     1     104.782 107.290 228.451  1.00  0.00     0.000 C 
ENDROOT
BRANCH   1   2
ATOM      2  C   UNL     1     104.893 108.269 229.630  1.00  0.00     0.000 C 
BRANCH   2   3
ATOM      3  C   UNL     1     104.226 107.737 230.907  1.00  0.00     0.006 C 
BRANCH   3   4
ATOM      4  C   UNL     1     102.701 107.721 230.762  1.00  0.00     0.053 C 
BRANCH   4   5
ATOM      5  C   UNL     1     102.157 106.371 231.105  1.00  0.00     0.041 C 
ATOM      6  O   UNL     1     100.916 106.158 231.066  1.00  0.00    -0.550 OA
ATOM      7  O   UNL     1     103.015 105.358 231.515  1.00  0.00    -0.550 OA
ENDBRANCH   4   5
ENDBRANCH   3   4
ENDBRANCH   2   3
ENDBRANCH   1   2
BRANCH   1   8
ATOM      8  C   UNL     1     105.298 105.886 228.795  1.00  0.00     0.000 C 
BRANCH   8   9
ATOM      9  C   UNL     1     104.339 104.806 228.281  1.00  0.00     0.006 C 
BRANCH   9  10
ATOM     10  C   UNL     1     103.316 105.398 227.308  1.00  0.00     0.053 C 
BRANCH  10  11
ATOM     11  C   UNL     1     101.937 104.925 227.646  1.00  0.00     0.041 C 
ATOM     12  O   UNL     1     100.937 105.419 227.062  1.00  0.00    -0.550 OA
ATOM     13  O   UNL     1     101.760 103.903 228.570  1.00  0.00    -0.550 OA
ENDBRANCH  10  11
ENDBRANCH   9  10
ENDBRANCH   8   9
ENDBRANCH   1   8
TORSDOF 8
ENDMDL
MODEL 3
REMARK VINA RESULT:    -4.669      2.398      3.619
REMARK INTER + INTRA:          -7.425
REMARK INTER:                  -6.735
REMARK INTRA:                  -0.690
REMARK UNBOUND:                -0.573
REMARK SMILES O=C([O-])CCCCCCCC(=O)[O-]
REMARK SMILES IDX 7 1 6 2 5 3 4 4 2 5 1 6 3 7 8 8 9 9 10 10 11 11 12 12 13 13
REMARK H PARENT
REMARK Flexibility Score: inf
ROOT
ATOM      1  C   UNL     1     102.882 105.572 232.665  1.00  0.00     0.000 C 
ENDROOT
BRANCH   1   2
ATOM      2  C   UNL     1     103.799 106.013 233.817  1.00  0.00     0.000 C 
BRANCH   2   3
ATOM      3  C   UNL     1     105.269 106.142 233.388  1.00  0.00     0.006 C 
BRANCH   3   4
ATOM      4  C   UNL     1     105.655 105.024 232.414  1.00  0.00     0.053 C 
BRANCH   4   5
ATOM      5  C   UNL     1     106.719 104.157 233.008  1.00  0.00     0.041 C 
ATOM      6  O   UNL     1     107.619 104.662 233.730  1.00  0.00    -0.550 OA
ATOM      7  O   UNL     1     106.747 102.797 232.725  1.00  0.00    -0.550 OA
ENDBRANCH   4   5
ENDBRANCH   3   4
ENDBRANCH   2   3
ENDBRANCH   1   2
BRANCH   1   8
ATOM      8  C   UNL     1     101.933 106.686 232.202  1.00  0.00     0.000 C 
BRANCH   8   9
ATOM      9  C   UNL     1     102.206 107.071 230.744  1.00  0.00     0.006 C 
BRANCH   9  10
ATOM     10  C   UNL     1     103.411 108.009 230.638  1.00  0.00     0.053 C 
BRANCH  10  11
ATOM     11  C   UNL     1     104.311 107.583 229.521  1.00  0.00     0.041 C 
ATOM     12  O   UNL     1     104.945 108.444 228.855  1.00  0.00    -0.550 OA
ATOM     13  O   UNL     1     104.487 106.234 229.247  1.00  0.00    -0.550 OA
ENDBRANCH  10  11
ENDBRANCH   9  10
ENDBRANCH   8   9
ENDBRANCH   1   8
TORSDOF 8
ENDMDL
MODEL 4
REMARK VINA RESULT:    -4.659      1.624      5.851
REMARK INTER + INTRA:          -7.411
REMARK INTER:                  -6.920
REMARK INTRA:                  -0.491
REMARK UNBOUND:                -0.573
REMARK SMILES O=C([O-])CCCCCCCC(=O)[O-]
REMARK SMILES IDX 7 1 6 2 5 3 4 4 2 5 1 6 3 7 8 8 9 9 10 10 11 11 12 12 13 13
REMARK H PARENT
REMARK Flexibility Score: inf
ROOT
ATOM      1  C   UNL     1     104.961 107.610 231.189  1.00  0.00     0.000 C 
ENDROOT
BRANCH   1   2
ATOM      2  C   UNL     1     105.756 107.393 229.892  1.00  0.00     0.000 C 
BRANCH   2   3
ATOM      3  C   UNL     1     104.853 107.087 228.687  1.00  0.00     0.006 C 
BRANCH   3   4
ATOM      4  C   UNL     1     104.650 105.577 228.525  1.00  0.00     0.053 C 
BRANCH   4   5
ATOM      5  C   UNL     1     104.353 105.239 227.100  1.00  0.00     0.041 C 
ATOM      6  O   UNL     1     103.284 105.634 226.563  1.00  0.00    -0.550 OA
ATOM      7  O   UNL     1     105.233 104.444 226.375  1.00  0.00    -0.550 OA
ENDBRANCH   4   5
ENDBRANCH   3   4
ENDBRANCH   2   3
ENDBRANCH   1   2
BRANCH   1   8
ATOM      8  C   UNL     1     105.167 106.478 232.207  1.00  0.00     0.000 C 
BRANCH   8   9
ATOM      9  C   UNL     1     103.865 106.167 232.954  1.00  0.00     0.006 C 
BRANCH   9  10
ATOM     10  C   UNL     1     102.644 106.501 232.094  1.00  0.00     0.053 C 
BRANCH  10  11
ATOM     11  C   UNL     1     101.388 106.383 232.899  1.00  0.00     0.041 C 
ATOM     12  O   UNL     1     100.277 106.244 232.323  1.00  0.00    -0.550 OA
ATOM     13  O   UNL     1     101.449 106.376 234.286  1.00  0.00    -0.550 OA
ENDBRANCH  10  11
ENDBRANCH   9  10
ENDBRANCH   8   9
ENDBRANCH   1   8
TORSDOF 8
ENDMDL
MODEL 5
REMARK VINA RESULT:    -4.658      1.999      2.796
REMARK INTER + INTRA:          -7.410
REMARK INTER:                  -6.744
REMARK INTRA:                  -0.665
REMARK UNBOUND:                -0.573
REMARK SMILES O=C([O-])CCCCCCCC(=O)[O-]
REMARK SMILES IDX 7 1 6 2 5 3 4 4 2 5 1 6 3 7 8 8 9 9 10 10 11 11 12 12 13 13
REMARK H PARENT
REMARK Flexibility Score: inf
ROOT
ATOM      1  C   UNL     1     105.667 105.550 230.006  1.00  0.00     0.000 C 
ENDROOT
BRANCH   1   2
ATOM      2  C   UNL     1     105.584 107.082 230.093  1.00  0.00     0.000 C 
BRANCH   2   3
ATOM      3  C   UNL     1     105.033 107.570 231.442  1.00  0.00     0.006 C 
BRANCH   3   4
ATOM      4  C   UNL     1     104.043 106.558 232.027  1.00  0.00     0.053 C 
BRANCH   4   5
ATOM      5  C   UNL     1     104.427 106.198 233.426  1.00  0.00     0.041 C 
ATOM      6  O   UNL     1     103.546 106.099 234.321  1.00  0.00    -0.550 OA
ATOM      7  O   UNL     1     105.765 106.021 233.757  1.00  0.00    -0.550 OA
ENDBRANCH   4   5
ENDBRANCH   3   4
ENDBRANCH   2   3
ENDBRANCH   1   2
BRANCH   1   8
ATOM      8  C   UNL     1     105.227 105.009 228.637  1.00  0.00     0.000 C 
BRANCH   8   9
ATOM      9  C   UNL     1     104.321 106.013 227.915  1.00  0.00     0.006 C 
BRANCH   9  10
ATOM     10  C   UNL     1     103.082 105.322 227.342  1.00  0.00     0.053 C 
BRANCH  10  11
ATOM     11  C   UNL     1     102.120 104.978 228.436  1.00  0.00     0.041 C 
ATOM     12  O   UNL     1     101.868 105.813 229.344  1.00  0.00    -0.550 OA
ATOM     13  O   UNL     1     101.466 103.753 228.426  1.00  0.00    -0.550 OA
ENDBRANCH  10  11
ENDBRANCH   9  10
ENDBRANCH   8   9
ENDBRANCH   1   8
TORSDOF 8
ENDMDL
MODEL 6
REMARK VINA RESULT:    -4.601      2.130      5.620
REMARK INTER + INTRA:          -7.326
REMARK INTER:                  -6.611
REMARK INTRA:                  -0.715
REMARK UNBOUND:                -0.573
REMARK SMILES O=C([O-])CCCCCCCC(=O)[O-]
REMARK SMILES IDX 7 1 6 2 5 3 4 4 2 5 1 6 3 7 8 8 9 9 10 10 11 11 12 12 13 13
REMARK H PARENT
REMARK Flexibility Score: inf
ROOT
ATOM      1  C   UNL     1     104.467 106.867 230.263  1.00  0.00     0.000 C 
ENDROOT
BRANCH   1   2
ATOM      2  C   UNL     1     104.703 106.821 228.746  1.00  0.00     0.000 C 
BRANCH   2   3
ATOM      3  C   UNL     1     104.518 105.413 228.159  1.00  0.00     0.006 C 
BRANCH   3   4
ATOM      4  C   UNL     1     103.431 105.408 227.079  1.00  0.00     0.053 C 
BRANCH   4   5
ATOM      5  C   UNL     1     102.136 104.917 227.642  1.00  0.00     0.041 C 
ATOM      6  O   UNL     1     102.128 104.134 228.629  1.00  0.00    -0.550 OA
ATOM      7  O   UNL     1     100.935 105.284 227.047  1.00  0.00    -0.550 OA
ENDBRANCH   4   5
ENDBRANCH   3   4
ENDBRANCH   2   3
ENDBRANCH   1   2
BRANCH   1   8
ATOM      8  C   UNL     1     103.323 107.813 230.657  1.00  0.00     0.000 C 
BRANCH   8   9
ATOM      9  C   UNL     1     101.979 107.076 230.667  1.00  0.00     0.006 C 
BRANCH   9  10
ATOM     10  C   UNL     1     102.019 105.871 231.610  1.00  0.00     0.053 C 
BRANCH  10  11
ATOM     11  C   UNL     1     101.698 106.291 233.010  1.00  0.00     0.041 C 
ATOM     12  O   UNL     1     100.583 106.812 233.275  1.00  0.00    -0.550 OA
ATOM     13  O   UNL     1     102.611 106.062 234.031  1.00  0.00    -0.550 OA
ENDBRANCH  10  11
ENDBRANCH   9  10
ENDBRANCH   8   9
ENDBRANCH   1   8
TORSDOF 8
ENDMDL
MODEL 7
REMARK VINA RESULT:    -4.584      3.607      4.783
REMARK INTER + INTRA:          -7.301
REMARK INTER:                  -6.684
REMARK INTRA:                  -0.617
REMARK UNBOUND:                -0.573
REMARK SMILES O=C([O-])CCCCCCCC(=O)[O-]
REMARK SMILES IDX 7 1 6 2 5 3 4 4 2 5 1 6 3 7 8 8 9 9 10 10 11 11 12 12 13 13
REMARK H PARENT
REMARK Flexibility Score: inf
ROOT
ATOM      1  C   UNL     1     101.664 106.273 234.028  1.00  0.00     0.000 C 
ENDROOT
BRANCH   1   2
ATOM      2  C   UNL     1     101.495 106.760 232.580  1.00  0.00     0.000 C 
BRANCH   2   3
ATOM      3  C   UNL     1     100.686 105.780 231.716  1.00  0.00     0.006 C 
BRANCH   3   4
ATOM      4  C   UNL     1     101.525 105.264 230.542  1.00  0.00     0.053 C 
BRANCH   4   5
ATOM      5  C   UNL     1     101.767 103.795 230.678  1.00  0.00     0.041 C 
ATOM      6  O   UNL     1     102.645 103.367 231.473  1.00  0.00    -0.550 OA
ATOM      7  O   UNL     1     101.057 102.897 229.890  1.00  0.00    -0.550 OA
ENDBRANCH   4   5
ENDBRANCH   3   4
ENDBRANCH   2   3
ENDBRANCH   1   2
BRANCH   1   8
ATOM      8  C   UNL     1     103.117 105.910 234.365  1.00  0.00     0.000 C 
BRANCH   8   9
ATOM      9  C   UNL     1     104.051 106.233 233.193  1.00  0.00     0.006 C 
BRANCH   9  10
ATOM     10  C   UNL     1     105.504 105.896 233.538  1.00  0.00     0.053 C 
BRANCH  10  11
ATOM     11  C   UNL     1     106.022 104.823 232.632  1.00  0.00     0.041 C 
ATOM     12  O   UNL     1     105.722 104.827 231.409  1.00  0.00    -0.550 OA
ATOM     13  O   UNL     1     106.876 103.847 233.129  1.00  0.00    -0.550 OA
ENDBRANCH  10  11
ENDBRANCH   9  10
ENDBRANCH   8   9
ENDBRANCH   1   8
TORSDOF 8
ENDMDL
MODEL 8
REMARK VINA RESULT:    -4.570      1.981      2.612
REMARK INTER + INTRA:          -7.281
REMARK INTER:                  -6.662
REMARK INTRA:                  -0.618
REMARK UNBOUND:                -0.573
REMARK SMILES O=C([O-])CCCCCCCC(=O)[O-]
REMARK SMILES IDX 7 1 6 2 5 3 4 4 2 5 1 6 3 7 8 8 9 9 10 10 11 11 12 12 13 13
REMARK H PARENT
REMARK Flexibility Score: inf
ROOT
ATOM      1  C   UNL     1     104.811 107.811 231.343  1.00  0.00     0.000 C 
ENDROOT
BRANCH   1   2
ATOM      2  C   UNL     1     104.945 106.543 232.201  1.00  0.00     0.000 C 
BRANCH   2   3
ATOM      3  C   UNL     1     103.600 105.835 232.425  1.00  0.00     0.006 C 
BRANCH   3   4
ATOM      4  C   UNL     1     102.433 106.723 231.982  1.00  0.00     0.053 C 
BRANCH   4   5
ATOM      5  C   UNL     1     101.194 106.379 232.746  1.00  0.00     0.041 C 
ATOM      6  O   UNL     1     100.211 105.854 232.159  1.00  0.00    -0.550 OA
ATOM      7  O   UNL     1     101.105 106.684 234.099  1.00  0.00    -0.550 OA
ENDBRANCH   4   5
ENDBRANCH   3   4
ENDBRANCH   2   3
ENDBRANCH   1   2
BRANCH   1   8
ATOM      8  C   UNL     1     105.710 107.783 230.099  1.00  0.00     0.000 C 
BRANCH   8   9
ATOM      9  C   UNL     1     104.897 107.460 228.840  1.00  0.00     0.006 C 
BRANCH   9  10
ATOM     10  C   UNL     1     104.976 105.969 228.502  1.00  0.00     0.053 C 
BRANCH  10  11
ATOM     11  C   UNL     1     103.662 105.479 227.980  1.00  0.00     0.041 C 
ATOM     12  O   UNL     1     102.798 105.019 228.773  1.00  0.00    -0.550 OA
ATOM     13  O   UNL     1     103.371 105.576 226.626  1.00  0.00    -0.550 OA
ENDBRANCH  10  11
ENDBRANCH   9  10
ENDBRANCH   8   9
ENDBRANCH   1   8
TORSDOF 8
ENDMDL
MODEL 9
REMARK VINA RESULT:    -4.557      2.288      4.715
REMARK INTER + INTRA:          -7.262
REMARK INTER:                  -6.421
REMARK INTRA:                  -0.840
REMARK UNBOUND:                -0.573
REMARK SMILES O=C([O-])CCCCCCCC(=O)[O-]
REMARK SMILES IDX 7 1 6 2 5 3 4 4 2 5 1 6 3 7 8 8 9 9 10 10 11 11 12 12 13 13
REMARK H PARENT
REMARK Flexibility Score: inf
ROOT
ATOM      1  C   UNL     1     104.117 107.425 230.910  1.00  0.00     0.000 C 
ENDROOT
BRANCH   1   2
ATOM      2  C   UNL     1     104.988 108.071 229.821  1.00  0.00     0.000 C 
BRANCH   2   3
ATOM      3  C   UNL     1     104.793 107.418 228.444  1.00  0.00     0.006 C 
BRANCH   3   4
ATOM      4  C   UNL     1     104.988 105.901 228.524  1.00  0.00     0.053 C 
BRANCH   4   5
ATOM      5  C   UNL     1     104.607 105.255 227.231  1.00  0.00     0.041 C 
ATOM      6  O   UNL     1     105.391 104.443 226.671  1.00  0.00    -0.550 OA
ATOM      7  O   UNL     1     103.406 105.586 226.614  1.00  0.00    -0.550 OA
ENDBRANCH   4   5
ENDBRANCH   3   4
ENDBRANCH   2   3
ENDBRANCH   1   2
BRANCH   1   8
ATOM      8  C   UNL     1     102.625 107.748 230.745  1.00  0.00     0.000 C 
BRANCH   8   9
ATOM      9  C   UNL     1     101.768 106.490 230.924  1.00  0.00     0.006 C 
BRANCH   9  10
ATOM     10  C   UNL     1     101.376 105.894 229.569  1.00  0.00     0.053 C 
BRANCH  10  11
ATOM     11  C   UNL     1     101.746 104.445 229.507  1.00  0.00     0.041 C 
ATOM     12  O   UNL     1     101.268 103.708 228.605  1.00  0.00    -0.550 OA
ATOM     13  O   UNL     1     102.656 103.921 230.415  1.00  0.00    -0.550 OA
ENDBRANCH  10  11
ENDBRANCH   9  10
ENDBRANCH   8   9
ENDBRANCH   1   8
TORSDOF 8
ENDMDL
