MODEL 1
REMARK VINA RESULT:     3.375      0.000      0.000
REMARK INTER + INTRA:           4.223
REMARK INTER:                   4.361
REMARK INTRA:                  -0.139
REMARK UNBOUND:                -0.139
REMARK SMILES CCCCCCC(=O)[O-]
REMARK SMILES IDX 5 1 6 2 7 3 8 4 9 5 4 6 3 7 2 8 1 9
REMARK H PARENT
REMARK Flexibility Score: inf
ROOT
ATOM      1  C   UNL     1      -9.823  -0.627 -17.391  1.00  0.00     0.006 C 
ENDROOT
BRANCH   1   2
ATOM      2  C   UNL     1      -8.705  -1.635 -17.096  1.00  0.00     0.053 C 
BRANCH   2   3
ATOM      3  C   UNL     1      -7.494  -0.969 -16.517  1.00  0.00     0.041 C 
ATOM      4  O   UNL     1      -6.875  -0.094 -17.177  1.00  0.00    -0.550 OA
ATOM      5  O   UNL     1      -7.033  -1.338 -15.260  1.00  0.00    -0.550 OA
ENDBRANCH   2   3
ENDBRANCH   1   2
BRANCH   1   6
ATOM      6  C   UNL     1     -11.113  -1.311 -17.865  1.00  0.00     0.000 C 
BRANCH   6   7
ATOM      7  C   UNL     1     -12.164  -0.273 -18.284  1.00  0.00    -0.000 C 
BRANCH   7   8
ATOM      8  C   UNL     1     -12.509   0.708 -17.152  1.00  0.00    -0.003 C 
ATOM      9  C   UNL     1     -12.198   2.160 -17.512  1.00  0.00     0.004 C 
ENDBRANCH   7   8
ENDBRANCH   6   7
ENDBRANCH   1   6
TORSDOF 5
ENDMDL
MODEL 2
REMARK VINA RESULT:     3.499      2.928      4.944
REMARK INTER + INTRA:           4.383
REMARK INTER:                   4.534
REMARK INTRA:                  -0.151
REMARK UNBOUND:                -0.139
REMARK SMILES CCCCCCC(=O)[O-]
REMARK SMILES IDX 5 1 6 2 7 3 8 4 9 5 4 6 3 7 2 8 1 9
REMARK H PARENT
REMARK Flexibility Score: inf
ROOT
ATOM      1  C   UNL     1     -10.794  -1.316 -17.871  1.00  0.00     0.006 C 
ENDROOT
BRANCH   1   2
ATOM      2  C   UNL     1     -11.819  -0.349 -18.477  1.00  0.00     0.053 C 
BRANCH   2   3
ATOM      3  C   UNL     1     -12.423   0.543 -17.436  1.00  0.00     0.041 C 
ATOM      4  O   UNL     1     -13.155   0.059 -16.533  1.00  0.00    -0.550 OA
ATOM      5  O   UNL     1     -12.203   1.914 -17.482  1.00  0.00    -0.550 OA
ENDBRANCH   2   3
ENDBRANCH   1   2
BRANCH   1   6
ATOM      6  C   UNL     1      -9.630  -0.580 -17.190  1.00  0.00     0.000 C 
BRANCH   6   7
ATOM      7  C   UNL     1      -8.327  -1.383 -17.309  1.00  0.00    -0.000 C 
BRANCH   7   8
ATOM      8  C   UNL     1      -7.151  -0.712 -16.583  1.00  0.00    -0.003 C 
ATOM      9  C   UNL     1      -6.966  -1.227 -15.156  1.00  0.00     0.004 C 
ENDBRANCH   7   8
ENDBRANCH   6   7
ENDBRANCH   1   6
TORSDOF 5
ENDMDL
MODEL 3
REMARK VINA RESULT:     3.590      2.985      4.999
REMARK INTER + INTRA:           4.500
REMARK INTER:                   4.643
REMARK INTRA:                  -0.143
REMARK UNBOUND:                -0.139
REMARK SMILES CCCCCCC(=O)[O-]
REMARK SMILES IDX 5 1 6 2 7 3 8 4 9 5 4 6 3 7 2 8 1 9
REMARK H PARENT
REMARK Flexibility Score: inf
ROOT
ATOM      1  C   UNL     1      -9.627  -0.629 -17.142  1.00  0.00     0.006 C 
ENDROOT
BRANCH   1   2
ATOM      2  C   UNL     1     -10.792  -0.848 -18.117  1.00  0.00     0.053 C 
BRANCH   2   3
ATOM      3  C   UNL     1     -12.097  -0.408 -17.529  1.00  0.00     0.041 C 
ATOM      4  O   UNL     1     -12.932  -1.261 -17.127  1.00  0.00    -0.550 OA
ATOM      5  O   UNL     1     -12.405   0.944 -17.454  1.00  0.00    -0.550 OA
ENDBRANCH   2   3
ENDBRANCH   1   2
BRANCH   1   6
ATOM      6  C   UNL     1      -8.389  -1.457 -17.521  1.00  0.00     0.000 C 
BRANCH   6   7
ATOM      7  C   UNL     1      -7.098  -0.711 -17.154  1.00  0.00    -0.000 C 
BRANCH   7   8
ATOM      8  C   UNL     1      -6.951  -0.493 -15.640  1.00  0.00    -0.003 C 
ATOM      9  C   UNL     1      -6.975  -1.801 -14.849  1.00  0.00     0.004 C 
ENDBRANCH   7   8
ENDBRANCH   6   7
ENDBRANCH   1   6
TORSDOF 5
ENDMDL
