MODEL 1
REMARK VINA RESULT:    -1.389      0.000      0.000
REMARK INTER + INTRA:          -3.107
REMARK INTER:                  -2.526
REMARK INTRA:                  -0.581
REMARK UNBOUND:                -0.581
REMARK SMILES CCCCCCCCCCCCCC[C@@H](C)C(=O)[O-]
REMARK SMILES IDX 9 1 10 2 11 3 12 4 13 5 14 6 15 7 16 8 17 9 18 10 19 11 8 12
REMARK SMILES IDX 7 13 6 14 5 15 4 16 3 17 2 18 1 19
REMARK H PARENT
REMARK Flexibility Score: inf
ROOT
ATOM      1  C   UNL     1       0.631   9.199   9.792  1.00  0.00     0.000 C 
ENDROOT
BRANCH   1   2
ATOM      2  C   UNL     1       1.723   8.138   9.567  1.00  0.00     0.000 C 
BRANCH   2   3
ATOM      3  C   UNL     1       3.115   8.504  10.122  1.00  0.00     0.000 C 
BRANCH   3   4
ATOM      4  C   UNL     1       3.629   9.900   9.728  1.00  0.00     0.000 C 
BRANCH   4   5
ATOM      5  C   UNL     1       5.103  10.121  10.103  1.00  0.00     0.001 C 
BRANCH   5   6
ATOM      6  C   UNL     1       6.016   9.929   8.881  1.00  0.00     0.009 C 
BRANCH   6   7
ATOM      7  C   UNL     1       7.477   9.619   9.272  1.00  0.00     0.032 C 
ATOM      8  C   UNL     1       7.654   8.179   9.771  1.00  0.00     0.014 C 
BRANCH   7   9
ATOM      9  C   UNL     1       8.378   9.855   8.090  1.00  0.00     0.044 C 
ATOM     10  O   UNL     1       7.899   9.888   6.926  1.00  0.00    -0.550 OA
ATOM     11  O   UNL     1       9.743  10.036   8.274  1.00  0.00    -0.550 OA
ENDBRANCH   7   9
ENDBRANCH   6   7
ENDBRANCH   5   6
ENDBRANCH   4   5
ENDBRANCH   3   4
ENDBRANCH   2   3
ENDBRANCH   1   2
BRANCH   1  12
ATOM     12  C   UNL     1      -0.746   8.587  10.085  1.00  0.00     0.000 C 
BRANCH  12  13
ATOM     13  C   UNL     1      -0.877   7.200   9.438  1.00  0.00    -0.000 C 
BRANCH  13  14
ATOM     14  C   UNL     1      -2.264   6.572   9.659  1.00  0.00    -0.000 C 
BRANCH  14  15
ATOM     15  C   UNL     1      -2.583   5.468   8.639  1.00  0.00    -0.000 C 
BRANCH  15  16
ATOM     16  C   UNL     1      -4.070   5.490   8.255  1.00  0.00    -0.000 C 
BRANCH  16  17
ATOM     17  C   UNL     1      -4.840   4.259   8.764  1.00  0.00    -0.000 C 
BRANCH  17  18
ATOM     18  C   UNL     1      -5.734   4.517   9.990  1.00  0.00    -0.003 C 
ATOM     19  C   UNL     1      -7.197   4.142   9.752  1.00  0.00     0.004 C 
ENDBRANCH  17  18
ENDBRANCH  16  17
ENDBRANCH  15  16
ENDBRANCH  14  15
ENDBRANCH  13  14
ENDBRANCH  12  13
ENDBRANCH   1  12
TORSDOF 14
ENDMDL
