MODEL 1
REMARK VINA RESULT:    -5.251      0.000      0.000
REMARK INTER + INTRA:          -5.405
REMARK INTER:                  -5.405
REMARK INTRA:                   0.000
REMARK UNBOUND:                 0.000
REMARK SMILES Oc1ccc2[nH]ccc2c1
REMARK SMILES IDX 3 1 4 2 5 3 9 4 8 5 7 6 6 7 10 8 2 9 1 11
REMARK H PARENT 6 10 1 12
REMARK Flexibility Score: inf
ROOT
ATOM      1  C   UNL     1       4.934   7.499  13.893  1.00  0.00     0.048 A 
ATOM      2  C   UNL     1       4.301   8.735  14.121  1.00  0.00     0.030 A 
ATOM      3  C   UNL     1       3.911   9.482  13.011  1.00  0.00     0.046 A 
ATOM      4  C   UNL     1       4.132   9.040  11.734  1.00  0.00     0.003 A 
ATOM      5  C   UNL     1       3.635   9.997  10.875  1.00  0.00     0.028 A 
ATOM      6  C   UNL     1       3.126  10.995  11.700  1.00  0.00     0.083 A 
ATOM      7  N   UNL     1       3.298  10.676  13.004  1.00  0.00    -0.361 N 
ATOM      8  C   UNL     1       4.756   7.822  11.473  1.00  0.00     0.056 A 
ATOM      9  C   UNL     1       5.163   7.041  12.575  1.00  0.00     0.116 A 
ATOM     10  H   UNL     1       3.010  11.244  13.831  1.00  0.00     0.166 HD
ENDROOT
BRANCH   9  11
ATOM     11  O   UNL     1       5.792   5.814  12.376  1.00  0.00    -0.508 OA
ATOM     12  H   UNL     1       6.751   5.758  12.053  1.00  0.00     0.293 HD
ENDBRANCH   9  11
TORSDOF 1
ENDMDL
MODEL 2
REMARK VINA RESULT:    -5.102      3.213      4.385
REMARK INTER + INTRA:          -5.251
REMARK INTER:                  -5.251
REMARK INTRA:                   0.000
REMARK UNBOUND:                 0.000
REMARK SMILES Oc1ccc2[nH]ccc2c1
REMARK SMILES IDX 3 1 4 2 5 3 9 4 8 5 7 6 6 7 10 8 2 9 1 11
REMARK H PARENT 6 10 1 12
REMARK Flexibility Score: inf
ROOT
ATOM      1  C   UNL     1       5.627   8.624  14.603  1.00  0.00     0.048 A 
ATOM      2  C   UNL     1       6.789   7.835  14.510  1.00  0.00     0.030 A 
ATOM      3  C   UNL     1       6.737   6.691  13.715  1.00  0.00     0.046 A 
ATOM      4  C   UNL     1       5.600   6.334  13.043  1.00  0.00     0.003 A 
ATOM      5  C   UNL     1       5.874   5.169  12.358  1.00  0.00     0.028 A 
ATOM      6  C   UNL     1       7.200   4.875  12.661  1.00  0.00     0.083 A 
ATOM      7  N   UNL     1       7.723   5.807  13.491  1.00  0.00    -0.361 N 
ATOM      8  C   UNL     1       4.433   7.092  13.114  1.00  0.00     0.056 A 
ATOM      9  C   UNL     1       4.451   8.256  13.910  1.00  0.00     0.116 A 
ATOM     10  H   UNL     1       8.693   5.831  13.875  1.00  0.00     0.166 HD
ENDROOT
BRANCH   9  11
ATOM     11  O   UNL     1       3.314   9.054  14.019  1.00  0.00    -0.508 OA
ATOM     12  H   UNL     1       3.383  10.052  14.178  1.00  0.00     0.293 HD
ENDBRANCH   9  11
TORSDOF 1
ENDMDL
MODEL 3
REMARK VINA RESULT:    -5.092      2.513      3.589
REMARK INTER + INTRA:          -5.240
REMARK INTER:                  -5.240
REMARK INTRA:                   0.000
REMARK UNBOUND:                 0.000
REMARK SMILES Oc1ccc2[nH]ccc2c1
REMARK SMILES IDX 3 1 4 2 5 3 9 4 8 5 7 6 6 7 10 8 2 9 1 11
REMARK H PARENT 6 10 1 12
REMARK Flexibility Score: inf
ROOT
ATOM      1  C   UNL     1       3.131  10.500  13.073  1.00  0.00     0.048 A 
ATOM      2  C   UNL     1       3.673   9.497  13.897  1.00  0.00     0.030 A 
ATOM      3  C   UNL     1       4.366   8.454  13.284  1.00  0.00     0.046 A 
ATOM      4  C   UNL     1       4.520   8.395  11.925  1.00  0.00     0.003 A 
ATOM      5  C   UNL     1       5.243   7.256  11.642  1.00  0.00     0.028 A 
ATOM      6  C   UNL     1       5.495   6.669  12.879  1.00  0.00     0.083 A 
ATOM      7  N   UNL     1       4.956   7.405  13.879  1.00  0.00    -0.361 N 
ATOM      8  C   UNL     1       3.997   9.371  11.080  1.00  0.00     0.056 A 
ATOM      9  C   UNL     1       3.289  10.440  11.669  1.00  0.00     0.116 A 
ATOM     10  H   UNL     1       4.995   7.196  14.901  1.00  0.00     0.166 HD
ENDROOT
BRANCH   9  11
ATOM     11  O   UNL     1       2.743  11.446  10.875  1.00  0.00    -0.508 OA
ATOM     12  H   UNL     1       2.665  12.400  11.209  1.00  0.00     0.293 HD
ENDBRANCH   9  11
TORSDOF 1
ENDMDL
MODEL 4
REMARK VINA RESULT:    -4.933      2.665      4.272
REMARK INTER + INTRA:          -5.078
REMARK INTER:                  -5.078
REMARK INTRA:                   0.000
REMARK UNBOUND:                 0.000
REMARK SMILES Oc1ccc2[nH]ccc2c1
REMARK SMILES IDX 3 1 4 2 5 3 9 4 8 5 7 6 6 7 10 8 2 9 1 11
REMARK H PARENT 6 10 1 12
REMARK Flexibility Score: inf
ROOT
ATOM      1  C   UNL     1       3.952   8.834  12.081  1.00  0.00     0.048 A 
ATOM      2  C   UNL     1       4.794   7.835  11.558  1.00  0.00     0.030 A 
ATOM      3  C   UNL     1       5.672   7.199  12.434  1.00  0.00     0.046 A 
ATOM      4  C   UNL     1       5.726   7.528  13.762  1.00  0.00     0.003 A 
ATOM      5  C   UNL     1       6.685   6.728  14.346  1.00  0.00     0.028 A 
ATOM      6  C   UNL     1       7.174   5.936  13.312  1.00  0.00     0.083 A 
ATOM      7  N   UNL     1       6.553   6.228  12.146  1.00  0.00    -0.361 N 
ATOM      8  C   UNL     1       4.907   8.513  14.312  1.00  0.00     0.056 A 
ATOM      9  C   UNL     1       4.006   9.175  13.452  1.00  0.00     0.116 A 
ATOM     10  H   UNL     1       6.726   5.786  11.216  1.00  0.00     0.166 HD
ENDROOT
BRANCH   9  11
ATOM     11  O   UNL     1       3.163  10.168  13.944  1.00  0.00    -0.508 OA
ATOM     12  H   UNL     1       2.927  10.222  14.928  1.00  0.00     0.293 HD
ENDBRANCH   9  11
TORSDOF 1
ENDMDL
MODEL 5
REMARK VINA RESULT:    -4.932      1.146      2.040
REMARK INTER + INTRA:          -5.076
REMARK INTER:                  -5.076
REMARK INTRA:                   0.000
REMARK UNBOUND:                 0.000
REMARK SMILES Oc1ccc2[nH]ccc2c1
REMARK SMILES IDX 3 1 4 2 5 3 9 4 8 5 7 6 6 7 10 8 2 9 1 11
REMARK H PARENT 6 10 1 12
REMARK Flexibility Score: inf
ROOT
ATOM      1  C   UNL     1       5.576   7.102  12.132  1.00  0.00     0.048 A 
ATOM      2  C   UNL     1       4.754   7.950  11.369  1.00  0.00     0.030 A 
ATOM      3  C   UNL     1       4.041   8.943  12.040  1.00  0.00     0.046 A 
ATOM      4  C   UNL     1       4.129   9.098  13.397  1.00  0.00     0.003 A 
ATOM      5  C   UNL     1       3.313  10.153  13.745  1.00  0.00     0.028 A 
ATOM      6  C   UNL     1       2.759  10.593  12.547  1.00  0.00     0.083 A 
ATOM      7  N   UNL     1       3.207   9.851  11.509  1.00  0.00    -0.361 N 
ATOM      8  C   UNL     1       4.934   8.275  14.183  1.00  0.00     0.056 A 
ATOM      9  C   UNL     1       5.668   7.260  13.534  1.00  0.00     0.116 A 
ATOM     10  H   UNL     1       2.953   9.964  10.502  1.00  0.00     0.166 HD
ENDROOT
BRANCH   9  11
ATOM     11  O   UNL     1       6.490   6.407  14.267  1.00  0.00    -0.508 OA
ATOM     12  H   UNL     1       7.131   5.768  13.811  1.00  0.00     0.293 HD
ENDBRANCH   9  11
TORSDOF 1
ENDMDL
MODEL 6
REMARK VINA RESULT:    -4.705      2.163      2.711
REMARK INTER + INTRA:          -4.843
REMARK INTER:                  -4.843
REMARK INTRA:                   0.000
REMARK UNBOUND:                 0.000
REMARK SMILES Oc1ccc2[nH]ccc2c1
REMARK SMILES IDX 3 1 4 2 5 3 9 4 8 5 7 6 6 7 10 8 2 9 1 11
REMARK H PARENT 6 10 1 12
REMARK Flexibility Score: inf
ROOT
ATOM      1  C   UNL     1       7.769   6.989  13.754  1.00  0.00     0.048 A 
ATOM      2  C   UNL     1       6.995   7.871  14.530  1.00  0.00     0.030 A 
ATOM      3  C   UNL     1       5.648   8.018  14.202  1.00  0.00     0.046 A 
ATOM      4  C   UNL     1       5.085   7.333  13.159  1.00  0.00     0.003 A 
ATOM      5  C   UNL     1       3.756   7.696  13.098  1.00  0.00     0.028 A 
ATOM      6  C   UNL     1       3.581   8.606  14.136  1.00  0.00     0.083 A 
ATOM      7  N   UNL     1       4.740   8.800  14.806  1.00  0.00    -0.361 N 
ATOM      8  C   UNL     1       5.822   6.453  12.370  1.00  0.00     0.056 A 
ATOM      9  C   UNL     1       7.188   6.281  12.677  1.00  0.00     0.116 A 
ATOM     10  H   UNL     1       4.892   9.429  15.626  1.00  0.00     0.166 HD
ENDROOT
BRANCH   9  11
ATOM     11  O   UNL     1       7.977   5.414  11.924  1.00  0.00    -0.508 OA
ATOM     12  H   UNL     1       7.567   4.770  11.257  1.00  0.00     0.293 HD
ENDBRANCH   9  11
TORSDOF 1
ENDMDL
MODEL 7
REMARK VINA RESULT:    -4.625      3.024      4.090
REMARK INTER + INTRA:          -4.760
REMARK INTER:                  -4.760
REMARK INTRA:                   0.000
REMARK UNBOUND:                 0.000
REMARK SMILES Oc1ccc2[nH]ccc2c1
REMARK SMILES IDX 3 1 4 2 5 3 9 4 8 5 7 6 6 7 10 8 2 9 1 11
REMARK H PARENT 6 10 1 12
REMARK Flexibility Score: inf
ROOT
ATOM      1  C   UNL     1       5.960   8.625  14.464  1.00  0.00     0.048 A 
ATOM      2  C   UNL     1       4.820   8.005  13.920  1.00  0.00     0.030 A 
ATOM      3  C   UNL     1       4.978   6.753  13.330  1.00  0.00     0.046 A 
ATOM      4  C   UNL     1       6.198   6.134  13.273  1.00  0.00     0.003 A 
ATOM      5  C   UNL     1       6.018   4.926  12.635  1.00  0.00     0.028 A 
ATOM      6  C   UNL     1       4.661   4.875  12.330  1.00  0.00     0.083 A 
ATOM      7  N   UNL     1       4.031   5.994  12.756  1.00  0.00    -0.361 N 
ATOM      8  C   UNL     1       7.347   6.719  13.802  1.00  0.00     0.056 A 
ATOM      9  C   UNL     1       7.220   7.987  14.407  1.00  0.00     0.116 A 
ATOM     10  H   UNL     1       3.015   6.217  12.657  1.00  0.00     0.166 HD
ENDROOT
BRANCH   9  11
ATOM     11  O   UNL     1       8.334   8.622  14.953  1.00  0.00    -0.508 OA
ATOM     12  H   UNL     1       8.783   9.399  14.483  1.00  0.00     0.293 HD
ENDBRANCH   9  11
TORSDOF 1
ENDMDL
MODEL 8
REMARK VINA RESULT:    -4.347      2.843      3.675
REMARK INTER + INTRA:          -4.474
REMARK INTER:                  -4.474
REMARK INTRA:                   0.000
REMARK UNBOUND:                 0.000
REMARK SMILES Oc1ccc2[nH]ccc2c1
REMARK SMILES IDX 3 1 4 2 5 3 9 4 8 5 7 6 6 7 10 8 2 9 1 11
REMARK H PARENT 6 10 1 12
REMARK Flexibility Score: inf
ROOT
ATOM      1  C   UNL     1       7.918   6.874  13.096  1.00  0.00     0.048 A 
ATOM      2  C   UNL     1       6.661   6.472  12.610  1.00  0.00     0.030 A 
ATOM      3  C   UNL     1       5.528   7.079  13.149  1.00  0.00     0.046 A 
ATOM      4  C   UNL     1       5.621   8.036  14.123  1.00  0.00     0.003 A 
ATOM      5  C   UNL     1       4.338   8.430  14.438  1.00  0.00     0.028 A 
ATOM      6  C   UNL     1       3.514   7.669  13.616  1.00  0.00     0.083 A 
ATOM      7  N   UNL     1       4.245   6.845  12.831  1.00  0.00    -0.361 N 
ATOM      8  C   UNL     1       6.850   8.457  14.628  1.00  0.00     0.056 A 
ATOM      9  C   UNL     1       8.016   7.863  14.102  1.00  0.00     0.116 A 
ATOM     10  H   UNL     1       3.882   6.168  12.123  1.00  0.00     0.166 HD
ENDROOT
BRANCH   9  11
ATOM     11  O   UNL     1       9.273   8.243  14.568  1.00  0.00    -0.508 OA
ATOM     12  H   UNL     1       9.393   9.052  15.165  1.00  0.00     0.293 HD
ENDBRANCH   9  11
TORSDOF 1
ENDMDL
MODEL 9
REMARK VINA RESULT:    -4.071      2.698      4.106
REMARK INTER + INTRA:          -4.190
REMARK INTER:                  -4.190
REMARK INTRA:                   0.000
REMARK UNBOUND:                 0.000
REMARK SMILES Oc1ccc2[nH]ccc2c1
REMARK SMILES IDX 3 1 4 2 5 3 9 4 8 5 7 6 6 7 10 8 2 9 1 11
REMARK H PARENT 6 10 1 12
REMARK Flexibility Score: inf
ROOT
ATOM      1  C   UNL     1       3.083  10.126  10.875  1.00  0.00     0.048 A 
ATOM      2  C   UNL     1       4.139   9.229  11.122  1.00  0.00     0.030 A 
ATOM      3  C   UNL     1       4.339   8.804  12.435  1.00  0.00     0.046 A 
ATOM      4  C   UNL     1       3.542   9.238  13.460  1.00  0.00     0.003 A 
ATOM      5  C   UNL     1       3.996   8.640  14.616  1.00  0.00     0.028 A 
ATOM      6  C   UNL     1       5.074   7.855  14.218  1.00  0.00     0.083 A 
ATOM      7  N   UNL     1       5.279   7.959  12.885  1.00  0.00    -0.361 N 
ATOM      8  C   UNL     1       2.488  10.125  13.250  1.00  0.00     0.056 A 
ATOM      9  C   UNL     1       2.259  10.575  11.933  1.00  0.00     0.116 A 
ATOM     10  H   UNL     1       6.019   7.478  12.326  1.00  0.00     0.166 HD
ENDROOT
BRANCH   9  11
ATOM     11  O   UNL     1       1.220  11.463  11.661  1.00  0.00    -0.508 OA
ATOM     12  H   UNL     1       0.355  11.441  12.187  1.00  0.00     0.293 HD
ENDBRANCH   9  11
TORSDOF 1
ENDMDL
