MODEL 1
REMARK VINA RESULT:    -2.667      0.000      0.000
REMARK INTER + INTRA:          -3.257
REMARK INTER:                  -3.135
REMARK INTRA:                  -0.122
REMARK UNBOUND:                -0.122
REMARK SMILES O=C([O-])CCC(=O)[O-]
REMARK SMILES IDX 4 1 2 2 1 3 3 4 5 5 6 6 7 7 8 8
REMARK H PARENT
REMARK Flexibility Score: inf
ROOT
ATOM      1  C   UNL     1      22.690  43.487  40.181  1.00  0.00     0.059 C 
ENDROOT
BRANCH   1   2
ATOM      2  C   UNL     1      22.941  42.668  38.951  1.00  0.00     0.042 C 
ATOM      3  O   UNL     1      23.947  41.914  38.885  1.00  0.00    -0.550 OA
ATOM      4  O   UNL     1      22.040  42.708  37.894  1.00  0.00    -0.550 OA
ENDBRANCH   1   2
BRANCH   1   5
ATOM      5  C   UNL     1      23.737  44.594  40.344  1.00  0.00     0.059 C 
BRANCH   5   6
ATOM      6  C   UNL     1      24.578  44.382  41.567  1.00  0.00     0.042 C 
ATOM      7  O   UNL     1      24.736  45.316  42.395  1.00  0.00    -0.550 OA
ATOM      8  O   UNL     1      25.220  43.167  41.769  1.00  0.00    -0.550 OA
ENDBRANCH   5   6
ENDBRANCH   1   5
TORSDOF 3
ENDMDL
MODEL 2
REMARK VINA RESULT:    -2.662      0.199      3.963
REMARK INTER + INTRA:          -3.251
REMARK INTER:                  -3.129
REMARK INTRA:                  -0.123
REMARK UNBOUND:                -0.122
REMARK SMILES O=C([O-])CCC(=O)[O-]
REMARK SMILES IDX 4 1 2 2 1 3 3 4 5 5 6 6 7 7 8 8
REMARK H PARENT
REMARK Flexibility Score: inf
ROOT
ATOM      1  C   UNL     1      23.681  44.671  40.400  1.00  0.00     0.059 C 
ENDROOT
BRANCH   1   2
ATOM      2  C   UNL     1      24.566  44.530  41.600  1.00  0.00     0.042 C 
ATOM      3  O   UNL     1      25.235  43.478  41.777  1.00  0.00    -0.550 OA
ATOM      4  O   UNL     1      24.683  45.580  42.503  1.00  0.00    -0.550 OA
ENDBRANCH   1   2
BRANCH   1   5
ATOM      5  C   UNL     1      22.717  43.487  40.268  1.00  0.00     0.059 C 
BRANCH   5   6
ATOM      6  C   UNL     1      23.013  42.667  39.049  1.00  0.00     0.042 C 
ATOM      7  O   UNL     1      24.111  42.059  38.945  1.00  0.00    -0.550 OA
ATOM      8  O   UNL     1      22.093  42.607  38.009  1.00  0.00    -0.550 OA
ENDBRANCH   5   6
ENDBRANCH   1   5
TORSDOF 3
ENDMDL
MODEL 3
REMARK VINA RESULT:    -2.660      1.625      3.936
REMARK INTER + INTRA:          -3.248
REMARK INTER:                  -3.164
REMARK INTRA:                  -0.084
REMARK UNBOUND:                -0.122
REMARK SMILES O=C([O-])CCC(=O)[O-]
REMARK SMILES IDX 4 1 2 2 1 3 3 4 5 5 6 6 7 7 8 8
REMARK H PARENT
REMARK Flexibility Score: inf
ROOT
ATOM      1  C   UNL     1      23.295  43.790  40.717  1.00  0.00     0.059 C 
ENDROOT
BRANCH   1   2
ATOM      2  C   UNL     1      23.158  45.282  40.745  1.00  0.00     0.042 C 
ATOM      3  O   UNL     1      24.145  46.015  40.474  1.00  0.00    -0.550 OA
ATOM      4  O   UNL     1      21.927  45.861  41.032  1.00  0.00    -0.550 OA
ENDBRANCH   1   2
BRANCH   1   5
ATOM      5  C   UNL     1      22.180  43.136  39.895  1.00  0.00     0.059 C 
BRANCH   5   6
ATOM      6  C   UNL     1      22.680  42.660  38.565  1.00  0.00     0.042 C 
ATOM      7  O   UNL     1      21.875  42.201  37.714  1.00  0.00    -0.550 OA
ATOM      8  O   UNL     1      24.040  42.687  38.282  1.00  0.00    -0.550 OA
ENDBRANCH   5   6
ENDBRANCH   1   5
TORSDOF 3
ENDMDL
MODEL 4
REMARK VINA RESULT:    -2.633      1.584      2.176
REMARK INTER + INTRA:          -3.218
REMARK INTER:                  -3.170
REMARK INTRA:                  -0.048
REMARK UNBOUND:                -0.122
REMARK SMILES O=C([O-])CCC(=O)[O-]
REMARK SMILES IDX 4 1 2 2 1 3 3 4 5 5 6 6 7 7 8 8
REMARK H PARENT
REMARK Flexibility Score: inf
ROOT
ATOM      1  C   UNL     1      23.704  43.169  39.663  1.00  0.00     0.059 C 
ENDROOT
BRANCH   1   2
ATOM      2  C   UNL     1      23.207  42.213  38.622  1.00  0.00     0.042 C 
ATOM      3  O   UNL     1      22.286  42.554  37.835  1.00  0.00    -0.550 OA
ATOM      4  O   UNL     1      23.792  40.958  38.496  1.00  0.00    -0.550 OA
ENDBRANCH   1   2
BRANCH   1   5
ATOM      5  C   UNL     1      22.547  43.830  40.419  1.00  0.00     0.059 C 
BRANCH   5   6
ATOM      6  C   UNL     1      22.856  45.255  40.766  1.00  0.00     0.042 C 
ATOM      7  O   UNL     1      21.935  46.032  41.129  1.00  0.00    -0.550 OA
ATOM      8  O   UNL     1      24.155  45.735  40.648  1.00  0.00    -0.550 OA
ENDBRANCH   5   6
ENDBRANCH   1   5
TORSDOF 3
ENDMDL
MODEL 5
REMARK VINA RESULT:    -2.597      0.297      1.635
REMARK INTER + INTRA:          -3.174
REMARK INTER:                  -3.080
REMARK INTRA:                  -0.095
REMARK UNBOUND:                -0.122
REMARK SMILES O=C([O-])CCC(=O)[O-]
REMARK SMILES IDX 4 1 2 2 1 3 3 4 5 5 6 6 7 7 8 8
REMARK H PARENT
REMARK Flexibility Score: inf
ROOT
ATOM      1  C   UNL     1      22.633  43.545  40.012  1.00  0.00     0.059 C 
ENDROOT
BRANCH   1   2
ATOM      2  C   UNL     1      22.778  42.704  38.780  1.00  0.00     0.042 C 
ATOM      3  O   UNL     1      21.876  42.705  37.901  1.00  0.00    -0.550 OA
ATOM      4  O   UNL     1      23.929  41.951  38.584  1.00  0.00    -0.550 OA
ENDBRANCH   1   2
BRANCH   1   5
ATOM      5  C   UNL     1      23.751  44.587  40.118  1.00  0.00     0.059 C 
BRANCH   5   6
ATOM      6  C   UNL     1      24.451  44.514  41.441  1.00  0.00     0.042 C 
ATOM      7  O   UNL     1      25.178  43.524  41.718  1.00  0.00    -0.550 OA
ATOM      8  O   UNL     1      24.268  45.518  42.383  1.00  0.00    -0.550 OA
ENDBRANCH   5   6
ENDBRANCH   1   5
TORSDOF 3
ENDMDL
MODEL 6
REMARK VINA RESULT:    -2.595      1.752      3.762
REMARK INTER + INTRA:          -3.172
REMARK INTER:                  -3.044
REMARK INTRA:                  -0.129
REMARK UNBOUND:                -0.122
REMARK SMILES O=C([O-])CCC(=O)[O-]
REMARK SMILES IDX 4 1 2 2 1 3 3 4 5 5 6 6 7 7 8 8
REMARK H PARENT
REMARK Flexibility Score: inf
ROOT
ATOM      1  C   UNL     1      24.921  43.483  42.310  1.00  0.00     0.059 C 
ENDROOT
BRANCH   1   2
ATOM      2  C   UNL     1      26.268  42.934  41.951  1.00  0.00     0.042 C 
ATOM      3  O   UNL     1      27.314  43.565  42.258  1.00  0.00    -0.550 OA
ATOM      4  O   UNL     1      26.369  41.704  41.311  1.00  0.00    -0.550 OA
ENDBRANCH   1   2
BRANCH   1   5
ATOM      5  C   UNL     1      24.331  44.320  41.171  1.00  0.00     0.059 C 
BRANCH   5   6
ATOM      6  C   UNL     1      23.430  43.503  40.295  1.00  0.00     0.042 C 
ATOM      7  O   UNL     1      22.217  43.358  40.595  1.00  0.00    -0.550 OA
ATOM      8  O   UNL     1      23.941  42.869  39.169  1.00  0.00    -0.550 OA
ENDBRANCH   5   6
ENDBRANCH   1   5
TORSDOF 3
ENDMDL
MODEL 7
REMARK VINA RESULT:    -2.547      1.768      2.263
REMARK INTER + INTRA:          -3.116
REMARK INTER:                  -2.991
REMARK INTRA:                  -0.125
REMARK UNBOUND:                -0.122
REMARK SMILES O=C([O-])CCC(=O)[O-]
REMARK SMILES IDX 4 1 2 2 1 3 3 4 5 5 6 6 7 7 8 8
REMARK H PARENT
REMARK Flexibility Score: inf
ROOT
ATOM      1  C   UNL     1      23.989  42.400  38.285  1.00  0.00     0.059 C 
ENDROOT
BRANCH   1   2
ATOM      2  C   UNL     1      24.572  41.069  38.652  1.00  0.00     0.042 C 
ATOM      3  O   UNL     1      25.728  40.997  39.147  1.00  0.00    -0.550 OA
ATOM      4  O   UNL     1      23.821  39.912  38.484  1.00  0.00    -0.550 OA
ENDBRANCH   1   2
BRANCH   1   5
ATOM      5  C   UNL     1      23.084  42.945  39.395  1.00  0.00     0.059 C 
BRANCH   5   6
ATOM      6  C   UNL     1      23.810  43.920  40.271  1.00  0.00     0.042 C 
ATOM      7  O   UNL     1      23.741  45.155  40.036  1.00  0.00    -0.550 OA
ATOM      8  O   UNL     1      24.594  43.463  41.323  1.00  0.00    -0.550 OA
ENDBRANCH   5   6
ENDBRANCH   1   5
TORSDOF 3
ENDMDL
MODEL 8
REMARK VINA RESULT:    -2.506     12.373     13.342
REMARK INTER + INTRA:          -3.068
REMARK INTER:                  -2.956
REMARK INTRA:                  -0.112
REMARK UNBOUND:                -0.122
REMARK SMILES O=C([O-])CCC(=O)[O-]
REMARK SMILES IDX 4 1 2 2 1 3 3 4 5 5 6 6 7 7 8 8
REMARK H PARENT
REMARK Flexibility Score: inf
ROOT
ATOM      1  C   UNL     1      33.132  42.853  30.262  1.00  0.00     0.059 C 
ENDROOT
BRANCH   1   2
ATOM      2  C   UNL     1      34.391  42.146  30.665  1.00  0.00     0.042 C 
ATOM      3  O   UNL     1      34.387  41.349  31.639  1.00  0.00    -0.550 OA
ATOM      4  O   UNL     1      35.558  42.339  29.937  1.00  0.00    -0.550 OA
ENDBRANCH   1   2
BRANCH   1   5
ATOM      5  C   UNL     1      31.923  41.912  30.292  1.00  0.00     0.059 C 
BRANCH   5   6
ATOM      6  C   UNL     1      30.886  42.375  31.270  1.00  0.00     0.042 C 
ATOM      7  O   UNL     1      31.201  43.162  32.201  1.00  0.00    -0.550 OA
ATOM      8  O   UNL     1      29.582  41.906  31.177  1.00  0.00    -0.550 OA
ENDBRANCH   5   6
ENDBRANCH   1   5
TORSDOF 3
ENDMDL
MODEL 9
REMARK VINA RESULT:    -2.484      2.303      3.159
REMARK INTER + INTRA:          -3.042
REMARK INTER:                  -2.929
REMARK INTRA:                  -0.113
REMARK UNBOUND:                -0.122
REMARK SMILES O=C([O-])CCC(=O)[O-]
REMARK SMILES IDX 4 1 2 2 1 3 3 4 5 5 6 6 7 7 8 8
REMARK H PARENT
REMARK Flexibility Score: inf
ROOT
ATOM      1  C   UNL     1      24.938  44.582  42.278  1.00  0.00     0.059 C 
ENDROOT
BRANCH   1   2
ATOM      2  C   UNL     1      24.062  44.611  41.062  1.00  0.00     0.042 C 
ATOM      3  O   UNL     1      23.311  43.636  40.798  1.00  0.00    -0.550 OA
ATOM      4  O   UNL     1      24.047  45.734  40.243  1.00  0.00    -0.550 OA
ENDBRANCH   1   2
BRANCH   1   5
ATOM      5  C   UNL     1      25.281  43.148  42.693  1.00  0.00     0.059 C 
BRANCH   5   6
ATOM      6  C   UNL     1      26.540  42.669  42.036  1.00  0.00     0.042 C 
ATOM      7  O   UNL     1      27.616  43.303  42.193  1.00  0.00    -0.550 OA
ATOM      8  O   UNL     1      26.515  41.546  41.219  1.00  0.00    -0.550 OA
ENDBRANCH   5   6
ENDBRANCH   1   5
TORSDOF 3
ENDMDL
