MODEL 1
REMARK VINA RESULT:    -6.912      0.000      0.000
REMARK INTER + INTRA:         -20.507
REMARK INTER:                 -17.419
REMARK INTRA:                  -3.088
REMARK UNBOUND:                -3.088
REMARK SMILES CCCCCCCCCCCCCCCCCCCCCCCCCCCC(=O)[O-]
REMARK SMILES IDX 15 1 16 2 17 3 18 4 19 5 20 6 21 7 22 8 23 9 24 10 25 11
REMARK SMILES IDX 26 12 27 13 28 14 29 15 30 16 14 17 13 18 12 19 11 20 10 21
REMARK SMILES IDX 9 22 8 23 7 24 6 25 5 26 4 27 3 28 2 29 1 30
REMARK H PARENT
REMARK Flexibility Score: inf
ROOT
ATOM      1  C   UNL     1      94.845  -3.677  11.026  1.00  0.00     0.000 C 
ENDROOT
BRANCH   1   2
ATOM      2  C   UNL     1      96.380  -3.675  11.107  1.00  0.00     0.000 C 
BRANCH   2   3
ATOM      3  C   UNL     1      97.039  -2.784  10.042  1.00  0.00     0.000 C 
BRANCH   3   4
ATOM      4  C   UNL     1      97.283  -3.567   8.745  1.00  0.00     0.000 C 
BRANCH   4   5
ATOM      5  C   UNL     1      97.005  -2.734   7.485  1.00  0.00     0.000 C 
BRANCH   5   6
ATOM      6  C   UNL     1      98.203  -2.699   6.523  1.00  0.00     0.000 C 
BRANCH   6   7
ATOM      7  C   UNL     1      99.192  -3.835   6.834  1.00  0.00     0.000 C 
BRANCH   7   8
ATOM      8  C   UNL     1      99.298  -4.881   5.705  1.00  0.00     0.000 C 
BRANCH   8   9
ATOM      9  C   UNL     1      98.706  -6.272   6.031  1.00  0.00     0.000 C 
BRANCH   9  10
ATOM     10  C   UNL     1      99.754  -7.350   6.383  1.00  0.00     0.000 C 
BRANCH  10  11
ATOM     11  C   UNL     1      99.222  -8.789   6.448  1.00  0.00     0.000 C 
BRANCH  11  12
ATOM     12  C   UNL     1      97.797  -8.931   5.878  1.00  0.00     0.006 C 
BRANCH  12  13
ATOM     13  C   UNL     1      97.790  -9.583   4.489  1.00  0.00     0.053 C 
BRANCH  13  14
ATOM     14  C   UNL     1      97.097  -8.730   3.467  1.00  0.00     0.041 C 
ATOM     15  O   UNL     1      97.416  -7.518   3.322  1.00  0.00    -0.550 OA
ATOM     16  O   UNL     1      96.043  -9.253   2.729  1.00  0.00    -0.550 OA
ENDBRANCH  13  14
ENDBRANCH  12  13
ENDBRANCH  11  12
ENDBRANCH  10  11
ENDBRANCH   9  10
ENDBRANCH   8   9
ENDBRANCH   7   8
ENDBRANCH   6   7
ENDBRANCH   5   6
ENDBRANCH   4   5
ENDBRANCH   3   4
ENDBRANCH   2   3
ENDBRANCH   1   2
BRANCH   1  17
ATOM     17  C   UNL     1      94.294  -4.841  10.179  1.00  0.00     0.000 C 
BRANCH  17  18
ATOM     18  C   UNL     1      93.113  -4.427   9.274  1.00  0.00     0.000 C 
BRANCH  18  19
ATOM     19  C   UNL     1      93.538  -3.819   7.921  1.00  0.00     0.000 C 
BRANCH  19  20
ATOM     20  C   UNL     1      92.790  -2.535   7.514  1.00  0.00     0.000 C 
BRANCH  20  21
ATOM     21  C   UNL     1      93.598  -1.570   6.620  1.00  0.00     0.000 C 
BRANCH  21  22
ATOM     22  C   UNL     1      92.758  -0.775   5.597  1.00  0.00    -0.000 C 
BRANCH  22  23
ATOM     23  C   UNL     1      91.810   0.275   6.211  1.00  0.00    -0.000 C 
BRANCH  23  24
ATOM     24  C   UNL     1      90.358   0.187   5.702  1.00  0.00    -0.000 C 
BRANCH  24  25
ATOM     25  C   UNL     1      89.986  -1.165   5.060  1.00  0.00    -0.000 C 
BRANCH  25  26
ATOM     26  C   UNL     1      88.730  -1.845   5.646  1.00  0.00    -0.000 C 
BRANCH  26  27
ATOM     27  C   UNL     1      88.778  -3.387   5.681  1.00  0.00    -0.000 C 
BRANCH  27  28
ATOM     28  C   UNL     1      89.914  -3.964   4.823  1.00  0.00    -0.000 C 
BRANCH  28  29
ATOM     29  C   UNL     1      90.744  -4.984   5.617  1.00  0.00    -0.003 C 
ATOM     30  C   UNL     1      90.049  -5.350   6.926  1.00  0.00     0.004 C 
ENDBRANCH  28  29
ENDBRANCH  27  28
ENDBRANCH  26  27
ENDBRANCH  25  26
ENDBRANCH  24  25
ENDBRANCH  23  24
ENDBRANCH  22  23
ENDBRANCH  21  22
ENDBRANCH  20  21
ENDBRANCH  19  20
ENDBRANCH  18  19
ENDBRANCH  17  18
ENDBRANCH   1  17
TORSDOF 26
ENDMDL
MODEL 2
REMARK VINA RESULT:    -6.779      8.419     14.953
REMARK INTER + INTRA:         -20.172
REMARK INTER:                 -16.795
REMARK INTRA:                  -3.377
REMARK UNBOUND:                -3.088
REMARK SMILES CCCCCCCCCCCCCCCCCCCCCCCCCCCC(=O)[O-]
REMARK SMILES IDX 15 1 16 2 17 3 18 4 19 5 20 6 21 7 22 8 23 9 24 10 25 11
REMARK SMILES IDX 26 12 27 13 28 14 29 15 30 16 14 17 13 18 12 19 11 20 10 21
REMARK SMILES IDX 9 22 8 23 7 24 6 25 5 26 4 27 3 28 2 29 1 30
REMARK H PARENT
REMARK Flexibility Score: inf
ROOT
ATOM      1  C   UNL     1      81.162  -3.344   2.447  1.00  0.00     0.000 C 
ENDROOT
BRANCH   1   2
ATOM      2  C   UNL     1      81.405  -3.981   1.070  1.00  0.00     0.000 C 
BRANCH   2   3
ATOM      3  C   UNL     1      81.415  -2.956  -0.075  1.00  0.00     0.000 C 
BRANCH   3   4
ATOM      4  C   UNL     1      81.488  -1.523   0.472  1.00  0.00     0.000 C 
BRANCH   4   5
ATOM      5  C   UNL     1      82.888  -0.906   0.340  1.00  0.00     0.000 C 
BRANCH   5   6
ATOM      6  C   UNL     1      82.880   0.620   0.515  1.00  0.00     0.000 C 
BRANCH   6   7
ATOM      7  C   UNL     1      82.174   1.307  -0.668  1.00  0.00     0.000 C 
BRANCH   7   8
ATOM      8  C   UNL     1      81.364   2.553  -0.257  1.00  0.00     0.000 C 
BRANCH   8   9
ATOM      9  C   UNL     1      80.045   2.268   0.500  1.00  0.00     0.000 C 
BRANCH   9  10
ATOM     10  C   UNL     1      80.029   2.751   1.966  1.00  0.00     0.000 C 
BRANCH  10  11
ATOM     11  C   UNL     1      81.406   3.059   2.573  1.00  0.00     0.000 C 
BRANCH  11  12
ATOM     12  C   UNL     1      81.637   2.364   3.929  1.00  0.00     0.006 C 
BRANCH  12  13
ATOM     13  C   UNL     1      81.198   3.237   5.111  1.00  0.00     0.053 C 
BRANCH  13  14
ATOM     14  C   UNL     1      82.270   4.199   5.533  1.00  0.00     0.041 C 
ATOM     15  O   UNL     1      81.978   5.385   5.846  1.00  0.00    -0.550 OA
ATOM     16  O   UNL     1      83.601   3.807   5.504  1.00  0.00    -0.550 OA
ENDBRANCH  13  14
ENDBRANCH  12  13
ENDBRANCH  11  12
ENDBRANCH  10  11
ENDBRANCH   9  10
ENDBRANCH   8   9
ENDBRANCH   7   8
ENDBRANCH   6   7
ENDBRANCH   5   6
ENDBRANCH   4   5
ENDBRANCH   3   4
ENDBRANCH   2   3
ENDBRANCH   1   2
BRANCH   1  17
ATOM     17  C   UNL     1      82.298  -3.638   3.448  1.00  0.00     0.000 C 
BRANCH  17  18
ATOM     18  C   UNL     1      83.691  -3.698   2.783  1.00  0.00     0.000 C 
BRANCH  18  19
ATOM     19  C   UNL     1      84.609  -2.510   3.135  1.00  0.00     0.000 C 
BRANCH  19  20
ATOM     20  C   UNL     1      86.049  -2.609   2.593  1.00  0.00     0.000 C 
BRANCH  20  21
ATOM     21  C   UNL     1      86.426  -1.531   1.554  1.00  0.00     0.000 C 
BRANCH  21  22
ATOM     22  C   UNL     1      87.919  -1.502   1.163  1.00  0.00    -0.000 C 
BRANCH  22  23
ATOM     23  C   UNL     1      88.680  -2.822   1.403  1.00  0.00    -0.000 C 
BRANCH  23  24
ATOM     24  C   UNL     1      89.721  -2.752   2.536  1.00  0.00    -0.000 C 
BRANCH  24  25
ATOM     25  C   UNL     1      89.865  -1.361   3.188  1.00  0.00    -0.000 C 
BRANCH  25  26
ATOM     26  C   UNL     1      89.657  -1.329   4.717  1.00  0.00    -0.000 C 
BRANCH  26  27
ATOM     27  C   UNL     1      89.912  -2.668   5.439  1.00  0.00    -0.000 C 
BRANCH  27  28
ATOM     28  C   UNL     1      88.629  -3.283   6.019  1.00  0.00    -0.000 C 
BRANCH  28  29
ATOM     29  C   UNL     1      87.516  -2.230   6.140  1.00  0.00    -0.003 C 
ATOM     30  C   UNL     1      86.157  -2.895   6.343  1.00  0.00     0.004 C 
ENDBRANCH  28  29
ENDBRANCH  27  28
ENDBRANCH  26  27
ENDBRANCH  25  26
ENDBRANCH  24  25
ENDBRANCH  23  24
ENDBRANCH  22  23
ENDBRANCH  21  22
ENDBRANCH  20  21
ENDBRANCH  19  20
ENDBRANCH  18  19
ENDBRANCH  17  18
ENDBRANCH   1  17
TORSDOF 26
ENDMDL
MODEL 3
REMARK VINA RESULT:    -6.629      1.908      3.592
REMARK INTER + INTRA:         -19.793
REMARK INTER:                 -16.843
REMARK INTRA:                  -2.950
REMARK UNBOUND:                -3.088
REMARK SMILES CCCCCCCCCCCCCCCCCCCCCCCCCCCC(=O)[O-]
REMARK SMILES IDX 15 1 16 2 17 3 18 4 19 5 20 6 21 7 22 8 23 9 24 10 25 11
REMARK SMILES IDX 26 12 27 13 28 14 29 15 30 16 14 17 13 18 12 19 11 20 10 21
REMARK SMILES IDX 9 22 8 23 7 24 6 25 5 26 4 27 3 28 2 29 1 30
REMARK H PARENT
REMARK Flexibility Score: inf
ROOT
ATOM      1  C   UNL     1      93.513  -3.129   8.270  1.00  0.00     0.000 C 
ENDROOT
BRANCH   1   2
ATOM      2  C   UNL     1      93.585  -4.230   9.340  1.00  0.00     0.000 C 
BRANCH   2   3
ATOM      3  C   UNL     1      94.210  -3.748  10.659  1.00  0.00     0.000 C 
BRANCH   3   4
ATOM      4  C   UNL     1      95.593  -4.378  10.873  1.00  0.00     0.000 C 
BRANCH   4   5
ATOM      5  C   UNL     1      96.715  -3.332  10.963  1.00  0.00     0.000 C 
BRANCH   5   6
ATOM      6  C   UNL     1      97.138  -2.800   9.585  1.00  0.00     0.000 C 
BRANCH   6   7
ATOM      7  C   UNL     1      97.204  -3.938   8.551  1.00  0.00     0.000 C 
BRANCH   7   8
ATOM      8  C   UNL     1      97.234  -3.438   7.093  1.00  0.00     0.000 C 
BRANCH   8   9
ATOM      9  C   UNL     1      98.634  -3.387   6.437  1.00  0.00     0.000 C 
BRANCH   9  10
ATOM     10  C   UNL     1      99.022  -4.657   5.650  1.00  0.00     0.000 C 
BRANCH  10  11
ATOM     11  C   UNL     1      99.576  -5.813   6.497  1.00  0.00     0.000 C 
BRANCH  11  12
ATOM     12  C   UNL     1      99.098  -7.196   6.015  1.00  0.00     0.006 C 
BRANCH  12  13
ATOM     13  C   UNL     1      97.595  -7.217   5.709  1.00  0.00     0.053 C 
BRANCH  13  14
ATOM     14  C   UNL     1      97.288  -7.942   4.432  1.00  0.00     0.041 C 
ATOM     15  O   UNL     1      97.227  -7.316   3.339  1.00  0.00    -0.550 OA
ATOM     16  O   UNL     1      96.991  -9.298   4.460  1.00  0.00    -0.550 OA
ENDBRANCH  13  14
ENDBRANCH  12  13
ENDBRANCH  11  12
ENDBRANCH  10  11
ENDBRANCH   9  10
ENDBRANCH   8   9
ENDBRANCH   7   8
ENDBRANCH   6   7
ENDBRANCH   5   6
ENDBRANCH   4   5
ENDBRANCH   3   4
ENDBRANCH   2   3
ENDBRANCH   1   2
BRANCH   1  17
ATOM     17  C   UNL     1      92.284  -3.270   7.351  1.00  0.00     0.000 C 
BRANCH  17  18
ATOM     18  C   UNL     1      91.824  -1.927   6.742  1.00  0.00     0.000 C 
BRANCH  18  19
ATOM     19  C   UNL     1      90.482  -2.005   5.986  1.00  0.00     0.000 C 
BRANCH  19  20
ATOM     20  C   UNL     1      89.958  -3.430   5.725  1.00  0.00     0.000 C 
BRANCH  20  21
ATOM     21  C   UNL     1      89.991  -3.872   4.245  1.00  0.00     0.000 C 
BRANCH  21  22
ATOM     22  C   UNL     1      89.984  -2.715   3.223  1.00  0.00    -0.000 C 
BRANCH  22  23
ATOM     23  C   UNL     1      89.745  -3.141   1.760  1.00  0.00    -0.000 C 
BRANCH  23  24
ATOM     24  C   UNL     1      88.421  -2.629   1.162  1.00  0.00    -0.000 C 
BRANCH  24  25
ATOM     25  C   UNL     1      87.510  -1.891   2.165  1.00  0.00    -0.000 C 
BRANCH  25  26
ATOM     26  C   UNL     1      86.223  -2.647   2.560  1.00  0.00    -0.000 C 
BRANCH  26  27
ATOM     27  C   UNL     1      85.873  -2.601   4.062  1.00  0.00    -0.000 C 
BRANCH  27  28
ATOM     28  C   UNL     1      86.916  -1.835   4.890  1.00  0.00    -0.000 C 
BRANCH  28  29
ATOM     29  C   UNL     1      86.638  -1.974   6.395  1.00  0.00    -0.003 C 
ATOM     30  C   UNL     1      86.300  -3.418   6.755  1.00  0.00     0.004 C 
ENDBRANCH  28  29
ENDBRANCH  27  28
ENDBRANCH  26  27
ENDBRANCH  25  26
ENDBRANCH  24  25
ENDBRANCH  23  24
ENDBRANCH  22  23
ENDBRANCH  21  22
ENDBRANCH  20  21
ENDBRANCH  19  20
ENDBRANCH  18  19
ENDBRANCH  17  18
ENDBRANCH   1  17
TORSDOF 26
ENDMDL
MODEL 4
REMARK VINA RESULT:    -6.603      6.101     12.240
REMARK INTER + INTRA:         -19.728
REMARK INTER:                 -17.475
REMARK INTRA:                  -2.253
REMARK UNBOUND:                -3.088
REMARK SMILES CCCCCCCCCCCCCCCCCCCCCCCCCCCC(=O)[O-]
REMARK SMILES IDX 15 1 16 2 17 3 18 4 19 5 20 6 21 7 22 8 23 9 24 10 25 11
REMARK SMILES IDX 26 12 27 13 28 14 29 15 30 16 14 17 13 18 12 19 11 20 10 21
REMARK SMILES IDX 9 22 8 23 7 24 6 25 5 26 4 27 3 28 2 29 1 30
REMARK H PARENT
REMARK Flexibility Score: inf
ROOT
ATOM      1  C   UNL     1      90.224  -3.195   5.654  1.00  0.00     0.000 C 
ENDROOT
BRANCH   1   2
ATOM      2  C   UNL     1      88.698  -3.376   5.644  1.00  0.00     0.000 C 
BRANCH   2   3
ATOM      3  C   UNL     1      87.933  -2.042   5.639  1.00  0.00     0.000 C 
BRANCH   3   4
ATOM      4  C   UNL     1      86.680  -2.132   4.756  1.00  0.00     0.000 C 
BRANCH   4   5
ATOM      5  C   UNL     1      86.982  -2.659   3.346  1.00  0.00     0.000 C 
BRANCH   5   6
ATOM      6  C   UNL     1      85.816  -2.437   2.370  1.00  0.00     0.000 C 
BRANCH   6   7
ATOM      7  C   UNL     1      84.474  -2.375   3.119  1.00  0.00     0.000 C 
BRANCH   7   8
ATOM      8  C   UNL     1      83.626  -3.653   2.963  1.00  0.00     0.000 C 
BRANCH   8   9
ATOM      9  C   UNL     1      82.119  -3.493   3.273  1.00  0.00     0.000 C 
BRANCH   9  10
ATOM     10  C   UNL     1      81.234  -3.224   2.038  1.00  0.00     0.000 C 
BRANCH  10  11
ATOM     11  C   UNL     1      81.947  -3.330   0.681  1.00  0.00     0.000 C 
BRANCH  11  12
ATOM     12  C   UNL     1      81.845  -2.041  -0.156  1.00  0.00     0.006 C 
BRANCH  12  13
ATOM     13  C   UNL     1      81.925  -0.778   0.711  1.00  0.00     0.053 C 
BRANCH  13  14
ATOM     14  C   UNL     1      82.407   0.412  -0.065  1.00  0.00     0.041 C 
ATOM     15  O   UNL     1      82.621   1.511   0.515  1.00  0.00    -0.550 OA
ATOM     16  O   UNL     1      82.547   0.328  -1.444  1.00  0.00    -0.550 OA
ENDBRANCH  13  14
ENDBRANCH  12  13
ENDBRANCH  11  12
ENDBRANCH  10  11
ENDBRANCH   9  10
ENDBRANCH   8   9
ENDBRANCH   7   8
ENDBRANCH   6   7
ENDBRANCH   5   6
ENDBRANCH   4   5
ENDBRANCH   3   4
ENDBRANCH   2   3
ENDBRANCH   1   2
BRANCH   1  17
ATOM     17  C   UNL     1      90.651  -1.724   5.475  1.00  0.00     0.000 C 
BRANCH  17  18
ATOM     18  C   UNL     1      91.924  -1.361   6.271  1.00  0.00     0.000 C 
BRANCH  18  19
ATOM     19  C   UNL     1      92.203  -2.289   7.471  1.00  0.00     0.000 C 
BRANCH  19  20
ATOM     20  C   UNL     1      93.684  -2.656   7.687  1.00  0.00     0.000 C 
BRANCH  20  21
ATOM     21  C   UNL     1      93.925  -4.081   8.231  1.00  0.00     0.000 C 
BRANCH  21  22
ATOM     22  C   UNL     1      93.768  -4.227   9.760  1.00  0.00    -0.000 C 
BRANCH  22  23
ATOM     23  C   UNL     1      95.054  -4.629  10.510  1.00  0.00    -0.000 C 
BRANCH  23  24
ATOM     24  C   UNL     1      95.848  -3.440  11.083  1.00  0.00    -0.000 C 
BRANCH  24  25
ATOM     25  C   UNL     1      96.640  -2.634  10.032  1.00  0.00    -0.000 C 
BRANCH  25  26
ATOM     26  C   UNL     1      97.378  -3.483   8.975  1.00  0.00    -0.000 C 
BRANCH  26  27
ATOM     27  C   UNL     1      97.398  -2.884   7.554  1.00  0.00    -0.000 C 
BRANCH  27  28
ATOM     28  C   UNL     1      98.821  -2.585   7.056  1.00  0.00    -0.000 C 
BRANCH  28  29
ATOM     29  C   UNL     1      99.608  -3.882   6.818  1.00  0.00    -0.003 C 
ATOM     30  C   UNL     1      98.997  -4.689   5.675  1.00  0.00     0.004 C 
ENDBRANCH  28  29
ENDBRANCH  27  28
ENDBRANCH  26  27
ENDBRANCH  25  26
ENDBRANCH  24  25
ENDBRANCH  23  24
ENDBRANCH  22  23
ENDBRANCH  21  22
ENDBRANCH  20  21
ENDBRANCH  19  20
ENDBRANCH  18  19
ENDBRANCH  17  18
ENDBRANCH   1  17
TORSDOF 26
ENDMDL
MODEL 5
REMARK VINA RESULT:    -6.581      4.018      6.662
REMARK INTER + INTRA:         -19.672
REMARK INTER:                 -17.307
REMARK INTRA:                  -2.365
REMARK UNBOUND:                -3.088
REMARK SMILES CCCCCCCCCCCCCCCCCCCCCCCCCCCC(=O)[O-]
REMARK SMILES IDX 15 1 16 2 17 3 18 4 19 5 20 6 21 7 22 8 23 9 24 10 25 11
REMARK SMILES IDX 26 12 27 13 28 14 29 15 30 16 14 17 13 18 12 19 11 20 10 21
REMARK SMILES IDX 9 22 8 23 7 24 6 25 5 26 4 27 3 28 2 29 1 30
REMARK H PARENT
REMARK Flexibility Score: inf
ROOT
ATOM      1  C   UNL     1      93.029  -0.749   5.643  1.00  0.00     0.000 C 
ENDROOT
BRANCH   1   2
ATOM      2  C   UNL     1      93.727  -1.646   6.678  1.00  0.00     0.000 C 
BRANCH   2   3
ATOM      3  C   UNL     1      92.752  -2.559   7.439  1.00  0.00     0.000 C 
BRANCH   3   4
ATOM      4  C   UNL     1      93.484  -3.771   8.031  1.00  0.00     0.000 C 
BRANCH   4   5
ATOM      5  C   UNL     1      93.516  -3.757   9.566  1.00  0.00     0.000 C 
BRANCH   5   6
ATOM      6  C   UNL     1      94.176  -5.012  10.156  1.00  0.00     0.000 C 
BRANCH   6   7
ATOM      7  C   UNL     1      95.553  -4.680  10.756  1.00  0.00     0.000 C 
BRANCH   7   8
ATOM      8  C   UNL     1      95.664  -3.231  11.270  1.00  0.00     0.000 C 
BRANCH   8   9
ATOM      9  C   UNL     1      96.752  -2.366  10.591  1.00  0.00     0.000 C 
BRANCH   9  10
ATOM     10  C   UNL     1      97.467  -3.048   9.406  1.00  0.00     0.000 C 
BRANCH  10  11
ATOM     11  C   UNL     1      96.973  -2.634   8.011  1.00  0.00     0.000 C 
BRANCH  11  12
ATOM     12  C   UNL     1      97.757  -3.308   6.869  1.00  0.00     0.006 C 
BRANCH  12  13
ATOM     13  C   UNL     1      97.480  -4.815   6.785  1.00  0.00     0.053 C 
BRANCH  13  14
ATOM     14  C   UNL     1      98.418  -5.511   5.844  1.00  0.00     0.041 C 
ATOM     15  O   UNL     1      99.240  -4.850   5.153  1.00  0.00    -0.550 OA
ATOM     16  O   UNL     1      98.331  -6.886   5.671  1.00  0.00    -0.550 OA
ENDBRANCH  13  14
ENDBRANCH  12  13
ENDBRANCH  11  12
ENDBRANCH  10  11
ENDBRANCH   9  10
ENDBRANCH   8   9
ENDBRANCH   7   8
ENDBRANCH   6   7
ENDBRANCH   5   6
ENDBRANCH   4   5
ENDBRANCH   3   4
ENDBRANCH   2   3
ENDBRANCH   1   2
BRANCH   1  17
ATOM     17  C   UNL     1      91.604  -0.345   6.069  1.00  0.00     0.000 C 
BRANCH  17  18
ATOM     18  C   UNL     1      90.535  -0.677   5.004  1.00  0.00     0.000 C 
BRANCH  18  19
ATOM     19  C   UNL     1      89.204  -1.195   5.587  1.00  0.00     0.000 C 
BRANCH  19  20
ATOM     20  C   UNL     1      88.512  -2.299   4.764  1.00  0.00     0.000 C 
BRANCH  20  21
ATOM     21  C   UNL     1      87.210  -2.849   5.385  1.00  0.00     0.000 C 
BRANCH  21  22
ATOM     22  C   UNL     1      85.910  -2.329   4.734  1.00  0.00    -0.000 C 
BRANCH  22  23
ATOM     23  C   UNL     1      85.734  -2.700   3.247  1.00  0.00    -0.000 C 
BRANCH  23  24
ATOM     24  C   UNL     1      84.270  -2.699   2.767  1.00  0.00    -0.000 C 
BRANCH  24  25
ATOM     25  C   UNL     1      83.298  -3.479   3.676  1.00  0.00    -0.000 C 
BRANCH  25  26
ATOM     26  C   UNL     1      81.852  -3.591   3.147  1.00  0.00    -0.000 C 
BRANCH  26  27
ATOM     27  C   UNL     1      81.730  -4.009   1.667  1.00  0.00    -0.000 C 
BRANCH  27  28
ATOM     28  C   UNL     1      80.963  -2.980   0.821  1.00  0.00    -0.000 C 
BRANCH  28  29
ATOM     29  C   UNL     1      81.868  -2.367  -0.258  1.00  0.00    -0.003 C 
ATOM     30  C   UNL     1      82.266  -0.940   0.111  1.00  0.00     0.004 C 
ENDBRANCH  28  29
ENDBRANCH  27  28
ENDBRANCH  26  27
ENDBRANCH  25  26
ENDBRANCH  24  25
ENDBRANCH  23  24
ENDBRANCH  22  23
ENDBRANCH  21  22
ENDBRANCH  20  21
ENDBRANCH  19  20
ENDBRANCH  18  19
ENDBRANCH  17  18
ENDBRANCH   1  17
TORSDOF 26
ENDMDL
MODEL 6
REMARK VINA RESULT:    -6.560      5.454      9.192
REMARK INTER + INTRA:         -19.620
REMARK INTER:                 -17.048
REMARK INTRA:                  -2.572
REMARK UNBOUND:                -3.088
REMARK SMILES CCCCCCCCCCCCCCCCCCCCCCCCCCCC(=O)[O-]
REMARK SMILES IDX 15 1 16 2 17 3 18 4 19 5 20 6 21 7 22 8 23 9 24 10 25 11
REMARK SMILES IDX 26 12 27 13 28 14 29 15 30 16 14 17 13 18 12 19 11 20 10 21
REMARK SMILES IDX 9 22 8 23 7 24 6 25 5 26 4 27 3 28 2 29 1 30
REMARK H PARENT
REMARK Flexibility Score: inf
ROOT
ATOM      1  C   UNL     1      86.211  -3.006   5.990  1.00  0.00     0.000 C 
ENDROOT
BRANCH   1   2
ATOM      2  C   UNL     1      87.621  -3.466   6.391  1.00  0.00     0.000 C 
BRANCH   2   3
ATOM      3  C   UNL     1      88.725  -2.506   5.920  1.00  0.00     0.000 C 
BRANCH   3   4
ATOM      4  C   UNL     1      89.906  -3.281   5.319  1.00  0.00     0.000 C 
BRANCH   4   5
ATOM      5  C   UNL     1      91.049  -3.497   6.323  1.00  0.00     0.000 C 
BRANCH   5   6
ATOM      6  C   UNL     1      91.738  -2.185   6.726  1.00  0.00     0.000 C 
BRANCH   6   7
ATOM      7  C   UNL     1      93.036  -2.460   7.505  1.00  0.00     0.000 C 
BRANCH   7   8
ATOM      8  C   UNL     1      93.234  -3.948   7.858  1.00  0.00     0.000 C 
BRANCH   8   9
ATOM      9  C   UNL     1      93.060  -4.305   9.353  1.00  0.00     0.000 C 
BRANCH   9  10
ATOM     10  C   UNL     1      94.216  -3.839  10.264  1.00  0.00     0.000 C 
BRANCH  10  11
ATOM     11  C   UNL     1      95.279  -4.904  10.574  1.00  0.00     0.000 C 
BRANCH  11  12
ATOM     12  C   UNL     1      96.701  -4.320  10.690  1.00  0.00     0.006 C 
BRANCH  12  13
ATOM     13  C   UNL     1      96.890  -3.076   9.813  1.00  0.00     0.053 C 
BRANCH  13  14
ATOM     14  C   UNL     1      97.208  -3.430   8.390  1.00  0.00     0.041 C 
ATOM     15  O   UNL     1      98.157  -4.217   8.123  1.00  0.00    -0.550 OA
ATOM     16  O   UNL     1      96.505  -2.830   7.354  1.00  0.00    -0.550 OA
ENDBRANCH  13  14
ENDBRANCH  12  13
ENDBRANCH  11  12
ENDBRANCH  10  11
ENDBRANCH   9  10
ENDBRANCH   8   9
ENDBRANCH   7   8
ENDBRANCH   6   7
ENDBRANCH   5   6
ENDBRANCH   4   5
ENDBRANCH   3   4
ENDBRANCH   2   3
ENDBRANCH   1   2
BRANCH   1  17
ATOM     17  C   UNL     1      86.223  -1.987   4.834  1.00  0.00     0.000 C 
BRANCH  17  18
ATOM     18  C   UNL     1      86.243  -2.651   3.439  1.00  0.00     0.000 C 
BRANCH  18  19
ATOM     19  C   UNL     1      84.954  -2.433   2.619  1.00  0.00     0.000 C 
BRANCH  19  20
ATOM     20  C   UNL     1      83.936  -3.589   2.677  1.00  0.00     0.000 C 
BRANCH  20  21
ATOM     21  C   UNL     1      82.740  -3.351   3.623  1.00  0.00     0.000 C 
BRANCH  21  22
ATOM     22  C   UNL     1      81.371  -3.229   2.919  1.00  0.00    -0.000 C 
BRANCH  22  23
ATOM     23  C   UNL     1      81.260  -3.981   1.577  1.00  0.00    -0.000 C 
BRANCH  23  24
ATOM     24  C   UNL     1      81.117  -3.062   0.349  1.00  0.00    -0.000 C 
BRANCH  24  25
ATOM     25  C   UNL     1      81.303  -1.560   0.649  1.00  0.00    -0.000 C 
BRANCH  25  26
ATOM     26  C   UNL     1      82.650  -0.963   0.188  1.00  0.00    -0.000 C 
BRANCH  26  27
ATOM     27  C   UNL     1      82.974   0.434   0.758  1.00  0.00    -0.000 C 
BRANCH  27  28
ATOM     28  C   UNL     1      82.154   0.767   2.015  1.00  0.00    -0.000 C 
BRANCH  28  29
ATOM     29  C   UNL     1      81.600   2.198   1.951  1.00  0.00    -0.003 C 
ATOM     30  C   UNL     1      80.375   2.269   1.042  1.00  0.00     0.004 C 
ENDBRANCH  28  29
ENDBRANCH  27  28
ENDBRANCH  26  27
ENDBRANCH  25  26
ENDBRANCH  24  25
ENDBRANCH  23  24
ENDBRANCH  22  23
ENDBRANCH  21  22
ENDBRANCH  20  21
ENDBRANCH  19  20
ENDBRANCH  18  19
ENDBRANCH  17  18
ENDBRANCH   1  17
TORSDOF 26
ENDMDL
MODEL 7
REMARK VINA RESULT:    -6.542      7.544     14.170
REMARK INTER + INTRA:         -19.574
REMARK INTER:                 -17.426
REMARK INTRA:                  -2.148
REMARK UNBOUND:                -3.088
REMARK SMILES CCCCCCCCCCCCCCCCCCCCCCCCCCCC(=O)[O-]
REMARK SMILES IDX 15 1 16 2 17 3 18 4 19 5 20 6 21 7 22 8 23 9 24 10 25 11
REMARK SMILES IDX 26 12 27 13 28 14 29 15 30 16 14 17 13 18 12 19 11 20 10 21
REMARK SMILES IDX 9 22 8 23 7 24 6 25 5 26 4 27 3 28 2 29 1 30
REMARK H PARENT
REMARK Flexibility Score: inf
ROOT
ATOM      1  C   UNL     1      84.327  -2.575   3.299  1.00  0.00     0.000 C 
ENDROOT
BRANCH   1   2
ATOM      2  C   UNL     1      83.400  -3.750   2.951  1.00  0.00     0.000 C 
BRANCH   2   3
ATOM      3  C   UNL     1      81.953  -3.538   3.426  1.00  0.00     0.000 C 
BRANCH   3   4
ATOM      4  C   UNL     1      81.069  -3.028   2.279  1.00  0.00     0.000 C 
BRANCH   4   5
ATOM      5  C   UNL     1      81.321  -3.770   0.958  1.00  0.00     0.000 C 
BRANCH   5   6
ATOM      6  C   UNL     1      81.715  -2.824  -0.186  1.00  0.00     0.000 C 
BRANCH   6   7
ATOM      7  C   UNL     1      81.865  -1.379   0.321  1.00  0.00     0.000 C 
BRANCH   7   8
ATOM      8  C   UNL     1      83.305  -0.837   0.211  1.00  0.00     0.000 C 
BRANCH   8   9
ATOM      9  C   UNL     1      83.425   0.648  -0.205  1.00  0.00     0.000 C 
BRANCH   9  10
ATOM     10  C   UNL     1      82.104   1.293  -0.675  1.00  0.00     0.000 C 
BRANCH  10  11
ATOM     11  C   UNL     1      81.677   2.553   0.093  1.00  0.00     0.000 C 
BRANCH  11  12
ATOM     12  C   UNL     1      80.530   2.291   1.089  1.00  0.00     0.006 C 
BRANCH  12  13
ATOM     13  C   UNL     1      80.759   2.992   2.435  1.00  0.00     0.053 C 
BRANCH  13  14
ATOM     14  C   UNL     1      81.726   2.245   3.304  1.00  0.00     0.041 C 
ATOM     15  O   UNL     1      82.152   1.109   2.959  1.00  0.00    -0.550 OA
ATOM     16  O   UNL     1      82.098   2.769   4.535  1.00  0.00    -0.550 OA
ENDBRANCH  13  14
ENDBRANCH  12  13
ENDBRANCH  11  12
ENDBRANCH  10  11
ENDBRANCH   9  10
ENDBRANCH   8   9
ENDBRANCH   7   8
ENDBRANCH   6   7
ENDBRANCH   5   6
ENDBRANCH   4   5
ENDBRANCH   3   4
ENDBRANCH   2   3
ENDBRANCH   1   2
BRANCH   1  17
ATOM     17  C   UNL     1      85.670  -2.631   2.545  1.00  0.00     0.000 C 
BRANCH  17  18
ATOM     18  C   UNL     1      86.891  -2.400   3.462  1.00  0.00     0.000 C 
BRANCH  18  19
ATOM     19  C   UNL     1      86.608  -2.637   4.960  1.00  0.00     0.000 C 
BRANCH  19  20
ATOM     20  C   UNL     1      87.833  -2.512   5.887  1.00  0.00     0.000 C 
BRANCH  20  21
ATOM     21  C   UNL     1      89.173  -2.937   5.250  1.00  0.00     0.000 C 
BRANCH  21  22
ATOM     22  C   UNL     1      90.320  -3.183   6.254  1.00  0.00    -0.000 C 
BRANCH  22  23
ATOM     23  C   UNL     1      91.344  -2.034   6.366  1.00  0.00    -0.000 C 
BRANCH  23  24
ATOM     24  C   UNL     1      92.550  -2.351   7.270  1.00  0.00    -0.000 C 
BRANCH  24  25
ATOM     25  C   UNL     1      92.664  -3.832   7.689  1.00  0.00    -0.000 C 
BRANCH  25  26
ATOM     26  C   UNL     1      93.953  -4.198   8.456  1.00  0.00    -0.000 C 
BRANCH  26  27
ATOM     27  C   UNL     1      94.077  -3.575   9.861  1.00  0.00    -0.000 C 
BRANCH  27  28
ATOM     28  C   UNL     1      94.811  -4.490  10.854  1.00  0.00    -0.000 C 
BRANCH  28  29
ATOM     29  C   UNL     1      96.288  -4.089  10.988  1.00  0.00    -0.003 C 
ATOM     30  C   UNL     1      96.532  -2.702  10.399  1.00  0.00     0.004 C 
ENDBRANCH  28  29
ENDBRANCH  27  28
ENDBRANCH  26  27
ENDBRANCH  25  26
ENDBRANCH  24  25
ENDBRANCH  23  24
ENDBRANCH  22  23
ENDBRANCH  21  22
ENDBRANCH  20  21
ENDBRANCH  19  20
ENDBRANCH  18  19
ENDBRANCH  17  18
ENDBRANCH   1  17
TORSDOF 26
ENDMDL
MODEL 8
REMARK VINA RESULT:    -6.493      5.136     10.694
REMARK INTER + INTRA:         -19.452
REMARK INTER:                 -17.391
REMARK INTRA:                  -2.061
REMARK UNBOUND:                -3.088
REMARK SMILES CCCCCCCCCCCCCCCCCCCCCCCCCCCC(=O)[O-]
REMARK SMILES IDX 15 1 16 2 17 3 18 4 19 5 20 6 21 7 22 8 23 9 24 10 25 11
REMARK SMILES IDX 26 12 27 13 28 14 29 15 30 16 14 17 13 18 12 19 11 20 10 21
REMARK SMILES IDX 9 22 8 23 7 24 6 25 5 26 4 27 3 28 2 29 1 30
REMARK H PARENT
REMARK Flexibility Score: inf
ROOT
ATOM      1  C   UNL     1      93.054  -3.745   7.882  1.00  0.00     0.000 C 
ENDROOT
BRANCH   1   2
ATOM      2  C   UNL     1      92.762  -2.428   7.146  1.00  0.00     0.000 C 
BRANCH   2   3
ATOM      3  C   UNL     1      91.327  -2.347   6.600  1.00  0.00     0.000 C 
BRANCH   3   4
ATOM      4  C   UNL     1      90.815  -3.736   6.195  1.00  0.00     0.000 C 
BRANCH   4   5
ATOM      5  C   UNL     1      89.414  -3.694   5.567  1.00  0.00     0.000 C 
BRANCH   5   6
ATOM      6  C   UNL     1      88.749  -2.316   5.699  1.00  0.00     0.000 C 
BRANCH   6   7
ATOM      7  C   UNL     1      87.409  -2.275   4.943  1.00  0.00     0.000 C 
BRANCH   7   8
ATOM      8  C   UNL     1      87.519  -2.744   3.477  1.00  0.00     0.000 C 
BRANCH   8   9
ATOM      9  C   UNL     1      86.255  -2.523   2.613  1.00  0.00     0.000 C 
BRANCH   9  10
ATOM     10  C   UNL     1      84.928  -2.534   3.401  1.00  0.00     0.000 C 
BRANCH  10  11
ATOM     11  C   UNL     1      83.937  -3.639   3.003  1.00  0.00     0.000 C 
BRANCH  11  12
ATOM     12  C   UNL     1      82.476  -3.149   2.955  1.00  0.00     0.006 C 
BRANCH  12  13
ATOM     13  C   UNL     1      81.746  -3.628   1.693  1.00  0.00     0.053 C 
BRANCH  13  14
ATOM     14  C   UNL     1      81.838  -2.633   0.574  1.00  0.00     0.041 C 
ATOM     15  O   UNL     1      81.374  -2.907  -0.566  1.00  0.00    -0.550 OA
ATOM     16  O   UNL     1      82.506  -1.431   0.770  1.00  0.00    -0.550 OA
ENDBRANCH  13  14
ENDBRANCH  12  13
ENDBRANCH  11  12
ENDBRANCH  10  11
ENDBRANCH   9  10
ENDBRANCH   8   9
ENDBRANCH   7   8
ENDBRANCH   6   7
ENDBRANCH   5   6
ENDBRANCH   4   5
ENDBRANCH   3   4
ENDBRANCH   2   3
ENDBRANCH   1   2
BRANCH   1  17
ATOM     17  C   UNL     1      93.377  -3.535   9.374  1.00  0.00     0.000 C 
BRANCH  17  18
ATOM     18  C   UNL     1      93.789  -4.838  10.095  1.00  0.00     0.000 C 
BRANCH  18  19
ATOM     19  C   UNL     1      95.265  -4.871  10.542  1.00  0.00     0.000 C 
BRANCH  19  20
ATOM     20  C   UNL     1      95.780  -3.576  11.200  1.00  0.00     0.000 C 
BRANCH  20  21
ATOM     21  C   UNL     1      96.619  -2.668  10.274  1.00  0.00     0.000 C 
BRANCH  21  22
ATOM     22  C   UNL     1      97.234  -3.381   9.051  1.00  0.00    -0.000 C 
BRANCH  22  23
ATOM     23  C   UNL     1      96.656  -2.949   7.687  1.00  0.00    -0.000 C 
BRANCH  23  24
ATOM     24  C   UNL     1      97.706  -2.400   6.703  1.00  0.00    -0.000 C 
BRANCH  24  25
ATOM     25  C   UNL     1      99.036  -3.182   6.685  1.00  0.00    -0.000 C 
BRANCH  25  26
ATOM     26  C   UNL     1      98.992  -4.533   5.939  1.00  0.00    -0.000 C 
BRANCH  26  27
ATOM     27  C   UNL     1      99.799  -5.670   6.599  1.00  0.00    -0.000 C 
BRANCH  27  28
ATOM     28  C   UNL     1      99.272  -7.064   6.228  1.00  0.00    -0.000 C 
BRANCH  28  29
ATOM     29  C   UNL     1      97.921  -6.970   5.503  1.00  0.00    -0.003 C 
ATOM     30  C   UNL     1      97.275  -8.347   5.374  1.00  0.00     0.004 C 
ENDBRANCH  28  29
ENDBRANCH  27  28
ENDBRANCH  26  27
ENDBRANCH  25  26
ENDBRANCH  24  25
ENDBRANCH  23  24
ENDBRANCH  22  23
ENDBRANCH  21  22
ENDBRANCH  20  21
ENDBRANCH  19  20
ENDBRANCH  18  19
ENDBRANCH  17  18
ENDBRANCH   1  17
TORSDOF 26
ENDMDL
MODEL 9
REMARK VINA RESULT:    -6.490      7.099     13.437
REMARK INTER + INTRA:         -19.444
REMARK INTER:                 -16.709
REMARK INTRA:                  -2.735
REMARK UNBOUND:                -3.088
REMARK SMILES CCCCCCCCCCCCCCCCCCCCCCCCCCCC(=O)[O-]
REMARK SMILES IDX 15 1 16 2 17 3 18 4 19 5 20 6 21 7 22 8 23 9 24 10 25 11
REMARK SMILES IDX 26 12 27 13 28 14 29 15 30 16 14 17 13 18 12 19 11 20 10 21
REMARK SMILES IDX 9 22 8 23 7 24 6 25 5 26 4 27 3 28 2 29 1 30
REMARK H PARENT
REMARK Flexibility Score: inf
ROOT
ATOM      1  C   UNL     1      87.696  -1.859   1.608  1.00  0.00     0.000 C 
ENDROOT
BRANCH   1   2
ATOM      2  C   UNL     1      86.604  -2.621   2.376  1.00  0.00     0.000 C 
BRANCH   2   3
ATOM      3  C   UNL     1      85.182  -2.259   1.918  1.00  0.00     0.000 C 
BRANCH   3   4
ATOM      4  C   UNL     1      84.182  -2.392   3.076  1.00  0.00     0.000 C 
BRANCH   4   5
ATOM      5  C   UNL     1      83.351  -3.681   2.999  1.00  0.00     0.000 C 
BRANCH   5   6
ATOM      6  C   UNL     1      81.884  -3.463   3.398  1.00  0.00     0.000 C 
BRANCH   6   7
ATOM      7  C   UNL     1      80.975  -3.422   2.157  1.00  0.00     0.000 C 
BRANCH   7   8
ATOM      8  C   UNL     1      81.665  -3.936   0.877  1.00  0.00     0.000 C 
BRANCH   8   9
ATOM      9  C   UNL     1      81.768  -2.912  -0.279  1.00  0.00     0.000 C 
BRANCH   9  10
ATOM     10  C   UNL     1      81.525  -1.446   0.138  1.00  0.00     0.000 C 
BRANCH  10  11
ATOM     11  C   UNL     1      82.545  -0.431  -0.400  1.00  0.00     0.000 C 
BRANCH  11  12
ATOM     12  C   UNL     1      83.179   0.432   0.709  1.00  0.00     0.006 C 
BRANCH  12  13
ATOM     13  C   UNL     1      82.238   0.620   1.906  1.00  0.00     0.053 C 
BRANCH  13  14
ATOM     14  C   UNL     1      81.576   1.966   1.900  1.00  0.00     0.041 C 
ATOM     15  O   UNL     1      80.847   2.316   0.932  1.00  0.00    -0.550 OA
ATOM     16  O   UNL     1      81.826   2.866   2.928  1.00  0.00    -0.550 OA
ENDBRANCH  13  14
ENDBRANCH  12  13
ENDBRANCH  11  12
ENDBRANCH  10  11
ENDBRANCH   9  10
ENDBRANCH   8   9
ENDBRANCH   7   8
ENDBRANCH   6   7
ENDBRANCH   5   6
ENDBRANCH   4   5
ENDBRANCH   3   4
ENDBRANCH   2   3
ENDBRANCH   1   2
BRANCH   1  17
ATOM     17  C   UNL     1      89.112  -2.397   1.896  1.00  0.00     0.000 C 
BRANCH  17  18
ATOM     18  C   UNL     1      89.894  -1.534   2.911  1.00  0.00     0.000 C 
BRANCH  18  19
ATOM     19  C   UNL     1      89.665  -1.931   4.384  1.00  0.00     0.000 C 
BRANCH  19  20
ATOM     20  C   UNL     1      89.370  -3.425   4.623  1.00  0.00     0.000 C 
BRANCH  20  21
ATOM     21  C   UNL     1      89.088  -3.802   6.093  1.00  0.00     0.000 C 
BRANCH  21  22
ATOM     22  C   UNL     1      90.119  -4.762   6.726  1.00  0.00    -0.000 C 
BRANCH  22  23
ATOM     23  C   UNL     1      91.594  -4.408   6.446  1.00  0.00    -0.000 C 
BRANCH  23  24
ATOM     24  C   UNL     1      92.166  -3.316   7.369  1.00  0.00    -0.000 C 
BRANCH  24  25
ATOM     25  C   UNL     1      93.508  -3.681   8.037  1.00  0.00    -0.000 C 
BRANCH  25  26
ATOM     26  C   UNL     1      93.390  -4.347   9.425  1.00  0.00    -0.000 C 
BRANCH  26  27
ATOM     27  C   UNL     1      94.239  -3.696  10.537  1.00  0.00    -0.000 C 
BRANCH  27  28
ATOM     28  C   UNL     1      95.705  -4.155  10.508  1.00  0.00    -0.000 C 
BRANCH  28  29
ATOM     29  C   UNL     1      96.652  -2.969  10.266  1.00  0.00    -0.003 C 
ATOM     30  C   UNL     1      97.136  -2.945   8.819  1.00  0.00     0.004 C 
ENDBRANCH  28  29
ENDBRANCH  27  28
ENDBRANCH  26  27
ENDBRANCH  25  26
ENDBRANCH  24  25
ENDBRANCH  23  24
ENDBRANCH  22  23
ENDBRANCH  21  22
ENDBRANCH  20  21
ENDBRANCH  19  20
ENDBRANCH  18  19
ENDBRANCH  17  18
ENDBRANCH   1  17
TORSDOF 26
ENDMDL
