MODEL 1
REMARK VINA RESULT:    -9.756      0.000      0.000
REMARK INTER + INTRA:         -11.898
REMARK INTER:                 -11.182
REMARK INTRA:                  -0.715
REMARK UNBOUND:                -0.715
REMARK SMILES C=C(C)[C@H]1CC[C@]2(C(=O)[O-])CC[C@]3(C)[C@H](CC[C@@H]4[C@]5(C)CC[C@@H](O)C(C)(C)[C@@H]5CC[C@@]43C)[C@H]12
REMARK SMILES IDX 7 1 6 2 33 3 11 4 5 5 15 6 4 7 12 8 16 9 13 10 17 11 31 12
REMARK SMILES IDX 14 13 18 14 30 15 32 16 19 17 29 18 21 19 20 20 28 21 22 22
REMARK SMILES IDX 25 23 23 24 26 25 27 26 8 27 9 28 10 29 2 30 3 31 1 32 24 33
REMARK H PARENT 24 34
REMARK Flexibility Score: inf
ROOT
ATOM      1  C   UNL     1      76.761  62.519 104.427  1.00  0.00     0.014 C 
ATOM      2  C   UNL     1      77.535  61.275 103.957  1.00  0.00     0.014 C 
ATOM      3  C   UNL     1      77.402  63.676 103.606  1.00  0.00     0.012 C 
ATOM      4  C   UNL     1      75.251  62.329 104.127  1.00  0.00     0.014 C 
ATOM      5  C   UNL     1      77.905  61.524 102.500  1.00  0.00     0.009 C 
ATOM      6  C   UNL     1      76.480  64.931 103.405  1.00  0.00     0.000 C 
ATOM      7  C   UNL     1      78.041  63.043 102.336  1.00  0.00     0.018 C 
ATOM      8  C   UNL     1      74.468  63.649 104.163  1.00  0.00     0.008 C 
ATOM      9  C   UNL     1      77.080  65.944 102.438  1.00  0.00     0.005 C 
ATOM     10  C   UNL     1      74.960  64.692 103.103  1.00  0.00    -0.024 C 
ATOM     11  C   UNL     1      76.389  67.284 102.610  1.00  0.00     0.005 C 
ATOM     12  C   UNL     1      74.128  66.098 103.189  1.00  0.00    -0.024 C 
ATOM     13  C   UNL     1      74.772  64.066 101.677  1.00  0.00     0.012 C 
ATOM     14  C   UNL     1      74.853  67.268 102.366  1.00  0.00     0.002 C 
ATOM     15  C   UNL     1      73.974  66.599 104.661  1.00  0.00     0.008 C 
ATOM     16  C   UNL     1      72.691  65.823 102.616  1.00  0.00     0.012 C 
ATOM     17  C   UNL     1      74.212  68.742 102.516  1.00  0.00    -0.026 C 
ATOM     18  C   UNL     1      73.248  67.948 104.830  1.00  0.00     0.005 C 
ATOM     19  C   UNL     1      75.112  69.846 101.835  1.00  0.00     0.010 C 
ATOM     20  C   UNL     1      72.898  68.786 101.658  1.00  0.00     0.012 C 
ATOM     21  C   UNL     1      73.826  69.138 104.017  1.00  0.00     0.003 C 
ATOM     22  C   UNL     1      76.124  70.545 102.746  1.00  0.00     0.033 C 
ATOM     23  C   UNL     1      74.764  70.117 104.866  1.00  0.00    -0.006 C 
ATOM     24  C   UNL     1      75.428  71.185 103.949  1.00  0.00     0.120 C 
ATOM     25  C   UNL     1      73.893  70.887 105.911  1.00  0.00     0.014 C 
ATOM     26  C   UNL     1      75.864  69.405 105.705  1.00  0.00     0.014 C 
ENDROOT
BRANCH   1  27
ATOM     27  C   UNL     1      76.941  62.701 105.928  1.00  0.00     0.048 C 
ATOM     28  O   UNL     1      77.801  63.499 106.387  1.00  0.00    -0.550 OA
ATOM     29  O   UNL     1      76.092  62.044 106.813  1.00  0.00    -0.550 OA
ENDBRANCH   1  27
BRANCH   7  30
ATOM     30  C   UNL     1      79.496  63.467 102.125  1.00  0.00    -0.077 C 
ATOM     31  C   UNL     1      79.982  63.862 100.753  1.00  0.00     0.039 C 
ATOM     32  C   UNL     1      80.375  63.498 103.143  1.00  0.00     0.008 C 
ENDBRANCH   7  30
BRANCH  24  33
ATOM     33  O   UNL     1      74.471  72.114 103.499  1.00  0.00    -0.393 OA
ATOM     34  H   UNL     1      73.585  71.800 103.820  1.00  0.00     0.210 HD
ENDBRANCH  24  33
TORSDOF 3
ENDMDL
MODEL 2
REMARK VINA RESULT:    -9.410      1.352      1.762
REMARK INTER + INTRA:         -11.500
REMARK INTER:                 -10.981
REMARK INTRA:                  -0.519
REMARK UNBOUND:                -0.715
REMARK SMILES C=C(C)[C@H]1CC[C@]2(C(=O)[O-])CC[C@]3(C)[C@H](CC[C@@H]4[C@]5(C)CC[C@@H](O)C(C)(C)[C@@H]5CC[C@@]43C)[C@H]12
REMARK SMILES IDX 7 1 6 2 33 3 11 4 5 5 15 6 4 7 12 8 16 9 13 10 17 11 31 12
REMARK SMILES IDX 14 13 18 14 30 15 32 16 19 17 29 18 21 19 20 20 28 21 22 22
REMARK SMILES IDX 25 23 23 24 26 25 27 26 8 27 9 28 10 29 2 30 3 31 1 32 24 33
REMARK H PARENT 24 34
REMARK Flexibility Score: inf
ROOT
ATOM      1  C   UNL     1      77.537  62.557 106.497  1.00  0.00     0.014 C 
ATOM      2  C   UNL     1      78.379  61.273 106.389  1.00  0.00     0.014 C 
ATOM      3  C   UNL     1      78.052  63.429 105.315  1.00  0.00     0.012 C 
ATOM      4  C   UNL     1      76.033  62.198 106.374  1.00  0.00     0.014 C 
ATOM      5  C   UNL     1      78.662  61.070 104.906  1.00  0.00     0.009 C 
ATOM      6  C   UNL     1      77.031  64.502 104.795  1.00  0.00     0.000 C 
ATOM      7  C   UNL     1      78.677  62.464 104.266  1.00  0.00     0.018 C 
ATOM      8  C   UNL     1      75.156  63.416 106.049  1.00  0.00     0.008 C 
ATOM      9  C   UNL     1      77.509  65.190 103.521  1.00  0.00     0.005 C 
ATOM     10  C   UNL     1      75.521  64.096 104.685  1.00  0.00    -0.024 C 
ATOM     11  C   UNL     1      76.729  66.474 103.312  1.00  0.00     0.005 C 
ATOM     12  C   UNL     1      74.591  65.408 104.383  1.00  0.00    -0.024 C 
ATOM     13  C   UNL     1      75.313  63.041 103.542  1.00  0.00     0.012 C 
ATOM     14  C   UNL     1      75.189  66.296 103.189  1.00  0.00     0.002 C 
ATOM     15  C   UNL     1      74.469  66.339 105.632  1.00  0.00     0.008 C 
ATOM     16  C   UNL     1      73.154  64.885 104.023  1.00  0.00     0.012 C 
ATOM     17  C   UNL     1      74.448  67.703 102.914  1.00  0.00    -0.026 C 
ATOM     18  C   UNL     1      73.653  67.630 105.419  1.00  0.00     0.005 C 
ATOM     19  C   UNL     1      75.230  68.584 101.863  1.00  0.00     0.010 C 
ATOM     20  C   UNL     1      73.095  67.401 102.175  1.00  0.00     0.012 C 
ATOM     21  C   UNL     1      74.103  68.531 104.238  1.00  0.00     0.003 C 
ATOM     22  C   UNL     1      76.229  69.590 102.439  1.00  0.00     0.033 C 
ATOM     23  C   UNL     1      75.004  69.780 104.674  1.00  0.00    -0.006 C 
ATOM     24  C   UNL     1      75.544  70.538 103.426  1.00  0.00     0.120 C 
ATOM     25  C   UNL     1      74.128  70.791 105.482  1.00  0.00     0.014 C 
ATOM     26  C   UNL     1      76.191  69.432 105.617  1.00  0.00     0.014 C 
ENDROOT
BRANCH   1  27
ATOM     27  C   UNL     1      77.773  63.214 107.851  1.00  0.00     0.048 C 
ATOM     28  O   UNL     1      77.167  62.814 108.881  1.00  0.00    -0.550 OA
ATOM     29  O   UNL     1      78.730  64.215 107.979  1.00  0.00    -0.550 OA
ENDBRANCH   1  27
BRANCH   7  30
ATOM     30  C   UNL     1      80.085  62.879 103.836  1.00  0.00    -0.077 C 
ATOM     31  C   UNL     1      80.308  63.539 102.498  1.00  0.00     0.039 C 
ATOM     32  C   UNL     1      81.153  62.672 104.627  1.00  0.00     0.008 C 
ENDBRANCH   7  30
BRANCH  24  33
ATOM     33  O   UNL     1      74.500  71.222 102.774  1.00  0.00    -0.393 OA
ATOM     34  H   UNL     1      74.878  72.076 102.434  1.00  0.00     0.210 HD
ENDBRANCH  24  33
TORSDOF 3
ENDMDL
MODEL 3
REMARK VINA RESULT:    -9.374      1.877      3.476
REMARK INTER + INTRA:         -11.459
REMARK INTER:                 -10.793
REMARK INTRA:                  -0.666
REMARK UNBOUND:                -0.715
REMARK SMILES C=C(C)[C@H]1CC[C@]2(C(=O)[O-])CC[C@]3(C)[C@H](CC[C@@H]4[C@]5(C)CC[C@@H](O)C(C)(C)[C@@H]5CC[C@@]43C)[C@H]12
REMARK SMILES IDX 7 1 6 2 33 3 11 4 5 5 15 6 4 7 12 8 16 9 13 10 17 11 31 12
REMARK SMILES IDX 14 13 18 14 30 15 32 16 19 17 29 18 21 19 20 20 28 21 22 22
REMARK SMILES IDX 25 23 23 24 26 25 27 26 8 27 9 28 10 29 2 30 3 31 1 32 24 33
REMARK H PARENT 24 34
REMARK Flexibility Score: inf
ROOT
ATOM      1  C   UNL     1      75.909  62.286 106.066  1.00  0.00     0.014 C 
ATOM      2  C   UNL     1      76.726  61.213 106.808  1.00  0.00     0.014 C 
ATOM      3  C   UNL     1      76.487  63.623 106.613  1.00  0.00     0.012 C 
ATOM      4  C   UNL     1      76.112  62.119 104.537  1.00  0.00     0.014 C 
ATOM      5  C   UNL     1      78.109  61.809 107.038  1.00  0.00     0.009 C 
ATOM      6  C   UNL     1      76.304  64.858 105.660  1.00  0.00     0.000 C 
ATOM      7  C   UNL     1      77.922  63.328 107.139  1.00  0.00     0.018 C 
ATOM      8  C   UNL     1      75.697  63.367 103.744  1.00  0.00     0.008 C 
ATOM      9  C   UNL     1      77.054  66.090 106.155  1.00  0.00     0.005 C 
ATOM     10  C   UNL     1      76.520  64.645 104.122  1.00  0.00    -0.024 C 
ATOM     11  C   UNL     1      76.511  67.328 105.466  1.00  0.00     0.005 C 
ATOM     12  C   UNL     1      76.032  65.963 103.284  1.00  0.00    -0.024 C 
ATOM     13  C   UNL     1      78.032  64.363 103.809  1.00  0.00     0.012 C 
ATOM     14  C   UNL     1      76.616  67.316 103.915  1.00  0.00     0.002 C 
ATOM     15  C   UNL     1      74.476  66.100 103.261  1.00  0.00     0.008 C 
ATOM     16  C   UNL     1      76.526  65.780 101.803  1.00  0.00     0.012 C 
ATOM     17  C   UNL     1      76.067  68.692 103.272  1.00  0.00    -0.026 C 
ATOM     18  C   UNL     1      73.931  67.347 102.538  1.00  0.00     0.005 C 
ATOM     19  C   UNL     1      76.545  69.954 104.089  1.00  0.00     0.010 C 
ATOM     20  C   UNL     1      76.772  68.891 101.882  1.00  0.00     0.012 C 
ATOM     21  C   UNL     1      74.488  68.713 103.022  1.00  0.00     0.003 C 
ATOM     22  C   UNL     1      75.588  70.455 105.174  1.00  0.00     0.033 C 
ATOM     23  C   UNL     1      73.517  69.498 104.022  1.00  0.00    -0.006 C 
ATOM     24  C   UNL     1      74.212  70.772 104.585  1.00  0.00     0.120 C 
ATOM     25  C   UNL     1      72.248  69.972 103.244  1.00  0.00     0.014 C 
ATOM     26  C   UNL     1      72.970  68.647 105.205  1.00  0.00     0.014 C 
ENDROOT
BRANCH   1  27
ATOM     27  C   UNL     1      74.430  62.118 106.383  1.00  0.00     0.048 C 
ATOM     28  O   UNL     1      73.863  62.845 107.242  1.00  0.00    -0.550 OA
ATOM     29  O   UNL     1      73.664  61.209 105.659  1.00  0.00    -0.550 OA
ENDBRANCH   1  27
BRANCH   7  30
ATOM     30  C   UNL     1      78.153  63.838 108.563  1.00  0.00    -0.077 C 
ATOM     31  C   UNL     1      79.221  64.868 108.837  1.00  0.00     0.039 C 
ATOM     32  C   UNL     1      77.423  63.390 109.599  1.00  0.00     0.008 C 
ENDBRANCH   7  30
BRANCH  24  33
ATOM     33  O   UNL     1      74.343  71.748 103.578  1.00  0.00    -0.393 OA
ATOM     34  H   UNL     1      74.429  71.266 102.714  1.00  0.00     0.210 HD
ENDBRANCH  24  33
TORSDOF 3
ENDMDL
MODEL 4
REMARK VINA RESULT:    -8.895      3.074      5.266
REMARK INTER + INTRA:         -10.910
REMARK INTER:                 -10.278
REMARK INTRA:                  -0.631
REMARK UNBOUND:                -0.715
REMARK SMILES C=C(C)[C@H]1CC[C@]2(C(=O)[O-])CC[C@]3(C)[C@H](CC[C@@H]4[C@]5(C)CC[C@@H](O)C(C)(C)[C@@H]5CC[C@@]43C)[C@H]12
REMARK SMILES IDX 7 1 6 2 33 3 11 4 5 5 15 6 4 7 12 8 16 9 13 10 17 11 31 12
REMARK SMILES IDX 14 13 18 14 30 15 32 16 19 17 29 18 21 19 20 20 28 21 22 22
REMARK SMILES IDX 25 23 23 24 26 25 27 26 8 27 9 28 10 29 2 30 3 31 1 32 24 33
REMARK H PARENT 24 34
REMARK Flexibility Score: inf
ROOT
ATOM      1  C   UNL     1      77.124  63.866 101.750  1.00  0.00     0.014 C 
ATOM      2  C   UNL     1      78.488  63.679 101.062  1.00  0.00     0.014 C 
ATOM      3  C   UNL     1      77.433  63.591 103.250  1.00  0.00     0.012 C 
ATOM      4  C   UNL     1      76.611  65.307 101.491  1.00  0.00     0.014 C 
ATOM      5  C   UNL     1      79.541  64.116 102.072  1.00  0.00     0.009 C 
ATOM      6  C   UNL     1      76.436  64.260 104.262  1.00  0.00     0.000 C 
ATOM      7  C   UNL     1      78.954  63.848 103.463  1.00  0.00     0.018 C 
ATOM      8  C   UNL     1      75.496  65.723 102.461  1.00  0.00     0.008 C 
ATOM      9  C   UNL     1      76.896  64.121 105.709  1.00  0.00     0.005 C 
ATOM     10  C   UNL     1      75.945  65.718 103.962  1.00  0.00    -0.024 C 
ATOM     11  C   UNL     1      75.729  64.384 106.641  1.00  0.00     0.005 C 
ATOM     12  C   UNL     1      74.726  66.134 104.971  1.00  0.00    -0.024 C 
ATOM     13  C   UNL     1      77.122  66.743 104.123  1.00  0.00     0.012 C 
ATOM     14  C   UNL     1      75.076  65.789 106.498  1.00  0.00     0.002 C 
ATOM     15  C   UNL     1      73.397  65.389 104.624  1.00  0.00     0.008 C 
ATOM     16  C   UNL     1      74.480  67.676 104.791  1.00  0.00     0.012 C 
ATOM     17  C   UNL     1      73.882  66.001 107.564  1.00  0.00    -0.026 C 
ATOM     18  C   UNL     1      72.209  65.681 105.561  1.00  0.00     0.005 C 
ATOM     19  C   UNL     1      74.263  65.446 108.991  1.00  0.00     0.010 C 
ATOM     20  C   UNL     1      73.732  67.543 107.819  1.00  0.00     0.012 C 
ATOM     21  C   UNL     1      72.463  65.449 107.075  1.00  0.00     0.003 C 
ATOM     22  C   UNL     1      73.839  64.006 109.289  1.00  0.00     0.033 C 
ATOM     23  C   UNL     1      71.897  64.058 107.628  1.00  0.00    -0.006 C 
ATOM     24  C   UNL     1      72.330  63.831 109.106  1.00  0.00     0.120 C 
ATOM     25  C   UNL     1      70.335  64.092 107.607  1.00  0.00     0.014 C 
ATOM     26  C   UNL     1      72.285  62.812 106.782  1.00  0.00     0.014 C 
ENDROOT
BRANCH   1  27
ATOM     27  C   UNL     1      76.117  62.880 101.173  1.00  0.00     0.048 C 
ATOM     28  O   UNL     1      75.931  62.794  99.929  1.00  0.00    -0.550 OA
ATOM     29  O   UNL     1      75.450  61.997 102.016  1.00  0.00    -0.550 OA
ENDBRANCH   1  27
BRANCH   7  30
ATOM     30  C   UNL     1      79.662  62.689 104.169  1.00  0.00    -0.077 C 
ATOM     31  C   UNL     1      78.899  61.441 104.534  1.00  0.00     0.039 C 
ATOM     32  C   UNL     1      80.969  62.748 104.480  1.00  0.00     0.008 C 
ENDBRANCH   7  30
BRANCH  24  33
ATOM     33  O   UNL     1      71.647  64.715 109.962  1.00  0.00    -0.393 OA
ATOM     34  H   UNL     1      70.916  64.199 110.393  1.00  0.00     0.210 HD
ENDBRANCH  24  33
TORSDOF 3
ENDMDL
MODEL 5
REMARK VINA RESULT:    -8.821      3.703      7.937
REMARK INTER + INTRA:         -10.826
REMARK INTER:                 -10.064
REMARK INTRA:                  -0.762
REMARK UNBOUND:                -0.715
REMARK SMILES C=C(C)[C@H]1CC[C@]2(C(=O)[O-])CC[C@]3(C)[C@H](CC[C@@H]4[C@]5(C)CC[C@@H](O)C(C)(C)[C@@H]5CC[C@@]43C)[C@H]12
REMARK SMILES IDX 7 1 6 2 33 3 11 4 5 5 15 6 4 7 12 8 16 9 13 10 17 11 31 12
REMARK SMILES IDX 14 13 18 14 30 15 32 16 19 17 29 18 21 19 20 20 28 21 22 22
REMARK SMILES IDX 25 23 23 24 26 25 27 26 8 27 9 28 10 29 2 30 3 31 1 32 24 33
REMARK H PARENT 24 34
REMARK Flexibility Score: inf
ROOT
ATOM      1  C   UNL     1      71.239  65.006 106.556  1.00  0.00     0.014 C 
ATOM      2  C   UNL     1      70.146  65.443 107.546  1.00  0.00     0.014 C 
ATOM      3  C   UNL     1      72.527  64.975 107.428  1.00  0.00     0.012 C 
ATOM      4  C   UNL     1      70.873  63.618 105.966  1.00  0.00     0.014 C 
ATOM      5  C   UNL     1      70.548  64.883 108.904  1.00  0.00     0.009 C 
ATOM      6  C   UNL     1      73.661  64.027 106.896  1.00  0.00     0.000 C 
ATOM      7  C   UNL     1      72.080  64.799 108.908  1.00  0.00     0.018 C 
ATOM      8  C   UNL     1      72.072  62.917 105.312  1.00  0.00     0.008 C 
ATOM      9  C   UNL     1      74.813  63.888 107.884  1.00  0.00     0.005 C 
ATOM     10  C   UNL     1      73.246  62.634 106.310  1.00  0.00    -0.024 C 
ATOM     11  C   UNL     1      76.033  63.339 107.169  1.00  0.00     0.005 C 
ATOM     12  C   UNL     1      74.520  61.916 105.575  1.00  0.00    -0.024 C 
ATOM     13  C   UNL     1      72.707  61.695 107.445  1.00  0.00     0.012 C 
ATOM     14  C   UNL     1      75.832  61.951 106.496  1.00  0.00     0.002 C 
ATOM     15  C   UNL     1      74.886  62.611 104.225  1.00  0.00     0.008 C 
ATOM     16  C   UNL     1      74.099  60.435 105.261  1.00  0.00     0.012 C 
ATOM     17  C   UNL     1      77.194  61.421 105.809  1.00  0.00    -0.026 C 
ATOM     18  C   UNL     1      76.112  62.032 103.492  1.00  0.00     0.005 C 
ATOM     19  C   UNL     1      78.454  61.684 106.722  1.00  0.00     0.010 C 
ATOM     20  C   UNL     1      77.127  59.853 105.752  1.00  0.00     0.012 C 
ATOM     21  C   UNL     1      77.424  61.952 104.318  1.00  0.00     0.003 C 
ATOM     22  C   UNL     1      79.212  62.989 106.464  1.00  0.00     0.033 C 
ATOM     23  C   UNL     1      78.453  63.141 104.028  1.00  0.00    -0.006 C 
ATOM     24  C   UNL     1      79.664  63.079 105.005  1.00  0.00     0.120 C 
ATOM     25  C   UNL     1      79.022  62.990 102.580  1.00  0.00     0.014 C 
ATOM     26  C   UNL     1      77.833  64.568 104.070  1.00  0.00     0.014 C 
ENDROOT
BRANCH   1  27
ATOM     27  C   UNL     1      71.332  66.011 105.415  1.00  0.00     0.048 C 
ATOM     28  O   UNL     1      70.454  66.051 104.512  1.00  0.00    -0.550 OA
ATOM     29  O   UNL     1      72.350  66.959 105.407  1.00  0.00    -0.550 OA
ENDBRANCH   1  27
BRANCH   7  30
ATOM     30  C   UNL     1      72.706  65.831 109.849  1.00  0.00    -0.077 C 
ATOM     31  C   UNL     1      73.262  67.121 109.300  1.00  0.00     0.039 C 
ATOM     32  C   UNL     1      72.780  65.621 111.175  1.00  0.00     0.008 C 
ENDBRANCH   7  30
BRANCH  24  33
ATOM     33  O   UNL     1      80.489  61.980 104.699  1.00  0.00    -0.393 OA
ATOM     34  H   UNL     1      81.249  61.998 105.337  1.00  0.00     0.210 HD
ENDBRANCH  24  33
TORSDOF 3
ENDMDL
MODEL 6
REMARK VINA RESULT:    -8.751      2.603      3.990
REMARK INTER + INTRA:         -10.745
REMARK INTER:                 -10.083
REMARK INTRA:                  -0.662
REMARK UNBOUND:                -0.715
REMARK SMILES C=C(C)[C@H]1CC[C@]2(C(=O)[O-])CC[C@]3(C)[C@H](CC[C@@H]4[C@]5(C)CC[C@@H](O)C(C)(C)[C@@H]5CC[C@@]43C)[C@H]12
REMARK SMILES IDX 7 1 6 2 33 3 11 4 5 5 15 6 4 7 12 8 16 9 13 10 17 11 31 12
REMARK SMILES IDX 14 13 18 14 30 15 32 16 19 17 29 18 21 19 20 20 28 21 22 22
REMARK SMILES IDX 25 23 23 24 26 25 27 26 8 27 9 28 10 29 2 30 3 31 1 32 24 33
REMARK H PARENT 24 34
REMARK Flexibility Score: inf
ROOT
ATOM      1  C   UNL     1      76.662  63.438 101.834  1.00  0.00     0.014 C 
ATOM      2  C   UNL     1      77.811  62.728 101.097  1.00  0.00     0.014 C 
ATOM      3  C   UNL     1      77.275  63.774 103.224  1.00  0.00     0.012 C 
ATOM      4  C   UNL     1      76.243  64.701 101.036  1.00  0.00     0.014 C 
ATOM      5  C   UNL     1      79.102  63.349 101.615  1.00  0.00     0.009 C 
ATOM      6  C   UNL     1      76.601  64.982 103.967  1.00  0.00     0.000 C 
ATOM      7  C   UNL     1      78.822  63.811 103.051  1.00  0.00     0.018 C 
ATOM      8  C   UNL     1      75.420  65.689 101.876  1.00  0.00     0.008 C 
ATOM      9  C   UNL     1      77.361  65.387 105.225  1.00  0.00     0.005 C 
ATOM     10  C   UNL     1      76.195  66.238 103.123  1.00  0.00    -0.024 C 
ATOM     11  C   UNL     1      76.465  66.233 106.111  1.00  0.00     0.005 C 
ATOM     12  C   UNL     1      75.281  67.261 104.014  1.00  0.00    -0.024 C 
ATOM     13  C   UNL     1      77.470  66.996 102.610  1.00  0.00     0.012 C 
ATOM     14  C   UNL     1      75.933  67.538 105.453  1.00  0.00     0.002 C 
ATOM     15  C   UNL     1      73.844  66.700 104.261  1.00  0.00     0.008 C 
ATOM     16  C   UNL     1      75.147  68.596 103.197  1.00  0.00     0.012 C 
ATOM     17  C   UNL     1      75.037  68.400 106.482  1.00  0.00    -0.026 C 
ATOM     18  C   UNL     1      72.931  67.577 105.140  1.00  0.00     0.005 C 
ATOM     19  C   UNL     1      75.677  68.443 107.924  1.00  0.00     0.010 C 
ATOM     20  C   UNL     1      75.094  69.903 106.031  1.00  0.00     0.012 C 
ATOM     21  C   UNL     1      73.498  67.966 106.532  1.00  0.00     0.003 C 
ATOM     22  C   UNL     1      75.196  67.372 108.906  1.00  0.00     0.033 C 
ATOM     23  C   UNL     1      72.943  67.074 107.738  1.00  0.00    -0.006 C 
ATOM     24  C   UNL     1      73.676  67.419 109.068  1.00  0.00     0.120 C 
ATOM     25  C   UNL     1      71.427  67.385 107.955  1.00  0.00     0.014 C 
ATOM     26  C   UNL     1      73.009  65.538 107.499  1.00  0.00     0.014 C 
ENDROOT
BRANCH   1  27
ATOM     27  C   UNL     1      75.462  62.506 101.936  1.00  0.00     0.048 C 
ATOM     28  O   UNL     1      74.860  62.106 100.904  1.00  0.00    -0.550 OA
ATOM     29  O   UNL     1      75.069  62.016 103.177  1.00  0.00    -0.550 OA
ENDBRANCH   1  27
BRANCH   7  30
ATOM     30  C   UNL     1      79.559  62.951 104.081  1.00  0.00    -0.077 C 
ATOM     31  C   UNL     1      78.783  62.141 105.090  1.00  0.00     0.039 C 
ATOM     32  C   UNL     1      80.902  62.893 104.117  1.00  0.00     0.008 C 
ENDBRANCH   7  30
BRANCH  24  33
ATOM     33  O   UNL     1      73.291  68.693 109.527  1.00  0.00    -0.393 OA
ATOM     34  H   UNL     1      72.405  68.591 109.965  1.00  0.00     0.210 HD
ENDBRANCH  24  33
TORSDOF 3
ENDMDL
MODEL 7
REMARK VINA RESULT:    -8.720      1.756      7.539
REMARK INTER + INTRA:         -10.710
REMARK INTER:                  -9.959
REMARK INTRA:                  -0.751
REMARK UNBOUND:                -0.715
REMARK SMILES C=C(C)[C@H]1CC[C@]2(C(=O)[O-])CC[C@]3(C)[C@H](CC[C@@H]4[C@]5(C)CC[C@@H](O)C(C)(C)[C@@H]5CC[C@@]43C)[C@H]12
REMARK SMILES IDX 7 1 6 2 33 3 11 4 5 5 15 6 4 7 12 8 16 9 13 10 17 11 31 12
REMARK SMILES IDX 14 13 18 14 30 15 32 16 19 17 29 18 21 19 20 20 28 21 22 22
REMARK SMILES IDX 25 23 23 24 26 25 27 26 8 27 9 28 10 29 2 30 3 31 1 32 24 33
REMARK H PARENT 24 34
REMARK Flexibility Score: inf
ROOT
ATOM      1  C   UNL     1      74.579  69.001 103.743  1.00  0.00     0.014 C 
ATOM      2  C   UNL     1      73.341  69.909 103.652  1.00  0.00     0.014 C 
ATOM      3  C   UNL     1      74.066  67.766 104.539  1.00  0.00     0.012 C 
ATOM      4  C   UNL     1      75.060  68.642 102.312  1.00  0.00     0.014 C 
ATOM      5  C   UNL     1      72.132  68.984 103.598  1.00  0.00     0.009 C 
ATOM      6  C   UNL     1      74.873  66.441 104.292  1.00  0.00     0.000 C 
ATOM      7  C   UNL     1      72.521  67.710 104.359  1.00  0.00     0.018 C 
ATOM      8  C   UNL     1      76.000  67.429 102.288  1.00  0.00     0.008 C 
ATOM      9  C   UNL     1      74.212  65.230 104.941  1.00  0.00     0.005 C 
ATOM     10  C   UNL     1      75.337  66.117 102.831  1.00  0.00    -0.024 C 
ATOM     11  C   UNL     1      75.217  64.098 105.046  1.00  0.00     0.005 C 
ATOM     12  C   UNL     1      76.374  64.853 102.822  1.00  0.00    -0.024 C 
ATOM     13  C   UNL     1      74.103  65.781 101.920  1.00  0.00     0.012 C 
ATOM     14  C   UNL     1      75.820  63.625 103.693  1.00  0.00     0.002 C 
ATOM     15  C   UNL     1      77.771  65.237 103.407  1.00  0.00     0.008 C 
ATOM     16  C   UNL     1      76.575  64.427 101.323  1.00  0.00     0.012 C 
ATOM     17  C   UNL     1      76.833  62.385 103.894  1.00  0.00    -0.026 C 
ATOM     18  C   UNL     1      78.795  64.087 103.487  1.00  0.00     0.005 C 
ATOM     19  C   UNL     1      76.272  61.329 104.924  1.00  0.00     0.010 C 
ATOM     20  C   UNL     1      76.876  61.572 102.552  1.00  0.00     0.012 C 
ATOM     21  C   UNL     1      78.332  62.816 104.249  1.00  0.00     0.003 C 
ATOM     22  C   UNL     1      76.712  61.508 106.379  1.00  0.00     0.033 C 
ATOM     23  C   UNL     1      78.873  62.720 105.752  1.00  0.00    -0.006 C 
ATOM     24  C   UNL     1      78.238  61.508 106.494  1.00  0.00     0.120 C 
ATOM     25  C   UNL     1      80.418  62.488 105.730  1.00  0.00     0.014 C 
ATOM     26  C   UNL     1      78.669  64.006 106.603  1.00  0.00     0.014 C 
ENDROOT
BRANCH   1  27
ATOM     27  C   UNL     1      75.703  69.732 104.465  1.00  0.00     0.048 C 
ATOM     28  O   UNL     1      75.881  69.588 105.704  1.00  0.00    -0.550 OA
ATOM     29  O   UNL     1      76.604  70.507 103.741  1.00  0.00    -0.550 OA
ENDBRANCH   1  27
BRANCH   7  30
ATOM     30  C   UNL     1      71.769  67.585 105.686  1.00  0.00    -0.077 C 
ATOM     31  C   UNL     1      72.430  68.001 106.976  1.00  0.00     0.039 C 
ATOM     32  C   UNL     1      70.513  67.108 105.741  1.00  0.00     0.008 C 
ENDBRANCH   7  30
BRANCH  24  33
ATOM     33  O   UNL     1      78.748  60.297 105.987  1.00  0.00    -0.393 OA
ATOM     34  H   UNL     1      79.598  60.114 106.466  1.00  0.00     0.210 HD
ENDBRANCH  24  33
TORSDOF 3
ENDMDL
MODEL 8
REMARK VINA RESULT:    -8.646      3.014      4.819
REMARK INTER + INTRA:         -10.624
REMARK INTER:                  -9.979
REMARK INTRA:                  -0.646
REMARK UNBOUND:                -0.715
REMARK SMILES C=C(C)[C@H]1CC[C@]2(C(=O)[O-])CC[C@]3(C)[C@H](CC[C@@H]4[C@]5(C)CC[C@@H](O)C(C)(C)[C@@H]5CC[C@@]43C)[C@H]12
REMARK SMILES IDX 7 1 6 2 33 3 11 4 5 5 15 6 4 7 12 8 16 9 13 10 17 11 31 12
REMARK SMILES IDX 14 13 18 14 30 15 32 16 19 17 29 18 21 19 20 20 28 21 22 22
REMARK SMILES IDX 25 23 23 24 26 25 27 26 8 27 9 28 10 29 2 30 3 31 1 32 24 33
REMARK H PARENT 24 34
REMARK Flexibility Score: inf
ROOT
ATOM      1  C   UNL     1      75.003  63.622 101.534  1.00  0.00     0.014 C 
ATOM      2  C   UNL     1      75.686  63.366 100.178  1.00  0.00     0.014 C 
ATOM      3  C   UNL     1      76.199  63.842 102.506  1.00  0.00     0.012 C 
ATOM      4  C   UNL     1      74.081  64.865 101.418  1.00  0.00     0.014 C 
ATOM      5  C   UNL     1      76.971  64.183 100.184  1.00  0.00     0.009 C 
ATOM      6  C   UNL     1      75.861  64.689 103.784  1.00  0.00     0.000 C 
ATOM      7  C   UNL     1      77.416  64.292 101.647  1.00  0.00     0.018 C 
ATOM      8  C   UNL     1      73.695  65.447 102.785  1.00  0.00     0.008 C 
ATOM      9  C   UNL     1      77.104  65.035 104.597  1.00  0.00     0.005 C 
ATOM     10  C   UNL     1      74.926  65.936 103.621  1.00  0.00    -0.024 C 
ATOM     11  C   UNL     1      76.696  65.457 105.996  1.00  0.00     0.005 C 
ATOM     12  C   UNL     1      74.484  66.521 105.084  1.00  0.00    -0.024 C 
ATOM     13  C   UNL     1      75.650  67.067 102.809  1.00  0.00     0.012 C 
ATOM     14  C   UNL     1      75.744  66.685 106.062  1.00  0.00     0.002 C 
ATOM     15  C   UNL     1      73.462  65.585 105.804  1.00  0.00     0.008 C 
ATOM     16  C   UNL     1      73.786  67.907 104.838  1.00  0.00     0.012 C 
ATOM     17  C   UNL     1      75.409  67.096 107.587  1.00  0.00    -0.026 C 
ATOM     18  C   UNL     1      73.033  66.033 107.216  1.00  0.00     0.005 C 
ATOM     19  C   UNL     1      76.689  67.034 108.507  1.00  0.00     0.010 C 
ATOM     20  C   UNL     1      75.040  68.622 107.605  1.00  0.00     0.012 C 
ATOM     21  C   UNL     1      74.183  66.292 108.226  1.00  0.00     0.003 C 
ATOM     22  C   UNL     1      76.920  65.717 109.252  1.00  0.00     0.033 C 
ATOM     23  C   UNL     1      74.444  65.086 109.244  1.00  0.00    -0.006 C 
ATOM     24  C   UNL     1      75.708  65.356 110.112  1.00  0.00     0.120 C 
ATOM     25  C   UNL     1      73.231  64.966 110.223  1.00  0.00     0.014 C 
ATOM     26  C   UNL     1      74.566  63.685 108.580  1.00  0.00     0.014 C 
ENDROOT
BRANCH   1  27
ATOM     27  C   UNL     1      74.154  62.419 101.918  1.00  0.00     0.048 C 
ATOM     28  O   UNL     1      73.241  61.999 101.158  1.00  0.00    -0.550 OA
ATOM     29  O   UNL     1      74.437  61.714 103.084  1.00  0.00    -0.550 OA
ENDBRANCH   1  27
BRANCH   7  30
ATOM     30  C   UNL     1      78.678  63.471 101.923  1.00  0.00    -0.077 C 
ATOM     31  C   UNL     1      79.995  63.870 101.305  1.00  0.00     0.039 C 
ATOM     32  C   UNL     1      78.652  62.384 102.714  1.00  0.00     0.008 C 
ENDBRANCH   7  30
BRANCH  24  33
ATOM     33  O   UNL     1      75.461  66.389 111.036  1.00  0.00    -0.393 OA
ATOM     34  H   UNL     1      75.418  65.972 111.937  1.00  0.00     0.210 HD
ENDBRANCH  24  33
TORSDOF 3
ENDMDL
MODEL 9
REMARK VINA RESULT:    -8.491      3.528      7.336
REMARK INTER + INTRA:         -10.447
REMARK INTER:                  -9.723
REMARK INTRA:                  -0.724
REMARK UNBOUND:                -0.715
REMARK SMILES C=C(C)[C@H]1CC[C@]2(C(=O)[O-])CC[C@]3(C)[C@H](CC[C@@H]4[C@]5(C)CC[C@@H](O)C(C)(C)[C@@H]5CC[C@@]43C)[C@H]12
REMARK SMILES IDX 7 1 6 2 33 3 11 4 5 5 15 6 4 7 12 8 16 9 13 10 17 11 31 12
REMARK SMILES IDX 14 13 18 14 30 15 32 16 19 17 29 18 21 19 20 20 28 21 22 22
REMARK SMILES IDX 25 23 23 24 26 25 27 26 8 27 9 28 10 29 2 30 3 31 1 32 24 33
REMARK H PARENT 24 34
REMARK Flexibility Score: inf
ROOT
ATOM      1  C   UNL     1      73.760  64.966 109.005  1.00  0.00     0.014 C 
ATOM      2  C   UNL     1      73.522  65.791 110.282  1.00  0.00     0.014 C 
ATOM      3  C   UNL     1      74.912  65.729 108.289  1.00  0.00     0.012 C 
ATOM      4  C   UNL     1      74.145  63.515 109.394  1.00  0.00     0.014 C 
ATOM      5  C   UNL     1      74.874  66.373 110.674  1.00  0.00     0.009 C 
ATOM      6  C   UNL     1      75.769  64.856 107.305  1.00  0.00     0.000 C 
ATOM      7  C   UNL     1      75.673  66.543 109.376  1.00  0.00     0.018 C 
ATOM      8  C   UNL     1      74.803  62.745 108.240  1.00  0.00     0.008 C 
ATOM      9  C   UNL     1      76.994  65.600 106.785  1.00  0.00     0.005 C 
ATOM     10  C   UNL     1      76.137  63.396 107.740  1.00  0.00    -0.024 C 
ATOM     11  C   UNL     1      77.527  64.901 105.548  1.00  0.00     0.005 C 
ATOM     12  C   UNL     1      76.794  62.571 106.489  1.00  0.00    -0.024 C 
ATOM     13  C   UNL     1      77.151  63.414 108.938  1.00  0.00     0.012 C 
ATOM     14  C   UNL     1      77.943  63.418 105.759  1.00  0.00     0.002 C 
ATOM     15  C   UNL     1      75.731  62.206 105.404  1.00  0.00     0.008 C 
ATOM     16  C   UNL     1      77.375  61.231 107.071  1.00  0.00     0.012 C 
ATOM     17  C   UNL     1      78.548  62.773 104.408  1.00  0.00    -0.026 C 
ATOM     18  C   UNL     1      76.276  61.474 104.162  1.00  0.00     0.005 C 
ATOM     19  C   UNL     1      79.518  63.771 103.664  1.00  0.00     0.010 C 
ATOM     20  C   UNL     1      79.506  61.599 104.820  1.00  0.00     0.012 C 
ATOM     21  C   UNL     1      77.444  62.174 103.418  1.00  0.00     0.003 C 
ATOM     22  C   UNL     1      78.883  64.644 102.579  1.00  0.00     0.033 C 
ATOM     23  C   UNL     1      76.997  62.984 102.112  1.00  0.00    -0.006 C 
ATOM     24  C   UNL     1      78.193  63.784 101.518  1.00  0.00     0.120 C 
ATOM     25  C   UNL     1      76.528  61.975 101.015  1.00  0.00     0.014 C 
ATOM     26  C   UNL     1      75.790  63.943 102.320  1.00  0.00     0.014 C 
ENDROOT
BRANCH   1  27
ATOM     27  C   UNL     1      72.484  64.925 108.174  1.00  0.00     0.048 C 
ATOM     28  O   UNL     1      72.339  65.672 107.169  1.00  0.00    -0.550 OA
ATOM     29  O   UNL     1      71.494  63.993 108.468  1.00  0.00    -0.550 OA
ENDBRANCH   1  27
BRANCH   7  30
ATOM     30  C   UNL     1      75.850  68.017 109.004  1.00  0.00    -0.077 C 
ATOM     31  C   UNL     1      75.159  68.583 107.789  1.00  0.00     0.039 C 
ATOM     32  C   UNL     1      76.618  68.841 109.739  1.00  0.00     0.008 C 
ENDBRANCH   7  30
BRANCH  24  33
ATOM     33  O   UNL     1      79.132  62.910 100.937  1.00  0.00    -0.393 OA
ATOM     34  H   UNL     1      80.032  63.291 101.111  1.00  0.00     0.210 HD
ENDBRANCH  24  33
TORSDOF 3
ENDMDL
