MODEL 1
REMARK VINA RESULT:    -2.443      0.000      0.000
REMARK INTER + INTRA:          -2.443
REMARK INTER:                  -2.443
REMARK INTRA:                   0.000
REMARK UNBOUND:                 0.000
REMARK SMILES CC(=O)[O-]
REMARK SMILES IDX 1 1 2 2 3 3 4 4
REMARK H PARENT
REMARK Flexibility Score: inf
ROOT
ATOM      1  C   UNL     1      10.313  53.443  21.435  1.00  0.00     0.063 C 
ATOM      2  C   UNL     1       9.733  52.325  22.233  1.00  0.00     0.038 C 
ATOM      3  O   UNL     1      10.285  51.194  22.229  1.00  0.00    -0.550 OA
ATOM      4  O   UNL     1       8.613  52.543  23.026  1.00  0.00    -0.550 OA
ENDROOT
TORSDOF 0
ENDMDL
MODEL 2
REMARK VINA RESULT:    -2.437      0.114      1.622
REMARK INTER + INTRA:          -2.437
REMARK INTER:                  -2.437
REMARK INTRA:                   0.000
REMARK UNBOUND:                 0.000
REMARK SMILES CC(=O)[O-]
REMARK SMILES IDX 1 1 2 2 3 3 4 4
REMARK H PARENT
REMARK Flexibility Score: inf
ROOT
ATOM      1  C   UNL     1      10.221  53.406  21.423  1.00  0.00     0.063 C 
ATOM      2  C   UNL     1       9.646  52.312  22.255  1.00  0.00     0.038 C 
ATOM      3  O   UNL     1       8.613  52.518  22.943  1.00  0.00    -0.550 OA
ATOM      4  O   UNL     1      10.217  51.046  22.232  1.00  0.00    -0.550 OA
ENDROOT
TORSDOF 0
ENDMDL
MODEL 3
REMARK VINA RESULT:    -2.356      1.837      2.081
REMARK INTER + INTRA:          -2.356
REMARK INTER:                  -2.356
REMARK INTRA:                   0.000
REMARK UNBOUND:                 0.000
REMARK SMILES CC(=O)[O-]
REMARK SMILES IDX 1 1 2 2 3 3 4 4
REMARK H PARENT
REMARK Flexibility Score: inf
ROOT
ATOM      1  C   UNL     1      10.298  53.951  23.628  1.00  0.00     0.063 C 
ATOM      2  C   UNL     1      10.238  53.175  22.357  1.00  0.00     0.038 C 
ATOM      3  O   UNL     1      10.232  53.775  21.251  1.00  0.00    -0.550 OA
ATOM      4  O   UNL     1      10.243  51.786  22.388  1.00  0.00    -0.550 OA
ENDROOT
TORSDOF 0
ENDMDL
MODEL 4
REMARK VINA RESULT:    -2.352      5.607      5.911
REMARK INTER + INTRA:          -2.352
REMARK INTER:                  -2.352
REMARK INTRA:                   0.000
REMARK UNBOUND:                 0.000
REMARK SMILES CC(=O)[O-]
REMARK SMILES IDX 1 1 2 2 3 3 4 4
REMARK H PARENT
REMARK Flexibility Score: inf
ROOT
ATOM      1  C   UNL     1       7.281  55.791  18.994  1.00  0.00     0.063 C 
ATOM      2  C   UNL     1       6.935  54.811  17.927  1.00  0.00     0.038 C 
ATOM      3  O   UNL     1       6.663  53.619  18.227  1.00  0.00    -0.550 OA
ATOM      4  O   UNL     1       6.857  55.222  16.602  1.00  0.00    -0.550 OA
ENDROOT
TORSDOF 0
ENDMDL
MODEL 5
REMARK VINA RESULT:    -2.330      2.143      2.249
REMARK INTER + INTRA:          -2.330
REMARK INTER:                  -2.330
REMARK INTRA:                   0.000
REMARK UNBOUND:                 0.000
REMARK SMILES CC(=O)[O-]
REMARK SMILES IDX 1 1 2 2 3 3 4 4
REMARK H PARENT
REMARK Flexibility Score: inf
ROOT
ATOM      1  C   UNL     1      10.305  53.264  21.600  1.00  0.00     0.063 C 
ATOM      2  C   UNL     1       9.963  54.085  22.796  1.00  0.00     0.038 C 
ATOM      3  O   UNL     1      10.688  54.037  23.823  1.00  0.00    -0.550 OA
ATOM      4  O   UNL     1       8.874  54.947  22.761  1.00  0.00    -0.550 OA
ENDROOT
TORSDOF 0
ENDMDL
MODEL 6
REMARK VINA RESULT:    -2.325      2.149      2.585
REMARK INTER + INTRA:          -2.325
REMARK INTER:                  -2.325
REMARK INTRA:                   0.000
REMARK UNBOUND:                 0.000
REMARK SMILES CC(=O)[O-]
REMARK SMILES IDX 1 1 2 2 3 3 4 4
REMARK H PARENT
REMARK Flexibility Score: inf
ROOT
ATOM      1  C   UNL     1      10.254  53.297  21.615  1.00  0.00     0.063 C 
ATOM      2  C   UNL     1       9.893  54.128  22.798  1.00  0.00     0.038 C 
ATOM      3  O   UNL     1       8.852  54.837  22.777  1.00  0.00    -0.550 OA
ATOM      4  O   UNL     1      10.672  54.082  23.946  1.00  0.00    -0.550 OA
ENDROOT
TORSDOF 0
ENDMDL
MODEL 7
REMARK VINA RESULT:    -2.290      2.898      3.219
REMARK INTER + INTRA:          -2.290
REMARK INTER:                  -2.290
REMARK INTRA:                   0.000
REMARK UNBOUND:                 0.000
REMARK SMILES CC(=O)[O-]
REMARK SMILES IDX 1 1 2 2 3 3 4 4
REMARK H PARENT
REMARK Flexibility Score: inf
ROOT
ATOM      1  C   UNL     1       8.861  53.980  24.685  1.00  0.00     0.063 C 
ATOM      2  C   UNL     1      10.172  54.124  23.992  1.00  0.00     0.038 C 
ATOM      3  O   UNL     1      11.193  54.478  24.639  1.00  0.00    -0.550 OA
ATOM      4  O   UNL     1      10.286  53.813  22.643  1.00  0.00    -0.550 OA
ENDROOT
TORSDOF 0
ENDMDL
MODEL 8
REMARK VINA RESULT:    -2.274      4.919      5.251
REMARK INTER + INTRA:          -2.274
REMARK INTER:                  -2.274
REMARK INTRA:                   0.000
REMARK UNBOUND:                 0.000
REMARK SMILES CC(=O)[O-]
REMARK SMILES IDX 1 1 2 2 3 3 4 4
REMARK H PARENT
REMARK Flexibility Score: inf
ROOT
ATOM      1  C   UNL     1       7.530  56.266  19.393  1.00  0.00     0.063 C 
ATOM      2  C   UNL     1       7.060  55.010  18.744  1.00  0.00     0.038 C 
ATOM      3  O   UNL     1       7.227  54.836  17.509  1.00  0.00    -0.550 OA
ATOM      4  O   UNL     1       6.487  54.002  19.510  1.00  0.00    -0.550 OA
ENDROOT
TORSDOF 0
ENDMDL
MODEL 9
REMARK VINA RESULT:    -2.240      4.614      5.000
REMARK INTER + INTRA:          -2.240
REMARK INTER:                  -2.240
REMARK INTRA:                   0.000
REMARK UNBOUND:                 0.000
REMARK SMILES CC(=O)[O-]
REMARK SMILES IDX 1 1 2 2 3 3 4 4
REMARK H PARENT
REMARK Flexibility Score: inf
ROOT
ATOM      1  C   UNL     1       7.168  54.722  17.964  1.00  0.00     0.063 C 
ATOM      2  C   UNL     1       7.486  55.369  19.269  1.00  0.00     0.038 C 
ATOM      3  O   UNL     1       8.148  54.744  20.139  1.00  0.00    -0.550 OA
ATOM      4  O   UNL     1       7.101  56.682  19.508  1.00  0.00    -0.550 OA
ENDROOT
TORSDOF 0
ENDMDL
