MODEL 1
REMARK VINA RESULT:    -3.793      0.000      0.000
REMARK INTER + INTRA:          -5.277
REMARK INTER:                  -4.901
REMARK INTRA:                  -0.376
REMARK UNBOUND:                -0.376
REMARK SMILES CCCCCCC(=O)[O-]
REMARK SMILES IDX 5 1 6 2 7 3 8 4 9 5 4 6 3 7 2 8 1 9
REMARK H PARENT
REMARK Flexibility Score: inf
ROOT
ATOM      1  C   UNL     1      60.754  30.291  11.412  1.00  0.00     0.006 C 
ENDROOT
BRANCH   1   2
ATOM      2  C   UNL     1      61.049  30.130   9.915  1.00  0.00     0.053 C 
BRANCH   2   3
ATOM      3  C   UNL     1      62.013  29.014   9.656  1.00  0.00     0.041 C 
ATOM      4  O   UNL     1      61.676  28.041   8.932  1.00  0.00    -0.550 OA
ATOM      5  O   UNL     1      63.274  29.032  10.240  1.00  0.00    -0.550 OA
ENDBRANCH   2   3
ENDBRANCH   1   2
BRANCH   1   6
ATOM      6  C   UNL     1      60.253  28.987  12.051  1.00  0.00     0.000 C 
BRANCH   6   7
ATOM      7  C   UNL     1      61.047  28.660  13.324  1.00  0.00    -0.000 C 
BRANCH   7   8
ATOM      8  C   UNL     1      62.004  29.790  13.732  1.00  0.00    -0.003 C 
ATOM      9  C   UNL     1      63.474  29.371  13.673  1.00  0.00     0.004 C 
ENDBRANCH   7   8
ENDBRANCH   6   7
ENDBRANCH   1   6
TORSDOF 5
ENDMDL
MODEL 2
REMARK VINA RESULT:    -3.764      1.830      2.618
REMARK INTER + INTRA:          -5.240
REMARK INTER:                  -4.956
REMARK INTRA:                  -0.284
REMARK UNBOUND:                -0.376
REMARK SMILES CCCCCCC(=O)[O-]
REMARK SMILES IDX 5 1 6 2 7 3 8 4 9 5 4 6 3 7 2 8 1 9
REMARK H PARENT
REMARK Flexibility Score: inf
ROOT
ATOM      1  C   UNL     1      61.917  28.604   9.961  1.00  0.00     0.006 C 
ENDROOT
BRANCH   1   2
ATOM      2  C   UNL     1      62.899  29.466   9.156  1.00  0.00     0.053 C 
BRANCH   2   3
ATOM      3  C   UNL     1      64.216  29.607   9.853  1.00  0.00     0.041 C 
ATOM      4  O   UNL     1      65.284  29.654   9.187  1.00  0.00    -0.550 OA
ATOM      5  O   UNL     1      64.268  29.654  11.241  1.00  0.00    -0.550 OA
ENDBRANCH   2   3
ENDBRANCH   1   2
BRANCH   1   6
ATOM      6  C   UNL     1      60.622  29.357  10.299  1.00  0.00     0.000 C 
BRANCH   6   7
ATOM      7  C   UNL     1      60.723  30.035  11.673  1.00  0.00    -0.000 C 
BRANCH   7   8
ATOM      8  C   UNL     1      60.860  29.024  12.822  1.00  0.00    -0.003 C 
ATOM      9  C   UNL     1      59.551  28.295  13.127  1.00  0.00     0.004 C 
ENDBRANCH   7   8
ENDBRANCH   6   7
ENDBRANCH   1   6
TORSDOF 5
ENDMDL
MODEL 3
REMARK VINA RESULT:    -3.701      2.406      3.639
REMARK INTER + INTRA:          -5.158
REMARK INTER:                  -4.832
REMARK INTRA:                  -0.326
REMARK UNBOUND:                -0.376
REMARK SMILES CCCCCCC(=O)[O-]
REMARK SMILES IDX 5 1 6 2 7 3 8 4 9 5 4 6 3 7 2 8 1 9
REMARK H PARENT
REMARK Flexibility Score: inf
ROOT
ATOM      1  C   UNL     1      60.617  29.546  10.406  1.00  0.00     0.006 C 
ENDROOT
BRANCH   1   2
ATOM      2  C   UNL     1      60.676  30.181  11.801  1.00  0.00     0.053 C 
BRANCH   2   3
ATOM      3  C   UNL     1      60.546  29.155  12.884  1.00  0.00     0.041 C 
ATOM      4  O   UNL     1      61.501  28.947  13.678  1.00  0.00    -0.550 OA
ATOM      5  O   UNL     1      59.382  28.405  12.998  1.00  0.00    -0.550 OA
ENDBRANCH   2   3
ENDBRANCH   1   2
BRANCH   1   6
ATOM      6  C   UNL     1      61.800  28.602  10.144  1.00  0.00     0.000 C 
BRANCH   6   7
ATOM      7  C   UNL     1      62.816  29.247   9.189  1.00  0.00    -0.000 C 
BRANCH   7   8
ATOM      8  C   UNL     1      64.234  29.295   9.779  1.00  0.00    -0.003 C 
ATOM      9  C   UNL     1      64.274  29.923  11.172  1.00  0.00     0.004 C 
ENDBRANCH   7   8
ENDBRANCH   6   7
ENDBRANCH   1   6
TORSDOF 5
ENDMDL
MODEL 4
REMARK VINA RESULT:    -3.695      1.348      2.410
REMARK INTER + INTRA:          -5.151
REMARK INTER:                  -4.810
REMARK INTRA:                  -0.341
REMARK UNBOUND:                -0.376
REMARK SMILES CCCCCCC(=O)[O-]
REMARK SMILES IDX 5 1 6 2 7 3 8 4 9 5 4 6 3 7 2 8 1 9
REMARK H PARENT
REMARK Flexibility Score: inf
ROOT
ATOM      1  C   UNL     1      63.748  29.353  10.909  1.00  0.00     0.006 C 
ENDROOT
BRANCH   1   2
ATOM      2  C   UNL     1      62.951  30.082   9.818  1.00  0.00     0.053 C 
BRANCH   2   3
ATOM      3  C   UNL     1      61.619  29.440   9.581  1.00  0.00     0.041 C 
ATOM      4  O   UNL     1      60.561  30.043   9.899  1.00  0.00    -0.550 OA
ATOM      5  O   UNL     1      61.547  28.163   9.039  1.00  0.00    -0.550 OA
ENDBRANCH   2   3
ENDBRANCH   1   2
BRANCH   1   6
ATOM      6  C   UNL     1      63.738  30.114  12.243  1.00  0.00     0.000 C 
BRANCH   6   7
ATOM      7  C   UNL     1      63.275  29.204  13.391  1.00  0.00    -0.000 C 
BRANCH   7   8
ATOM      8  C   UNL     1      61.831  29.494  13.829  1.00  0.00    -0.003 C 
ATOM      9  C   UNL     1      60.810  28.590  13.138  1.00  0.00     0.004 C 
ENDBRANCH   7   8
ENDBRANCH   6   7
ENDBRANCH   1   6
TORSDOF 5
ENDMDL
MODEL 5
REMARK VINA RESULT:    -3.627      2.167      3.729
REMARK INTER + INTRA:          -5.063
REMARK INTER:                  -4.725
REMARK INTRA:                  -0.338
REMARK UNBOUND:                -0.376
REMARK SMILES CCCCCCC(=O)[O-]
REMARK SMILES IDX 5 1 6 2 7 3 8 4 9 5 4 6 3 7 2 8 1 9
REMARK H PARENT
REMARK Flexibility Score: inf
ROOT
ATOM      1  C   UNL     1      60.789  30.178  11.905  1.00  0.00     0.006 C 
ENDROOT
BRANCH   1   2
ATOM      2  C   UNL     1      61.197  29.048  12.859  1.00  0.00     0.053 C 
BRANCH   2   3
ATOM      3  C   UNL     1      62.352  29.444  13.726  1.00  0.00     0.041 C 
ATOM      4  O   UNL     1      63.524  29.107  13.412  1.00  0.00    -0.550 OA
ATOM      5  O   UNL     1      62.132  30.155  14.899  1.00  0.00    -0.550 OA
ENDBRANCH   2   3
ENDBRANCH   1   2
BRANCH   1   6
ATOM      6  C   UNL     1      60.720  29.710  10.443  1.00  0.00     0.000 C 
BRANCH   6   7
ATOM      7  C   UNL     1      61.763  28.616  10.168  1.00  0.00    -0.000 C 
BRANCH   7   8
ATOM      8  C   UNL     1      62.892  29.096   9.243  1.00  0.00    -0.003 C 
ATOM      9  C   UNL     1      64.191  29.384   9.997  1.00  0.00     0.004 C 
ENDBRANCH   7   8
ENDBRANCH   6   7
ENDBRANCH   1   6
TORSDOF 5
ENDMDL
MODEL 6
REMARK VINA RESULT:    -3.620      2.218      3.437
REMARK INTER + INTRA:          -5.054
REMARK INTER:                  -4.671
REMARK INTRA:                  -0.382
REMARK UNBOUND:                -0.376
REMARK SMILES CCCCCCC(=O)[O-]
REMARK SMILES IDX 5 1 6 2 7 3 8 4 9 5 4 6 3 7 2 8 1 9
REMARK H PARENT
REMARK Flexibility Score: inf
ROOT
ATOM      1  C   UNL     1      62.079  29.774  14.152  1.00  0.00     0.006 C 
ENDROOT
BRANCH   1   2
ATOM      2  C   UNL     1      60.939  30.299  13.269  1.00  0.00     0.053 C 
BRANCH   2   3
ATOM      3  C   UNL     1      60.256  29.192  12.527  1.00  0.00     0.041 C 
ATOM      4  O   UNL     1      59.683  28.266  13.158  1.00  0.00    -0.550 OA
ATOM      5  O   UNL     1      60.280  29.166  11.138  1.00  0.00    -0.550 OA
ENDBRANCH   2   3
ENDBRANCH   1   2
BRANCH   1   6
ATOM      6  C   UNL     1      63.139  29.011  13.343  1.00  0.00     0.000 C 
BRANCH   6   7
ATOM      7  C   UNL     1      64.309  29.932  12.967  1.00  0.00    -0.000 C 
BRANCH   7   8
ATOM      8  C   UNL     1      64.193  30.482  11.537  1.00  0.00    -0.003 C 
ATOM      9  C   UNL     1      63.786  29.411  10.524  1.00  0.00     0.004 C 
ENDBRANCH   7   8
ENDBRANCH   6   7
ENDBRANCH   1   6
TORSDOF 5
ENDMDL
MODEL 7
REMARK VINA RESULT:    -3.603      1.916      2.662
REMARK INTER + INTRA:          -5.031
REMARK INTER:                  -4.834
REMARK INTRA:                  -0.197
REMARK UNBOUND:                -0.376
REMARK SMILES CCCCCCC(=O)[O-]
REMARK SMILES IDX 5 1 6 2 7 3 8 4 9 5 4 6 3 7 2 8 1 9
REMARK H PARENT
REMARK Flexibility Score: inf
ROOT
ATOM      1  C   UNL     1      60.754  29.347  12.517  1.00  0.00     0.006 C 
ENDROOT
BRANCH   1   2
ATOM      2  C   UNL     1      60.820  29.646  11.013  1.00  0.00     0.053 C 
BRANCH   2   3
ATOM      3  C   UNL     1      61.921  28.883  10.342  1.00  0.00     0.041 C 
ATOM      4  O   UNL     1      63.106  28.986  10.756  1.00  0.00    -0.550 OA
ATOM      5  O   UNL     1      61.644  28.085   9.240  1.00  0.00    -0.550 OA
ENDBRANCH   2   3
ENDBRANCH   1   2
BRANCH   1   6
ATOM      6  C   UNL     1      61.347  30.483  13.363  1.00  0.00     0.000 C 
BRANCH   6   7
ATOM      7  C   UNL     1      61.281  31.820  12.609  1.00  0.00    -0.000 C 
BRANCH   7   8
ATOM      8  C   UNL     1      62.178  32.898  13.238  1.00  0.00    -0.003 C 
ATOM      9  C   UNL     1      61.464  33.699  14.327  1.00  0.00     0.004 C 
ENDBRANCH   7   8
ENDBRANCH   6   7
ENDBRANCH   1   6
TORSDOF 5
ENDMDL
MODEL 8
REMARK VINA RESULT:    -3.582      0.626      1.640
REMARK INTER + INTRA:          -5.005
REMARK INTER:                  -4.632
REMARK INTRA:                  -0.373
REMARK UNBOUND:                -0.376
REMARK SMILES CCCCCCC(=O)[O-]
REMARK SMILES IDX 5 1 6 2 7 3 8 4 9 5 4 6 3 7 2 8 1 9
REMARK H PARENT
REMARK Flexibility Score: inf
ROOT
ATOM      1  C   UNL     1      60.224  29.046  12.117  1.00  0.00     0.006 C 
ENDROOT
BRANCH   1   2
ATOM      2  C   UNL     1      61.003  29.865  11.080  1.00  0.00     0.053 C 
BRANCH   2   3
ATOM      3  C   UNL     1      61.829  28.991  10.188  1.00  0.00     0.041 C 
ATOM      4  O   UNL     1      63.080  28.950  10.324  1.00  0.00    -0.550 OA
ATOM      5  O   UNL     1      61.221  28.246   9.185  1.00  0.00    -0.550 OA
ENDBRANCH   2   3
ENDBRANCH   1   2
BRANCH   1   6
ATOM      6  C   UNL     1      61.110  28.593  13.287  1.00  0.00     0.000 C 
BRANCH   6   7
ATOM      7  C   UNL     1      61.977  29.753  13.799  1.00  0.00    -0.000 C 
BRANCH   7   8
ATOM      8  C   UNL     1      63.480  29.441  13.735  1.00  0.00    -0.003 C 
ATOM      9  C   UNL     1      64.303  30.608  13.189  1.00  0.00     0.004 C 
ENDBRANCH   7   8
ENDBRANCH   6   7
ENDBRANCH   1   6
TORSDOF 5
ENDMDL
MODEL 9
REMARK VINA RESULT:    -3.545      2.119      3.289
REMARK INTER + INTRA:          -4.957
REMARK INTER:                  -4.538
REMARK INTRA:                  -0.418
REMARK UNBOUND:                -0.376
REMARK SMILES CCCCCCC(=O)[O-]
REMARK SMILES IDX 5 1 6 2 7 3 8 4 9 5 4 6 3 7 2 8 1 9
REMARK H PARENT
REMARK Flexibility Score: inf
ROOT
ATOM      1  C   UNL     1      62.673  29.377  13.748  1.00  0.00     0.006 C 
ENDROOT
BRANCH   1   2
ATOM      2  C   UNL     1      61.363  28.863  13.135  1.00  0.00     0.053 C 
BRANCH   2   3
ATOM      3  C   UNL     1      61.235  29.248  11.694  1.00  0.00     0.041 C 
ATOM      4  O   UNL     1      61.802  28.563  10.803  1.00  0.00    -0.550 OA
ATOM      5  O   UNL     1      60.518  30.383  11.337  1.00  0.00    -0.550 OA
ENDBRANCH   2   3
ENDBRANCH   1   2
BRANCH   1   6
ATOM      6  C   UNL     1      62.442  30.539  14.725  1.00  0.00     0.000 C 
BRANCH   6   7
ATOM      7  C   UNL     1      62.895  31.872  14.109  1.00  0.00    -0.000 C 
BRANCH   7   8
ATOM      8  C   UNL     1      61.716  32.743  13.651  1.00  0.00    -0.003 C 
ATOM      9  C   UNL     1      60.388  32.319  14.281  1.00  0.00     0.004 C 
ENDBRANCH   7   8
ENDBRANCH   6   7
ENDBRANCH   1   6
TORSDOF 5
ENDMDL
