MODEL 1
REMARK VINA RESULT:    -5.958      0.000      0.000
REMARK INTER + INTRA:          -7.900
REMARK INTER:                  -7.526
REMARK INTRA:                  -0.375
REMARK UNBOUND:                -0.375
REMARK SMILES CC(C)=CCCC(C)=CCO
REMARK SMILES IDX 7 1 9 2 8 3 6 4 5 5 4 6 1 7 2 8 3 9 10 10 11 11
REMARK H PARENT 11 12
REMARK Flexibility Score: inf
ROOT
ATOM      1  C   UNL     1     -14.547 -14.717 -35.895  1.00  0.00    -0.075 C 
ATOM      2  C   UNL     1     -14.964 -15.146 -34.683  1.00  0.00    -0.000 C 
ATOM      3  C   UNL     1     -14.986 -13.384 -36.456  1.00  0.00     0.039 C 
ENDROOT
BRANCH   1   4
ATOM      4  C   UNL     1     -13.619 -15.593 -36.709  1.00  0.00     0.034 C 
BRANCH   4   5
ATOM      5  C   UNL     1     -13.600 -15.154 -38.177  1.00  0.00     0.032 C 
BRANCH   5   6
ATOM      6  C   UNL     1     -12.204 -15.216 -38.749  1.00  0.00    -0.028 C 
ATOM      7  C   UNL     1      -9.926 -14.400 -39.186  1.00  0.00     0.039 C 
ATOM      8  C   UNL     1     -11.292 -14.238 -38.571  1.00  0.00    -0.080 C 
ATOM      9  C   UNL     1     -11.611 -12.995 -37.773  1.00  0.00     0.039 C 
ENDBRANCH   5   6
ENDBRANCH   4   5
ENDBRANCH   1   4
BRANCH   2  10
ATOM     10  C   UNL     1     -15.891 -14.366 -33.786  1.00  0.00     0.183 C 
BRANCH  10  11
ATOM     11  O   UNL     1     -17.228 -14.676 -34.069  1.00  0.00    -0.392 OA
ATOM     12  H   UNL     1     -17.722 -13.815 -34.079  1.00  0.00     0.210 HD
ENDBRANCH  10  11
ENDBRANCH   2  10
TORSDOF 5
ENDMDL
MODEL 2
REMARK VINA RESULT:    -5.884      1.015      1.742
REMARK INTER + INTRA:          -7.807
REMARK INTER:                  -7.545
REMARK INTRA:                  -0.262
REMARK UNBOUND:                -0.375
REMARK SMILES CC(C)=CCCC(C)=CCO
REMARK SMILES IDX 7 1 9 2 8 3 6 4 5 5 4 6 1 7 2 8 3 9 10 10 11 11
REMARK H PARENT 11 12
REMARK Flexibility Score: inf
ROOT
ATOM      1  C   UNL     1     -14.061 -14.423 -35.817  1.00  0.00    -0.075 C 
ATOM      2  C   UNL     1     -15.182 -14.038 -35.166  1.00  0.00    -0.000 C 
ATOM      3  C   UNL     1     -13.320 -15.684 -35.439  1.00  0.00     0.039 C 
ENDROOT
BRANCH   1   4
ATOM      4  C   UNL     1     -13.536 -13.568 -36.951  1.00  0.00     0.034 C 
BRANCH   4   5
ATOM      5  C   UNL     1     -12.936 -14.438 -38.060  1.00  0.00     0.032 C 
BRANCH   5   6
ATOM      6  C   UNL     1     -11.500 -14.061 -38.336  1.00  0.00    -0.028 C 
ATOM      7  C   UNL     1      -9.297 -14.270 -39.407  1.00  0.00     0.039 C 
ATOM      8  C   UNL     1     -10.717 -14.732 -39.206  1.00  0.00    -0.080 C 
ATOM      9  C   UNL     1     -11.233 -15.925 -39.976  1.00  0.00     0.039 C 
ENDBRANCH   5   6
ENDBRANCH   4   5
ENDBRANCH   1   4
BRANCH   2  10
ATOM     10  C   UNL     1     -15.794 -14.802 -34.021  1.00  0.00     0.183 C 
BRANCH  10  11
ATOM     11  O   UNL     1     -17.179 -14.596 -33.973  1.00  0.00    -0.392 OA
ATOM     12  H   UNL     1     -17.379 -14.211 -33.080  1.00  0.00     0.210 HD
ENDBRANCH  10  11
ENDBRANCH   2  10
TORSDOF 5
ENDMDL
MODEL 3
REMARK VINA RESULT:    -5.807      1.677      3.078
REMARK INTER + INTRA:          -7.710
REMARK INTER:                  -7.556
REMARK INTRA:                  -0.154
REMARK UNBOUND:                -0.375
REMARK SMILES CC(C)=CCCC(C)=CCO
REMARK SMILES IDX 7 1 9 2 8 3 6 4 5 5 4 6 1 7 2 8 3 9 10 10 11 11
REMARK H PARENT 11 12
REMARK Flexibility Score: inf
ROOT
ATOM      1  C   UNL     1     -15.969 -15.273 -33.633  1.00  0.00    -0.075 C 
ATOM      2  C   UNL     1     -16.015 -14.239 -32.763  1.00  0.00    -0.000 C 
ATOM      3  C   UNL     1     -16.910 -16.449 -33.515  1.00  0.00     0.039 C 
ENDROOT
BRANCH   1   4
ATOM      4  C   UNL     1     -14.948 -15.251 -34.751  1.00  0.00     0.034 C 
BRANCH   4   5
ATOM      5  C   UNL     1     -15.155 -14.031 -35.656  1.00  0.00     0.032 C 
BRANCH   5   6
ATOM      6  C   UNL     1     -13.855 -13.588 -36.283  1.00  0.00    -0.028 C 
ATOM      7  C   UNL     1     -12.019 -13.658 -37.918  1.00  0.00     0.039 C 
ATOM      8  C   UNL     1     -13.323 -14.181 -37.373  1.00  0.00    -0.080 C 
ATOM      9  C   UNL     1     -14.005 -15.347 -38.051  1.00  0.00     0.039 C 
ENDBRANCH   5   6
ENDBRANCH   4   5
ENDBRANCH   1   4
BRANCH   2  10
ATOM     10  C   UNL     1     -16.979 -14.152 -31.609  1.00  0.00     0.183 C 
BRANCH  10  11
ATOM     11  O   UNL     1     -16.881 -12.906 -30.975  1.00  0.00    -0.392 OA
ATOM     12  H   UNL     1     -17.727 -12.423 -31.165  1.00  0.00     0.210 HD
ENDBRANCH  10  11
ENDBRANCH   2  10
TORSDOF 5
ENDMDL
MODEL 4
REMARK VINA RESULT:    -5.726      2.585      5.774
REMARK INTER + INTRA:          -7.607
REMARK INTER:                  -7.365
REMARK INTRA:                  -0.242
REMARK UNBOUND:                -0.375
REMARK SMILES CC(C)=CCCC(C)=CCO
REMARK SMILES IDX 7 1 9 2 8 3 6 4 5 5 4 6 1 7 2 8 3 9 10 10 11 11
REMARK H PARENT 11 12
REMARK Flexibility Score: inf
ROOT
ATOM      1  C   UNL     1     -13.189 -14.286 -37.448  1.00  0.00    -0.075 C 
ATOM      2  C   UNL     1     -13.358 -15.520 -37.974  1.00  0.00    -0.000 C 
ATOM      3  C   UNL     1     -11.977 -13.446 -37.774  1.00  0.00     0.039 C 
ENDROOT
BRANCH   1   4
ATOM      4  C   UNL     1     -14.241 -13.735 -36.508  1.00  0.00     0.034 C 
BRANCH   4   5
ATOM      5  C   UNL     1     -14.679 -14.798 -35.495  1.00  0.00     0.032 C 
BRANCH   5   6
ATOM      6  C   UNL     1     -15.190 -14.164 -34.223  1.00  0.00    -0.028 C 
ATOM      7  C   UNL     1     -16.460 -14.075 -32.119  1.00  0.00     0.039 C 
ATOM      8  C   UNL     1     -16.009 -14.802 -33.360  1.00  0.00    -0.080 C 
ATOM      9  C   UNL     1     -16.476 -16.216 -33.612  1.00  0.00     0.039 C 
ENDBRANCH   5   6
ENDBRANCH   4   5
ENDBRANCH   1   4
BRANCH   2  10
ATOM     10  C   UNL     1     -12.380 -16.176 -38.913  1.00  0.00     0.183 C 
BRANCH  10  11
ATOM     11  O   UNL     1     -12.841 -16.108 -40.235  1.00  0.00    -0.392 OA
ATOM     12  H   UNL     1     -13.833 -16.122 -40.190  1.00  0.00     0.210 HD
ENDBRANCH  10  11
ENDBRANCH   2  10
TORSDOF 5
ENDMDL
MODEL 5
REMARK VINA RESULT:    -5.556      3.176      5.823
REMARK INTER + INTRA:          -7.393
REMARK INTER:                  -7.117
REMARK INTRA:                  -0.275
REMARK UNBOUND:                -0.375
REMARK SMILES CC(C)=CCCC(C)=CCO
REMARK SMILES IDX 7 1 9 2 8 3 6 4 5 5 4 6 1 7 2 8 3 9 10 10 11 11
REMARK H PARENT 11 12
REMARK Flexibility Score: inf
ROOT
ATOM      1  C   UNL     1     -12.145 -14.757 -38.433  1.00  0.00    -0.075 C 
ATOM      2  C   UNL     1     -11.881 -15.548 -39.497  1.00  0.00    -0.000 C 
ATOM      3  C   UNL     1     -11.260 -13.585 -38.078  1.00  0.00     0.039 C 
ENDROOT
BRANCH   1   4
ATOM      4  C   UNL     1     -13.357 -15.055 -37.576  1.00  0.00     0.034 C 
BRANCH   4   5
ATOM      5  C   UNL     1     -13.886 -13.778 -36.913  1.00  0.00     0.032 C 
BRANCH   5   6
ATOM      6  C   UNL     1     -15.138 -14.053 -36.116  1.00  0.00    -0.028 C 
ATOM      7  C   UNL     1     -16.462 -14.389 -34.071  1.00  0.00     0.039 C 
ATOM      8  C   UNL     1     -15.155 -14.108 -34.768  1.00  0.00    -0.080 C 
ATOM      9  C   UNL     1     -13.902 -13.894 -33.952  1.00  0.00     0.039 C 
ENDBRANCH   5   6
ENDBRANCH   4   5
ENDBRANCH   1   4
BRANCH   2  10
ATOM     10  C   UNL     1     -10.704 -15.355 -40.418  1.00  0.00     0.183 C 
BRANCH  10  11
ATOM     11  O   UNL     1     -10.206 -16.591 -40.849  1.00  0.00    -0.392 OA
ATOM     12  H   UNL     1      -9.220 -16.494 -40.911  1.00  0.00     0.210 HD
ENDBRANCH  10  11
ENDBRANCH   2  10
TORSDOF 5
ENDMDL
MODEL 6
REMARK VINA RESULT:    -5.521      2.844      5.462
REMARK INTER + INTRA:          -7.347
REMARK INTER:                  -6.983
REMARK INTRA:                  -0.365
REMARK UNBOUND:                -0.375
REMARK SMILES CC(C)=CCCC(C)=CCO
REMARK SMILES IDX 7 1 9 2 8 3 6 4 5 5 4 6 1 7 2 8 3 9 10 10 11 11
REMARK H PARENT 11 12
REMARK Flexibility Score: inf
ROOT
ATOM      1  C   UNL     1     -10.732 -14.852 -38.994  1.00  0.00    -0.075 C 
ATOM      2  C   UNL     1     -11.501 -15.964 -39.023  1.00  0.00    -0.000 C 
ATOM      3  C   UNL     1      -9.682 -14.588 -40.047  1.00  0.00     0.039 C 
ENDROOT
BRANCH   1   4
ATOM      4  C   UNL     1     -10.929 -13.850 -37.876  1.00  0.00     0.034 C 
BRANCH   4   5
ATOM      5  C   UNL     1     -12.383 -13.367 -37.824  1.00  0.00     0.032 C 
BRANCH   5   6
ATOM      6  C   UNL     1     -13.053 -13.787 -36.537  1.00  0.00    -0.028 C 
ATOM      7  C   UNL     1     -14.666 -15.023 -35.153  1.00  0.00     0.039 C 
ATOM      8  C   UNL     1     -14.068 -14.674 -36.492  1.00  0.00    -0.080 C 
ATOM      9  C   UNL     1     -14.612 -15.319 -37.745  1.00  0.00     0.039 C 
ENDBRANCH   5   6
ENDBRANCH   4   5
ENDBRANCH   1   4
BRANCH   2  10
ATOM     10  C   UNL     1     -11.393 -17.034 -40.078  1.00  0.00     0.183 C 
BRANCH  10  11
ATOM     11  O   UNL     1     -11.738 -18.286 -39.550  1.00  0.00    -0.392 OA
ATOM     12  H   UNL     1     -12.646 -18.497 -39.894  1.00  0.00     0.210 HD
ENDBRANCH  10  11
ENDBRANCH   2  10
TORSDOF 5
ENDMDL
MODEL 7
REMARK VINA RESULT:    -5.513      1.370      2.390
REMARK INTER + INTRA:          -7.338
REMARK INTER:                  -7.003
REMARK INTRA:                  -0.335
REMARK UNBOUND:                -0.375
REMARK SMILES CC(C)=CCCC(C)=CCO
REMARK SMILES IDX 7 1 9 2 8 3 6 4 5 5 4 6 1 7 2 8 3 9 10 10 11 11
REMARK H PARENT 11 12
REMARK Flexibility Score: inf
ROOT
ATOM      1  C   UNL     1     -13.079 -14.906 -36.786  1.00  0.00    -0.075 C 
ATOM      2  C   UNL     1     -13.510 -14.674 -35.526  1.00  0.00    -0.000 C 
ATOM      3  C   UNL     1     -14.035 -15.285 -37.892  1.00  0.00     0.039 C 
ENDROOT
BRANCH   1   4
ATOM      4  C   UNL     1     -11.602 -14.783 -37.094  1.00  0.00     0.034 C 
BRANCH   4   5
ATOM      5  C   UNL     1     -11.361 -13.777 -38.225  1.00  0.00     0.032 C 
BRANCH   5   6
ATOM      6  C   UNL     1     -10.004 -13.979 -38.857  1.00  0.00    -0.028 C 
ATOM      7  C   UNL     1      -8.381 -14.997 -40.399  1.00  0.00     0.039 C 
ATOM      8  C   UNL     1      -9.775 -14.877 -39.837  1.00  0.00    -0.080 C 
ATOM      9  C   UNL     1     -10.879 -15.756 -40.378  1.00  0.00     0.039 C 
ENDBRANCH   5   6
ENDBRANCH   4   5
ENDBRANCH   1   4
BRANCH   2  10
ATOM     10  C   UNL     1     -14.951 -14.772 -35.097  1.00  0.00     0.183 C 
BRANCH  10  11
ATOM     11  O   UNL     1     -15.143 -15.876 -34.256  1.00  0.00    -0.392 OA
ATOM     12  H   UNL     1     -15.793 -15.593 -33.561  1.00  0.00     0.210 HD
ENDBRANCH  10  11
ENDBRANCH   2  10
TORSDOF 5
ENDMDL
MODEL 8
REMARK VINA RESULT:    -5.274      1.842      3.257
REMARK INTER + INTRA:          -7.035
REMARK INTER:                  -6.798
REMARK INTRA:                  -0.237
REMARK UNBOUND:                -0.375
REMARK SMILES CC(C)=CCCC(C)=CCO
REMARK SMILES IDX 7 1 9 2 8 3 6 4 5 5 4 6 1 7 2 8 3 9 10 10 11 11
REMARK H PARENT 11 12
REMARK Flexibility Score: inf
ROOT
ATOM      1  C   UNL     1     -16.262 -14.899 -33.379  1.00  0.00    -0.075 C 
ATOM      2  C   UNL     1     -16.307 -16.234 -33.588  1.00  0.00    -0.000 C 
ATOM      3  C   UNL     1     -16.875 -14.269 -32.150  1.00  0.00     0.039 C 
ENDROOT
BRANCH   1   4
ATOM      4  C   UNL     1     -15.582 -14.015 -34.403  1.00  0.00     0.034 C 
BRANCH   4   5
ATOM      5  C   UNL     1     -14.890 -14.858 -35.480  1.00  0.00     0.032 C 
BRANCH   5   6
ATOM      6  C   UNL     1     -13.723 -14.119 -36.088  1.00  0.00    -0.028 C 
ATOM      7  C   UNL     1     -12.079 -13.580 -37.837  1.00  0.00     0.039 C 
ATOM      8  C   UNL     1     -13.251 -14.379 -37.326  1.00  0.00    -0.080 C 
ATOM      9  C   UNL     1     -13.870 -15.444 -38.200  1.00  0.00     0.039 C 
ENDBRANCH   5   6
ENDBRANCH   4   5
ENDBRANCH   1   4
BRANCH   2  10
ATOM     10  C   UNL     1     -16.961 -17.212 -32.646  1.00  0.00     0.183 C 
BRANCH  10  11
ATOM     11  O   UNL     1     -17.220 -18.426 -33.295  1.00  0.00    -0.392 OA
ATOM     12  H   UNL     1     -17.916 -18.240 -33.978  1.00  0.00     0.210 HD
ENDBRANCH  10  11
ENDBRANCH   2  10
TORSDOF 5
ENDMDL
MODEL 9
REMARK VINA RESULT:    -5.231      3.369      5.502
REMARK INTER + INTRA:          -6.982
REMARK INTER:                  -6.380
REMARK INTRA:                  -0.603
REMARK UNBOUND:                -0.375
REMARK SMILES CC(C)=CCCC(C)=CCO
REMARK SMILES IDX 7 1 9 2 8 3 6 4 5 5 4 6 1 7 2 8 3 9 10 10 11 11
REMARK H PARENT 11 12
REMARK Flexibility Score: inf
ROOT
ATOM      1  C   UNL     1     -11.444 -15.523 -38.196  1.00  0.00    -0.075 C 
ATOM      2  C   UNL     1     -10.796 -14.979 -39.250  1.00  0.00    -0.000 C 
ATOM      3  C   UNL     1     -10.914 -15.390 -36.787  1.00  0.00     0.039 C 
ENDROOT
BRANCH   1   4
ATOM      4  C   UNL     1     -12.732 -16.283 -38.434  1.00  0.00     0.034 C 
BRANCH   4   5
ATOM      5  C   UNL     1     -13.929 -15.328 -38.490  1.00  0.00     0.032 C 
BRANCH   5   6
ATOM      6  C   UNL     1     -14.603 -15.215 -37.143  1.00  0.00    -0.028 C 
ATOM      7  C   UNL     1     -15.185 -14.132 -35.013  1.00  0.00     0.039 C 
ATOM      8  C   UNL     1     -14.466 -14.141 -36.338  1.00  0.00    -0.080 C 
ATOM      9  C   UNL     1     -13.614 -12.959 -36.737  1.00  0.00     0.039 C 
ENDBRANCH   5   6
ENDBRANCH   4   5
ENDBRANCH   1   4
BRANCH   2  10
ATOM     10  C   UNL     1      -9.506 -14.208 -39.139  1.00  0.00     0.183 C 
BRANCH  10  11
ATOM     11  O   UNL     1      -8.565 -14.684 -40.061  1.00  0.00    -0.392 OA
ATOM     12  H   UNL     1      -8.453 -13.973 -40.745  1.00  0.00     0.210 HD
ENDBRANCH  10  11
ENDBRANCH   2  10
TORSDOF 5
ENDMDL
