MODEL 1
REMARK VINA RESULT:    -6.150      0.000      0.000
REMARK INTER + INTRA:          -7.442
REMARK INTER:                  -7.229
REMARK INTRA:                  -0.213
REMARK UNBOUND:                -0.213
REMARK SMILES O=c1c(O)c(-c2ccc(O)cc2)oc2cc(O)cc(O)c12
REMARK SMILES IDX 5 1 3 2 2 3 1 4 21 5 19 6 18 7 16 8 15 9 14 10 13 11 6 12
REMARK SMILES IDX 7 13 8 14 9 15 12 16 11 17 10 18 4 20 20 22 17 24
REMARK H PARENT 10 19 4 21 20 23 17 25
REMARK Flexibility Score: inf
ROOT
ATOM      1  C   UNL     1      -4.775  13.391 -45.714  1.00  0.00     0.180 A 
ATOM      2  C   UNL     1      -4.221  14.624 -45.321  1.00  0.00     0.208 A 
ATOM      3  C   UNL     1      -3.802  15.526 -46.312  1.00  0.00     0.238 A 
ATOM      4  O   UNL     1      -3.315  16.638 -45.971  1.00  0.00    -0.285 OA
ATOM      5  C   UNL     1      -3.924  15.174 -47.671  1.00  0.00     0.111 A 
ATOM      6  C   UNL     1      -3.523  16.025 -48.730  1.00  0.00     0.134 A 
ATOM      7  C   UNL     1      -3.670  15.598 -50.058  1.00  0.00     0.093 A 
ATOM      8  C   UNL     1      -4.209  14.339 -50.347  1.00  0.00     0.123 A 
ATOM      9  C   UNL     1      -4.606  13.498 -49.306  1.00  0.00     0.094 A 
ATOM     10  C   UNL     1      -4.469  13.905 -47.977  1.00  0.00     0.146 A 
ATOM     11  O   UNL     1      -4.861  13.087 -47.006  1.00  0.00    -0.452 OA
ENDROOT
BRANCH   1  12
ATOM     12  C   UNL     1      -5.257  12.395 -44.730  1.00  0.00     0.021 A 
ATOM     13  C   UNL     1      -4.360  11.643 -43.948  1.00  0.00     0.016 A 
ATOM     14  C   UNL     1      -4.840  10.726 -43.009  1.00  0.00     0.047 A 
ATOM     15  C   UNL     1      -6.220  10.556 -42.830  1.00  0.00     0.115 A 
ATOM     16  C   UNL     1      -6.638  12.234 -44.530  1.00  0.00     0.016 A 
ATOM     17  C   UNL     1      -7.115  11.314 -43.590  1.00  0.00     0.047 A 
BRANCH  15  18
ATOM     18  O   UNL     1      -6.709   9.644 -41.897  1.00  0.00    -0.508 OA
ATOM     19  H   UNL     1      -6.428   8.671 -41.911  1.00  0.00     0.293 HD
ENDBRANCH  15  18
ENDBRANCH   1  12
BRANCH   2  20
ATOM     20  O   UNL     1      -4.064  14.928 -43.966  1.00  0.00    -0.502 OA
ATOM     21  H   UNL     1      -3.499  15.704 -43.646  1.00  0.00     0.293 HD
ENDBRANCH   2  20
BRANCH   6  22
ATOM     22  O   UNL     1      -2.982  17.285 -48.474  1.00  0.00    -0.507 OA
ATOM     23  H   UNL     1      -2.111  17.400 -47.970  1.00  0.00     0.293 HD
ENDBRANCH   6  22
BRANCH   8  24
ATOM     24  O   UNL     1      -4.353  13.914 -51.666  1.00  0.00    -0.508 OA
ATOM     25  H   UNL     1      -3.707  13.255 -52.084  1.00  0.00     0.293 HD
ENDBRANCH   8  24
TORSDOF 5
ENDMDL
MODEL 2
REMARK VINA RESULT:    -6.034      4.622      6.429
REMARK INTER + INTRA:          -7.305
REMARK INTER:                  -7.082
REMARK INTRA:                  -0.223
REMARK UNBOUND:                -0.213
REMARK SMILES O=c1c(O)c(-c2ccc(O)cc2)oc2cc(O)cc(O)c12
REMARK SMILES IDX 5 1 3 2 2 3 1 4 21 5 19 6 18 7 16 8 15 9 14 10 13 11 6 12
REMARK SMILES IDX 7 13 8 14 9 15 12 16 11 17 10 18 4 20 20 22 17 24
REMARK H PARENT 10 19 4 21 20 23 17 25
REMARK Flexibility Score: inf
ROOT
ATOM      1  C   UNL     1      -2.099  10.920 -44.075  1.00  0.00     0.180 A 
ATOM      2  C   UNL     1      -1.865  10.743 -45.452  1.00  0.00     0.208 A 
ATOM      3  C   UNL     1      -0.545  10.804 -45.929  1.00  0.00     0.238 A 
ATOM      4  O   UNL     1      -0.323  10.636 -47.159  1.00  0.00    -0.285 OA
ATOM      5  C   UNL     1       0.509  11.061 -45.030  1.00  0.00     0.111 A 
ATOM      6  C   UNL     1       1.865  11.142 -45.430  1.00  0.00     0.134 A 
ATOM      7  C   UNL     1       2.857  11.410 -44.474  1.00  0.00     0.093 A 
ATOM      8  C   UNL     1       2.519  11.598 -43.129  1.00  0.00     0.123 A 
ATOM      9  C   UNL     1       1.184  11.518 -42.731  1.00  0.00     0.094 A 
ATOM     10  C   UNL     1       0.181  11.252 -43.667  1.00  0.00     0.146 A 
ATOM     11  O   UNL     1      -1.080  11.175 -43.259  1.00  0.00    -0.452 OA
ENDROOT
BRANCH   1  12
ATOM     12  C   UNL     1      -3.458  10.851 -43.493  1.00  0.00     0.021 A 
ATOM     13  C   UNL     1      -4.388  11.892 -43.674  1.00  0.00     0.016 A 
ATOM     14  C   UNL     1      -5.674  11.792 -43.134  1.00  0.00     0.047 A 
ATOM     15  C   UNL     1      -6.052  10.648 -42.418  1.00  0.00     0.115 A 
ATOM     16  C   UNL     1      -3.852   9.698 -42.792  1.00  0.00     0.016 A 
ATOM     17  C   UNL     1      -5.139   9.602 -42.252  1.00  0.00     0.047 A 
BRANCH  15  18
ATOM     18  O   UNL     1      -7.330  10.539 -41.875  1.00  0.00    -0.508 OA
ATOM     19  H   UNL     1      -7.515  10.770 -40.906  1.00  0.00     0.293 HD
ENDBRANCH  15  18
ENDBRANCH   1  12
BRANCH   2  20
ATOM     20  O   UNL     1      -2.933  10.540 -46.330  1.00  0.00    -0.502 OA
ATOM     21  H   UNL     1      -3.781  10.062 -46.052  1.00  0.00     0.293 HD
ENDBRANCH   2  20
BRANCH   6  22
ATOM     22  O   UNL     1       2.233  10.960 -46.763  1.00  0.00    -0.507 OA
ATOM     23  H   UNL     1       3.057  10.432 -47.023  1.00  0.00     0.293 HD
ENDBRANCH   6  22
BRANCH   8  24
ATOM     24  O   UNL     1       3.504  11.865 -42.181  1.00  0.00    -0.508 OA
ATOM     25  H   UNL     1       4.466  11.579 -42.320  1.00  0.00     0.293 HD
ENDBRANCH   8  24
TORSDOF 5
ENDMDL
MODEL 3
REMARK VINA RESULT:    -5.984      5.633      8.060
REMARK INTER + INTRA:          -7.247
REMARK INTER:                  -6.993
REMARK INTRA:                  -0.254
REMARK UNBOUND:                -0.213
REMARK SMILES O=c1c(O)c(-c2ccc(O)cc2)oc2cc(O)cc(O)c12
REMARK SMILES IDX 5 1 3 2 2 3 1 4 21 5 19 6 18 7 16 8 15 9 14 10 13 11 6 12
REMARK SMILES IDX 7 13 8 14 9 15 12 16 11 17 10 18 4 20 20 22 17 24
REMARK H PARENT 10 19 4 21 20 23 17 25
REMARK Flexibility Score: inf
ROOT
ATOM      1  C   UNL     1       0.643  14.906 -46.723  1.00  0.00     0.180 A 
ATOM      2  C   UNL     1       1.623  15.744 -46.157  1.00  0.00     0.208 A 
ATOM      3  C   UNL     1       2.621  15.173 -45.351  1.00  0.00     0.238 A 
ATOM      4  O   UNL     1       3.509  15.913 -44.848  1.00  0.00    -0.285 OA
ATOM      5  C   UNL     1       2.612  13.785 -45.109  1.00  0.00     0.111 A 
ATOM      6  C   UNL     1       3.579  13.133 -44.306  1.00  0.00     0.134 A 
ATOM      7  C   UNL     1       3.496  11.746 -44.106  1.00  0.00     0.093 A 
ATOM      8  C   UNL     1       2.466  11.002 -44.692  1.00  0.00     0.123 A 
ATOM      9  C   UNL     1       1.511  11.641 -45.484  1.00  0.00     0.094 A 
ATOM     10  C   UNL     1       1.577  13.021 -45.697  1.00  0.00     0.146 A 
ATOM     11  O   UNL     1       0.658  13.601 -46.461  1.00  0.00    -0.452 OA
ENDROOT
BRANCH   1  12
ATOM     12  C   UNL     1      -0.429  15.428 -47.599  1.00  0.00     0.021 A 
ATOM     13  C   UNL     1      -0.375  15.276 -48.997  1.00  0.00     0.016 A 
ATOM     14  C   UNL     1      -1.412  15.757 -49.801  1.00  0.00     0.047 A 
ATOM     15  C   UNL     1      -2.522  16.384 -49.220  1.00  0.00     0.115 A 
ATOM     16  C   UNL     1      -1.555  16.040 -47.023  1.00  0.00     0.016 A 
ATOM     17  C   UNL     1      -2.591  16.521 -47.830  1.00  0.00     0.047 A 
BRANCH  15  18
ATOM     18  O   UNL     1      -3.560  16.869 -50.012  1.00  0.00    -0.508 OA
ATOM     19  H   UNL     1      -4.198  17.579 -49.673  1.00  0.00     0.293 HD
ENDBRANCH  15  18
ENDBRANCH   1  12
BRANCH   2  20
ATOM     20  O   UNL     1       1.581  17.124 -46.371  1.00  0.00    -0.502 OA
ATOM     21  H   UNL     1       0.760  17.592 -46.736  1.00  0.00     0.293 HD
ENDBRANCH   2  20
BRANCH   6  22
ATOM     22  O   UNL     1       4.616  13.847 -43.708  1.00  0.00    -0.507 OA
ATOM     23  H   UNL     1       5.242  13.419 -43.036  1.00  0.00     0.293 HD
ENDBRANCH   6  22
BRANCH   8  24
ATOM     24  O   UNL     1       2.382   9.626 -44.492  1.00  0.00    -0.508 OA
ATOM     25  H   UNL     1       3.201   9.071 -44.273  1.00  0.00     0.293 HD
ENDBRANCH   8  24
TORSDOF 5
ENDMDL
MODEL 4
REMARK VINA RESULT:    -5.885      2.071      7.055
REMARK INTER + INTRA:          -7.130
REMARK INTER:                  -6.839
REMARK INTRA:                  -0.291
REMARK UNBOUND:                -0.213
REMARK SMILES O=c1c(O)c(-c2ccc(O)cc2)oc2cc(O)cc(O)c12
REMARK SMILES IDX 5 1 3 2 2 3 1 4 21 5 19 6 18 7 16 8 15 9 14 10 13 11 6 12
REMARK SMILES IDX 7 13 8 14 9 15 12 16 11 17 10 18 4 20 20 22 17 24
REMARK H PARENT 10 19 4 21 20 23 17 25
REMARK Flexibility Score: inf
ROOT
ATOM      1  C   UNL     1      -3.503  12.879 -45.158  1.00  0.00     0.180 A 
ATOM      2  C   UNL     1      -2.366  12.138 -44.784  1.00  0.00     0.208 A 
ATOM      3  C   UNL     1      -2.517  11.074 -43.880  1.00  0.00     0.238 A 
ATOM      4  O   UNL     1      -1.507  10.396 -43.547  1.00  0.00    -0.285 OA
ATOM      5  C   UNL     1      -3.791  10.784 -43.352  1.00  0.00     0.111 A 
ATOM      6  C   UNL     1      -4.027   9.732 -42.434  1.00  0.00     0.134 A 
ATOM      7  C   UNL     1      -5.325   9.512 -41.947  1.00  0.00     0.093 A 
ATOM      8  C   UNL     1      -6.388  10.323 -42.360  1.00  0.00     0.123 A 
ATOM      9  C   UNL     1      -6.159  11.361 -43.265  1.00  0.00     0.094 A 
ATOM     10  C   UNL     1      -4.874  11.595 -43.762  1.00  0.00     0.146 A 
ATOM     11  O   UNL     1      -4.687  12.585 -44.627  1.00  0.00    -0.452 OA
ENDROOT
BRANCH   1  12
ATOM     12  C   UNL     1      -3.429  14.002 -46.119  1.00  0.00     0.021 A 
ATOM     13  C   UNL     1      -3.195  15.322 -45.690  1.00  0.00     0.016 A 
ATOM     14  C   UNL     1      -3.106  16.362 -46.619  1.00  0.00     0.047 A 
ATOM     15  C   UNL     1      -3.236  16.097 -47.989  1.00  0.00     0.115 A 
ATOM     16  C   UNL     1      -3.538  13.742 -47.496  1.00  0.00     0.016 A 
ATOM     17  C   UNL     1      -3.450  14.785 -48.423  1.00  0.00     0.047 A 
BRANCH  15  18
ATOM     18  O   UNL     1      -3.150  17.126 -48.924  1.00  0.00    -0.508 OA
ATOM     19  H   UNL     1      -3.652  17.998 -48.799  1.00  0.00     0.293 HD
ENDBRANCH  15  18
ENDBRANCH   1  12
BRANCH   2  20
ATOM     20  O   UNL     1      -1.105  12.477 -45.283  1.00  0.00    -0.502 OA
ATOM     21  H   UNL     1      -0.913  12.538 -46.275  1.00  0.00     0.293 HD
ENDBRANCH   2  20
BRANCH   6  22
ATOM     22  O   UNL     1      -2.988   8.907 -42.003  1.00  0.00    -0.507 OA
ATOM     23  H   UNL     1      -2.023   9.088 -42.253  1.00  0.00     0.293 HD
ENDBRANCH   6  22
BRANCH   8  24
ATOM     24  O   UNL     1      -7.675  10.106 -41.875  1.00  0.00    -0.508 OA
ATOM     25  H   UNL     1      -8.494  10.302 -42.438  1.00  0.00     0.293 HD
ENDBRANCH   8  24
TORSDOF 5
ENDMDL
MODEL 5
REMARK VINA RESULT:    -5.876      6.410      8.372
REMARK INTER + INTRA:          -7.120
REMARK INTER:                  -6.823
REMARK INTRA:                  -0.297
REMARK UNBOUND:                -0.213
REMARK SMILES O=c1c(O)c(-c2ccc(O)cc2)oc2cc(O)cc(O)c12
REMARK SMILES IDX 5 1 3 2 2 3 1 4 21 5 19 6 18 7 16 8 15 9 14 10 13 11 6 12
REMARK SMILES IDX 7 13 8 14 9 15 12 16 11 17 10 18 4 20 20 22 17 24
REMARK H PARENT 10 19 4 21 20 23 17 25
REMARK Flexibility Score: inf
ROOT
ATOM      1  C   UNL     1      -1.666  13.600 -51.599  1.00  0.00     0.180 A 
ATOM      2  C   UNL     1      -0.557  13.696 -50.737  1.00  0.00     0.208 A 
ATOM      3  C   UNL     1       0.138  12.525 -50.393  1.00  0.00     0.238 A 
ATOM      4  O   UNL     1       1.139  12.601 -49.630  1.00  0.00    -0.285 OA
ATOM      5  C   UNL     1      -0.297  11.283 -50.897  1.00  0.00     0.111 A 
ATOM      6  C   UNL     1       0.345  10.058 -50.596  1.00  0.00     0.134 A 
ATOM      7  C   UNL     1      -0.155   8.861 -51.131  1.00  0.00     0.093 A 
ATOM      8  C   UNL     1      -1.282   8.866 -51.959  1.00  0.00     0.123 A 
ATOM      9  C   UNL     1      -1.918  10.072 -52.259  1.00  0.00     0.094 A 
ATOM     10  C   UNL     1      -1.435  11.275 -51.737  1.00  0.00     0.146 A 
ATOM     11  O   UNL     1      -2.056  12.408 -52.044  1.00  0.00    -0.452 OA
ENDROOT
BRANCH   1  12
ATOM     12  C   UNL     1      -2.439  14.789 -52.023  1.00  0.00     0.021 A 
ATOM     13  C   UNL     1      -2.103  15.505 -53.188  1.00  0.00     0.016 A 
ATOM     14  C   UNL     1      -2.862  16.611 -53.581  1.00  0.00     0.047 A 
ATOM     15  C   UNL     1      -3.972  17.009 -52.825  1.00  0.00     0.115 A 
ATOM     16  C   UNL     1      -3.566  15.182 -51.282  1.00  0.00     0.016 A 
ATOM     17  C   UNL     1      -4.323  16.290 -51.678  1.00  0.00     0.047 A 
BRANCH  15  18
ATOM     18  O   UNL     1      -4.735  18.110 -53.207  1.00  0.00    -0.508 OA
ATOM     19  H   UNL     1      -4.911  18.319 -54.182  1.00  0.00     0.293 HD
ENDBRANCH  15  18
ENDBRANCH   1  12
BRANCH   2  20
ATOM     20  O   UNL     1      -0.177  14.933 -50.210  1.00  0.00    -0.502 OA
ATOM     21  H   UNL     1      -0.835  15.557 -49.759  1.00  0.00     0.293 HD
ENDBRANCH   2  20
BRANCH   6  22
ATOM     22  O   UNL     1       1.471  10.020 -49.772  1.00  0.00    -0.507 OA
ATOM     23  H   UNL     1       1.968  10.862 -49.508  1.00  0.00     0.293 HD
ENDBRANCH   6  22
BRANCH   8  24
ATOM     24  O   UNL     1      -1.780   7.678 -52.489  1.00  0.00    -0.508 OA
ATOM     25  H   UNL     1      -2.382   7.671 -53.303  1.00  0.00     0.293 HD
ENDBRANCH   8  24
TORSDOF 5
ENDMDL
MODEL 6
REMARK VINA RESULT:    -5.858      1.838      6.923
REMARK INTER + INTRA:          -7.099
REMARK INTER:                  -6.811
REMARK INTRA:                  -0.287
REMARK UNBOUND:                -0.213
REMARK SMILES O=c1c(O)c(-c2ccc(O)cc2)oc2cc(O)cc(O)c12
REMARK SMILES IDX 5 1 3 2 2 3 1 4 21 5 19 6 18 7 16 8 15 9 14 10 13 11 6 12
REMARK SMILES IDX 7 13 8 14 9 15 12 16 11 17 10 18 4 20 20 22 17 24
REMARK H PARENT 10 19 4 21 20 23 17 25
REMARK Flexibility Score: inf
ROOT
ATOM      1  C   UNL     1      -3.547  14.834 -49.051  1.00  0.00     0.180 A 
ATOM      2  C   UNL     1      -3.324  15.909 -48.170  1.00  0.00     0.208 A 
ATOM      3  C   UNL     1      -3.521  15.710 -46.794  1.00  0.00     0.238 A 
ATOM      4  O   UNL     1      -3.313  16.663 -45.994  1.00  0.00    -0.285 OA
ATOM      5  C   UNL     1      -3.955  14.454 -46.326  1.00  0.00     0.111 A 
ATOM      6  C   UNL     1      -4.180  14.173 -44.956  1.00  0.00     0.134 A 
ATOM      7  C   UNL     1      -4.620  12.897 -44.571  1.00  0.00     0.093 A 
ATOM      8  C   UNL     1      -4.840  11.900 -45.528  1.00  0.00     0.123 A 
ATOM      9  C   UNL     1      -4.619  12.173 -46.879  1.00  0.00     0.094 A 
ATOM     10  C   UNL     1      -4.179  13.436 -47.283  1.00  0.00     0.146 A 
ATOM     11  O   UNL     1      -3.970  13.666 -48.574  1.00  0.00    -0.452 OA
ENDROOT
BRANCH   1  12
ATOM     12  C   UNL     1      -3.343  14.958 -50.512  1.00  0.00     0.021 A 
ATOM     13  C   UNL     1      -4.396  15.323 -51.371  1.00  0.00     0.016 A 
ATOM     14  C   UNL     1      -4.173  15.457 -52.745  1.00  0.00     0.047 A 
ATOM     15  C   UNL     1      -2.895  15.240 -53.276  1.00  0.00     0.115 A 
ATOM     16  C   UNL     1      -2.060  14.763 -51.050  1.00  0.00     0.016 A 
ATOM     17  C   UNL     1      -1.840  14.896 -52.424  1.00  0.00     0.047 A 
BRANCH  15  18
ATOM     18  O   UNL     1      -2.662  15.370 -54.643  1.00  0.00    -0.508 OA
ATOM     19  H   UNL     1      -3.042  16.145 -55.174  1.00  0.00     0.293 HD
ENDBRANCH  15  18
ENDBRANCH   1  12
BRANCH   2  20
ATOM     20  O   UNL     1      -2.943  17.159 -48.664  1.00  0.00    -0.502 OA
ATOM     21  H   UNL     1      -3.555  17.726 -49.237  1.00  0.00     0.293 HD
ENDBRANCH   2  20
BRANCH   6  22
ATOM     22  O   UNL     1      -3.971  15.146 -43.979  1.00  0.00    -0.507 OA
ATOM     23  H   UNL     1      -3.255  15.046 -43.270  1.00  0.00     0.293 HD
ENDBRANCH   6  22
BRANCH   8  24
ATOM     24  O   UNL     1      -5.279  10.635 -45.146  1.00  0.00    -0.508 OA
ATOM     25  H   UNL     1      -4.727   9.805 -45.326  1.00  0.00     0.293 HD
ENDBRANCH   8  24
TORSDOF 5
ENDMDL
MODEL 7
REMARK VINA RESULT:    -5.856      5.570      7.085
REMARK INTER + INTRA:          -7.096
REMARK INTER:                  -6.828
REMARK INTRA:                  -0.268
REMARK UNBOUND:                -0.213
REMARK SMILES O=c1c(O)c(-c2ccc(O)cc2)oc2cc(O)cc(O)c12
REMARK SMILES IDX 5 1 3 2 2 3 1 4 21 5 19 6 18 7 16 8 15 9 14 10 13 11 6 12
REMARK SMILES IDX 7 13 8 14 9 15 12 16 11 17 10 18 4 20 20 22 17 24
REMARK H PARENT 10 19 4 21 20 23 17 25
REMARK Flexibility Score: inf
ROOT
ATOM      1  C   UNL     1      -2.318  12.705 -51.699  1.00  0.00     0.180 A 
ATOM      2  C   UNL     1      -3.432  12.934 -50.867  1.00  0.00     0.208 A 
ATOM      3  C   UNL     1      -4.099  14.167 -50.952  1.00  0.00     0.238 A 
ATOM      4  O   UNL     1      -5.104  14.378 -50.220  1.00  0.00    -0.285 OA
ATOM      5  C   UNL     1      -3.634  15.152 -51.846  1.00  0.00     0.111 A 
ATOM      6  C   UNL     1      -4.248  16.420 -51.989  1.00  0.00     0.134 A 
ATOM      7  C   UNL     1      -3.719  17.350 -52.896  1.00  0.00     0.093 A 
ATOM      8  C   UNL     1      -2.589  17.037 -53.661  1.00  0.00     0.123 A 
ATOM      9  C   UNL     1      -1.981  15.789 -53.523  1.00  0.00     0.094 A 
ATOM     10  C   UNL     1      -2.494  14.847 -52.626  1.00  0.00     0.146 A 
ATOM     11  O   UNL     1      -1.899  13.664 -52.520  1.00  0.00    -0.452 OA
ENDROOT
BRANCH   1  12
ATOM     12  C   UNL     1      -1.574  11.427 -51.683  1.00  0.00     0.021 A 
ATOM     13  C   UNL     1      -0.395  11.273 -50.929  1.00  0.00     0.016 A 
ATOM     14  C   UNL     1       0.278  10.048 -50.911  1.00  0.00     0.047 A 
ATOM     15  C   UNL     1      -0.224   8.958 -51.634  1.00  0.00     0.115 A 
ATOM     16  C   UNL     1      -2.081  10.322 -52.388  1.00  0.00     0.016 A 
ATOM     17  C   UNL     1      -1.405   9.098 -52.369  1.00  0.00     0.047 A 
BRANCH  15  18
ATOM     18  O   UNL     1       0.439   7.732 -51.624  1.00  0.00    -0.508 OA
ATOM     19  H   UNL     1       0.777   7.306 -52.478  1.00  0.00     0.293 HD
ENDBRANCH  15  18
ENDBRANCH   1  12
BRANCH   2  20
ATOM     20  O   UNL     1      -3.843  11.960 -49.953  1.00  0.00    -0.502 OA
ATOM     21  H   UNL     1      -4.653  11.374 -50.112  1.00  0.00     0.293 HD
ENDBRANCH   2  20
BRANCH   6  22
ATOM     22  O   UNL     1      -5.374  16.761 -51.240  1.00  0.00    -0.507 OA
ATOM     23  H   UNL     1      -5.799  16.113 -50.588  1.00  0.00     0.293 HD
ENDBRANCH   6  22
BRANCH   8  24
ATOM     24  O   UNL     1      -2.063  17.962 -54.559  1.00  0.00    -0.508 OA
ATOM     25  H   UNL     1      -1.123  18.325 -54.457  1.00  0.00     0.293 HD
ENDBRANCH   8  24
TORSDOF 5
ENDMDL
MODEL 8
REMARK VINA RESULT:    -5.800      3.481      6.421
REMARK INTER + INTRA:          -7.030
REMARK INTER:                  -6.733
REMARK INTRA:                  -0.297
REMARK UNBOUND:                -0.213
REMARK SMILES O=c1c(O)c(-c2ccc(O)cc2)oc2cc(O)cc(O)c12
REMARK SMILES IDX 5 1 3 2 2 3 1 4 21 5 19 6 18 7 16 8 15 9 14 10 13 11 6 12
REMARK SMILES IDX 7 13 8 14 9 15 12 16 11 17 10 18 4 20 20 22 17 24
REMARK H PARENT 10 19 4 21 20 23 17 25
REMARK Flexibility Score: inf
ROOT
ATOM      1  C   UNL     1      -2.166  12.877 -49.931  1.00  0.00     0.180 A 
ATOM      2  C   UNL     1      -1.701  14.161 -50.274  1.00  0.00     0.208 A 
ATOM      3  C   UNL     1      -2.174  15.268 -49.551  1.00  0.00     0.238 A 
ATOM      4  O   UNL     1      -1.756  16.422 -49.843  1.00  0.00    -0.285 OA
ATOM      5  C   UNL     1      -3.113  15.078 -48.518  1.00  0.00     0.111 A 
ATOM      6  C   UNL     1      -3.641  16.141 -47.745  1.00  0.00     0.134 A 
ATOM      7  C   UNL     1      -4.580  15.869 -46.739  1.00  0.00     0.093 A 
ATOM      8  C   UNL     1      -5.000  14.557 -46.491  1.00  0.00     0.123 A 
ATOM      9  C   UNL     1      -4.482  13.507 -47.250  1.00  0.00     0.094 A 
ATOM     10  C   UNL     1      -3.545  13.756 -48.256  1.00  0.00     0.146 A 
ATOM     11  O   UNL     1      -3.064  12.737 -48.959  1.00  0.00    -0.452 OA
ENDROOT
BRANCH   1  12
ATOM     12  C   UNL     1      -1.702  11.658 -50.631  1.00  0.00     0.021 A 
ATOM     13  C   UNL     1      -0.550  10.966 -50.214  1.00  0.00     0.016 A 
ATOM     14  C   UNL     1      -0.144   9.804 -50.877  1.00  0.00     0.047 A 
ATOM     15  C   UNL     1      -0.890   9.312 -51.956  1.00  0.00     0.115 A 
ATOM     16  C   UNL     1      -2.455  11.146 -51.701  1.00  0.00     0.016 A 
ATOM     17  C   UNL     1      -2.047   9.984 -52.363  1.00  0.00     0.047 A 
BRANCH  15  18
ATOM     18  O   UNL     1      -0.495   8.155 -52.625  1.00  0.00    -0.508 OA
ATOM     19  H   UNL     1       0.307   8.150 -53.244  1.00  0.00     0.293 HD
ENDBRANCH  15  18
ENDBRANCH   1  12
BRANCH   2  20
ATOM     20  O   UNL     1      -0.808  14.328 -51.335  1.00  0.00    -0.502 OA
ATOM     21  H   UNL     1      -0.478  15.240 -51.628  1.00  0.00     0.293 HD
ENDBRANCH   2  20
BRANCH   6  22
ATOM     22  O   UNL     1      -3.242  17.459 -47.969  1.00  0.00    -0.507 OA
ATOM     23  H   UNL     1      -2.949  18.064 -47.212  1.00  0.00     0.293 HD
ENDBRANCH   6  22
BRANCH   8  24
ATOM     24  O   UNL     1      -5.934  14.288 -45.493  1.00  0.00    -0.508 OA
ATOM     25  H   UNL     1      -5.849  13.476 -44.893  1.00  0.00     0.293 HD
ENDBRANCH   8  24
TORSDOF 5
ENDMDL
