MODEL 1
REMARK VINA RESULT:    -4.940      0.000      0.000
REMARK INTER + INTRA:         -10.783
REMARK INTER:                  -8.982
REMARK INTRA:                  -1.801
REMARK UNBOUND:                -1.801
REMARK SMILES CCCCCCCCCCCCCCCC(=O)[O-]
REMARK SMILES IDX 9 1 10 2 11 3 12 4 13 5 14 6 15 7 16 8 17 9 18 10 8 11 7 12
REMARK SMILES IDX 6 13 5 14 4 15 3 16 2 17 1 18
REMARK H PARENT
REMARK Flexibility Score: inf
ROOT
ATOM      1  C   UNL     1      14.929  10.934  32.907  1.00  0.00     0.000 C 
ENDROOT
BRANCH   1   2
ATOM      2  C   UNL     1      13.503  11.456  33.120  1.00  0.00     0.000 C 
BRANCH   2   3
ATOM      3  C   UNL     1      13.496  12.984  33.273  1.00  0.00     0.000 C 
BRANCH   3   4
ATOM      4  C   UNL     1      12.498  13.470  34.337  1.00  0.00     0.000 C 
BRANCH   4   5
ATOM      5  C   UNL     1      13.195  14.063  35.574  1.00  0.00     0.000 C 
BRANCH   5   6
ATOM      6  C   UNL     1      13.241  13.078  36.754  1.00  0.00     0.006 C 
BRANCH   6   7
ATOM      7  C   UNL     1      12.105  12.048  36.712  1.00  0.00     0.053 C 
BRANCH   7   8
ATOM      8  C   UNL     1      11.464  11.923  38.058  1.00  0.00     0.041 C 
ATOM      9  O   UNL     1      10.476  12.643  38.361  1.00  0.00    -0.550 OA
ATOM     10  O   UNL     1      11.990  11.046  38.999  1.00  0.00    -0.550 OA
ENDBRANCH   7   8
ENDBRANCH   6   7
ENDBRANCH   5   6
ENDBRANCH   4   5
ENDBRANCH   3   4
ENDBRANCH   2   3
ENDBRANCH   1   2
BRANCH   1  11
ATOM     11  C   UNL     1      15.906  11.575  33.901  1.00  0.00     0.000 C 
BRANCH  11  12
ATOM     12  C   UNL     1      15.848  10.871  35.262  1.00  0.00    -0.000 C 
BRANCH  12  13
ATOM     13  C   UNL     1      16.495  11.731  36.356  1.00  0.00    -0.000 C 
BRANCH  13  14
ATOM     14  C   UNL     1      17.239  12.950  35.788  1.00  0.00    -0.000 C 
BRANCH  14  15
ATOM     15  C   UNL     1      18.127  13.641  36.835  1.00  0.00    -0.000 C 
BRANCH  15  16
ATOM     16  C   UNL     1      19.175  14.535  36.161  1.00  0.00    -0.000 C 
BRANCH  16  17
ATOM     17  C   UNL     1      18.948  14.603  34.646  1.00  0.00    -0.003 C 
ATOM     18  C   UNL     1      19.004  16.042  34.144  1.00  0.00     0.004 C 
ENDBRANCH  16  17
ENDBRANCH  15  16
ENDBRANCH  14  15
ENDBRANCH  13  14
ENDBRANCH  12  13
ENDBRANCH  11  12
ENDBRANCH   1  11
TORSDOF 14
ENDMDL
MODEL 2
REMARK VINA RESULT:    -4.930      3.873      6.382
REMARK INTER + INTRA:         -10.767
REMARK INTER:                  -8.326
REMARK INTRA:                  -2.441
REMARK UNBOUND:                -1.801
REMARK SMILES CCCCCCCCCCCCCCCC(=O)[O-]
REMARK SMILES IDX 9 1 10 2 11 3 12 4 13 5 14 6 15 7 16 8 17 9 18 10 8 11 7 12
REMARK SMILES IDX 6 13 5 14 4 15 3 16 2 17 1 18
REMARK H PARENT
REMARK Flexibility Score: inf
ROOT
ATOM      1  C   UNL     1      13.692   9.929  36.229  1.00  0.00     0.000 C 
ENDROOT
BRANCH   1   2
ATOM      2  C   UNL     1      14.813  10.590  37.039  1.00  0.00     0.000 C 
BRANCH   2   3
ATOM      3  C   UNL     1      16.030  10.887  36.151  1.00  0.00     0.000 C 
BRANCH   3   4
ATOM      4  C   UNL     1      16.608  12.293  36.384  1.00  0.00     0.000 C 
BRANCH   4   5
ATOM      5  C   UNL     1      17.896  12.543  35.581  1.00  0.00     0.000 C 
BRANCH   5   6
ATOM      6  C   UNL     1      17.622  12.782  34.086  1.00  0.00     0.006 C 
BRANCH   6   7
ATOM      7  C   UNL     1      18.163  11.655  33.197  1.00  0.00     0.053 C 
BRANCH   7   8
ATOM      8  C   UNL     1      19.647  11.771  33.052  1.00  0.00     0.041 C 
ATOM      9  O   UNL     1      20.392  10.801  33.352  1.00  0.00    -0.550 OA
ATOM     10  O   UNL     1      20.213  12.969  32.634  1.00  0.00    -0.550 OA
ENDBRANCH   7   8
ENDBRANCH   6   7
ENDBRANCH   5   6
ENDBRANCH   4   5
ENDBRANCH   3   4
ENDBRANCH   2   3
ENDBRANCH   1   2
BRANCH   1  11
ATOM     11  C   UNL     1      12.361  10.665  36.425  1.00  0.00     0.000 C 
BRANCH  11  12
ATOM     12  C   UNL     1      12.493  11.770  37.480  1.00  0.00    -0.000 C 
BRANCH  12  13
ATOM     13  C   UNL     1      11.799  13.059  37.018  1.00  0.00    -0.000 C 
BRANCH  13  14
ATOM     14  C   UNL     1      12.087  13.392  35.545  1.00  0.00    -0.000 C 
BRANCH  14  15
ATOM     15  C   UNL     1      13.465  14.040  35.345  1.00  0.00    -0.000 C 
BRANCH  15  16
ATOM     16  C   UNL     1      14.192  13.422  34.144  1.00  0.00    -0.000 C 
BRANCH  16  17
ATOM     17  C   UNL     1      13.276  12.455  33.384  1.00  0.00    -0.003 C 
ATOM     18  C   UNL     1      14.057  11.255  32.856  1.00  0.00     0.004 C 
ENDBRANCH  16  17
ENDBRANCH  15  16
ENDBRANCH  14  15
ENDBRANCH  13  14
ENDBRANCH  12  13
ENDBRANCH  11  12
ENDBRANCH   1  11
TORSDOF 14
ENDMDL
MODEL 3
REMARK VINA RESULT:    -4.888      3.407      6.244
REMARK INTER + INTRA:         -10.689
REMARK INTER:                  -8.344
REMARK INTRA:                  -2.345
REMARK UNBOUND:                -1.801
REMARK SMILES CCCCCCCCCCCCCCCC(=O)[O-]
REMARK SMILES IDX 9 1 10 2 11 3 12 4 13 5 14 6 15 7 16 8 17 9 18 10 8 11 7 12
REMARK SMILES IDX 6 13 5 14 4 15 3 16 2 17 1 18
REMARK H PARENT
REMARK Flexibility Score: inf
ROOT
ATOM      1  C   UNL     1      13.563  11.419  32.994  1.00  0.00     0.000 C 
ENDROOT
BRANCH   1   2
ATOM      2  C   UNL     1      14.323  10.606  34.049  1.00  0.00     0.000 C 
BRANCH   2   3
ATOM      3  C   UNL     1      15.765  11.114  34.199  1.00  0.00     0.000 C 
BRANCH   3   4
ATOM      4  C   UNL     1      16.229  11.162  35.664  1.00  0.00     0.000 C 
BRANCH   4   5
ATOM      5  C   UNL     1      16.591  12.586  36.122  1.00  0.00     0.000 C 
BRANCH   5   6
ATOM      6  C   UNL     1      16.786  13.554  34.943  1.00  0.00     0.006 C 
BRANCH   6   7
ATOM      7  C   UNL     1      18.060  14.398  35.073  1.00  0.00     0.053 C 
BRANCH   7   8
ATOM      8  C   UNL     1      19.108  13.909  34.125  1.00  0.00     0.041 C 
ATOM      9  O   UNL     1      20.035  14.675  33.751  1.00  0.00    -0.550 OA
ATOM     10  O   UNL     1      19.034  12.620  33.611  1.00  0.00    -0.550 OA
ENDBRANCH   7   8
ENDBRANCH   6   7
ENDBRANCH   5   6
ENDBRANCH   4   5
ENDBRANCH   3   4
ENDBRANCH   2   3
ENDBRANCH   1   2
BRANCH   1  11
ATOM     11  C   UNL     1      13.628  12.920  33.301  1.00  0.00     0.000 C 
BRANCH  11  12
ATOM     12  C   UNL     1      12.454  13.352  34.188  1.00  0.00    -0.000 C 
BRANCH  12  13
ATOM     13  C   UNL     1      12.947  14.129  35.416  1.00  0.00    -0.000 C 
BRANCH  13  14
ATOM     14  C   UNL     1      13.207  13.219  36.627  1.00  0.00    -0.000 C 
BRANCH  14  15
ATOM     15  C   UNL     1      11.950  12.456  37.073  1.00  0.00    -0.000 C 
BRANCH  15  16
ATOM     16  C   UNL     1      12.219  10.948  37.138  1.00  0.00    -0.000 C 
BRANCH  16  17
ATOM     17  C   UNL     1      13.510  10.650  37.909  1.00  0.00    -0.003 C 
ATOM     18  C   UNL     1      13.234   9.786  39.135  1.00  0.00     0.004 C 
ENDBRANCH  16  17
ENDBRANCH  15  16
ENDBRANCH  14  15
ENDBRANCH  13  14
ENDBRANCH  12  13
ENDBRANCH  11  12
ENDBRANCH   1  11
TORSDOF 14
ENDMDL
MODEL 4
REMARK VINA RESULT:    -4.854      2.977      5.260
REMARK INTER + INTRA:         -10.628
REMARK INTER:                  -8.204
REMARK INTRA:                  -2.424
REMARK UNBOUND:                -1.801
REMARK SMILES CCCCCCCCCCCCCCCC(=O)[O-]
REMARK SMILES IDX 9 1 10 2 11 3 12 4 13 5 14 6 15 7 16 8 17 9 18 10 8 11 7 12
REMARK SMILES IDX 6 13 5 14 4 15 3 16 2 17 1 18
REMARK H PARENT
REMARK Flexibility Score: inf
ROOT
ATOM      1  C   UNL     1      13.888  10.031  34.923  1.00  0.00     0.000 C 
ENDROOT
BRANCH   1   2
ATOM      2  C   UNL     1      13.948   9.925  33.395  1.00  0.00     0.000 C 
BRANCH   2   3
ATOM      3  C   UNL     1      14.858  11.014  32.805  1.00  0.00     0.000 C 
BRANCH   3   4
ATOM      4  C   UNL     1      16.036  11.368  33.727  1.00  0.00     0.000 C 
BRANCH   4   5
ATOM      5  C   UNL     1      16.165  12.882  33.967  1.00  0.00     0.000 C 
BRANCH   5   6
ATOM      6  C   UNL     1      16.798  13.212  35.329  1.00  0.00     0.006 C 
BRANCH   6   7
ATOM      7  C   UNL     1      16.799  12.014  36.288  1.00  0.00     0.053 C 
BRANCH   7   8
ATOM      8  C   UNL     1      18.199  11.655  36.672  1.00  0.00     0.041 C 
ATOM      9  O   UNL     1      18.727  12.164  37.696  1.00  0.00    -0.550 OA
ATOM     10  O   UNL     1      18.941  10.797  35.871  1.00  0.00    -0.550 OA
ENDBRANCH   7   8
ENDBRANCH   6   7
ENDBRANCH   5   6
ENDBRANCH   4   5
ENDBRANCH   3   4
ENDBRANCH   2   3
ENDBRANCH   1   2
BRANCH   1  11
ATOM     11  C   UNL     1      12.526   9.568  35.455  1.00  0.00     0.000 C 
BRANCH  11  12
ATOM     12  C   UNL     1      12.557   9.406  36.980  1.00  0.00    -0.000 C 
BRANCH  12  13
ATOM     13  C   UNL     1      13.220  10.618  37.650  1.00  0.00    -0.000 C 
BRANCH  13  14
ATOM     14  C   UNL     1      12.197  11.640  38.171  1.00  0.00    -0.000 C 
BRANCH  14  15
ATOM     15  C   UNL     1      11.938  12.779  37.173  1.00  0.00    -0.000 C 
BRANCH  15  16
ATOM     16  C   UNL     1      13.240  13.214  36.489  1.00  0.00    -0.000 C 
BRANCH  16  17
ATOM     17  C   UNL     1      12.957  14.180  35.332  1.00  0.00    -0.003 C 
ATOM     18  C   UNL     1      12.497  13.430  34.086  1.00  0.00     0.004 C 
ENDBRANCH  16  17
ENDBRANCH  15  16
ENDBRANCH  14  15
ENDBRANCH  13  14
ENDBRANCH  12  13
ENDBRANCH  11  12
ENDBRANCH   1  11
TORSDOF 14
ENDMDL
MODEL 5
REMARK VINA RESULT:    -4.835      4.151      7.073
REMARK INTER + INTRA:         -10.593
REMARK INTER:                  -8.666
REMARK INTRA:                  -1.927
REMARK UNBOUND:                -1.801
REMARK SMILES CCCCCCCCCCCCCCCC(=O)[O-]
REMARK SMILES IDX 9 1 10 2 11 3 12 4 13 5 14 6 15 7 16 8 17 9 18 10 8 11 7 12
REMARK SMILES IDX 6 13 5 14 4 15 3 16 2 17 1 18
REMARK H PARENT
REMARK Flexibility Score: inf
ROOT
ATOM      1  C   UNL     1      15.798  11.414  33.748  1.00  0.00     0.000 C 
ENDROOT
BRANCH   1   2
ATOM      2  C   UNL     1      16.191  11.310  35.226  1.00  0.00     0.000 C 
BRANCH   2   3
ATOM      3  C   UNL     1      16.854  12.609  35.709  1.00  0.00     0.000 C 
BRANCH   3   4
ATOM      4  C   UNL     1      16.760  13.745  34.678  1.00  0.00     0.000 C 
BRANCH   4   5
ATOM      5  C   UNL     1      17.988  14.672  34.706  1.00  0.00     0.000 C 
BRANCH   5   6
ATOM      6  C   UNL     1      19.271  13.967  34.237  1.00  0.00     0.006 C 
BRANCH   6   7
ATOM      7  C   UNL     1      20.498  14.888  34.263  1.00  0.00     0.053 C 
BRANCH   7   8
ATOM      8  C   UNL     1      20.848  15.330  32.878  1.00  0.00     0.041 C 
ATOM      9  O   UNL     1      20.081  16.102  32.244  1.00  0.00    -0.550 OA
ATOM     10  O   UNL     1      21.997  14.848  32.264  1.00  0.00    -0.550 OA
ENDBRANCH   7   8
ENDBRANCH   6   7
ENDBRANCH   5   6
ENDBRANCH   4   5
ENDBRANCH   3   4
ENDBRANCH   2   3
ENDBRANCH   1   2
BRANCH   1  11
ATOM     11  C   UNL     1      14.527  10.607  33.456  1.00  0.00     0.000 C 
BRANCH  11  12
ATOM     12  C   UNL     1      13.497  11.456  32.701  1.00  0.00    -0.000 C 
BRANCH  12  13
ATOM     13  C   UNL     1      13.527  12.914  33.180  1.00  0.00    -0.000 C 
BRANCH  13  14
ATOM     14  C   UNL     1      12.526  13.187  34.314  1.00  0.00    -0.000 C 
BRANCH  14  15
ATOM     15  C   UNL     1      13.160  13.941  35.492  1.00  0.00    -0.000 C 
BRANCH  15  16
ATOM     16  C   UNL     1      13.274  13.036  36.725  1.00  0.00    -0.000 C 
BRANCH  16  17
ATOM     17  C   UNL     1      12.143  12.002  36.755  1.00  0.00    -0.003 C 
ATOM     18  C   UNL     1      11.169  12.282  37.896  1.00  0.00     0.004 C 
ENDBRANCH  16  17
ENDBRANCH  15  16
ENDBRANCH  14  15
ENDBRANCH  13  14
ENDBRANCH  12  13
ENDBRANCH  11  12
ENDBRANCH   1  11
TORSDOF 14
ENDMDL
MODEL 6
REMARK VINA RESULT:    -4.737      3.451      6.480
REMARK INTER + INTRA:         -10.414
REMARK INTER:                  -8.337
REMARK INTRA:                  -2.077
REMARK UNBOUND:                -1.801
REMARK SMILES CCCCCCCCCCCCCCCC(=O)[O-]
REMARK SMILES IDX 9 1 10 2 11 3 12 4 13 5 14 6 15 7 16 8 17 9 18 10 8 11 7 12
REMARK SMILES IDX 6 13 5 14 4 15 3 16 2 17 1 18
REMARK H PARENT
REMARK Flexibility Score: inf
ROOT
ATOM      1  C   UNL     1      15.713  10.756  35.056  1.00  0.00     0.000 C 
ENDROOT
BRANCH   1   2
ATOM      2  C   UNL     1      16.935  11.322  35.789  1.00  0.00     0.000 C 
BRANCH   2   3
ATOM      3  C   UNL     1      16.762  12.823  36.065  1.00  0.00     0.000 C 
BRANCH   3   4
ATOM      4  C   UNL     1      18.035  13.476  36.627  1.00  0.00     0.000 C 
BRANCH   4   5
ATOM      5  C   UNL     1      18.675  14.468  35.640  1.00  0.00     0.000 C 
BRANCH   5   6
ATOM      6  C   UNL     1      18.931  13.845  34.258  1.00  0.00     0.006 C 
BRANCH   6   7
ATOM      7  C   UNL     1      20.089  12.837  34.268  1.00  0.00     0.053 C 
BRANCH   7   8
ATOM      8  C   UNL     1      19.760  11.658  33.408  1.00  0.00     0.041 C 
ATOM      9  O   UNL     1      18.759  11.688  32.645  1.00  0.00    -0.550 OA
ATOM     10  O   UNL     1      20.531  10.505  33.487  1.00  0.00    -0.550 OA
ENDBRANCH   7   8
ENDBRANCH   6   7
ENDBRANCH   5   6
ENDBRANCH   4   5
ENDBRANCH   3   4
ENDBRANCH   2   3
ENDBRANCH   1   2
BRANCH   1  11
ATOM     11  C   UNL     1      15.492  11.470  33.717  1.00  0.00     0.000 C 
BRANCH  11  12
ATOM     12  C   UNL     1      14.075  11.221  33.187  1.00  0.00    -0.000 C 
BRANCH  12  13
ATOM     13  C   UNL     1      13.166  12.429  33.455  1.00  0.00    -0.000 C 
BRANCH  13  14
ATOM     14  C   UNL     1      13.934  13.633  34.023  1.00  0.00    -0.000 C 
BRANCH  14  15
ATOM     15  C   UNL     1      13.322  14.160  35.330  1.00  0.00    -0.000 C 
BRANCH  15  16
ATOM     16  C   UNL     1      12.259  13.193  35.867  1.00  0.00    -0.000 C 
BRANCH  16  17
ATOM     17  C   UNL     1      12.729  12.523  37.163  1.00  0.00    -0.003 C 
ATOM     18  C   UNL     1      12.647  11.003  37.060  1.00  0.00     0.004 C 
ENDBRANCH  16  17
ENDBRANCH  15  16
ENDBRANCH  14  15
ENDBRANCH  13  14
ENDBRANCH  12  13
ENDBRANCH  11  12
ENDBRANCH   1  11
TORSDOF 14
ENDMDL
MODEL 7
REMARK VINA RESULT:    -4.736      1.542      2.400
REMARK INTER + INTRA:         -10.413
REMARK INTER:                  -8.064
REMARK INTRA:                  -2.349
REMARK UNBOUND:                -1.801
REMARK SMILES CCCCCCCCCCCCCCCC(=O)[O-]
REMARK SMILES IDX 9 1 10 2 11 3 12 4 13 5 14 6 15 7 16 8 17 9 18 10 8 11 7 12
REMARK SMILES IDX 6 13 5 14 4 15 3 16 2 17 1 18
REMARK H PARENT
REMARK Flexibility Score: inf
ROOT
ATOM      1  C   UNL     1      15.623  10.844  35.132  1.00  0.00     0.000 C 
ENDROOT
BRANCH   1   2
ATOM      2  C   UNL     1      15.369  11.927  34.076  1.00  0.00     0.000 C 
BRANCH   2   3
ATOM      3  C   UNL     1      14.016  11.708  33.382  1.00  0.00     0.000 C 
BRANCH   3   4
ATOM      4  C   UNL     1      13.103  12.943  33.457  1.00  0.00     0.000 C 
BRANCH   4   5
ATOM      5  C   UNL     1      13.280  13.730  34.767  1.00  0.00     0.000 C 
BRANCH   5   6
ATOM      6  C   UNL     1      12.268  13.313  35.848  1.00  0.00     0.006 C 
BRANCH   6   7
ATOM      7  C   UNL     1      12.935  12.643  37.057  1.00  0.00     0.053 C 
BRANCH   7   8
ATOM      8  C   UNL     1      12.290  11.324  37.343  1.00  0.00     0.041 C 
ATOM      9  O   UNL     1      12.084  10.962  38.532  1.00  0.00    -0.550 OA
ATOM     10  O   UNL     1      11.961  10.470  36.298  1.00  0.00    -0.550 OA
ENDBRANCH   7   8
ENDBRANCH   6   7
ENDBRANCH   5   6
ENDBRANCH   4   5
ENDBRANCH   3   4
ENDBRANCH   2   3
ENDBRANCH   1   2
BRANCH   1  11
ATOM     11  C   UNL     1      16.637  11.322  36.179  1.00  0.00     0.000 C 
BRANCH  11  12
ATOM     12  C   UNL     1      16.552  12.841  36.375  1.00  0.00    -0.000 C 
BRANCH  12  13
ATOM     13  C   UNL     1      17.900  13.412  36.838  1.00  0.00    -0.000 C 
BRANCH  13  14
ATOM     14  C   UNL     1      18.563  14.301  35.774  1.00  0.00    -0.000 C 
BRANCH  14  15
ATOM     15  C   UNL     1      19.657  13.564  34.987  1.00  0.00    -0.000 C 
BRANCH  15  16
ATOM     16  C   UNL     1      19.130  13.095  33.625  1.00  0.00    -0.000 C 
BRANCH  16  17
ATOM     17  C   UNL     1      19.277  11.577  33.471  1.00  0.00    -0.003 C 
ATOM     18  C   UNL     1      20.006  10.969  34.665  1.00  0.00     0.004 C 
ENDBRANCH  16  17
ENDBRANCH  15  16
ENDBRANCH  14  15
ENDBRANCH  13  14
ENDBRANCH  12  13
ENDBRANCH  11  12
ENDBRANCH   1  11
TORSDOF 14
ENDMDL
MODEL 8
REMARK VINA RESULT:    -4.709      4.489      7.478
REMARK INTER + INTRA:         -10.364
REMARK INTER:                  -8.457
REMARK INTRA:                  -1.908
REMARK UNBOUND:                -1.801
REMARK SMILES CCCCCCCCCCCCCCCC(=O)[O-]
REMARK SMILES IDX 9 1 10 2 11 3 12 4 13 5 14 6 15 7 16 8 17 9 18 10 8 11 7 12
REMARK SMILES IDX 6 13 5 14 4 15 3 16 2 17 1 18
REMARK H PARENT
REMARK Flexibility Score: inf
ROOT
ATOM      1  C   UNL     1      17.456  11.814  33.284  1.00  0.00     0.000 C 
ENDROOT
BRANCH   1   2
ATOM      2  C   UNL     1      18.846  11.455  32.748  1.00  0.00     0.000 C 
BRANCH   2   3
ATOM      3  C   UNL     1      19.923  11.685  33.819  1.00  0.00     0.000 C 
BRANCH   3   4
ATOM      4  C   UNL     1      21.033  12.640  33.351  1.00  0.00     0.000 C 
BRANCH   4   5
ATOM      5  C   UNL     1      20.476  13.937  32.737  1.00  0.00     0.000 C 
BRANCH   5   6
ATOM      6  C   UNL     1      20.718  15.164  33.631  1.00  0.00     0.006 C 
BRANCH   6   7
ATOM      7  C   UNL     1      19.540  16.147  33.619  1.00  0.00     0.053 C 
BRANCH   7   8
ATOM      8  C   UNL     1      20.026  17.541  33.379  1.00  0.00     0.041 C 
ATOM      9  O   UNL     1      21.234  17.752  33.089  1.00  0.00    -0.550 OA
ATOM     10  O   UNL     1      19.158  18.616  33.526  1.00  0.00    -0.550 OA
ENDBRANCH   7   8
ENDBRANCH   6   7
ENDBRANCH   5   6
ENDBRANCH   4   5
ENDBRANCH   3   4
ENDBRANCH   2   3
ENDBRANCH   1   2
BRANCH   1  11
ATOM     11  C   UNL     1      17.492  12.049  34.800  1.00  0.00     0.000 C 
BRANCH  11  12
ATOM     12  C   UNL     1      16.926  13.429  35.157  1.00  0.00    -0.000 C 
BRANCH  12  13
ATOM     13  C   UNL     1      15.676  13.744  34.323  1.00  0.00    -0.000 C 
BRANCH  13  14
ATOM     14  C   UNL     1      14.376  13.619  35.134  1.00  0.00    -0.000 C 
BRANCH  14  15
ATOM     15  C   UNL     1      13.549  12.387  34.737  1.00  0.00    -0.000 C 
BRANCH  15  16
ATOM     16  C   UNL     1      13.454  12.258  33.212  1.00  0.00    -0.000 C 
BRANCH  16  17
ATOM     17  C   UNL     1      13.879  10.860  32.749  1.00  0.00    -0.003 C 
ATOM     18  C   UNL     1      14.280   9.985  33.933  1.00  0.00     0.004 C 
ENDBRANCH  16  17
ENDBRANCH  15  16
ENDBRANCH  14  15
ENDBRANCH  13  14
ENDBRANCH  12  13
ENDBRANCH  11  12
ENDBRANCH   1  11
TORSDOF 14
ENDMDL
MODEL 9
REMARK VINA RESULT:    -4.681      4.571      7.646
REMARK INTER + INTRA:         -10.313
REMARK INTER:                  -8.295
REMARK INTRA:                  -2.018
REMARK UNBOUND:                -1.801
REMARK SMILES CCCCCCCCCCCCCCCC(=O)[O-]
REMARK SMILES IDX 9 1 10 2 11 3 12 4 13 5 14 6 15 7 16 8 17 9 18 10 8 11 7 12
REMARK SMILES IDX 6 13 5 14 4 15 3 16 2 17 1 18
REMARK H PARENT
REMARK Flexibility Score: inf
ROOT
ATOM      1  C   UNL     1      17.079  13.195  35.909  1.00  0.00     0.000 C 
ENDROOT
BRANCH   1   2
ATOM      2  C   UNL     1      17.115  13.943  34.571  1.00  0.00     0.000 C 
BRANCH   2   3
ATOM      3  C   UNL     1      18.470  14.637  34.367  1.00  0.00     0.000 C 
BRANCH   3   4
ATOM      4  C   UNL     1      19.607  13.965  35.153  1.00  0.00     0.000 C 
BRANCH   4   5
ATOM      5  C   UNL     1      20.517  13.106  34.257  1.00  0.00     0.000 C 
BRANCH   5   6
ATOM      6  C   UNL     1      20.200  13.272  32.762  1.00  0.00     0.006 C 
BRANCH   6   7
ATOM      7  C   UNL     1      21.422  13.707  31.942  1.00  0.00     0.053 C 
BRANCH   7   8
ATOM      8  C   UNL     1      22.133  14.833  32.623  1.00  0.00     0.041 C 
ATOM      9  O   UNL     1      23.324  14.692  33.008  1.00  0.00    -0.550 OA
ATOM     10  O   UNL     1      21.464  16.023  32.881  1.00  0.00    -0.550 OA
ENDBRANCH   7   8
ENDBRANCH   6   7
ENDBRANCH   5   6
ENDBRANCH   4   5
ENDBRANCH   3   4
ENDBRANCH   2   3
ENDBRANCH   1   2
BRANCH   1  11
ATOM     11  C   UNL     1      16.586  11.755  35.724  1.00  0.00     0.000 C 
BRANCH  11  12
ATOM     12  C   UNL     1      16.174  11.496  34.269  1.00  0.00    -0.000 C 
BRANCH  12  13
ATOM     13  C   UNL     1      14.944  10.581  34.199  1.00  0.00    -0.000 C 
BRANCH  13  14
ATOM     14  C   UNL     1      13.805  11.183  33.362  1.00  0.00    -0.000 C 
BRANCH  14  15
ATOM     15  C   UNL     1      13.755  12.716  33.447  1.00  0.00    -0.000 C 
BRANCH  15  16
ATOM     16  C   UNL     1      12.637  13.176  34.390  1.00  0.00    -0.000 C 
BRANCH  16  17
ATOM     17  C   UNL     1      13.214  13.869  35.630  1.00  0.00    -0.003 C 
ATOM     18  C   UNL     1      13.311  12.903  36.807  1.00  0.00     0.004 C 
ENDBRANCH  16  17
ENDBRANCH  15  16
ENDBRANCH  14  15
ENDBRANCH  13  14
ENDBRANCH  12  13
ENDBRANCH  11  12
ENDBRANCH   1  11
TORSDOF 14
ENDMDL
