MODEL 1
REMARK VINA RESULT:    -3.010      0.000      0.000
REMARK INTER + INTRA:          -3.408
REMARK INTER:                  -3.362
REMARK INTRA:                  -0.046
REMARK UNBOUND:                -0.046
REMARK SMILES CCCC(=O)[O-]
REMARK SMILES IDX 3 1 4 2 5 3 6 4 2 5 1 6
REMARK H PARENT
REMARK Flexibility Score: inf
ROOT
ATOM      1  C   UNL     1     300.215 324.773 647.948  1.00  0.00     0.052 C 
ENDROOT
BRANCH   1   2
ATOM      2  C   UNL     1     301.645 324.412 647.684  1.00  0.00     0.041 C 
ATOM      3  O   UNL     1     301.998 323.203 647.642  1.00  0.00    -0.550 OA
ATOM      4  O   UNL     1     302.582 325.411 647.451  1.00  0.00    -0.550 OA
ENDBRANCH   1   2
BRANCH   1   5
ATOM      5  C   UNL     1     299.249 323.871 647.170  1.00  0.00     0.003 C 
ATOM      6  C   UNL     1     298.966 324.398 645.764  1.00  0.00     0.004 C 
ENDBRANCH   1   5
TORSDOF 2
ENDMDL
MODEL 2
REMARK VINA RESULT:    -2.991      0.080      1.323
REMARK INTER + INTRA:          -3.387
REMARK INTER:                  -3.340
REMARK INTRA:                  -0.047
REMARK UNBOUND:                -0.046
REMARK SMILES CCCC(=O)[O-]
REMARK SMILES IDX 3 1 4 2 5 3 6 4 2 5 1 6
REMARK H PARENT
REMARK Flexibility Score: inf
ROOT
ATOM      1  C   UNL     1     300.174 324.774 647.941  1.00  0.00     0.052 C 
ENDROOT
BRANCH   1   2
ATOM      2  C   UNL     1     301.615 324.459 647.677  1.00  0.00     0.041 C 
ATOM      3  O   UNL     1     302.447 325.389 647.504  1.00  0.00    -0.550 OA
ATOM      4  O   UNL     1     302.045 323.139 647.657  1.00  0.00    -0.550 OA
ENDBRANCH   1   2
BRANCH   1   5
ATOM      5  C   UNL     1     299.238 323.837 647.169  1.00  0.00     0.003 C 
ATOM      6  C   UNL     1     298.953 324.336 645.753  1.00  0.00     0.004 C 
ENDBRANCH   1   5
TORSDOF 2
ENDMDL
MODEL 3
REMARK VINA RESULT:    -2.895      2.710      3.508
REMARK INTER + INTRA:          -3.279
REMARK INTER:                  -3.248
REMARK INTRA:                  -0.031
REMARK UNBOUND:                -0.046
REMARK SMILES CCCC(=O)[O-]
REMARK SMILES IDX 3 1 4 2 5 3 6 4 2 5 1 6
REMARK H PARENT
REMARK Flexibility Score: inf
ROOT
ATOM      1  C   UNL     1     298.928 324.374 645.752  1.00  0.00     0.052 C 
ENDROOT
BRANCH   1   2
ATOM      2  C   UNL     1     298.956 325.825 645.380  1.00  0.00     0.041 C 
ATOM      3  O   UNL     1     298.875 326.173 644.172  1.00  0.00    -0.550 OA
ATOM      4  O   UNL     1     299.037 326.795 646.371  1.00  0.00    -0.550 OA
ENDBRANCH   1   2
BRANCH   1   5
ATOM      5  C   UNL     1     299.251 324.162 647.236  1.00  0.00     0.003 C 
ATOM      6  C   UNL     1     300.744 323.944 647.481  1.00  0.00     0.004 C 
ENDBRANCH   1   5
TORSDOF 2
ENDMDL
MODEL 4
REMARK VINA RESULT:    -2.873      2.637      3.461
REMARK INTER + INTRA:          -3.254
REMARK INTER:                  -3.215
REMARK INTRA:                  -0.039
REMARK UNBOUND:                -0.046
REMARK SMILES CCCC(=O)[O-]
REMARK SMILES IDX 3 1 4 2 5 3 6 4 2 5 1 6
REMARK H PARENT
REMARK Flexibility Score: inf
ROOT
ATOM      1  C   UNL     1     298.875 324.342 646.143  1.00  0.00     0.052 C 
ENDROOT
BRANCH   1   2
ATOM      2  C   UNL     1     298.964 325.751 645.642  1.00  0.00     0.041 C 
ATOM      3  O   UNL     1     299.149 326.702 646.448  1.00  0.00    -0.550 OA
ATOM      4  O   UNL     1     298.876 326.011 644.280  1.00  0.00    -0.550 OA
ENDBRANCH   1   2
BRANCH   1   5
ATOM      5  C   UNL     1     299.554 324.182 647.508  1.00  0.00     0.003 C 
ATOM      6  C   UNL     1     301.037 323.832 647.383  1.00  0.00     0.004 C 
ENDBRANCH   1   5
TORSDOF 2
ENDMDL
MODEL 5
REMARK VINA RESULT:    -2.712      2.336      2.997
REMARK INTER + INTRA:          -3.075
REMARK INTER:                  -3.011
REMARK INTRA:                  -0.064
REMARK UNBOUND:                -0.046
REMARK SMILES CCCC(=O)[O-]
REMARK SMILES IDX 3 1 4 2 5 3 6 4 2 5 1 6
REMARK H PARENT
REMARK Flexibility Score: inf
ROOT
ATOM      1  C   UNL     1     299.676 324.130 647.541  1.00  0.00     0.052 C 
ENDROOT
BRANCH   1   2
ATOM      2  C   UNL     1     299.232 324.947 646.367  1.00  0.00     0.041 C 
ATOM      3  O   UNL     1     298.877 324.382 645.298  1.00  0.00    -0.550 OA
ATOM      4  O   UNL     1     299.177 326.332 646.464  1.00  0.00    -0.550 OA
ENDBRANCH   1   2
BRANCH   1   5
ATOM      5  C   UNL     1     301.154 324.367 647.871  1.00  0.00     0.003 C 
ATOM      6  C   UNL     1     302.077 323.977 646.717  1.00  0.00     0.004 C 
ENDBRANCH   1   5
TORSDOF 2
ENDMDL
MODEL 6
REMARK VINA RESULT:    -2.706      2.291      3.128
REMARK INTER + INTRA:          -3.068
REMARK INTER:                  -3.030
REMARK INTRA:                  -0.039
REMARK UNBOUND:                -0.046
REMARK SMILES CCCC(=O)[O-]
REMARK SMILES IDX 3 1 4 2 5 3 6 4 2 5 1 6
REMARK H PARENT
REMARK Flexibility Score: inf
ROOT
ATOM      1  C   UNL     1     298.902 325.966 646.177  1.00  0.00     0.052 C 
ENDROOT
BRANCH   1   2
ATOM      2  C   UNL     1     300.116 326.762 645.807  1.00  0.00     0.041 C 
ATOM      3  O   UNL     1     300.052 328.018 645.726  1.00  0.00    -0.550 OA
ATOM      4  O   UNL     1     301.327 326.119 645.583  1.00  0.00    -0.550 OA
ENDBRANCH   1   2
BRANCH   1   5
ATOM      5  C   UNL     1     299.155 324.458 646.060  1.00  0.00     0.003 C 
ATOM      6  C   UNL     1     299.306 323.786 647.425  1.00  0.00     0.004 C 
ENDBRANCH   1   5
TORSDOF 2
ENDMDL
MODEL 7
REMARK VINA RESULT:    -2.701      1.327      1.638
REMARK INTER + INTRA:          -3.063
REMARK INTER:                  -3.009
REMARK INTRA:                  -0.054
REMARK UNBOUND:                -0.046
REMARK SMILES CCCC(=O)[O-]
REMARK SMILES IDX 3 1 4 2 5 3 6 4 2 5 1 6
REMARK H PARENT
REMARK Flexibility Score: inf
ROOT
ATOM      1  C   UNL     1     299.509 324.113 647.050  1.00  0.00     0.052 C 
ENDROOT
BRANCH   1   2
ATOM      2  C   UNL     1     301.005 324.182 647.011  1.00  0.00     0.041 C 
ATOM      3  O   UNL     1     301.661 324.351 648.073  1.00  0.00    -0.550 OA
ATOM      4  O   UNL     1     301.676 324.026 645.805  1.00  0.00    -0.550 OA
ENDBRANCH   1   2
BRANCH   1   5
ATOM      5  C   UNL     1     298.878 324.762 645.812  1.00  0.00     0.003 C 
ATOM      6  C   UNL     1     298.884 326.288 645.889  1.00  0.00     0.004 C 
ENDBRANCH   1   5
TORSDOF 2
ENDMDL
MODEL 8
REMARK VINA RESULT:    -2.540      2.296      3.041
REMARK INTER + INTRA:          -2.883
REMARK INTER:                  -2.817
REMARK INTRA:                  -0.066
REMARK UNBOUND:                -0.046
REMARK SMILES CCCC(=O)[O-]
REMARK SMILES IDX 3 1 4 2 5 3 6 4 2 5 1 6
REMARK H PARENT
REMARK Flexibility Score: inf
ROOT
ATOM      1  C   UNL     1     299.136 324.394 645.743  1.00  0.00     0.052 C 
ENDROOT
BRANCH   1   2
ATOM      2  C   UNL     1     299.448 325.319 646.880  1.00  0.00     0.041 C 
ATOM      3  O   UNL     1     299.408 326.567 646.713  1.00  0.00    -0.550 OA
ATOM      4  O   UNL     1     299.750 324.802 648.133  1.00  0.00    -0.550 OA
ENDBRANCH   1   2
BRANCH   1   5
ATOM      5  C   UNL     1     300.133 324.557 644.589  1.00  0.00     0.003 C 
ATOM      6  C   UNL     1     301.580 324.361 645.039  1.00  0.00     0.004 C 
ENDBRANCH   1   5
TORSDOF 2
ENDMDL
MODEL 9
REMARK VINA RESULT:    -2.525      5.695      6.853
REMARK INTER + INTRA:          -2.866
REMARK INTER:                  -2.802
REMARK INTRA:                  -0.063
REMARK UNBOUND:                -0.046
REMARK SMILES CCCC(=O)[O-]
REMARK SMILES IDX 3 1 4 2 5 3 6 4 2 5 1 6
REMARK H PARENT
REMARK Flexibility Score: inf
ROOT
ATOM      1  C   UNL     1     304.947 320.056 649.970  1.00  0.00     0.052 C 
ENDROOT
BRANCH   1   2
ATOM      2  C   UNL     1     305.123 320.919 648.758  1.00  0.00     0.041 C 
ATOM      3  O   UNL     1     304.224 321.737 648.424  1.00  0.00    -0.550 OA
ATOM      4  O   UNL     1     306.295 320.845 648.016  1.00  0.00    -0.550 OA
ENDBRANCH   1   2
BRANCH   1   5
ATOM      5  C   UNL     1     306.064 320.284 650.996  1.00  0.00     0.003 C 
ATOM      6  C   UNL     1     306.187 321.752 651.404  1.00  0.00     0.004 C 
ENDBRANCH   1   5
TORSDOF 2
ENDMDL
