MODEL 1
REMARK VINA RESULT:    -3.234      0.000      0.000
REMARK INTER + INTRA:          -4.106
REMARK INTER:                  -3.991
REMARK INTRA:                  -0.115
REMARK UNBOUND:                -0.115
REMARK SMILES CCCCCC=O
REMARK SMILES IDX 4 1 3 2 2 3 1 4 5 5 6 6 7 7
REMARK H PARENT
REMARK Flexibility Score: inf
ROOT
ATOM      1  C   UNL     1      30.370  -5.885  33.803  1.00  0.00     0.008 C 
ENDROOT
BRANCH   1   2
ATOM      2  C   UNL     1      30.728  -4.902  32.675  1.00  0.00     0.000 C 
BRANCH   2   3
ATOM      3  C   UNL     1      32.244  -4.717  32.515  1.00  0.00    -0.003 C 
ATOM      4  C   UNL     1      33.015  -5.011  33.802  1.00  0.00     0.004 C 
ENDBRANCH   2   3
ENDBRANCH   1   2
BRANCH   1   5
ATOM      5  C   UNL     1      28.919  -5.716  34.276  1.00  0.00     0.072 C 
BRANCH   5   6
ATOM      6  C   UNL     1      28.474  -4.284  34.230  1.00  0.00     0.224 C 
ATOM      7  O   UNL     1      27.286  -4.002  34.276  1.00  0.00    -0.303 OA
ENDBRANCH   5   6
ENDBRANCH   1   5
TORSDOF 4
ENDMDL
MODEL 2
REMARK VINA RESULT:    -3.175      1.942      2.256
REMARK INTER + INTRA:          -4.032
REMARK INTER:                  -3.854
REMARK INTRA:                  -0.179
REMARK UNBOUND:                -0.115
REMARK SMILES CCCCCC=O
REMARK SMILES IDX 4 1 3 2 2 3 1 4 5 5 6 6 7 7
REMARK H PARENT
REMARK Flexibility Score: inf
ROOT
ATOM      1  C   UNL     1      30.826  -5.040  32.550  1.00  0.00     0.008 C 
ENDROOT
BRANCH   1   2
ATOM      2  C   UNL     1      32.123  -5.047  33.376  1.00  0.00     0.000 C 
BRANCH   2   3
ATOM      3  C   UNL     1      32.533  -3.642  33.841  1.00  0.00    -0.003 C 
ATOM      4  C   UNL     1      32.423  -3.465  35.356  1.00  0.00     0.004 C 
ENDBRANCH   2   3
ENDBRANCH   1   2
BRANCH   1   5
ATOM      5  C   UNL     1      29.575  -5.077  33.441  1.00  0.00     0.072 C 
BRANCH   5   6
ATOM      6  C   UNL     1      29.660  -6.150  34.487  1.00  0.00     0.224 C 
ATOM      7  O   UNL     1      29.520  -7.324  34.182  1.00  0.00    -0.303 OA
ENDBRANCH   5   6
ENDBRANCH   1   5
TORSDOF 4
ENDMDL
MODEL 3
REMARK VINA RESULT:    -3.139      2.252      2.648
REMARK INTER + INTRA:          -3.988
REMARK INTER:                  -3.810
REMARK INTRA:                  -0.178
REMARK UNBOUND:                -0.115
REMARK SMILES CCCCCC=O
REMARK SMILES IDX 4 1 3 2 2 3 1 4 5 5 6 6 7 7
REMARK H PARENT
REMARK Flexibility Score: inf
ROOT
ATOM      1  C   UNL     1      29.383  -3.769  35.111  1.00  0.00     0.008 C 
ENDROOT
BRANCH   1   2
ATOM      2  C   UNL     1      30.895  -3.844  35.382  1.00  0.00     0.000 C 
BRANCH   2   3
ATOM      3  C   UNL     1      31.681  -2.749  34.645  1.00  0.00    -0.003 C 
ATOM      4  C   UNL     1      32.353  -3.261  33.370  1.00  0.00     0.004 C 
ENDBRANCH   2   3
ENDBRANCH   1   2
BRANCH   1   5
ATOM      5  C   UNL     1      28.901  -4.916  34.211  1.00  0.00     0.072 C 
BRANCH   5   6
ATOM      6  C   UNL     1      29.901  -6.031  34.135  1.00  0.00     0.224 C 
ATOM      7  O   UNL     1      29.557  -7.187  34.331  1.00  0.00    -0.303 OA
ENDBRANCH   5   6
ENDBRANCH   1   5
TORSDOF 4
ENDMDL
MODEL 4
REMARK VINA RESULT:    -3.113      1.311      1.806
REMARK INTER + INTRA:          -3.956
REMARK INTER:                  -3.865
REMARK INTRA:                  -0.091
REMARK UNBOUND:                -0.115
REMARK SMILES CCCCCC=O
REMARK SMILES IDX 4 1 3 2 2 3 1 4 5 5 6 6 7 7
REMARK H PARENT
REMARK Flexibility Score: inf
ROOT
ATOM      1  C   UNL     1      28.907  -4.574  34.243  1.00  0.00     0.008 C 
ENDROOT
BRANCH   1   2
ATOM      2  C   UNL     1      29.907  -5.673  33.843  1.00  0.00     0.000 C 
BRANCH   2   3
ATOM      3  C   UNL     1      31.005  -5.156  32.902  1.00  0.00    -0.003 C 
ATOM      4  C   UNL     1      32.390  -5.161  33.551  1.00  0.00     0.004 C 
ENDBRANCH   2   3
ENDBRANCH   1   2
BRANCH   1   5
ATOM      5  C   UNL     1      29.444  -3.693  35.380  1.00  0.00     0.072 C 
BRANCH   5   6
ATOM      6  C   UNL     1      28.417  -2.715  35.870  1.00  0.00     0.224 C 
ATOM      7  O   UNL     1      27.369  -2.560  35.261  1.00  0.00    -0.303 OA
ENDBRANCH   5   6
ENDBRANCH   1   5
TORSDOF 4
ENDMDL
MODEL 5
REMARK VINA RESULT:    -3.098      2.517      3.930
REMARK INTER + INTRA:          -3.937
REMARK INTER:                  -3.755
REMARK INTRA:                  -0.182
REMARK UNBOUND:                -0.115
REMARK SMILES CCCCCC=O
REMARK SMILES IDX 4 1 3 2 2 3 1 4 5 5 6 6 7 7
REMARK H PARENT
REMARK Flexibility Score: inf
ROOT
ATOM      1  C   UNL     1      30.363  -5.157  32.517  1.00  0.00     0.008 C 
ENDROOT
BRANCH   1   2
ATOM      2  C   UNL     1      29.684  -5.493  33.856  1.00  0.00     0.000 C 
BRANCH   2   3
ATOM      3  C   UNL     1      28.684  -4.413  34.297  1.00  0.00    -0.003 C 
ATOM      4  C   UNL     1      29.243  -3.503  35.391  1.00  0.00     0.004 C 
ENDBRANCH   2   3
ENDBRANCH   1   2
BRANCH   1   5
ATOM      5  C   UNL     1      31.711  -4.450  32.717  1.00  0.00     0.072 C 
BRANCH   5   6
ATOM      6  C   UNL     1      32.430  -4.941  33.939  1.00  0.00     0.224 C 
ATOM      7  O   UNL     1      33.370  -5.714  33.837  1.00  0.00    -0.303 OA
ENDBRANCH   5   6
ENDBRANCH   1   5
TORSDOF 4
ENDMDL
MODEL 6
REMARK VINA RESULT:    -3.054      2.626      4.017
REMARK INTER + INTRA:          -3.883
REMARK INTER:                  -3.817
REMARK INTRA:                  -0.066
REMARK UNBOUND:                -0.115
REMARK SMILES CCCCCC=O
REMARK SMILES IDX 4 1 3 2 2 3 1 4 5 5 6 6 7 7
REMARK H PARENT
REMARK Flexibility Score: inf
ROOT
ATOM      1  C   UNL     1      29.920  -5.572  33.881  1.00  0.00     0.008 C 
ENDROOT
BRANCH   1   2
ATOM      2  C   UNL     1      28.994  -4.423  34.316  1.00  0.00     0.000 C 
BRANCH   2   3
ATOM      3  C   UNL     1      29.587  -3.591  35.464  1.00  0.00    -0.003 C 
ATOM      4  C   UNL     1      28.541  -2.727  36.169  1.00  0.00     0.004 C 
ENDBRANCH   2   3
ENDBRANCH   1   2
BRANCH   1   5
ATOM      5  C   UNL     1      30.628  -5.270  32.553  1.00  0.00     0.072 C 
BRANCH   5   6
ATOM      6  C   UNL     1      32.007  -4.717  32.762  1.00  0.00     0.224 C 
ATOM      7  O   UNL     1      32.926  -5.050  32.030  1.00  0.00    -0.303 OA
ENDBRANCH   5   6
ENDBRANCH   1   5
TORSDOF 4
ENDMDL
MODEL 7
REMARK VINA RESULT:    -2.978      2.801      4.131
REMARK INTER + INTRA:          -3.789
REMARK INTER:                  -3.589
REMARK INTRA:                  -0.200
REMARK UNBOUND:                -0.115
REMARK SMILES CCCCCC=O
REMARK SMILES IDX 4 1 3 2 2 3 1 4 5 5 6 6 7 7
REMARK H PARENT
REMARK Flexibility Score: inf
ROOT
ATOM      1  C   UNL     1      31.072  -3.045  34.798  1.00  0.00     0.008 C 
ENDROOT
BRANCH   1   2
ATOM      2  C   UNL     1      29.929  -3.881  35.398  1.00  0.00     0.000 C 
BRANCH   2   3
ATOM      3  C   UNL     1      29.171  -4.691  34.336  1.00  0.00    -0.003 C 
ATOM      4  C   UNL     1      29.591  -6.161  34.302  1.00  0.00     0.004 C 
ENDBRANCH   2   3
ENDBRANCH   1   2
BRANCH   1   5
ATOM      5  C   UNL     1      32.440  -3.712  35.000  1.00  0.00     0.072 C 
BRANCH   5   6
ATOM      6  C   UNL     1      32.883  -4.471  33.784  1.00  0.00     0.224 C 
ATOM      7  O   UNL     1      33.226  -5.640  33.874  1.00  0.00    -0.303 OA
ENDBRANCH   5   6
ENDBRANCH   1   5
TORSDOF 4
ENDMDL
MODEL 8
REMARK VINA RESULT:    -2.968      1.953      3.371
REMARK INTER + INTRA:          -3.777
REMARK INTER:                  -3.596
REMARK INTRA:                  -0.181
REMARK UNBOUND:                -0.115
REMARK SMILES CCCCCC=O
REMARK SMILES IDX 4 1 3 2 2 3 1 4 5 5 6 6 7 7
REMARK H PARENT
REMARK Flexibility Score: inf
ROOT
ATOM      1  C   UNL     1      31.652  -4.513  32.909  1.00  0.00     0.008 C 
ENDROOT
BRANCH   1   2
ATOM      2  C   UNL     1      30.281  -5.164  32.661  1.00  0.00     0.000 C 
BRANCH   2   3
ATOM      3  C   UNL     1      29.505  -5.419  33.962  1.00  0.00    -0.003 C 
ATOM      4  C   UNL     1      28.283  -4.512  34.108  1.00  0.00     0.004 C 
ENDBRANCH   2   3
ENDBRANCH   1   2
BRANCH   1   5
ATOM      5  C   UNL     1      31.968  -4.388  34.407  1.00  0.00     0.072 C 
BRANCH   5   6
ATOM      6  C   UNL     1      31.936  -2.962  34.873  1.00  0.00     0.224 C 
ATOM      7  O   UNL     1      30.986  -2.243  34.604  1.00  0.00    -0.303 OA
ENDBRANCH   5   6
ENDBRANCH   1   5
TORSDOF 4
ENDMDL
MODEL 9
REMARK VINA RESULT:    -2.898      2.106      3.862
REMARK INTER + INTRA:          -3.690
REMARK INTER:                  -3.495
REMARK INTRA:                  -0.195
REMARK UNBOUND:                -0.115
REMARK SMILES CCCCCC=O
REMARK SMILES IDX 4 1 3 2 2 3 1 4 5 5 6 6 7 7
REMARK H PARENT
REMARK Flexibility Score: inf
ROOT
ATOM      1  C   UNL     1      31.059  -3.287  34.726  1.00  0.00     0.008 C 
ENDROOT
BRANCH   1   2
ATOM      2  C   UNL     1      29.962  -3.860  35.640  1.00  0.00     0.000 C 
BRANCH   2   3
ATOM      3  C   UNL     1      28.588  -3.224  35.381  1.00  0.00    -0.003 C 
ATOM      4  C   UNL     1      27.777  -3.979  34.327  1.00  0.00     0.004 C 
ENDBRANCH   2   3
ENDBRANCH   1   2
BRANCH   1   5
ATOM      5  C   UNL     1      31.721  -4.375  33.870  1.00  0.00     0.072 C 
BRANCH   5   6
ATOM      6  C   UNL     1      30.966  -4.630  32.599  1.00  0.00     0.224 C 
ATOM      7  O   UNL     1      30.239  -5.606  32.495  1.00  0.00    -0.303 OA
ENDBRANCH   5   6
ENDBRANCH   1   5
TORSDOF 4
ENDMDL
