MODEL 1
REMARK VINA RESULT:    -3.313      0.000      0.000
REMARK INTER + INTRA:          -8.324
REMARK INTER:                  -6.025
REMARK INTRA:                  -2.300
REMARK UNBOUND:                -2.300
REMARK SMILES CCCCCCCCCCCCCC[C@H](C)C(=O)[O-]
REMARK SMILES IDX 9 1 10 2 11 3 12 4 13 5 14 6 15 7 16 8 17 9 18 10 19 11 8 12
REMARK SMILES IDX 7 13 6 14 5 15 4 16 3 17 2 18 1 19
REMARK H PARENT
REMARK Flexibility Score: inf
ROOT
ATOM      1  C   UNL     1      30.947  12.266  20.766  1.00  0.00     0.000 C 
ENDROOT
BRANCH   1   2
ATOM      2  C   UNL     1      31.801  13.315  20.038  1.00  0.00     0.000 C 
BRANCH   2   3
ATOM      3  C   UNL     1      32.212  14.482  20.953  1.00  0.00     0.000 C 
BRANCH   3   4
ATOM      4  C   UNL     1      32.120  15.846  20.236  1.00  0.00     0.000 C 
BRANCH   4   5
ATOM      5  C   UNL     1      30.869  15.992  19.352  1.00  0.00     0.001 C 
BRANCH   5   6
ATOM      6  C   UNL     1      31.207  16.337  17.891  1.00  0.00     0.009 C 
BRANCH   6   7
ATOM      7  C   UNL     1      30.162  15.792  16.895  1.00  0.00     0.032 C 
ATOM      8  C   UNL     1      28.825  15.468  17.576  1.00  0.00     0.014 C 
BRANCH   7   9
ATOM      9  C   UNL     1      30.698  14.557  16.224  1.00  0.00     0.044 C 
ATOM     10  O   UNL     1      30.443  13.419  16.700  1.00  0.00    -0.550 OA
ATOM     11  O   UNL     1      31.471  14.662  15.074  1.00  0.00    -0.550 OA
ENDBRANCH   7   9
ENDBRANCH   6   7
ENDBRANCH   5   6
ENDBRANCH   4   5
ENDBRANCH   3   4
ENDBRANCH   2   3
ENDBRANCH   1   2
BRANCH   1  12
ATOM     12  C   UNL     1      31.095  12.339  22.295  1.00  0.00     0.000 C 
BRANCH  12  13
ATOM     13  C   UNL     1      30.147  11.375  23.026  1.00  0.00    -0.000 C 
BRANCH  13  14
ATOM     14  C   UNL     1      29.562  10.303  22.090  1.00  0.00    -0.000 C 
BRANCH  14  15
ATOM     15  C   UNL     1      28.030  10.380  21.987  1.00  0.00    -0.000 C 
BRANCH  15  16
ATOM     16  C   UNL     1      27.559  11.274  20.826  1.00  0.00    -0.000 C 
BRANCH  16  17
ATOM     17  C   UNL     1      26.992  12.621  21.321  1.00  0.00    -0.000 C 
BRANCH  17  18
ATOM     18  C   UNL     1      27.713  13.846  20.732  1.00  0.00    -0.003 C 
ATOM     19  C   UNL     1      28.290  14.772  21.800  1.00  0.00     0.004 C 
ENDBRANCH  17  18
ENDBRANCH  16  17
ENDBRANCH  15  16
ENDBRANCH  14  15
ENDBRANCH  13  14
ENDBRANCH  12  13
ENDBRANCH   1  12
TORSDOF 14
ENDMDL
MODEL 2
REMARK VINA RESULT:    -3.079      1.340      2.478
REMARK INTER + INTRA:          -7.898
REMARK INTER:                  -5.329
REMARK INTRA:                  -2.569
REMARK UNBOUND:                -2.300
REMARK SMILES CCCCCCCCCCCCCC[C@H](C)C(=O)[O-]
REMARK SMILES IDX 9 1 10 2 11 3 12 4 13 5 14 6 15 7 16 8 17 9 18 10 19 11 8 12
REMARK SMILES IDX 7 13 6 14 5 15 4 16 3 17 2 18 1 19
REMARK H PARENT
REMARK Flexibility Score: inf
ROOT
ATOM      1  C   UNL     1      31.926  13.104  21.840  1.00  0.00     0.000 C 
ENDROOT
BRANCH   1   2
ATOM      2  C   UNL     1      33.214  13.938  21.791  1.00  0.00     0.000 C 
BRANCH   2   3
ATOM      3  C   UNL     1      32.965  15.430  22.077  1.00  0.00     0.000 C 
BRANCH   3   4
ATOM      4  C   UNL     1      33.219  16.312  20.836  1.00  0.00     0.000 C 
BRANCH   4   5
ATOM      5  C   UNL     1      31.931  16.741  20.112  1.00  0.00     0.001 C 
BRANCH   5   6
ATOM      6  C   UNL     1      31.624  15.877  18.877  1.00  0.00     0.009 C 
BRANCH   6   7
ATOM      7  C   UNL     1      30.384  16.369  18.100  1.00  0.00     0.032 C 
ATOM      8  C   UNL     1      29.261  16.836  19.037  1.00  0.00     0.014 C 
BRANCH   7   9
ATOM      9  C   UNL     1      29.874  15.267  17.212  1.00  0.00     0.044 C 
ATOM     10  O   UNL     1      30.634  14.319  16.881  1.00  0.00    -0.550 OA
ATOM     11  O   UNL     1      28.560  15.283  16.759  1.00  0.00    -0.550 OA
ENDBRANCH   7   9
ENDBRANCH   6   7
ENDBRANCH   5   6
ENDBRANCH   4   5
ENDBRANCH   3   4
ENDBRANCH   2   3
ENDBRANCH   1   2
BRANCH   1  12
ATOM     12  C   UNL     1      30.763  13.850  22.516  1.00  0.00     0.000 C 
BRANCH  12  13
ATOM     13  C   UNL     1      29.575  14.075  21.565  1.00  0.00    -0.000 C 
BRANCH  13  14
ATOM     14  C   UNL     1      29.740  13.326  20.231  1.00  0.00    -0.000 C 
BRANCH  14  15
ATOM     15  C   UNL     1      28.422  12.717  19.729  1.00  0.00    -0.000 C 
BRANCH  15  16
ATOM     16  C   UNL     1      27.468  12.341  20.877  1.00  0.00    -0.000 C 
BRANCH  16  17
ATOM     17  C   UNL     1      27.613  10.863  21.295  1.00  0.00    -0.000 C 
BRANCH  17  18
ATOM     18  C   UNL     1      28.547  10.652  22.499  1.00  0.00    -0.003 C 
ATOM     19  C   UNL     1      29.881  10.014  22.118  1.00  0.00     0.004 C 
ENDBRANCH  17  18
ENDBRANCH  16  17
ENDBRANCH  15  16
ENDBRANCH  14  15
ENDBRANCH  13  14
ENDBRANCH  12  13
ENDBRANCH   1  12
TORSDOF 14
ENDMDL
MODEL 3
REMARK VINA RESULT:    -2.852      2.882      6.968
REMARK INTER + INTRA:          -7.486
REMARK INTER:                  -6.313
REMARK INTRA:                  -1.173
REMARK UNBOUND:                -2.300
REMARK SMILES CCCCCCCCCCCCCC[C@H](C)C(=O)[O-]
REMARK SMILES IDX 9 1 10 2 11 3 12 4 13 5 14 6 15 7 16 8 17 9 18 10 19 11 8 12
REMARK SMILES IDX 7 13 6 14 5 15 4 16 3 17 2 18 1 19
REMARK H PARENT
REMARK Flexibility Score: inf
ROOT
ATOM      1  C   UNL     1      30.173  13.961  17.961  1.00  0.00     0.000 C 
ENDROOT
BRANCH   1   2
ATOM      2  C   UNL     1      30.165  13.263  19.330  1.00  0.00     0.000 C 
BRANCH   2   3
ATOM      3  C   UNL     1      31.507  13.395  20.070  1.00  0.00     0.000 C 
BRANCH   3   4
ATOM      4  C   UNL     1      31.483  12.705  21.451  1.00  0.00     0.000 C 
BRANCH   4   5
ATOM      5  C   UNL     1      30.420  13.275  22.405  1.00  0.00     0.001 C 
BRANCH   5   6
ATOM      6  C   UNL     1      29.573  12.182  23.079  1.00  0.00     0.009 C 
BRANCH   6   7
ATOM      7  C   UNL     1      28.500  11.595  22.137  1.00  0.00     0.032 C 
ATOM      8  C   UNL     1      27.076  11.866  22.641  1.00  0.00     0.014 C 
BRANCH   7   9
ATOM      9  C   UNL     1      28.710  10.112  21.994  1.00  0.00     0.044 C 
ATOM     10  O   UNL     1      27.720   9.334  21.972  1.00  0.00    -0.550 OA
ATOM     11  O   UNL     1      29.994   9.593  21.878  1.00  0.00    -0.550 OA
ENDBRANCH   7   9
ENDBRANCH   6   7
ENDBRANCH   5   6
ENDBRANCH   4   5
ENDBRANCH   3   4
ENDBRANCH   2   3
ENDBRANCH   1   2
BRANCH   1  12
ATOM     12  C   UNL     1      29.166  15.121  17.883  1.00  0.00     0.000 C 
BRANCH  12  13
ATOM     13  C   UNL     1      29.847  16.498  17.946  1.00  0.00    -0.000 C 
BRANCH  13  14
ATOM     14  C   UNL     1      31.379  16.401  17.841  1.00  0.00    -0.000 C 
BRANCH  14  15
ATOM     15  C   UNL     1      31.914  16.934  16.502  1.00  0.00    -0.000 C 
BRANCH  15  16
ATOM     16  C   UNL     1      31.551  16.023  15.315  1.00  0.00    -0.000 C 
BRANCH  16  17
ATOM     17  C   UNL     1      30.496  16.664  14.390  1.00  0.00    -0.000 C 
BRANCH  17  18
ATOM     18  C   UNL     1      30.994  16.891  12.953  1.00  0.00    -0.003 C 
ATOM     19  C   UNL     1      31.293  15.592  12.210  1.00  0.00     0.004 C 
ENDBRANCH  17  18
ENDBRANCH  16  17
ENDBRANCH  15  16
ENDBRANCH  14  15
ENDBRANCH  13  14
ENDBRANCH  12  13
ENDBRANCH   1  12
TORSDOF 14
ENDMDL
MODEL 4
REMARK VINA RESULT:    -2.851      2.438      5.973
REMARK INTER + INTRA:          -7.483
REMARK INTER:                  -5.718
REMARK INTRA:                  -1.765
REMARK UNBOUND:                -2.300
REMARK SMILES CCCCCCCCCCCCCC[C@H](C)C(=O)[O-]
REMARK SMILES IDX 9 1 10 2 11 3 12 4 13 5 14 6 15 7 16 8 17 9 18 10 19 11 8 12
REMARK SMILES IDX 7 13 6 14 5 15 4 16 3 17 2 18 1 19
REMARK H PARENT
REMARK Flexibility Score: inf
ROOT
ATOM      1  C   UNL     1      31.134  13.740  18.994  1.00  0.00     0.000 C 
ENDROOT
BRANCH   1   2
ATOM      2  C   UNL     1      31.550  12.956  20.248  1.00  0.00     0.000 C 
BRANCH   2   3
ATOM      3  C   UNL     1      32.154  13.859  21.337  1.00  0.00     0.000 C 
BRANCH   3   4
ATOM      4  C   UNL     1      32.085  13.212  22.737  1.00  0.00     0.000 C 
BRANCH   4   5
ATOM      5  C   UNL     1      31.185  11.965  22.793  1.00  0.00     0.001 C 
BRANCH   5   6
ATOM      6  C   UNL     1      29.709  12.306  23.061  1.00  0.00     0.009 C 
BRANCH   6   7
ATOM      7  C   UNL     1      28.753  11.161  22.663  1.00  0.00     0.032 C 
ATOM      8  C   UNL     1      29.492   9.997  21.988  1.00  0.00     0.014 C 
BRANCH   7   9
ATOM      9  C   UNL     1      27.691  11.688  21.737  1.00  0.00     0.044 C 
ATOM     10  O   UNL     1      26.875  12.558  22.142  1.00  0.00    -0.550 OA
ATOM     11  O   UNL     1      27.609  11.227  20.428  1.00  0.00    -0.550 OA
ENDBRANCH   7   9
ENDBRANCH   6   7
ENDBRANCH   5   6
ENDBRANCH   4   5
ENDBRANCH   3   4
ENDBRANCH   2   3
ENDBRANCH   1   2
BRANCH   1  12
ATOM     12  C   UNL     1      29.640  13.578  18.665  1.00  0.00     0.000 C 
BRANCH  12  13
ATOM     13  C   UNL     1      28.746  14.493  19.519  1.00  0.00    -0.000 C 
BRANCH  13  14
ATOM     14  C   UNL     1      28.388  15.805  18.799  1.00  0.00    -0.000 C 
BRANCH  14  15
ATOM     15  C   UNL     1      28.458  15.677  17.269  1.00  0.00    -0.000 C 
BRANCH  15  16
ATOM     16  C   UNL     1      29.278  16.805  16.618  1.00  0.00    -0.000 C 
BRANCH  16  17
ATOM     17  C   UNL     1      30.757  16.778  17.057  1.00  0.00    -0.000 C 
BRANCH  17  18
ATOM     18  C   UNL     1      31.727  16.384  15.930  1.00  0.00    -0.003 C 
ATOM     19  C   UNL     1      31.381  15.045  15.284  1.00  0.00     0.004 C 
ENDBRANCH  17  18
ENDBRANCH  16  17
ENDBRANCH  15  16
ENDBRANCH  14  15
ENDBRANCH  13  14
ENDBRANCH  12  13
ENDBRANCH   1  12
TORSDOF 14
ENDMDL
MODEL 5
REMARK VINA RESULT:    -2.819      2.453      4.503
REMARK INTER + INTRA:          -7.425
REMARK INTER:                  -5.510
REMARK INTRA:                  -1.915
REMARK UNBOUND:                -2.300
REMARK SMILES CCCCCCCCCCCCCC[C@H](C)C(=O)[O-]
REMARK SMILES IDX 9 1 10 2 11 3 12 4 13 5 14 6 15 7 16 8 17 9 18 10 19 11 8 12
REMARK SMILES IDX 7 13 6 14 5 15 4 16 3 17 2 18 1 19
REMARK H PARENT
REMARK Flexibility Score: inf
ROOT
ATOM      1  C   UNL     1      30.485  14.298  16.766  1.00  0.00     0.000 C 
ENDROOT
BRANCH   1   2
ATOM      2  C   UNL     1      31.309  15.427  16.128  1.00  0.00     0.000 C 
BRANCH   2   3
ATOM      3  C   UNL     1      31.058  16.792  16.792  1.00  0.00     0.000 C 
BRANCH   3   4
ATOM      4  C   UNL     1      32.099  17.108  17.887  1.00  0.00     0.000 C 
BRANCH   4   5
ATOM      5  C   UNL     1      31.550  16.965  19.317  1.00  0.00     0.001 C 
BRANCH   5   6
ATOM      6  C   UNL     1      32.383  16.006  20.184  1.00  0.00     0.009 C 
BRANCH   6   7
ATOM      7  C   UNL     1      31.511  14.997  20.961  1.00  0.00     0.032 C 
ATOM      8  C   UNL     1      30.668  15.676  22.049  1.00  0.00     0.014 C 
BRANCH   7   9
ATOM      9  C   UNL     1      32.388  13.947  21.586  1.00  0.00     0.044 C 
ATOM     10  O   UNL     1      33.600  14.196  21.825  1.00  0.00    -0.550 OA
ATOM     11  O   UNL     1      31.867  12.700  21.911  1.00  0.00    -0.550 OA
ENDBRANCH   7   9
ENDBRANCH   6   7
ENDBRANCH   5   6
ENDBRANCH   4   5
ENDBRANCH   3   4
ENDBRANCH   2   3
ENDBRANCH   1   2
BRANCH   1  12
ATOM     12  C   UNL     1      29.102  14.773  17.244  1.00  0.00     0.000 C 
BRANCH  12  13
ATOM     13  C   UNL     1      28.870  14.499  18.739  1.00  0.00    -0.000 C 
BRANCH  13  14
ATOM     14  C   UNL     1      29.108  13.025  19.111  1.00  0.00    -0.000 C 
BRANCH  14  15
ATOM     15  C   UNL     1      28.070  12.493  20.112  1.00  0.00    -0.000 C 
BRANCH  15  16
ATOM     16  C   UNL     1      28.388  12.891  21.564  1.00  0.00    -0.000 C 
BRANCH  16  17
ATOM     17  C   UNL     1      28.298  11.692  22.530  1.00  0.00    -0.000 C 
BRANCH  17  18
ATOM     18  C   UNL     1      29.079  10.456  22.052  1.00  0.00    -0.003 C 
ATOM     19  C   UNL     1      28.218   9.198  21.971  1.00  0.00     0.004 C 
ENDBRANCH  17  18
ENDBRANCH  16  17
ENDBRANCH  15  16
ENDBRANCH  14  15
ENDBRANCH  13  14
ENDBRANCH  12  13
ENDBRANCH   1  12
TORSDOF 14
ENDMDL
MODEL 6
REMARK VINA RESULT:    -2.570      2.303      5.798
REMARK INTER + INTRA:          -6.973
REMARK INTER:                  -5.344
REMARK INTRA:                  -1.629
REMARK UNBOUND:                -2.300
REMARK SMILES CCCCCCCCCCCCCC[C@H](C)C(=O)[O-]
REMARK SMILES IDX 9 1 10 2 11 3 12 4 13 5 14 6 15 7 16 8 17 9 18 10 19 11 8 12
REMARK SMILES IDX 7 13 6 14 5 15 4 16 3 17 2 18 1 19
REMARK H PARENT
REMARK Flexibility Score: inf
ROOT
ATOM      1  C   UNL     1      31.719  12.976  21.170  1.00  0.00     0.000 C 
ENDROOT
BRANCH   1   2
ATOM      2  C   UNL     1      31.631  12.590  22.655  1.00  0.00     0.000 C 
BRANCH   2   3
ATOM      3  C   UNL     1      30.242  12.058  23.048  1.00  0.00     0.000 C 
BRANCH   3   4
ATOM      4  C   UNL     1      30.039  10.587  22.626  1.00  0.00     0.000 C 
BRANCH   4   5
ATOM      5  C   UNL     1      28.845  10.378  21.679  1.00  0.00     0.001 C 
BRANCH   5   6
ATOM      6  C   UNL     1      27.626  11.237  22.057  1.00  0.00     0.009 C 
BRANCH   6   7
ATOM      7  C   UNL     1      27.251  12.253  20.957  1.00  0.00     0.032 C 
ATOM      8  C   UNL     1      28.324  12.347  19.864  1.00  0.00     0.014 C 
BRANCH   7   9
ATOM      9  C   UNL     1      27.039  13.609  21.573  1.00  0.00     0.044 C 
ATOM     10  O   UNL     1      27.017  13.737  22.826  1.00  0.00    -0.550 OA
ATOM     11  O   UNL     1      26.875  14.728  20.766  1.00  0.00    -0.550 OA
ENDBRANCH   7   9
ENDBRANCH   6   7
ENDBRANCH   5   6
ENDBRANCH   4   5
ENDBRANCH   3   4
ENDBRANCH   2   3
ENDBRANCH   1   2
BRANCH   1  12
ATOM     12  C   UNL     1      32.537  14.258  20.940  1.00  0.00     0.000 C 
BRANCH  12  13
ATOM     13  C   UNL     1      31.694  15.533  21.110  1.00  0.00    -0.000 C 
BRANCH  13  14
ATOM     14  C   UNL     1      31.883  16.523  19.947  1.00  0.00    -0.000 C 
BRANCH  14  15
ATOM     15  C   UNL     1      30.562  16.865  19.241  1.00  0.00    -0.000 C 
BRANCH  15  16
ATOM     16  C   UNL     1      30.508  16.339  17.796  1.00  0.00    -0.000 C 
BRANCH  16  17
ATOM     17  C   UNL     1      30.115  14.848  17.734  1.00  0.00    -0.000 C 
BRANCH  17  18
ATOM     18  C   UNL     1      30.592  14.138  16.455  1.00  0.00    -0.003 C 
ATOM     19  C   UNL     1      31.351  15.062  15.505  1.00  0.00     0.004 C 
ENDBRANCH  17  18
ENDBRANCH  16  17
ENDBRANCH  15  16
ENDBRANCH  14  15
ENDBRANCH  13  14
ENDBRANCH  12  13
ENDBRANCH   1  12
TORSDOF 14
ENDMDL
MODEL 7
REMARK VINA RESULT:    -2.531      2.307      6.100
REMARK INTER + INTRA:          -6.903
REMARK INTER:                  -5.008
REMARK INTRA:                  -1.895
REMARK UNBOUND:                -2.300
REMARK SMILES CCCCCCCCCCCCCC[C@H](C)C(=O)[O-]
REMARK SMILES IDX 9 1 10 2 11 3 12 4 13 5 14 6 15 7 16 8 17 9 18 10 19 11 8 12
REMARK SMILES IDX 7 13 6 14 5 15 4 16 3 17 2 18 1 19
REMARK H PARENT
REMARK Flexibility Score: inf
ROOT
ATOM      1  C   UNL     1      29.336  12.948  19.359  1.00  0.00     0.000 C 
ENDROOT
BRANCH   1   2
ATOM      2  C   UNL     1      28.069  12.881  20.225  1.00  0.00     0.000 C 
BRANCH   2   3
ATOM      3  C   UNL     1      27.863  11.498  20.868  1.00  0.00     0.000 C 
BRANCH   3   4
ATOM      4  C   UNL     1      29.123  11.008  21.613  1.00  0.00     0.000 C 
BRANCH   4   5
ATOM      5  C   UNL     1      29.538  11.917  22.782  1.00  0.00     0.001 C 
BRANCH   5   6
ATOM      6  C   UNL     1      31.022  12.319  22.730  1.00  0.00     0.009 C 
BRANCH   6   7
ATOM      7  C   UNL     1      31.233  13.839  22.897  1.00  0.00     0.032 C 
ATOM      8  C   UNL     1      29.918  14.622  22.790  1.00  0.00     0.014 C 
BRANCH   7   9
ATOM      9  C   UNL     1      32.199  14.332  21.854  1.00  0.00     0.044 C 
ATOM     10  O   UNL     1      33.275  13.711  21.645  1.00  0.00    -0.550 OA
ATOM     11  O   UNL     1      31.908  15.470  21.111  1.00  0.00    -0.550 OA
ENDBRANCH   7   9
ENDBRANCH   6   7
ENDBRANCH   5   6
ENDBRANCH   4   5
ENDBRANCH   3   4
ENDBRANCH   2   3
ENDBRANCH   1   2
BRANCH   1  12
ATOM     12  C   UNL     1      29.554  14.338  18.737  1.00  0.00     0.000 C 
BRANCH  12  13
ATOM     13  C   UNL     1      28.412  15.314  19.062  1.00  0.00    -0.000 C 
BRANCH  13  14
ATOM     14  C   UNL     1      28.203  16.365  17.957  1.00  0.00    -0.000 C 
BRANCH  14  15
ATOM     15  C   UNL     1      28.354  15.776  16.545  1.00  0.00    -0.000 C 
BRANCH  15  16
ATOM     16  C   UNL     1      28.582  16.857  15.474  1.00  0.00    -0.000 C 
BRANCH  16  17
ATOM     17  C   UNL     1      29.993  16.777  14.856  1.00  0.00    -0.000 C 
BRANCH  17  18
ATOM     18  C   UNL     1      30.936  15.814  15.598  1.00  0.00    -0.003 C 
ATOM     19  C   UNL     1      31.946  16.534  16.488  1.00  0.00     0.004 C 
ENDBRANCH  17  18
ENDBRANCH  16  17
ENDBRANCH  15  16
ENDBRANCH  14  15
ENDBRANCH  13  14
ENDBRANCH  12  13
ENDBRANCH   1  12
TORSDOF 14
ENDMDL
