MODEL 1
REMARK VINA RESULT:    -3.658      0.000      0.000
REMARK INTER + INTRA:          -4.815
REMARK INTER:                  -4.728
REMARK INTRA:                  -0.088
REMARK UNBOUND:                -0.088
REMARK SMILES CCCCCCC(=O)[O-]
REMARK SMILES IDX 5 1 6 2 7 3 8 4 9 5 4 6 3 7 2 8 1 9
REMARK H PARENT
REMARK Flexibility Score: inf
ROOT
ATOM      1  C   UNL     1       5.252  44.111  12.451  1.00  0.00     0.006 C 
ENDROOT
BRANCH   1   2
ATOM      2  C   UNL     1       6.636  44.159  11.796  1.00  0.00     0.053 C 
BRANCH   2   3
ATOM      3  C   UNL     1       7.358  42.865  11.999  1.00  0.00     0.041 C 
ATOM      4  O   UNL     1       7.911  42.288  11.026  1.00  0.00    -0.550 OA
ATOM      5  O   UNL     1       7.378  42.268  13.254  1.00  0.00    -0.550 OA
ENDBRANCH   2   3
ENDBRANCH   1   2
BRANCH   1   6
ATOM      6  C   UNL     1       4.149  44.405  11.424  1.00  0.00     0.000 C 
BRANCH   6   7
ATOM      7  C   UNL     1       2.849  43.639  11.715  1.00  0.00    -0.000 C 
BRANCH   7   8
ATOM      8  C   UNL     1       2.206  43.062  10.445  1.00  0.00    -0.003 C 
ATOM      9  C   UNL     1       0.772  42.611  10.711  1.00  0.00     0.004 C 
ENDBRANCH   7   8
ENDBRANCH   6   7
ENDBRANCH   1   6
TORSDOF 5
ENDMDL
MODEL 2
REMARK VINA RESULT:    -3.623      0.695      1.442
REMARK INTER + INTRA:          -4.769
REMARK INTER:                  -4.622
REMARK INTRA:                  -0.148
REMARK UNBOUND:                -0.088
REMARK SMILES CCCCCCC(=O)[O-]
REMARK SMILES IDX 5 1 6 2 7 3 8 4 9 5 4 6 3 7 2 8 1 9
REMARK H PARENT
REMARK Flexibility Score: inf
ROOT
ATOM      1  C   UNL     1       6.063  44.555  12.007  1.00  0.00     0.006 C 
ENDROOT
BRANCH   1   2
ATOM      2  C   UNL     1       7.421  43.988  11.581  1.00  0.00     0.053 C 
BRANCH   2   3
ATOM      3  C   UNL     1       7.525  42.541  11.948  1.00  0.00     0.041 C 
ATOM      4  O   UNL     1       7.508  42.192  13.157  1.00  0.00    -0.550 OA
ATOM      5  O   UNL     1       7.691  41.583  10.957  1.00  0.00    -0.550 OA
ENDBRANCH   2   3
ENDBRANCH   1   2
BRANCH   1   6
ATOM      6  C   UNL     1       4.934  43.994  11.129  1.00  0.00     0.000 C 
BRANCH   6   7
ATOM      7  C   UNL     1       3.587  44.688  11.381  1.00  0.00    -0.000 C 
BRANCH   7   8
ATOM      8  C   UNL     1       2.482  43.702  11.789  1.00  0.00    -0.003 C 
ATOM      9  C   UNL     1       1.837  43.060  10.563  1.00  0.00     0.004 C 
ENDBRANCH   7   8
ENDBRANCH   6   7
ENDBRANCH   1   6
TORSDOF 5
ENDMDL
MODEL 3
REMARK VINA RESULT:    -3.617      0.953      1.176
REMARK INTER + INTRA:          -4.763
REMARK INTER:                  -4.611
REMARK INTRA:                  -0.152
REMARK UNBOUND:                -0.088
REMARK SMILES CCCCCCC(=O)[O-]
REMARK SMILES IDX 5 1 6 2 7 3 8 4 9 5 4 6 3 7 2 8 1 9
REMARK H PARENT
REMARK Flexibility Score: inf
ROOT
ATOM      1  C   UNL     1       5.734  44.999  12.130  1.00  0.00     0.006 C 
ENDROOT
BRANCH   1   2
ATOM      2  C   UNL     1       6.509  43.753  11.693  1.00  0.00     0.053 C 
BRANCH   2   3
ATOM      3  C   UNL     1       6.817  42.885  12.872  1.00  0.00     0.041 C 
ATOM      4  O   UNL     1       7.812  42.116  12.851  1.00  0.00    -0.550 OA
ATOM      5  O   UNL     1       5.973  42.888  13.977  1.00  0.00    -0.550 OA
ENDBRANCH   2   3
ENDBRANCH   1   2
BRANCH   1   6
ATOM      6  C   UNL     1       4.361  45.060  11.443  1.00  0.00     0.000 C 
BRANCH   6   7
ATOM      7  C   UNL     1       3.718  43.674  11.280  1.00  0.00    -0.000 C 
BRANCH   7   8
ATOM      8  C   UNL     1       2.244  43.651  11.710  1.00  0.00    -0.003 C 
ATOM      9  C   UNL     1       1.386  42.903  10.694  1.00  0.00     0.004 C 
ENDBRANCH   7   8
ENDBRANCH   6   7
ENDBRANCH   1   6
TORSDOF 5
ENDMDL
MODEL 4
REMARK VINA RESULT:    -3.464      2.739      4.900
REMARK INTER + INTRA:          -4.564
REMARK INTER:                  -4.395
REMARK INTRA:                  -0.169
REMARK UNBOUND:                -0.088
REMARK SMILES CCCCCCC(=O)[O-]
REMARK SMILES IDX 5 1 6 2 7 3 8 4 9 5 4 6 3 7 2 8 1 9
REMARK H PARENT
REMARK Flexibility Score: inf
ROOT
ATOM      1  C   UNL     1       5.144  44.154  10.994  1.00  0.00     0.006 C 
ENDROOT
BRANCH   1   2
ATOM      2  C   UNL     1       3.821  44.624  11.605  1.00  0.00     0.053 C 
BRANCH   2   3
ATOM      3  C   UNL     1       2.723  43.658  11.289  1.00  0.00     0.041 C 
ATOM      4  O   UNL     1       1.675  43.639  11.985  1.00  0.00    -0.550 OA
ATOM      5  O   UNL     1       2.878  42.743  10.255  1.00  0.00    -0.550 OA
ENDBRANCH   2   3
ENDBRANCH   1   2
BRANCH   1   6
ATOM      6  C   UNL     1       6.336  44.869  11.646  1.00  0.00     0.000 C 
BRANCH   6   7
ATOM      7  C   UNL     1       7.685  44.242  11.264  1.00  0.00    -0.000 C 
BRANCH   7   8
ATOM      8  C   UNL     1       7.655  42.707  11.300  1.00  0.00    -0.003 C 
ATOM      9  C   UNL     1       7.718  42.189  12.735  1.00  0.00     0.004 C 
ENDBRANCH   7   8
ENDBRANCH   6   7
ENDBRANCH   1   6
TORSDOF 5
ENDMDL
MODEL 5
REMARK VINA RESULT:    -3.086      3.383      5.386
REMARK INTER + INTRA:          -4.076
REMARK INTER:                  -3.975
REMARK INTRA:                  -0.101
REMARK UNBOUND:                -0.088
REMARK SMILES CCCCCCC(=O)[O-]
REMARK SMILES IDX 5 1 6 2 7 3 8 4 9 5 4 6 3 7 2 8 1 9
REMARK H PARENT
REMARK Flexibility Score: inf
ROOT
ATOM      1  C   UNL     1       3.833  44.390  11.021  1.00  0.00     0.006 C 
ENDROOT
BRANCH   1   2
ATOM      2  C   UNL     1       2.889  43.452  10.264  1.00  0.00     0.053 C 
BRANCH   2   3
ATOM      3  C   UNL     1       1.634  43.226  11.047  1.00  0.00     0.041 C 
ATOM      4  O   UNL     1       1.499  43.736  12.190  1.00  0.00    -0.550 OA
ATOM      5  O   UNL     1       0.633  42.409  10.536  1.00  0.00    -0.550 OA
ENDBRANCH   2   3
ENDBRANCH   1   2
BRANCH   1   6
ATOM      6  C   UNL     1       5.296  44.121  10.640  1.00  0.00     0.000 C 
BRANCH   6   7
ATOM      7  C   UNL     1       6.291  44.863  11.547  1.00  0.00    -0.000 C 
BRANCH   7   8
ATOM      8  C   UNL     1       7.745  44.430  11.307  1.00  0.00    -0.003 C 
ATOM      9  C   UNL     1       8.181  44.735   9.877  1.00  0.00     0.004 C 
ENDBRANCH   7   8
ENDBRANCH   6   7
ENDBRANCH   1   6
TORSDOF 5
ENDMDL
MODEL 6
REMARK VINA RESULT:    -2.221      1.808      2.457
REMARK INTER + INTRA:          -2.958
REMARK INTER:                  -3.199
REMARK INTRA:                   0.241
REMARK UNBOUND:                -0.088
REMARK SMILES CCCCCCC(=O)[O-]
REMARK SMILES IDX 5 1 6 2 7 3 8 4 9 5 4 6 3 7 2 8 1 9
REMARK H PARENT
REMARK Flexibility Score: inf
ROOT
ATOM      1  C   UNL     1       7.684  44.154  11.403  1.00  0.00     0.006 C 
ENDROOT
BRANCH   1   2
ATOM      2  C   UNL     1       7.238  42.701  11.586  1.00  0.00     0.053 C 
BRANCH   2   3
ATOM      3  C   UNL     1       7.253  42.325  13.035  1.00  0.00     0.041 C 
ATOM      4  O   UNL     1       6.444  42.861  13.836  1.00  0.00    -0.550 OA
ATOM      5  O   UNL     1       8.195  41.421  13.509  1.00  0.00    -0.550 OA
ENDBRANCH   2   3
ENDBRANCH   1   2
BRANCH   1   6
ATOM      6  C   UNL     1       6.527  45.123  11.689  1.00  0.00     0.000 C 
BRANCH   6   7
ATOM      7  C   UNL     1       5.150  44.503  11.404  1.00  0.00    -0.000 C 
BRANCH   7   8
ATOM      8  C   UNL     1       4.626  44.845  10.001  1.00  0.00    -0.003 C 
ATOM      9  C   UNL     1       3.140  44.521   9.875  1.00  0.00     0.004 C 
ENDBRANCH   7   8
ENDBRANCH   6   7
ENDBRANCH   1   6
TORSDOF 5
ENDMDL
MODEL 7
REMARK VINA RESULT:    -2.216      3.057      4.721
REMARK INTER + INTRA:          -2.951
REMARK INTER:                  -2.879
REMARK INTRA:                  -0.072
REMARK UNBOUND:                -0.088
REMARK SMILES CCCCCCC(=O)[O-]
REMARK SMILES IDX 5 1 6 2 7 3 8 4 9 5 4 6 3 7 2 8 1 9
REMARK H PARENT
REMARK Flexibility Score: inf
ROOT
ATOM      1  C   UNL     1       6.430  42.150   9.952  1.00  0.00     0.006 C 
ENDROOT
BRANCH   1   2
ATOM      2  C   UNL     1       6.141  43.651   9.875  1.00  0.00     0.053 C 
BRANCH   2   3
ATOM      3  C   UNL     1       4.685  43.918  10.098  1.00  0.00     0.041 C 
ATOM      4  O   UNL     1       4.301  45.051  10.491  1.00  0.00    -0.550 OA
ATOM      5  O   UNL     1       3.756  42.900   9.922  1.00  0.00    -0.550 OA
ENDBRANCH   2   3
ENDBRANCH   1   2
BRANCH   1   6
ATOM      6  C   UNL     1       7.668  41.873  10.818  1.00  0.00     0.000 C 
BRANCH   6   7
ATOM      7  C   UNL     1       7.896  42.950  11.889  1.00  0.00    -0.000 C 
BRANCH   7   8
ATOM      8  C   UNL     1       6.880  42.866  13.038  1.00  0.00    -0.003 C 
ATOM      9  C   UNL     1       7.258  41.764  14.025  1.00  0.00     0.004 C 
ENDBRANCH   7   8
ENDBRANCH   6   7
ENDBRANCH   1   6
TORSDOF 5
ENDMDL
MODEL 8
REMARK VINA RESULT:    -1.385     12.622     13.900
REMARK INTER + INTRA:          -1.877
REMARK INTER:                  -1.601
REMARK INTRA:                  -0.276
REMARK UNBOUND:                -0.088
REMARK SMILES CCCCCCC(=O)[O-]
REMARK SMILES IDX 5 1 6 2 7 3 8 4 9 5 4 6 3 7 2 8 1 9
REMARK H PARENT
REMARK Flexibility Score: inf
ROOT
ATOM      1  C   UNL     1       7.470  30.294  10.876  1.00  0.00     0.006 C 
ENDROOT
BRANCH   1   2
ATOM      2  C   UNL     1       7.734  31.648  10.211  1.00  0.00     0.053 C 
BRANCH   2   3
ATOM      3  C   UNL     1       8.567  32.517  11.099  1.00  0.00     0.041 C 
ATOM      4  O   UNL     1       8.784  32.179  12.292  1.00  0.00    -0.550 OA
ATOM      5  O   UNL     1       9.063  33.725  10.625  1.00  0.00    -0.550 OA
ENDBRANCH   2   3
ENDBRANCH   1   2
BRANCH   1   6
ATOM      6  C   UNL     1       8.010  29.144  10.013  1.00  0.00     0.000 C 
BRANCH   6   7
ATOM      7  C   UNL     1       8.968  28.223  10.784  1.00  0.00    -0.000 C 
BRANCH   7   8
ATOM      8  C   UNL     1       9.125  28.633  12.256  1.00  0.00    -0.003 C 
ATOM      9  C   UNL     1       8.750  27.485  13.189  1.00  0.00     0.004 C 
ENDBRANCH   7   8
ENDBRANCH   6   7
ENDBRANCH   1   6
TORSDOF 5
ENDMDL
MODEL 9
REMARK VINA RESULT:    -1.383      5.263      6.817
REMARK INTER + INTRA:          -1.875
REMARK INTER:                  -1.747
REMARK INTRA:                  -0.128
REMARK UNBOUND:                -0.088
REMARK SMILES CCCCCCC(=O)[O-]
REMARK SMILES IDX 5 1 6 2 7 3 8 4 9 5 4 6 3 7 2 8 1 9
REMARK H PARENT
REMARK Flexibility Score: inf
ROOT
ATOM      1  C   UNL     1      -0.000  43.390  12.833  1.00  0.00     0.006 C 
ENDROOT
BRANCH   1   2
ATOM      2  C   UNL     1      -0.356  44.389  13.937  1.00  0.00     0.053 C 
BRANCH   2   3
ATOM      3  C   UNL     1      -1.716  44.098  14.490  1.00  0.00     0.041 C 
ATOM      4  O   UNL     1      -2.187  42.933  14.431  1.00  0.00    -0.550 OA
ATOM      5  O   UNL     1      -2.483  45.125  15.026  1.00  0.00    -0.550 OA
ENDBRANCH   2   3
ENDBRANCH   1   2
BRANCH   1   6
ATOM      6  C   UNL     1       1.328  43.766  12.159  1.00  0.00     0.000 C 
BRANCH   6   7
ATOM      7  C   UNL     1       1.600  42.948  10.887  1.00  0.00    -0.000 C 
BRANCH   7   8
ATOM      8  C   UNL     1       2.906  43.356  10.190  1.00  0.00    -0.003 C 
ATOM      9  C   UNL     1       3.633  44.443  10.977  1.00  0.00     0.004 C 
ENDBRANCH   7   8
ENDBRANCH   6   7
ENDBRANCH   1   6
TORSDOF 5
ENDMDL
