MODEL 1
REMARK VINA RESULT:    -8.748      0.000      0.000
REMARK INTER + INTRA:         -10.519
REMARK INTER:                 -10.282
REMARK INTRA:                  -0.237
REMARK UNBOUND:                -0.237
REMARK SMILES O=c1c(O)c(-c2ccc(O)c(O)c2)oc2cc(O)ccc12
REMARK SMILES IDX 5 1 3 2 2 3 1 4 21 5 15 6 14 7 16 8 17 9 19 10 20 11 6 12
REMARK SMILES IDX 7 13 8 14 9 15 13 16 11 17 10 18 12 20 4 22 18 24
REMARK H PARENT 10 19 12 21 4 23 18 25
REMARK Flexibility Score: inf
ROOT
ATOM      1  C   UNL     1      17.247  25.438   0.082  1.00  0.00     0.180 A 
ATOM      2  C   UNL     1      18.496  25.386  -0.572  1.00  0.00     0.208 A 
ATOM      3  C   UNL     1      19.310  26.529  -0.566  1.00  0.00     0.235 A 
ATOM      4  O   UNL     1      20.436  26.504  -1.136  1.00  0.00    -0.285 OA
ATOM      5  C   UNL     1      18.857  27.697   0.067  1.00  0.00     0.069 A 
ATOM      6  C   UNL     1      17.584  27.676   0.677  1.00  0.00     0.142 A 
ATOM      7  O   UNL     1      16.848  26.571   0.659  1.00  0.00    -0.452 OA
ATOM      8  C   UNL     1      17.093  28.823   1.311  1.00  0.00     0.094 A 
ATOM      9  C   UNL     1      17.861  29.996   1.342  1.00  0.00     0.119 A 
ATOM     10  C   UNL     1      19.122  30.018   0.739  1.00  0.00     0.047 A 
ATOM     11  C   UNL     1      19.621  28.878   0.103  1.00  0.00     0.020 A 
ENDROOT
BRANCH   1  12
ATOM     12  C   UNL     1      16.339  24.271   0.138  1.00  0.00     0.025 A 
ATOM     13  C   UNL     1      16.645  23.142   0.921  1.00  0.00     0.016 A 
ATOM     14  C   UNL     1      15.760  22.061   0.976  1.00  0.00     0.051 A 
ATOM     15  C   UNL     1      14.555  22.098   0.265  1.00  0.00     0.157 A 
ATOM     16  C   UNL     1      15.119  24.309  -0.556  1.00  0.00     0.062 A 
ATOM     17  C   UNL     1      14.232  23.224  -0.501  1.00  0.00     0.158 A 
BRANCH  15  18
ATOM     18  O   UNL     1      13.672  21.021   0.316  1.00  0.00    -0.504 OA
ATOM     19  H   UNL     1      13.586  20.444   1.145  1.00  0.00     0.293 HD
ENDBRANCH  15  18
BRANCH  17  20
ATOM     20  O   UNL     1      13.028  23.261  -1.202  1.00  0.00    -0.504 OA
ATOM     21  H   UNL     1      12.988  23.546  -2.174  1.00  0.00     0.293 HD
ENDBRANCH  17  20
ENDBRANCH   1  12
BRANCH   2  22
ATOM     22  O   UNL     1      18.898  24.225  -1.235  1.00  0.00    -0.502 OA
ATOM     23  H   UNL     1      19.456  23.509  -0.784  1.00  0.00     0.293 HD
ENDBRANCH   2  22
BRANCH   9  24
ATOM     24  O   UNL     1      17.379  31.142   1.971  1.00  0.00    -0.508 OA
ATOM     25  H   UNL     1      16.436  31.189   2.338  1.00  0.00     0.293 HD
ENDBRANCH   9  24
TORSDOF 5
ENDMDL
MODEL 2
REMARK VINA RESULT:    -8.040      1.763      7.054
REMARK INTER + INTRA:          -9.687
REMARK INTER:                  -9.538
REMARK INTRA:                  -0.149
REMARK UNBOUND:                -0.237
REMARK SMILES O=c1c(O)c(-c2ccc(O)c(O)c2)oc2cc(O)ccc12
REMARK SMILES IDX 5 1 3 2 2 3 1 4 21 5 15 6 14 7 16 8 17 9 19 10 20 11 6 12
REMARK SMILES IDX 7 13 8 14 9 15 13 16 11 17 10 18 12 20 4 22 18 24
REMARK H PARENT 10 19 12 21 4 23 18 25
REMARK Flexibility Score: inf
ROOT
ATOM      1  C   UNL     1      17.115  26.219   0.628  1.00  0.00     0.180 A 
ATOM      2  C   UNL     1      15.706  26.260   0.567  1.00  0.00     0.208 A 
ATOM      3  C   UNL     1      14.996  25.050   0.536  1.00  0.00     0.235 A 
ATOM      4  O   UNL     1      13.734  25.060   0.493  1.00  0.00    -0.285 OA
ATOM      5  C   UNL     1      15.699  23.836   0.544  1.00  0.00     0.069 A 
ATOM      6  C   UNL     1      17.110  23.880   0.581  1.00  0.00     0.142 A 
ATOM      7  O   UNL     1      17.744  25.046   0.619  1.00  0.00    -0.452 OA
ATOM      8  C   UNL     1      17.847  22.691   0.580  1.00  0.00     0.094 A 
ATOM      9  C   UNL     1      17.191  21.453   0.545  1.00  0.00     0.119 A 
ATOM     10  C   UNL     1      15.794  21.407   0.510  1.00  0.00     0.047 A 
ATOM     11  C   UNL     1      15.048  22.589   0.509  1.00  0.00     0.020 A 
ENDROOT
BRANCH   1  12
ATOM     12  C   UNL     1      17.935  27.450   0.682  1.00  0.00     0.025 A 
ATOM     13  C   UNL     1      17.816  28.363   1.746  1.00  0.00     0.016 A 
ATOM     14  C   UNL     1      18.618  29.507   1.788  1.00  0.00     0.051 A 
ATOM     15  C   UNL     1      19.559  29.747   0.779  1.00  0.00     0.157 A 
ATOM     16  C   UNL     1      18.895  27.686  -0.315  1.00  0.00     0.062 A 
ATOM     17  C   UNL     1      19.700  28.834  -0.273  1.00  0.00     0.158 A 
BRANCH  15  18
ATOM     18  O   UNL     1      20.359  30.887   0.817  1.00  0.00    -0.504 OA
ATOM     19  H   UNL     1      20.055  31.763   0.408  1.00  0.00     0.293 HD
ENDBRANCH  15  18
BRANCH  17  20
ATOM     20  O   UNL     1      20.642  29.072  -1.272  1.00  0.00    -0.504 OA
ATOM     21  H   UNL     1      20.907  30.014  -1.540  1.00  0.00     0.293 HD
ENDBRANCH  17  20
ENDBRANCH   1  12
BRANCH   2  22
ATOM     22  O   UNL     1      15.035  27.484   0.511  1.00  0.00    -0.502 OA
ATOM     23  H   UNL     1      15.106  28.174   1.250  1.00  0.00     0.293 HD
ENDBRANCH   2  22
BRANCH   9  24
ATOM     24  O   UNL     1      17.918  20.264   0.545  1.00  0.00    -0.508 OA
ATOM     25  H   UNL     1      18.903  20.246   0.310  1.00  0.00     0.293 HD
ENDBRANCH   9  24
TORSDOF 5
ENDMDL
MODEL 3
REMARK VINA RESULT:    -8.039      1.926      6.895
REMARK INTER + INTRA:          -9.686
REMARK INTER:                  -9.431
REMARK INTRA:                  -0.255
REMARK UNBOUND:                -0.237
REMARK SMILES O=c1c(O)c(-c2ccc(O)c(O)c2)oc2cc(O)ccc12
REMARK SMILES IDX 5 1 3 2 2 3 1 4 21 5 15 6 14 7 16 8 17 9 19 10 20 11 6 12
REMARK SMILES IDX 7 13 8 14 9 15 13 16 11 17 10 18 12 20 4 22 18 24
REMARK H PARENT 10 19 12 21 4 23 18 25
REMARK Flexibility Score: inf
ROOT
ATOM      1  C   UNL     1      16.506  27.197  -0.020  1.00  0.00     0.180 A 
ATOM      2  C   UNL     1      15.851  27.206  -1.269  1.00  0.00     0.208 A 
ATOM      3  C   UNL     1      15.033  26.119  -1.611  1.00  0.00     0.235 A 
ATOM      4  O   UNL     1      14.428  26.108  -2.719  1.00  0.00    -0.285 OA
ATOM      5  C   UNL     1      14.903  25.044  -0.718  1.00  0.00     0.069 A 
ATOM      6  C   UNL     1      15.611  25.099   0.502  1.00  0.00     0.142 A 
ATOM      7  O   UNL     1      16.368  26.151   0.793  1.00  0.00    -0.452 OA
ATOM      8  C   UNL     1      15.515  24.042   1.415  1.00  0.00     0.094 A 
ATOM      9  C   UNL     1      14.717  22.928   1.123  1.00  0.00     0.119 A 
ATOM     10  C   UNL     1      14.014  22.872  -0.084  1.00  0.00     0.047 A 
ATOM     11  C   UNL     1      14.104  23.921  -1.003  1.00  0.00     0.020 A 
ENDROOT
BRANCH   1  12
ATOM     12  C   UNL     1      17.370  28.314   0.423  1.00  0.00     0.025 A 
ATOM     13  C   UNL     1      18.773  28.220   0.372  1.00  0.00     0.016 A 
ATOM     14  C   UNL     1      19.568  29.297   0.773  1.00  0.00     0.051 A 
ATOM     15  C   UNL     1      18.975  30.486   1.217  1.00  0.00     0.157 A 
ATOM     16  C   UNL     1      16.782  29.516   0.849  1.00  0.00     0.062 A 
ATOM     17  C   UNL     1      17.580  30.597   1.252  1.00  0.00     0.158 A 
BRANCH  15  18
ATOM     18  O   UNL     1      19.764  31.561   1.620  1.00  0.00    -0.504 OA
ATOM     19  H   UNL     1      19.740  32.450   1.133  1.00  0.00     0.293 HD
ENDBRANCH  15  18
BRANCH  17  20
ATOM     20  O   UNL     1      16.992  31.784   1.688  1.00  0.00    -0.504 OA
ATOM     21  H   UNL     1      17.479  32.671   1.625  1.00  0.00     0.293 HD
ENDBRANCH  17  20
ENDBRANCH   1  12
BRANCH   2  22
ATOM     22  O   UNL     1      16.038  28.268  -2.157  1.00  0.00    -0.502 OA
ATOM     23  H   UNL     1      16.832  28.894  -2.093  1.00  0.00     0.293 HD
ENDBRANCH   2  22
BRANCH   9  24
ATOM     24  O   UNL     1      14.616  21.872   2.027  1.00  0.00    -0.508 OA
ATOM     25  H   UNL     1      14.896  21.974   2.995  1.00  0.00     0.293 HD
ENDBRANCH   9  24
TORSDOF 5
ENDMDL
MODEL 4
REMARK VINA RESULT:    -6.851      4.085      5.813
REMARK INTER + INTRA:          -8.289
REMARK INTER:                  -8.092
REMARK INTRA:                  -0.197
REMARK UNBOUND:                -0.237
REMARK SMILES O=c1c(O)c(-c2ccc(O)c(O)c2)oc2cc(O)ccc12
REMARK SMILES IDX 5 1 3 2 2 3 1 4 21 5 15 6 14 7 16 8 17 9 19 10 20 11 6 12
REMARK SMILES IDX 7 13 8 14 9 15 13 16 11 17 10 18 12 20 4 22 18 24
REMARK H PARENT 10 19 12 21 4 23 18 25
REMARK Flexibility Score: inf
ROOT
ATOM      1  C   UNL     1      17.157  26.588  -2.533  1.00  0.00     0.180 A 
ATOM      2  C   UNL     1      18.380  26.558  -3.235  1.00  0.00     0.208 A 
ATOM      3  C   UNL     1      18.355  26.601  -4.637  1.00  0.00     0.235 A 
ATOM      4  O   UNL     1      19.436  26.586  -5.289  1.00  0.00    -0.285 OA
ATOM      5  C   UNL     1      17.122  26.651  -5.306  1.00  0.00     0.069 A 
ATOM      6  C   UNL     1      15.942  26.653  -4.531  1.00  0.00     0.142 A 
ATOM      7  O   UNL     1      16.008  26.621  -3.205  1.00  0.00    -0.452 OA
ATOM      8  C   UNL     1      14.692  26.692  -5.160  1.00  0.00     0.094 A 
ATOM      9  C   UNL     1      14.607  26.731  -6.559  1.00  0.00     0.119 A 
ATOM     10  C   UNL     1      15.775  26.730  -7.327  1.00  0.00     0.047 A 
ATOM     11  C   UNL     1      17.028  26.690  -6.709  1.00  0.00     0.020 A 
ENDROOT
BRANCH   1  12
ATOM     12  C   UNL     1      17.099  26.566  -1.054  1.00  0.00     0.025 A 
ATOM     13  C   UNL     1      17.599  27.632  -0.285  1.00  0.00     0.016 A 
ATOM     14  C   UNL     1      17.512  27.599   1.110  1.00  0.00     0.051 A 
ATOM     15  C   UNL     1      16.912  26.509   1.754  1.00  0.00     0.157 A 
ATOM     16  C   UNL     1      16.481  25.486  -0.403  1.00  0.00     0.062 A 
ATOM     17  C   UNL     1      16.393  25.453   0.997  1.00  0.00     0.158 A 
BRANCH  15  18
ATOM     18  O   UNL     1      16.825  26.472   3.144  1.00  0.00    -0.504 OA
ATOM     19  H   UNL     1      16.193  25.838   3.620  1.00  0.00     0.293 HD
ENDBRANCH  15  18
BRANCH  17  20
ATOM     20  O   UNL     1      15.790  24.373   1.640  1.00  0.00    -0.504 OA
ATOM     21  H   UNL     1      16.278  23.837   2.349  1.00  0.00     0.293 HD
ENDBRANCH  17  20
ENDBRANCH   1  12
BRANCH   2  22
ATOM     22  O   UNL     1      19.590  26.460  -2.544  1.00  0.00    -0.502 OA
ATOM     23  H   UNL     1      19.663  26.002  -1.644  1.00  0.00     0.293 HD
ENDBRANCH   2  22
BRANCH   9  24
ATOM     24  O   UNL     1      13.367  26.770  -7.192  1.00  0.00    -0.508 OA
ATOM     25  H   UNL     1      13.048  26.011  -7.783  1.00  0.00     0.293 HD
ENDBRANCH   9  24
TORSDOF 5
ENDMDL
MODEL 5
REMARK VINA RESULT:    -6.823      4.165      5.847
REMARK INTER + INTRA:          -8.257
REMARK INTER:                  -8.175
REMARK INTRA:                  -0.081
REMARK UNBOUND:                -0.237
REMARK SMILES O=c1c(O)c(-c2ccc(O)c(O)c2)oc2cc(O)ccc12
REMARK SMILES IDX 5 1 3 2 2 3 1 4 21 5 15 6 14 7 16 8 17 9 19 10 20 11 6 12
REMARK SMILES IDX 7 13 8 14 9 15 13 16 11 17 10 18 12 20 4 22 18 24
REMARK H PARENT 10 19 12 21 4 23 18 25
REMARK Flexibility Score: inf
ROOT
ATOM      1  C   UNL     1      17.074  26.602  -2.543  1.00  0.00     0.180 A 
ATOM      2  C   UNL     1      18.321  26.535  -3.199  1.00  0.00     0.208 A 
ATOM      3  C   UNL     1      18.354  26.622  -4.599  1.00  0.00     0.235 A 
ATOM      4  O   UNL     1      19.458  26.575  -5.208  1.00  0.00    -0.285 OA
ATOM      5  C   UNL     1      17.151  26.751  -5.311  1.00  0.00     0.069 A 
ATOM      6  C   UNL     1      15.943  26.786  -4.583  1.00  0.00     0.142 A 
ATOM      7  O   UNL     1      15.955  26.711  -3.257  1.00  0.00    -0.452 OA
ATOM      8  C   UNL     1      14.722  26.904  -5.257  1.00  0.00     0.094 A 
ATOM      9  C   UNL     1      14.694  26.990  -6.656  1.00  0.00     0.119 A 
ATOM     10  C   UNL     1      15.890  26.956  -7.379  1.00  0.00     0.047 A 
ATOM     11  C   UNL     1      17.114  26.837  -6.715  1.00  0.00     0.020 A 
ENDROOT
BRANCH   1  12
ATOM     12  C   UNL     1      16.956  26.537  -1.069  1.00  0.00     0.025 A 
ATOM     13  C   UNL     1      17.454  25.440  -0.342  1.00  0.00     0.016 A 
ATOM     14  C   UNL     1      17.353  25.413   1.052  1.00  0.00     0.051 A 
ATOM     15  C   UNL     1      16.768  26.484   1.739  1.00  0.00     0.157 A 
ATOM     16  C   UNL     1      16.390  27.617  -0.372  1.00  0.00     0.062 A 
ATOM     17  C   UNL     1      16.288  27.589   1.026  1.00  0.00     0.158 A 
BRANCH  15  18
ATOM     18  O   UNL     1      16.664  26.458   3.128  1.00  0.00    -0.504 OA
ATOM     19  H   UNL     1      15.847  26.079   3.593  1.00  0.00     0.293 HD
ENDBRANCH  15  18
BRANCH  17  20
ATOM     20  O   UNL     1      15.713  28.657   1.713  1.00  0.00    -0.504 OA
ATOM     21  H   UNL     1      16.211  29.529   1.853  1.00  0.00     0.293 HD
ENDBRANCH  17  20
ENDBRANCH   1  12
BRANCH   2  22
ATOM     22  O   UNL     1      19.497  26.357  -2.466  1.00  0.00    -0.502 OA
ATOM     23  H   UNL     1      19.500  26.295  -1.455  1.00  0.00     0.293 HD
ENDBRANCH   2  22
BRANCH   9  24
ATOM     24  O   UNL     1      13.483  27.108  -7.335  1.00  0.00    -0.508 OA
ATOM     25  H   UNL     1      12.657  26.604  -7.038  1.00  0.00     0.293 HD
ENDBRANCH   9  24
TORSDOF 5
ENDMDL
MODEL 6
REMARK VINA RESULT:    -6.820      3.953      5.246
REMARK INTER + INTRA:          -8.253
REMARK INTER:                  -8.464
REMARK INTRA:                   0.211
REMARK UNBOUND:                -0.237
REMARK SMILES O=c1c(O)c(-c2ccc(O)c(O)c2)oc2cc(O)ccc12
REMARK SMILES IDX 5 1 3 2 2 3 1 4 21 5 15 6 14 7 16 8 17 9 19 10 20 11 6 12
REMARK SMILES IDX 7 13 8 14 9 15 13 16 11 17 10 18 12 20 4 22 18 24
REMARK H PARENT 10 19 12 21 4 23 18 25
REMARK Flexibility Score: inf
ROOT
ATOM      1  C   UNL     1      16.088  26.705  -2.426  1.00  0.00     0.180 A 
ATOM      2  C   UNL     1      15.154  25.985  -1.653  1.00  0.00     0.208 A 
ATOM      3  C   UNL     1      15.216  26.083  -0.255  1.00  0.00     0.235 A 
ATOM      4  O   UNL     1      14.384  25.457   0.459  1.00  0.00    -0.285 OA
ATOM      5  C   UNL     1      16.213  26.872   0.339  1.00  0.00     0.069 A 
ATOM      6  C   UNL     1      17.126  27.542  -0.503  1.00  0.00     0.142 A 
ATOM      7  O   UNL     1      17.027  27.432  -1.823  1.00  0.00    -0.452 OA
ATOM      8  C   UNL     1      18.140  28.331   0.051  1.00  0.00     0.094 A 
ATOM      9  C   UNL     1      18.253  28.461   1.442  1.00  0.00     0.119 A 
ATOM     10  C   UNL     1      17.349  27.799   2.278  1.00  0.00     0.047 A 
ATOM     11  C   UNL     1      16.333  27.008   1.735  1.00  0.00     0.020 A 
ENDROOT
BRANCH   1  12
ATOM     12  C   UNL     1      16.077  26.670  -3.906  1.00  0.00     0.025 A 
ATOM     13  C   UNL     1      17.272  26.618  -4.647  1.00  0.00     0.016 A 
ATOM     14  C   UNL     1      17.236  26.562  -6.043  1.00  0.00     0.051 A 
ATOM     15  C   UNL     1      16.008  26.541  -6.717  1.00  0.00     0.157 A 
ATOM     16  C   UNL     1      14.850  26.628  -4.587  1.00  0.00     0.062 A 
ATOM     17  C   UNL     1      14.814  26.571  -5.988  1.00  0.00     0.158 A 
BRANCH  15  18
ATOM     18  O   UNL     1      15.969  26.487  -8.109  1.00  0.00    -0.504 OA
ATOM     19  H   UNL     1      15.766  25.624  -8.601  1.00  0.00     0.293 HD
ENDBRANCH  15  18
BRANCH  17  20
ATOM     20  O   UNL     1      13.593  26.543  -6.662  1.00  0.00    -0.504 OA
ATOM     21  H   UNL     1      12.767  26.129  -6.246  1.00  0.00     0.293 HD
ENDBRANCH  17  20
ENDBRANCH   1  12
BRANCH   2  22
ATOM     22  O   UNL     1      14.204  25.169  -2.271  1.00  0.00    -0.502 OA
ATOM     23  H   UNL     1      14.360  24.181  -2.429  1.00  0.00     0.293 HD
ENDBRANCH   2  22
BRANCH   9  24
ATOM     24  O   UNL     1      19.260  29.245   2.001  1.00  0.00    -0.508 OA
ATOM     25  H   UNL     1      19.047  30.079   2.535  1.00  0.00     0.293 HD
ENDBRANCH   9  24
TORSDOF 5
ENDMDL
MODEL 7
REMARK VINA RESULT:    -6.813      4.047      5.978
REMARK INTER + INTRA:          -8.245
REMARK INTER:                  -8.045
REMARK INTRA:                  -0.200
REMARK UNBOUND:                -0.237
REMARK SMILES O=c1c(O)c(-c2ccc(O)c(O)c2)oc2cc(O)ccc12
REMARK SMILES IDX 5 1 3 2 2 3 1 4 21 5 15 6 14 7 16 8 17 9 19 10 20 11 6 12
REMARK SMILES IDX 7 13 8 14 9 15 13 16 11 17 10 18 12 20 4 22 18 24
REMARK H PARENT 10 19 12 21 4 23 18 25
REMARK Flexibility Score: inf
ROOT
ATOM      1  C   UNL     1      16.939  26.513  -2.660  1.00  0.00     0.180 A 
ATOM      2  C   UNL     1      15.811  26.383  -3.497  1.00  0.00     0.208 A 
ATOM      3  C   UNL     1      15.994  26.408  -4.887  1.00  0.00     0.235 A 
ATOM      4  O   UNL     1      15.002  26.284  -5.658  1.00  0.00    -0.285 OA
ATOM      5  C   UNL     1      17.285  26.582  -5.411  1.00  0.00     0.069 A 
ATOM      6  C   UNL     1      18.359  26.729  -4.507  1.00  0.00     0.142 A 
ATOM      7  O   UNL     1      18.145  26.689  -3.197  1.00  0.00    -0.452 OA
ATOM      8  C   UNL     1      19.659  26.914  -4.990  1.00  0.00     0.094 A 
ATOM      9  C   UNL     1      19.901  26.952  -6.370  1.00  0.00     0.119 A 
ATOM     10  C   UNL     1      18.838  26.805  -7.267  1.00  0.00     0.047 A 
ATOM     11  C   UNL     1      17.536  26.621  -6.795  1.00  0.00     0.020 A 
ENDROOT
BRANCH   1  12
ATOM     12  C   UNL     1      16.831  26.477  -1.184  1.00  0.00     0.025 A 
ATOM     13  C   UNL     1      17.370  25.414  -0.436  1.00  0.00     0.016 A 
ATOM     14  C   UNL     1      17.277  25.415   0.958  1.00  0.00     0.051 A 
ATOM     15  C   UNL     1      16.659  26.481   1.625  1.00  0.00     0.157 A 
ATOM     16  C   UNL     1      16.232  27.552  -0.509  1.00  0.00     0.062 A 
ATOM     17  C   UNL     1      16.138  27.552   0.891  1.00  0.00     0.158 A 
BRANCH  15  18
ATOM     18  O   UNL     1      16.563  26.483   3.015  1.00  0.00    -0.504 OA
ATOM     19  H   UNL     1      17.324  26.157   3.601  1.00  0.00     0.293 HD
ENDBRANCH  15  18
BRANCH  17  20
ATOM     20  O   UNL     1      15.530  28.615   1.557  1.00  0.00    -0.504 OA
ATOM     21  H   UNL     1      15.216  28.530   2.517  1.00  0.00     0.293 HD
ENDBRANCH  17  20
ENDBRANCH   1  12
BRANCH   2  22
ATOM     22  O   UNL     1      14.532  26.260  -2.947  1.00  0.00    -0.502 OA
ATOM     23  H   UNL     1      14.053  27.040  -2.512  1.00  0.00     0.293 HD
ENDBRANCH   2  22
BRANCH   9  24
ATOM     24  O   UNL     1      21.193  27.135  -6.859  1.00  0.00    -0.508 OA
ATOM     25  H   UNL     1      21.990  26.675  -6.436  1.00  0.00     0.293 HD
ENDBRANCH   9  24
TORSDOF 5
ENDMDL
MODEL 8
REMARK VINA RESULT:    -6.793      3.718      5.774
REMARK INTER + INTRA:          -8.222
REMARK INTER:                  -7.901
REMARK INTRA:                  -0.321
REMARK UNBOUND:                -0.237
REMARK SMILES O=c1c(O)c(-c2ccc(O)c(O)c2)oc2cc(O)ccc12
REMARK SMILES IDX 5 1 3 2 2 3 1 4 21 5 15 6 14 7 16 8 17 9 19 10 20 11 6 12
REMARK SMILES IDX 7 13 8 14 9 15 13 16 11 17 10 18 12 20 4 22 18 24
REMARK H PARENT 10 19 12 21 4 23 18 25
REMARK Flexibility Score: inf
ROOT
ATOM      1  C   UNL     1      17.840  26.184  -2.841  1.00  0.00     0.180 A 
ATOM      2  C   UNL     1      18.074  25.051  -2.033  1.00  0.00     0.208 A 
ATOM      3  C   UNL     1      17.667  25.083  -0.691  1.00  0.00     0.235 A 
ATOM      4  O   UNL     1      17.855  24.078   0.050  1.00  0.00    -0.285 OA
ATOM      5  C   UNL     1      17.060  26.241  -0.180  1.00  0.00     0.069 A 
ATOM      6  C   UNL     1      16.884  27.341  -1.047  1.00  0.00     0.142 A 
ATOM      7  O   UNL     1      17.274  27.268  -2.314  1.00  0.00    -0.452 OA
ATOM      8  C   UNL     1      16.291  28.517  -0.573  1.00  0.00     0.094 A 
ATOM      9  C   UNL     1      15.869  28.607   0.761  1.00  0.00     0.119 A 
ATOM     10  C   UNL     1      16.042  27.518   1.621  1.00  0.00     0.047 A 
ATOM     11  C   UNL     1      16.634  26.339   1.157  1.00  0.00     0.020 A 
ENDROOT
BRANCH   1  12
ATOM     12  C   UNL     1      18.222  26.222  -4.271  1.00  0.00     0.025 A 
ATOM     13  C   UNL     1      17.362  25.735  -5.272  1.00  0.00     0.016 A 
ATOM     14  C   UNL     1      17.735  25.804  -6.617  1.00  0.00     0.051 A 
ATOM     15  C   UNL     1      18.962  26.372  -6.982  1.00  0.00     0.157 A 
ATOM     16  C   UNL     1      19.442  26.809  -4.645  1.00  0.00     0.062 A 
ATOM     17  C   UNL     1      19.816  26.878  -5.995  1.00  0.00     0.158 A 
BRANCH  15  18
ATOM     18  O   UNL     1      19.338  26.440  -8.322  1.00  0.00    -0.504 OA
ATOM     19  H   UNL     1      19.681  25.626  -8.820  1.00  0.00     0.293 HD
ENDBRANCH  15  18
BRANCH  17  20
ATOM     20  O   UNL     1      21.034  27.449  -6.361  1.00  0.00    -0.504 OA
ATOM     21  H   UNL     1      21.491  27.210  -7.234  1.00  0.00     0.293 HD
ENDBRANCH  17  20
ENDBRANCH   1  12
BRANCH   2  22
ATOM     22  O   UNL     1      18.724  23.931  -2.557  1.00  0.00    -0.502 OA
ATOM     23  H   UNL     1      18.609  23.005  -2.163  1.00  0.00     0.293 HD
ENDBRANCH   2  22
BRANCH   9  24
ATOM     24  O   UNL     1      15.278  29.774   1.241  1.00  0.00    -0.508 OA
ATOM     25  H   UNL     1      14.573  29.752   1.967  1.00  0.00     0.293 HD
ENDBRANCH   9  24
TORSDOF 5
ENDMDL
MODEL 9
REMARK VINA RESULT:    -6.760      2.028      2.790
REMARK INTER + INTRA:          -8.183
REMARK INTER:                  -8.255
REMARK INTRA:                   0.072
REMARK UNBOUND:                -0.237
REMARK SMILES O=c1c(O)c(-c2ccc(O)c(O)c2)oc2cc(O)ccc12
REMARK SMILES IDX 5 1 3 2 2 3 1 4 21 5 15 6 14 7 16 8 17 9 19 10 20 11 6 12
REMARK SMILES IDX 7 13 8 14 9 15 13 16 11 17 10 18 12 20 4 22 18 24
REMARK H PARENT 10 19 12 21 4 23 18 25
REMARK Flexibility Score: inf
ROOT
ATOM      1  C   UNL     1      16.317  26.155   0.407  1.00  0.00     0.180 A 
ATOM      2  C   UNL     1      15.690  27.037  -0.497  1.00  0.00     0.208 A 
ATOM      3  C   UNL     1      16.052  28.392  -0.482  1.00  0.00     0.235 A 
ATOM      4  O   UNL     1      15.513  29.199  -1.289  1.00  0.00    -0.285 OA
ATOM      5  C   UNL     1      17.010  28.841   0.441  1.00  0.00     0.069 A 
ATOM      6  C   UNL     1      17.574  27.900   1.330  1.00  0.00     0.142 A 
ATOM      7  O   UNL     1      17.211  26.624   1.276  1.00  0.00    -0.452 OA
ATOM      8  C   UNL     1      18.525  28.310   2.271  1.00  0.00     0.094 A 
ATOM      9  C   UNL     1      18.922  29.653   2.335  1.00  0.00     0.119 A 
ATOM     10  C   UNL     1      18.365  30.586   1.455  1.00  0.00     0.047 A 
ATOM     11  C   UNL     1      17.414  30.187   0.511  1.00  0.00     0.020 A 
ENDROOT
BRANCH   1  12
ATOM     12  C   UNL     1      16.004  24.709   0.441  1.00  0.00     0.025 A 
ATOM     13  C   UNL     1      14.676  24.246   0.406  1.00  0.00     0.016 A 
ATOM     14  C   UNL     1      14.406  22.875   0.415  1.00  0.00     0.051 A 
ATOM     15  C   UNL     1      15.456  21.948   0.444  1.00  0.00     0.157 A 
ATOM     16  C   UNL     1      17.053  23.775   0.449  1.00  0.00     0.062 A 
ATOM     17  C   UNL     1      16.781  22.398   0.458  1.00  0.00     0.158 A 
BRANCH  15  18
ATOM     18  O   UNL     1      15.190  20.580   0.455  1.00  0.00    -0.504 OA
ATOM     19  H   UNL     1      15.072  20.069   1.322  1.00  0.00     0.293 HD
ENDBRANCH  15  18
BRANCH  17  20
ATOM     20  O   UNL     1      17.825  21.474   0.480  1.00  0.00    -0.504 OA
ATOM     21  H   UNL     1      17.850  20.686  -0.158  1.00  0.00     0.293 HD
ENDBRANCH  17  20
ENDBRANCH   1  12
BRANCH   2  22
ATOM     22  O   UNL     1      14.705  26.570  -1.371  1.00  0.00    -0.502 OA
ATOM     23  H   UNL     1      13.966  27.168  -1.724  1.00  0.00     0.293 HD
ENDBRANCH   2  22
BRANCH   9  24
ATOM     24  O   UNL     1      19.868  30.069   3.269  1.00  0.00    -0.508 OA
ATOM     25  H   UNL     1      19.899  31.024   3.604  1.00  0.00     0.293 HD
ENDBRANCH   9  24
TORSDOF 5
ENDMDL
