MODEL 1
REMARK VINA RESULT:    -2.916      0.000      0.000
REMARK INTER + INTRA:          -3.322
REMARK INTER:                  -3.257
REMARK INTRA:                  -0.065
REMARK UNBOUND:                -0.065
REMARK SMILES CCCC(=O)[O-]
REMARK SMILES IDX 3 1 4 2 5 3 6 4 2 5 1 6
REMARK H PARENT
REMARK Flexibility Score: inf
ROOT
ATOM      1  C   UNL     1      35.221  24.008 220.870  1.00  0.00     0.052 C 
ENDROOT
BRANCH   1   2
ATOM      2  C   UNL     1      36.065  23.995 222.108  1.00  0.00     0.041 C 
ATOM      3  O   UNL     1      36.482  25.075 222.603  1.00  0.00    -0.550 OA
ATOM      4  O   UNL     1      36.419  22.787 222.694  1.00  0.00    -0.550 OA
ENDBRANCH   1   2
BRANCH   1   5
ATOM      5  C   UNL     1      36.030  24.427 219.636  1.00  0.00     0.003 C 
ATOM      6  C   UNL     1      37.044  23.362 219.217  1.00  0.00     0.004 C 
ENDBRANCH   1   5
TORSDOF 2
ENDMDL
MODEL 2
REMARK VINA RESULT:    -2.895      0.143      1.329
REMARK INTER + INTRA:          -3.299
REMARK INTER:                  -3.244
REMARK INTRA:                  -0.055
REMARK UNBOUND:                -0.065
REMARK SMILES CCCC(=O)[O-]
REMARK SMILES IDX 3 1 4 2 5 3 6 4 2 5 1 6
REMARK H PARENT
REMARK Flexibility Score: inf
ROOT
ATOM      1  C   UNL     1      35.264  24.018 220.875  1.00  0.00     0.052 C 
ENDROOT
BRANCH   1   2
ATOM      2  C   UNL     1      36.060  23.994 222.144  1.00  0.00     0.041 C 
ATOM      3  O   UNL     1      36.320  22.899 222.709  1.00  0.00    -0.550 OA
ATOM      4  O   UNL     1      36.484  25.184 222.721  1.00  0.00    -0.550 OA
ENDBRANCH   1   2
BRANCH   1   5
ATOM      5  C   UNL     1      36.121  24.441 219.676  1.00  0.00     0.003 C 
ATOM      6  C   UNL     1      37.228  23.432 219.368  1.00  0.00     0.004 C 
ENDBRANCH   1   5
TORSDOF 2
ENDMDL
MODEL 3
REMARK VINA RESULT:    -2.840      1.050      1.194
REMARK INTER + INTRA:          -3.237
REMARK INTER:                  -3.229
REMARK INTRA:                  -0.009
REMARK UNBOUND:                -0.065
REMARK SMILES CCCC(=O)[O-]
REMARK SMILES IDX 3 1 4 2 5 3 6 4 2 5 1 6
REMARK H PARENT
REMARK Flexibility Score: inf
ROOT
ATOM      1  C   UNL     1      36.975  23.590 221.340  1.00  0.00     0.052 C 
ENDROOT
BRANCH   1   2
ATOM      2  C   UNL     1      36.353  23.431 222.694  1.00  0.00     0.041 C 
ATOM      3  O   UNL     1      35.483  24.249 223.093  1.00  0.00    -0.550 OA
ATOM      4  O   UNL     1      36.760  22.398 223.528  1.00  0.00    -0.550 OA
ENDBRANCH   1   2
BRANCH   1   5
ATOM      5  C   UNL     1      36.006  24.238 220.343  1.00  0.00     0.003 C 
ATOM      6  C   UNL     1      36.451  24.047 218.893  1.00  0.00     0.004 C 
ENDBRANCH   1   5
TORSDOF 2
ENDMDL
MODEL 4
REMARK VINA RESULT:    -2.833      2.265      3.288
REMARK INTER + INTRA:          -3.229
REMARK INTER:                  -3.216
REMARK INTRA:                  -0.012
REMARK UNBOUND:                -0.065
REMARK SMILES CCCC(=O)[O-]
REMARK SMILES IDX 3 1 4 2 5 3 6 4 2 5 1 6
REMARK H PARENT
REMARK Flexibility Score: inf
ROOT
ATOM      1  C   UNL     1      36.520  23.906 221.278  1.00  0.00     0.052 C 
ENDROOT
BRANCH   1   2
ATOM      2  C   UNL     1      35.885  24.153 219.944  1.00  0.00     0.041 C 
ATOM      3  O   UNL     1      36.598  24.417 218.940  1.00  0.00    -0.550 OA
ATOM      4  O   UNL     1      34.502  24.125 219.818  1.00  0.00    -0.550 OA
ENDBRANCH   1   2
BRANCH   1   5
ATOM      5  C   UNL     1      35.490  23.941 222.413  1.00  0.00     0.003 C 
ATOM      6  C   UNL     1      36.047  24.584 223.683  1.00  0.00     0.004 C 
ENDBRANCH   1   5
TORSDOF 2
ENDMDL
MODEL 5
REMARK VINA RESULT:    -2.777      1.150      1.848
REMARK INTER + INTRA:          -3.167
REMARK INTER:                  -3.161
REMARK INTRA:                  -0.006
REMARK UNBOUND:                -0.065
REMARK SMILES CCCC(=O)[O-]
REMARK SMILES IDX 3 1 4 2 5 3 6 4 2 5 1 6
REMARK H PARENT
REMARK Flexibility Score: inf
ROOT
ATOM      1  C   UNL     1      35.453  23.932 221.982  1.00  0.00     0.052 C 
ENDROOT
BRANCH   1   2
ATOM      2  C   UNL     1      36.048  23.914 223.356  1.00  0.00     0.041 C 
ATOM      3  O   UNL     1      36.686  22.906 223.759  1.00  0.00    -0.550 OA
ATOM      4  O   UNL     1      35.868  24.998 224.205  1.00  0.00    -0.550 OA
ENDBRANCH   1   2
BRANCH   1   5
ATOM      5  C   UNL     1      36.526  23.784 220.896  1.00  0.00     0.003 C 
ATOM      6  C   UNL     1      36.010  24.176 219.512  1.00  0.00     0.004 C 
ENDBRANCH   1   5
TORSDOF 2
ENDMDL
MODEL 6
REMARK VINA RESULT:    -2.463      2.049      3.203
REMARK INTER + INTRA:          -2.817
REMARK INTER:                  -2.774
REMARK INTRA:                  -0.043
REMARK UNBOUND:                -0.065
REMARK SMILES CCCC(=O)[O-]
REMARK SMILES IDX 3 1 4 2 5 3 6 4 2 5 1 6
REMARK H PARENT
REMARK Flexibility Score: inf
ROOT
ATOM      1  C   UNL     1      35.829  24.332 223.238  1.00  0.00     0.052 C 
ENDROOT
BRANCH   1   2
ATOM      2  C   UNL     1      35.482  23.951 221.831  1.00  0.00     0.041 C 
ATOM      3  O   UNL     1      36.390  23.802 220.971  1.00  0.00    -0.550 OA
ATOM      4  O   UNL     1      34.152  23.795 221.462  1.00  0.00    -0.550 OA
ENDBRANCH   1   2
BRANCH   1   5
ATOM      5  C   UNL     1      37.177  23.741 223.670  1.00  0.00     0.003 C 
ATOM      6  C   UNL     1      37.058  22.279 224.102  1.00  0.00     0.004 C 
ENDBRANCH   1   5
TORSDOF 2
ENDMDL
MODEL 7
REMARK VINA RESULT:    -2.432      2.107      2.881
REMARK INTER + INTRA:          -2.781
REMARK INTER:                  -2.770
REMARK INTRA:                  -0.011
REMARK UNBOUND:                -0.065
REMARK SMILES CCCC(=O)[O-]
REMARK SMILES IDX 3 1 4 2 5 3 6 4 2 5 1 6
REMARK H PARENT
REMARK Flexibility Score: inf
ROOT
ATOM      1  C   UNL     1      37.086  23.630 221.971  1.00  0.00     0.052 C 
ENDROOT
BRANCH   1   2
ATOM      2  C   UNL     1      35.755  24.034 222.526  1.00  0.00     0.041 C 
ATOM      3  O   UNL     1      34.708  23.867 221.848  1.00  0.00    -0.550 OA
ATOM      4  O   UNL     1      35.676  24.628 223.779  1.00  0.00    -0.550 OA
ENDBRANCH   1   2
BRANCH   1   5
ATOM      5  C   UNL     1      38.152  23.526 223.070  1.00  0.00     0.003 C 
ATOM      6  C   UNL     1      39.572  23.588 222.509  1.00  0.00     0.004 C 
ENDBRANCH   1   5
TORSDOF 2
ENDMDL
MODEL 8
REMARK VINA RESULT:    -2.377      2.715      3.724
REMARK INTER + INTRA:          -2.720
REMARK INTER:                  -2.696
REMARK INTRA:                  -0.024
REMARK UNBOUND:                -0.065
REMARK SMILES CCCC(=O)[O-]
REMARK SMILES IDX 3 1 4 2 5 3 6 4 2 5 1 6
REMARK H PARENT
REMARK Flexibility Score: inf
ROOT
ATOM      1  C   UNL     1      36.249  25.098 224.254  1.00  0.00     0.052 C 
ENDROOT
BRANCH   1   2
ATOM      2  C   UNL     1      36.080  23.923 223.341  1.00  0.00     0.041 C 
ATOM      3  O   UNL     1      35.279  23.982 222.372  1.00  0.00    -0.550 OA
ATOM      4  O   UNL     1      36.783  22.749 223.583  1.00  0.00    -0.550 OA
ENDBRANCH   1   2
BRANCH   1   5
ATOM      5  C   UNL     1      37.447  25.965 223.848  1.00  0.00     0.003 C 
ATOM      6  C   UNL     1      38.500  26.055 224.952  1.00  0.00     0.004 C 
ENDBRANCH   1   5
TORSDOF 2
ENDMDL
MODEL 9
REMARK VINA RESULT:    -2.344      8.064      8.769
REMARK INTER + INTRA:          -2.683
REMARK INTER:                  -2.617
REMARK INTRA:                  -0.066
REMARK UNBOUND:                -0.065
REMARK SMILES CCCC(=O)[O-]
REMARK SMILES IDX 3 1 4 2 5 3 6 4 2 5 1 6
REMARK H PARENT
REMARK Flexibility Score: inf
ROOT
ATOM      1  C   UNL     1      37.993  18.180 226.432  1.00  0.00     0.052 C 
ENDROOT
BRANCH   1   2
ATOM      2  C   UNL     1      37.783  17.538 227.769  1.00  0.00     0.041 C 
ATOM      3  O   UNL     1      37.314  16.372 227.847  1.00  0.00    -0.550 OA
ATOM      4  O   UNL     1      38.074  18.242 228.930  1.00  0.00    -0.550 OA
ENDBRANCH   1   2
BRANCH   1   5
ATOM      5  C   UNL     1      36.682  18.291 225.643  1.00  0.00     0.003 C 
ATOM      6  C   UNL     1      35.620  19.096 226.392  1.00  0.00     0.004 C 
ENDBRANCH   1   5
TORSDOF 2
ENDMDL
