MODEL 1
REMARK VINA RESULT:    -3.741      0.000      0.000
REMARK INTER + INTRA:          -5.056
REMARK INTER:                  -4.835
REMARK INTRA:                  -0.221
REMARK UNBOUND:                -0.221
REMARK SMILES C=CC(=O)CCCCC
REMARK SMILES IDX 6 1 7 2 8 3 9 4 5 5 3 6 4 7 2 8 1 9
REMARK H PARENT
REMARK Flexibility Score: inf
ROOT
ATOM      1  C   UNL     1     101.286 133.224 125.597  1.00  0.00     0.008 C 
ENDROOT
BRANCH   1   2
ATOM      2  C   UNL     1     100.845 131.777 125.866  1.00  0.00     0.000 C 
BRANCH   2   3
ATOM      3  C   UNL     1     101.605 131.135 127.035  1.00  0.00    -0.003 C 
ATOM      4  C   UNL     1     100.680 130.894 128.225  1.00  0.00     0.004 C 
ENDBRANCH   2   3
ENDBRANCH   1   2
BRANCH   1   5
ATOM      5  C   UNL     1     100.400 134.254 126.309  1.00  0.00     0.080 C 
BRANCH   5   6
ATOM      6  C   UNL     1      99.837 135.234 125.323  1.00  0.00     0.155 C 
ATOM      7  O   UNL     1      98.588 135.400 125.261  1.00  0.00    -0.295 OA
BRANCH   6   8
ATOM      8  C   UNL     1     100.737 135.960 124.406  1.00  0.00     0.039 C 
ATOM      9  C   UNL     1     101.444 137.022 124.789  1.00  0.00     0.012 C 
ENDBRANCH   6   8
ENDBRANCH   5   6
ENDBRANCH   1   5
TORSDOF 5
ENDMDL
MODEL 2
REMARK VINA RESULT:    -3.659      2.207      5.040
REMARK INTER + INTRA:          -4.950
REMARK INTER:                  -4.742
REMARK INTRA:                  -0.208
REMARK UNBOUND:                -0.221
REMARK SMILES C=CC(=O)CCCCC
REMARK SMILES IDX 6 1 7 2 8 3 9 4 5 5 3 6 4 7 2 8 1 9
REMARK H PARENT
REMARK Flexibility Score: inf
ROOT
ATOM      1  C   UNL     1     100.603 133.854 126.359  1.00  0.00     0.008 C 
ENDROOT
BRANCH   1   2
ATOM      2  C   UNL     1     101.199 135.208 125.944  1.00  0.00     0.000 C 
BRANCH   2   3
ATOM      3  C   UNL     1     100.323 135.953 124.927  1.00  0.00    -0.003 C 
ATOM      4  C   UNL     1      98.841 135.712 125.197  1.00  0.00     0.004 C 
ENDBRANCH   2   3
ENDBRANCH   1   2
BRANCH   1   5
ATOM      5  C   UNL     1     101.227 132.676 125.602  1.00  0.00     0.080 C 
BRANCH   5   6
ATOM      6  C   UNL     1     101.668 131.610 126.559  1.00  0.00     0.155 C 
ATOM      7  O   UNL     1     102.846 131.162 126.486  1.00  0.00    -0.295 OA
BRANCH   6   8
ATOM      8  C   UNL     1     100.718 131.062 127.546  1.00  0.00     0.039 C 
ATOM      9  C   UNL     1     101.107 130.588 128.728  1.00  0.00     0.012 C 
ENDBRANCH   6   8
ENDBRANCH   5   6
ENDBRANCH   1   5
TORSDOF 5
ENDMDL
MODEL 3
REMARK VINA RESULT:    -3.656      1.642      1.932
REMARK INTER + INTRA:          -4.946
REMARK INTER:                  -4.679
REMARK INTRA:                  -0.267
REMARK UNBOUND:                -0.221
REMARK SMILES C=CC(=O)CCCCC
REMARK SMILES IDX 6 1 7 2 8 3 9 4 5 5 3 6 4 7 2 8 1 9
REMARK H PARENT
REMARK Flexibility Score: inf
ROOT
ATOM      1  C   UNL     1     101.236 132.384 125.379  1.00  0.00     0.008 C 
ENDROOT
BRANCH   1   2
ATOM      2  C   UNL     1     101.741 131.421 126.465  1.00  0.00     0.000 C 
BRANCH   2   3
ATOM      3  C   UNL     1     100.724 131.222 127.598  1.00  0.00    -0.003 C 
ATOM      4  C   UNL     1     101.297 130.336 128.701  1.00  0.00     0.004 C 
ENDBRANCH   2   3
ENDBRANCH   1   2
BRANCH   1   5
ATOM      5  C   UNL     1     102.045 133.687 125.322  1.00  0.00     0.080 C 
BRANCH   5   6
ATOM      6  C   UNL     1     101.205 134.846 125.769  1.00  0.00     0.155 C 
ATOM      7  O   UNL     1     101.770 135.874 126.235  1.00  0.00    -0.295 OA
BRANCH   6   8
ATOM      8  C   UNL     1      99.734 134.762 125.705  1.00  0.00     0.039 C 
ATOM      9  C   UNL     1      98.988 135.701 125.125  1.00  0.00     0.012 C 
ENDBRANCH   6   8
ENDBRANCH   5   6
ENDBRANCH   1   5
TORSDOF 5
ENDMDL
MODEL 4
REMARK VINA RESULT:    -3.616      1.954      2.695
REMARK INTER + INTRA:          -4.893
REMARK INTER:                  -4.363
REMARK INTRA:                  -0.530
REMARK UNBOUND:                -0.221
REMARK SMILES C=CC(=O)CCCCC
REMARK SMILES IDX 6 1 7 2 8 3 9 4 5 5 3 6 4 7 2 8 1 9
REMARK H PARENT
REMARK Flexibility Score: inf
ROOT
ATOM      1  C   UNL     1     100.366 134.713 125.810  1.00  0.00     0.008 C 
ENDROOT
BRANCH   1   2
ATOM      2  C   UNL     1     100.917 133.333 126.200  1.00  0.00     0.000 C 
BRANCH   2   3
ATOM      3  C   UNL     1     100.788 132.303 125.067  1.00  0.00    -0.003 C 
ATOM      4  C   UNL     1      99.686 132.699 124.088  1.00  0.00     0.004 C 
ENDBRANCH   2   3
ENDBRANCH   1   2
BRANCH   1   5
ATOM      5  C   UNL     1     101.419 135.823 125.923  1.00  0.00     0.080 C 
BRANCH   5   6
ATOM      6  C   UNL     1     101.452 136.645 124.669  1.00  0.00     0.155 C 
ATOM      7  O   UNL     1     101.403 137.903 124.753  1.00  0.00    -0.295 OA
BRANCH   6   8
ATOM      8  C   UNL     1     101.496 135.982 123.351  1.00  0.00     0.039 C 
ATOM      9  C   UNL     1     102.590 135.378 122.890  1.00  0.00     0.012 C 
ENDBRANCH   6   8
ENDBRANCH   5   6
ENDBRANCH   1   5
TORSDOF 5
ENDMDL
MODEL 5
REMARK VINA RESULT:    -3.593      2.136      3.973
REMARK INTER + INTRA:          -4.864
REMARK INTER:                  -4.250
REMARK INTRA:                  -0.614
REMARK UNBOUND:                -0.221
REMARK SMILES C=CC(=O)CCCCC
REMARK SMILES IDX 6 1 7 2 8 3 9 4 5 5 3 6 4 7 2 8 1 9
REMARK H PARENT
REMARK Flexibility Score: inf
ROOT
ATOM      1  C   UNL     1     100.678 133.877 126.339  1.00  0.00     0.008 C 
ENDROOT
BRANCH   1   2
ATOM      2  C   UNL     1     101.180 135.275 125.945  1.00  0.00     0.000 C 
BRANCH   2   3
ATOM      3  C   UNL     1     100.227 135.995 124.980  1.00  0.00    -0.003 C 
ATOM      4  C   UNL     1      98.785 135.542 125.192  1.00  0.00     0.004 C 
ENDBRANCH   2   3
ENDBRANCH   1   2
BRANCH   1   5
ATOM      5  C   UNL     1     101.435 132.753 125.620  1.00  0.00     0.080 C 
BRANCH   5   6
ATOM      6  C   UNL     1     100.583 132.151 124.543  1.00  0.00     0.155 C 
ATOM      7  O   UNL     1      99.852 131.159 124.815  1.00  0.00    -0.295 OA
BRANCH   6   8
ATOM      8  C   UNL     1     100.638 132.689 123.170  1.00  0.00     0.039 C 
ATOM      9  C   UNL     1     101.687 133.368 122.708  1.00  0.00     0.012 C 
ENDBRANCH   6   8
ENDBRANCH   5   6
ENDBRANCH   1   5
TORSDOF 5
ENDMDL
MODEL 6
REMARK VINA RESULT:    -3.575     11.992     12.712
REMARK INTER + INTRA:          -4.841
REMARK INTER:                  -4.341
REMARK INTRA:                  -0.500
REMARK UNBOUND:                -0.221
REMARK SMILES C=CC(=O)CCCCC
REMARK SMILES IDX 6 1 7 2 8 3 9 4 5 5 3 6 4 7 2 8 1 9
REMARK H PARENT
REMARK Flexibility Score: inf
ROOT
ATOM      1  C   UNL     1      98.067 141.639 133.830  1.00  0.00     0.008 C 
ENDROOT
BRANCH   1   2
ATOM      2  C   UNL     1      97.925 140.124 134.037  1.00  0.00     0.000 C 
BRANCH   2   3
ATOM      3  C   UNL     1      97.659 139.750 135.502  1.00  0.00    -0.003 C 
ATOM      4  C   UNL     1      96.615 138.641 135.606  1.00  0.00     0.004 C 
ENDBRANCH   2   3
ENDBRANCH   1   2
BRANCH   1   5
ATOM      5  C   UNL     1      97.581 142.450 135.038  1.00  0.00     0.080 C 
BRANCH   5   6
ATOM      6  C   UNL     1      96.418 143.316 134.656  1.00  0.00     0.155 C 
ATOM      7  O   UNL     1      96.603 144.288 133.874  1.00  0.00    -0.295 OA
BRANCH   6   8
ATOM      8  C   UNL     1      95.083 143.057 135.229  1.00  0.00     0.039 C 
ATOM      9  C   UNL     1      94.846 142.045 136.063  1.00  0.00     0.012 C 
ENDBRANCH   6   8
ENDBRANCH   5   6
ENDBRANCH   1   5
TORSDOF 5
ENDMDL
MODEL 7
REMARK VINA RESULT:    -3.567      2.181      4.452
REMARK INTER + INTRA:          -4.830
REMARK INTER:                  -4.399
REMARK INTRA:                  -0.431
REMARK UNBOUND:                -0.221
REMARK SMILES C=CC(=O)CCCCC
REMARK SMILES IDX 6 1 7 2 8 3 9 4 5 5 3 6 4 7 2 8 1 9
REMARK H PARENT
REMARK Flexibility Score: inf
ROOT
ATOM      1  C   UNL     1     100.655 133.819 126.352  1.00  0.00     0.008 C 
ENDROOT
BRANCH   1   2
ATOM      2  C   UNL     1     101.203 135.183 125.906  1.00  0.00     0.000 C 
BRANCH   2   3
ATOM      3  C   UNL     1     100.226 135.946 125.000  1.00  0.00    -0.003 C 
ATOM      4  C   UNL     1      98.789 135.490 125.235  1.00  0.00     0.004 C 
ENDBRANCH   2   3
ENDBRANCH   1   2
BRANCH   1   5
ATOM      5  C   UNL     1     101.519 132.647 125.867  1.00  0.00     0.080 C 
BRANCH   5   6
ATOM      6  C   UNL     1     101.200 132.315 124.441  1.00  0.00     0.155 C 
ATOM      7  O   UNL     1     102.091 132.459 123.559  1.00  0.00    -0.295 OA
BRANCH   6   8
ATOM      8  C   UNL     1      99.844 131.868 124.070  1.00  0.00     0.039 C 
ATOM      9  C   UNL     1      99.555 130.592 123.815  1.00  0.00     0.012 C 
ENDBRANCH   6   8
ENDBRANCH   5   6
ENDBRANCH   1   5
TORSDOF 5
ENDMDL
MODEL 8
REMARK VINA RESULT:    -3.560      2.123      4.660
REMARK INTER + INTRA:          -4.822
REMARK INTER:                  -4.415
REMARK INTRA:                  -0.407
REMARK UNBOUND:                -0.221
REMARK SMILES C=CC(=O)CCCCC
REMARK SMILES IDX 6 1 7 2 8 3 9 4 5 5 3 6 4 7 2 8 1 9
REMARK H PARENT
REMARK Flexibility Score: inf
ROOT
ATOM      1  C   UNL     1      99.539 134.773 125.291  1.00  0.00     0.008 C 
ENDROOT
BRANCH   1   2
ATOM      2  C   UNL     1      99.944 136.218 124.960  1.00  0.00     0.000 C 
BRANCH   2   3
ATOM      3  C   UNL     1     101.406 136.332 124.503  1.00  0.00    -0.003 C 
ATOM      4  C   UNL     1     101.557 135.923 123.040  1.00  0.00     0.004 C 
ENDBRANCH   2   3
ENDBRANCH   1   2
BRANCH   1   5
ATOM      5  C   UNL     1     100.559 134.065 126.191  1.00  0.00     0.080 C 
BRANCH   5   6
ATOM      6  C   UNL     1     100.920 132.725 125.623  1.00  0.00     0.155 C 
ATOM      7  O   UNL     1     101.744 131.994 126.240  1.00  0.00    -0.295 OA
BRANCH   6   8
ATOM      8  C   UNL     1     100.351 132.290 124.333  1.00  0.00     0.039 C 
ATOM      9  C   UNL     1      99.830 131.077 124.153  1.00  0.00     0.012 C 
ENDBRANCH   6   8
ENDBRANCH   5   6
ENDBRANCH   1   5
TORSDOF 5
ENDMDL
MODEL 9
REMARK VINA RESULT:    -3.472      1.336      2.126
REMARK INTER + INTRA:          -4.708
REMARK INTER:                  -4.496
REMARK INTRA:                  -0.212
REMARK UNBOUND:                -0.221
REMARK SMILES C=CC(=O)CCCCC
REMARK SMILES IDX 6 1 7 2 8 3 9 4 5 5 3 6 4 7 2 8 1 9
REMARK H PARENT
REMARK Flexibility Score: inf
ROOT
ATOM      1  C   UNL     1     101.480 133.058 125.629  1.00  0.00     0.008 C 
ENDROOT
BRANCH   1   2
ATOM      2  C   UNL     1     100.844 131.701 125.291  1.00  0.00     0.000 C 
BRANCH   2   3
ATOM      3  C   UNL     1      99.852 131.788 124.122  1.00  0.00    -0.003 C 
ATOM      4  C   UNL     1      99.987 130.582 123.196  1.00  0.00     0.004 C 
ENDBRANCH   2   3
ENDBRANCH   1   2
BRANCH   1   5
ATOM      5  C   UNL     1     100.512 134.000 126.356  1.00  0.00     0.080 C 
BRANCH   5   6
ATOM      6  C   UNL     1     100.368 135.289 125.603  1.00  0.00     0.155 C 
ATOM      7  O   UNL     1      99.219 135.673 125.250  1.00  0.00    -0.295 OA
BRANCH   6   8
ATOM      8  C   UNL     1     101.565 136.072 125.240  1.00  0.00     0.039 C 
ATOM      9  C   UNL     1     101.499 137.350 124.869  1.00  0.00     0.012 C 
ENDBRANCH   6   8
ENDBRANCH   5   6
ENDBRANCH   1   5
TORSDOF 5
ENDMDL
