MODEL 1
REMARK VINA RESULT:    -5.085      0.000      0.000
REMARK INTER + INTRA:          -5.234
REMARK INTER:                  -5.234
REMARK INTRA:                   0.000
REMARK UNBOUND:                 0.000
REMARK SMILES Cc1ccccc1O
REMARK SMILES IDX 1 1 2 2 3 3 4 4 5 5 6 6 7 7 8 8
REMARK H PARENT 8 9
REMARK Flexibility Score: inf
ROOT
ATOM      1  C   UNL     1      26.525  37.974  26.275  1.00  0.00     0.048 C 
ATOM      2  C   UNL     1      27.970  37.986  25.862  1.00  0.00    -0.009 A 
ATOM      3  C   UNL     1      28.909  37.194  26.543  1.00  0.00     0.007 A 
ATOM      4  C   UNL     1      30.253  37.205  26.159  1.00  0.00     0.001 A 
ATOM      5  C   UNL     1      30.670  38.006  25.095  1.00  0.00     0.004 A 
ATOM      6  C   UNL     1      29.745  38.799  24.411  1.00  0.00     0.046 A 
ATOM      7  C   UNL     1      28.394  38.794  24.789  1.00  0.00     0.118 A 
ENDROOT
BRANCH   7   8
ATOM      8  O   UNL     1      27.474  39.586  24.104  1.00  0.00    -0.508 OA
ATOM      9  H   UNL     1      27.211  40.505  24.439  1.00  0.00     0.293 HD
ENDBRANCH   7   8
TORSDOF 1
ENDMDL
MODEL 2
REMARK VINA RESULT:    -5.011      2.982      3.298
REMARK INTER + INTRA:          -5.157
REMARK INTER:                  -5.157
REMARK INTRA:                   0.000
REMARK UNBOUND:                 0.000
REMARK SMILES Cc1ccccc1O
REMARK SMILES IDX 1 1 2 2 3 3 4 4 5 5 6 6 7 7 8 8
REMARK H PARENT 8 9
REMARK Flexibility Score: inf
ROOT
ATOM      1  C   UNL     1      26.579  37.177  27.354  1.00  0.00     0.048 C 
ATOM      2  C   UNL     1      28.021  36.754  27.337  1.00  0.00    -0.009 A 
ATOM      3  C   UNL     1      29.032  37.668  27.680  1.00  0.00     0.007 A 
ATOM      4  C   UNL     1      30.373  37.275  27.665  1.00  0.00     0.001 A 
ATOM      5  C   UNL     1      30.717  35.970  27.308  1.00  0.00     0.004 A 
ATOM      6  C   UNL     1      29.720  35.054  26.964  1.00  0.00     0.046 A 
ATOM      7  C   UNL     1      28.371  35.438  26.976  1.00  0.00     0.118 A 
ENDROOT
BRANCH   7   8
ATOM      8  O   UNL     1      27.379  34.521  26.633  1.00  0.00    -0.508 OA
ATOM      9  H   UNL     1      27.485  33.530  26.819  1.00  0.00     0.293 HD
ENDBRANCH   7   8
TORSDOF 1
ENDMDL
MODEL 3
REMARK VINA RESULT:    -4.997      1.884      2.056
REMARK INTER + INTRA:          -5.143
REMARK INTER:                  -5.143
REMARK INTRA:                   0.000
REMARK UNBOUND:                 0.000
REMARK SMILES Cc1ccccc1O
REMARK SMILES IDX 1 1 2 2 3 3 4 4 5 5 6 6 7 7 8 8
REMARK H PARENT 8 9
REMARK Flexibility Score: inf
ROOT
ATOM      1  C   UNL     1      25.662  37.697  26.898  1.00  0.00     0.048 C 
ATOM      2  C   UNL     1      27.146  37.468  26.931  1.00  0.00    -0.009 A 
ATOM      3  C   UNL     1      27.661  36.163  26.997  1.00  0.00     0.007 A 
ATOM      4  C   UNL     1      29.042  35.950  27.027  1.00  0.00     0.001 A 
ATOM      5  C   UNL     1      29.919  37.036  26.993  1.00  0.00     0.004 A 
ATOM      6  C   UNL     1      29.418  38.338  26.928  1.00  0.00     0.046 A 
ATOM      7  C   UNL     1      28.033  38.562  26.896  1.00  0.00     0.118 A 
ENDROOT
BRANCH   7   8
ATOM      8  O   UNL     1      27.537  39.863  26.830  1.00  0.00    -0.508 OA
ATOM      9  H   UNL     1      27.391  40.418  27.665  1.00  0.00     0.293 HD
ENDBRANCH   7   8
TORSDOF 1
ENDMDL
MODEL 4
REMARK VINA RESULT:    -4.993      1.797      2.276
REMARK INTER + INTRA:          -5.139
REMARK INTER:                  -5.139
REMARK INTRA:                   0.000
REMARK UNBOUND:                 0.000
REMARK SMILES Cc1ccccc1O
REMARK SMILES IDX 1 1 2 2 3 3 4 4 5 5 6 6 7 7 8 8
REMARK H PARENT 8 9
REMARK Flexibility Score: inf
ROOT
ATOM      1  C   UNL     1      25.660  37.698  26.913  1.00  0.00     0.048 C 
ATOM      2  C   UNL     1      27.152  37.853  27.011  1.00  0.00    -0.009 A 
ATOM      3  C   UNL     1      27.719  38.614  28.047  1.00  0.00     0.007 A 
ATOM      4  C   UNL     1      29.107  38.758  28.138  1.00  0.00     0.001 A 
ATOM      5  C   UNL     1      29.938  38.146  27.197  1.00  0.00     0.004 A 
ATOM      6  C   UNL     1      29.384  37.389  26.162  1.00  0.00     0.046 A 
ATOM      7  C   UNL     1      27.992  37.237  26.063  1.00  0.00     0.118 A 
ENDROOT
BRANCH   7   8
ATOM      8  O   UNL     1      27.444  36.480  25.029  1.00  0.00    -0.508 OA
ATOM      9  H   UNL     1      26.566  35.987  25.141  1.00  0.00     0.293 HD
ENDBRANCH   7   8
TORSDOF 1
ENDMDL
MODEL 5
REMARK VINA RESULT:    -4.983      1.142      2.409
REMARK INTER + INTRA:          -5.129
REMARK INTER:                  -5.129
REMARK INTRA:                   0.000
REMARK UNBOUND:                 0.000
REMARK SMILES Cc1ccccc1O
REMARK SMILES IDX 1 1 2 2 3 3 4 4 5 5 6 6 7 7 8 8
REMARK H PARENT 8 9
REMARK Flexibility Score: inf
ROOT
ATOM      1  C   UNL     1      29.454  39.531  24.058  1.00  0.00     0.048 C 
ATOM      2  C   UNL     1      29.518  38.370  25.009  1.00  0.00    -0.009 A 
ATOM      3  C   UNL     1      30.759  37.876  25.443  1.00  0.00     0.007 A 
ATOM      4  C   UNL     1      30.818  36.795  26.328  1.00  0.00     0.001 A 
ATOM      5  C   UNL     1      29.641  36.199  26.785  1.00  0.00     0.004 A 
ATOM      6  C   UNL     1      28.402  36.681  26.358  1.00  0.00     0.046 A 
ATOM      7  C   UNL     1      28.332  37.766  25.471  1.00  0.00     0.118 A 
ENDROOT
BRANCH   7   8
ATOM      8  O   UNL     1      27.093  38.245  25.048  1.00  0.00    -0.508 OA
ATOM      9  H   UNL     1      26.864  39.231  25.086  1.00  0.00     0.293 HD
ENDBRANCH   7   8
TORSDOF 1
ENDMDL
MODEL 6
REMARK VINA RESULT:    -4.978      2.204      2.905
REMARK INTER + INTRA:          -5.123
REMARK INTER:                  -5.123
REMARK INTRA:                   0.000
REMARK UNBOUND:                 0.000
REMARK SMILES Cc1ccccc1O
REMARK SMILES IDX 1 1 2 2 3 3 4 4 5 5 6 6 7 7 8 8
REMARK H PARENT 8 9
REMARK Flexibility Score: inf
ROOT
ATOM      1  C   UNL     1      25.592  37.649  26.983  1.00  0.00     0.048 C 
ATOM      2  C   UNL     1      27.070  37.626  26.715  1.00  0.00    -0.009 A 
ATOM      3  C   UNL     1      27.579  38.116  25.501  1.00  0.00     0.007 A 
ATOM      4  C   UNL     1      28.954  38.094  25.252  1.00  0.00     0.001 A 
ATOM      5  C   UNL     1      29.831  37.585  26.211  1.00  0.00     0.004 A 
ATOM      6  C   UNL     1      29.336  37.095  27.422  1.00  0.00     0.046 A 
ATOM      7  C   UNL     1      27.957  37.112  27.681  1.00  0.00     0.118 A 
ENDROOT
BRANCH   7   8
ATOM      8  O   UNL     1      27.467  36.623  28.891  1.00  0.00    -0.508 OA
ATOM      9  H   UNL     1      28.051  36.569  29.717  1.00  0.00     0.293 HD
ENDBRANCH   7   8
TORSDOF 1
ENDMDL
MODEL 7
REMARK VINA RESULT:    -4.962      2.633      3.170
REMARK INTER + INTRA:          -5.107
REMARK INTER:                  -5.107
REMARK INTRA:                   0.000
REMARK UNBOUND:                 0.000
REMARK SMILES Cc1ccccc1O
REMARK SMILES IDX 1 1 2 2 3 3 4 4 5 5 6 6 7 7 8 8
REMARK H PARENT 8 9
REMARK Flexibility Score: inf
ROOT
ATOM      1  C   UNL     1      29.767  39.119  29.876  1.00  0.00     0.048 C 
ATOM      2  C   UNL     1      29.708  38.899  28.391  1.00  0.00    -0.009 A 
ATOM      3  C   UNL     1      30.892  38.786  27.643  1.00  0.00     0.007 A 
ATOM      4  C   UNL     1      30.837  38.582  26.261  1.00  0.00     0.001 A 
ATOM      5  C   UNL     1      29.603  38.489  25.616  1.00  0.00     0.004 A 
ATOM      6  C   UNL     1      28.419  38.601  26.349  1.00  0.00     0.046 A 
ATOM      7  C   UNL     1      28.464  38.806  27.737  1.00  0.00     0.118 A 
ENDROOT
BRANCH   7   8
ATOM      8  O   UNL     1      27.281  38.916  28.466  1.00  0.00    -0.508 OA
ATOM      9  H   UNL     1      27.286  39.115  29.459  1.00  0.00     0.293 HD
ENDBRANCH   7   8
TORSDOF 1
ENDMDL
MODEL 8
REMARK VINA RESULT:    -4.932      2.398      3.006
REMARK INTER + INTRA:          -5.076
REMARK INTER:                  -5.076
REMARK INTRA:                   0.000
REMARK UNBOUND:                 0.000
REMARK SMILES Cc1ccccc1O
REMARK SMILES IDX 1 1 2 2 3 3 4 4 5 5 6 6 7 7 8 8
REMARK H PARENT 8 9
REMARK Flexibility Score: inf
ROOT
ATOM      1  C   UNL     1      28.252  38.025  25.216  1.00  0.00     0.048 C 
ATOM      2  C   UNL     1      28.909  38.421  26.507  1.00  0.00    -0.009 A 
ATOM      3  C   UNL     1      30.309  38.410  26.624  1.00  0.00     0.007 A 
ATOM      4  C   UNL     1      30.920  38.779  27.826  1.00  0.00     0.001 A 
ATOM      5  C   UNL     1      30.140  39.162  28.919  1.00  0.00     0.004 A 
ATOM      6  C   UNL     1      28.748  39.176  28.814  1.00  0.00     0.046 A 
ATOM      7  C   UNL     1      28.125  38.808  27.612  1.00  0.00     0.118 A 
ENDROOT
BRANCH   7   8
ATOM      8  O   UNL     1      26.735  38.824  27.511  1.00  0.00    -0.508 OA
ATOM      9  H   UNL     1      26.237  39.635  27.161  1.00  0.00     0.293 HD
ENDBRANCH   7   8
TORSDOF 1
ENDMDL
MODEL 9
REMARK VINA RESULT:    -4.932      2.980      3.504
REMARK INTER + INTRA:          -5.076
REMARK INTER:                  -5.076
REMARK INTRA:                   0.000
REMARK UNBOUND:                 0.000
REMARK SMILES Cc1ccccc1O
REMARK SMILES IDX 1 1 2 2 3 3 4 4 5 5 6 6 7 7 8 8
REMARK H PARENT 8 9
REMARK Flexibility Score: inf
ROOT
ATOM      1  C   UNL     1      29.413  34.460  26.646  1.00  0.00     0.048 C 
ATOM      2  C   UNL     1      29.570  35.864  27.159  1.00  0.00    -0.009 A 
ATOM      3  C   UNL     1      30.847  36.433  27.289  1.00  0.00     0.007 A 
ATOM      4  C   UNL     1      30.993  37.739  27.765  1.00  0.00     0.001 A 
ATOM      5  C   UNL     1      29.867  38.486  28.117  1.00  0.00     0.004 A 
ATOM      6  C   UNL     1      28.592  37.929  27.993  1.00  0.00     0.046 A 
ATOM      7  C   UNL     1      28.435  36.619  27.515  1.00  0.00     0.118 A 
ENDROOT
BRANCH   7   8
ATOM      8  O   UNL     1      27.161  36.068  27.391  1.00  0.00    -0.508 OA
ATOM      9  H   UNL     1      27.016  35.065  27.372  1.00  0.00     0.293 HD
ENDBRANCH   7   8
TORSDOF 1
ENDMDL
