MODEL 1
REMARK VINA RESULT:    -6.566      0.000      0.000
REMARK INTER + INTRA:          -8.097
REMARK INTER:                  -7.910
REMARK INTRA:                  -0.187
REMARK UNBOUND:                -0.187
REMARK SMILES O=c1c(O)c(-c2ccc(O)c(O)c2)oc2cc(O)cc(O)c12
REMARK SMILES IDX 5 1 3 2 2 3 1 4 22 5 20 6 19 7 17 8 16 9 15 10 14 11 6 12
REMARK SMILES IDX 7 13 8 14 9 15 13 16 11 17 10 18 12 20 4 22 21 24 18 26
REMARK H PARENT 10 19 12 21 4 23 21 25 18 27
REMARK Flexibility Score: inf
ROOT
ATOM      1  C   UNL     1      14.102  31.894  30.253  1.00  0.00     0.180 A 
ATOM      2  C   UNL     1      14.621  33.076  30.809  1.00  0.00     0.208 A 
ATOM      3  C   UNL     1      14.486  33.296  32.190  1.00  0.00     0.238 A 
ATOM      4  O   UNL     1      14.904  34.380  32.672  1.00  0.00    -0.285 OA
ATOM      5  C   UNL     1      13.851  32.323  32.998  1.00  0.00     0.111 A 
ATOM      6  C   UNL     1      13.695  32.423  34.414  1.00  0.00     0.134 A 
ATOM      7  C   UNL     1      12.934  31.464  35.095  1.00  0.00     0.093 A 
ATOM      8  C   UNL     1      12.380  30.376  34.422  1.00  0.00     0.123 A 
ATOM      9  C   UNL     1      12.576  30.236  33.048  1.00  0.00     0.094 A 
ATOM     10  C   UNL     1      13.299  31.196  32.336  1.00  0.00     0.146 A 
ATOM     11  O   UNL     1      13.453  31.032  31.027  1.00  0.00    -0.452 OA
ENDROOT
BRANCH   1  12
ATOM     12  C   UNL     1      14.228  31.580  28.811  1.00  0.00     0.025 A 
ATOM     13  C   UNL     1      13.557  32.338  27.836  1.00  0.00     0.016 A 
ATOM     14  C   UNL     1      13.709  32.038  26.480  1.00  0.00     0.051 A 
ATOM     15  C   UNL     1      14.542  30.986  26.077  1.00  0.00     0.157 A 
ATOM     16  C   UNL     1      15.078  30.540  28.401  1.00  0.00     0.062 A 
ATOM     17  C   UNL     1      15.232  30.236  27.044  1.00  0.00     0.158 A 
BRANCH  15  18
ATOM     18  O   UNL     1      14.691  30.688  24.723  1.00  0.00    -0.504 OA
ATOM     19  H   UNL     1      15.397  30.038  24.397  1.00  0.00     0.293 HD
ENDBRANCH  15  18
BRANCH  17  20
ATOM     20  O   UNL     1      16.075  29.187  26.676  1.00  0.00    -0.504 OA
ATOM     21  H   UNL     1      15.718  28.277  26.413  1.00  0.00     0.293 HD
ENDBRANCH  17  20
ENDBRANCH   1  12
BRANCH   2  22
ATOM     22  O   UNL     1      15.226  34.033  29.989  1.00  0.00    -0.502 OA
ATOM     23  H   UNL     1      15.307  35.006  30.256  1.00  0.00     0.293 HD
ENDBRANCH   2  22
BRANCH   6  24
ATOM     24  O   UNL     1      14.285  33.420  35.195  1.00  0.00    -0.507 OA
ATOM     25  H   UNL     1      14.529  33.319  36.169  1.00  0.00     0.293 HD
ENDBRANCH   6  24
BRANCH   8  26
ATOM     26  O   UNL     1      11.642  29.432  35.134  1.00  0.00    -0.508 OA
ATOM     27  H   UNL     1      12.066  28.860  35.855  1.00  0.00     0.293 HD
ENDBRANCH   8  26
TORSDOF 6
ENDMDL
MODEL 2
REMARK VINA RESULT:    -6.372      9.701     13.314
REMARK INTER + INTRA:          -7.863
REMARK INTER:                  -7.550
REMARK INTRA:                  -0.313
REMARK UNBOUND:                -0.187
REMARK SMILES O=c1c(O)c(-c2ccc(O)c(O)c2)oc2cc(O)cc(O)c12
REMARK SMILES IDX 5 1 3 2 2 3 1 4 22 5 20 6 19 7 17 8 16 9 15 10 14 11 6 12
REMARK SMILES IDX 7 13 8 14 9 15 13 16 11 17 10 18 12 20 4 22 21 24 18 26
REMARK H PARENT 10 19 12 21 4 23 21 25 18 27
REMARK Flexibility Score: inf
ROOT
ATOM      1  C   UNL     1      21.049  38.435  37.725  1.00  0.00     0.180 A 
ATOM      2  C   UNL     1      21.857  37.575  36.963  1.00  0.00     0.208 A 
ATOM      3  C   UNL     1      21.357  37.061  35.756  1.00  0.00     0.238 A 
ATOM      4  O   UNL     1      22.064  36.249  35.105  1.00  0.00    -0.285 OA
ATOM      5  C   UNL     1      20.061  37.428  35.318  1.00  0.00     0.111 A 
ATOM      6  C   UNL     1      19.469  37.000  34.091  1.00  0.00     0.134 A 
ATOM      7  C   UNL     1      18.132  37.318  33.822  1.00  0.00     0.093 A 
ATOM      8  C   UNL     1      17.388  38.103  34.701  1.00  0.00     0.123 A 
ATOM      9  C   UNL     1      17.975  38.577  35.875  1.00  0.00     0.094 A 
ATOM     10  C   UNL     1      19.296  38.245  36.189  1.00  0.00     0.146 A 
ATOM     11  O   UNL     1      19.814  38.707  37.321  1.00  0.00    -0.452 OA
ENDROOT
BRANCH   1  12
ATOM     12  C   UNL     1      21.516  39.036  38.995  1.00  0.00     0.025 A 
ATOM     13  C   UNL     1      22.053  40.335  39.038  1.00  0.00     0.016 A 
ATOM     14  C   UNL     1      22.465  40.890  40.251  1.00  0.00     0.051 A 
ATOM     15  C   UNL     1      22.336  40.163  41.442  1.00  0.00     0.157 A 
ATOM     16  C   UNL     1      21.369  38.320  40.194  1.00  0.00     0.062 A 
ATOM     17  C   UNL     1      21.782  38.872  41.412  1.00  0.00     0.158 A 
BRANCH  15  18
ATOM     18  O   UNL     1      22.750  40.720  42.652  1.00  0.00    -0.504 OA
ATOM     19  H   UNL     1      22.800  40.167  43.500  1.00  0.00     0.293 HD
ENDBRANCH  15  18
BRANCH  17  20
ATOM     20  O   UNL     1      21.634  38.125  42.581  1.00  0.00    -0.504 OA
ATOM     21  H   UNL     1      22.400  37.601  42.985  1.00  0.00     0.293 HD
ENDBRANCH  17  20
ENDBRANCH   1  12
BRANCH   2  22
ATOM     22  O   UNL     1      23.125  37.208  37.425  1.00  0.00    -0.502 OA
ATOM     23  H   UNL     1      23.772  36.665  36.866  1.00  0.00     0.293 HD
ENDBRANCH   2  22
BRANCH   6  24
ATOM     24  O   UNL     1      20.153  36.289  33.101  1.00  0.00    -0.507 OA
ATOM     25  H   UNL     1      20.942  35.683  33.269  1.00  0.00     0.293 HD
ENDBRANCH   6  24
BRANCH   8  26
ATOM     26  O   UNL     1      16.065  38.414  34.394  1.00  0.00    -0.508 OA
ATOM     27  H   UNL     1      15.352  38.469  35.112  1.00  0.00     0.293 HD
ENDBRANCH   8  26
TORSDOF 6
ENDMDL
MODEL 3
REMARK VINA RESULT:    -6.298      8.507     11.056
REMARK INTER + INTRA:          -7.773
REMARK INTER:                  -7.520
REMARK INTRA:                  -0.253
REMARK UNBOUND:                -0.187
REMARK SMILES O=c1c(O)c(-c2ccc(O)c(O)c2)oc2cc(O)cc(O)c12
REMARK SMILES IDX 5 1 3 2 2 3 1 4 22 5 20 6 19 7 17 8 16 9 15 10 14 11 6 12
REMARK SMILES IDX 7 13 8 14 9 15 13 16 11 17 10 18 12 20 4 22 21 24 18 26
REMARK H PARENT 10 19 12 21 4 23 21 25 18 27
REMARK Flexibility Score: inf
ROOT
ATOM      1  C   UNL     1      19.183  38.360  36.005  1.00  0.00     0.180 A 
ATOM      2  C   UNL     1      20.102  37.461  35.437  1.00  0.00     0.208 A 
ATOM      3  C   UNL     1      21.141  36.954  36.234  1.00  0.00     0.238 A 
ATOM      4  O   UNL     1      21.991  36.191  35.705  1.00  0.00    -0.285 OA
ATOM      5  C   UNL     1      21.237  37.339  37.593  1.00  0.00     0.111 A 
ATOM      6  C   UNL     1      22.225  36.855  38.504  1.00  0.00     0.134 A 
ATOM      7  C   UNL     1      22.307  37.404  39.789  1.00  0.00     0.093 A 
ATOM      8  C   UNL     1      21.396  38.368  40.219  1.00  0.00     0.123 A 
ATOM      9  C   UNL     1      20.390  38.805  39.357  1.00  0.00     0.094 A 
ATOM     10  C   UNL     1      20.306  38.303  38.056  1.00  0.00     0.146 A 
ATOM     11  O   UNL     1      19.340  38.753  37.264  1.00  0.00    -0.452 OA
ENDROOT
BRANCH   1  12
ATOM     12  C   UNL     1      18.047  38.918  35.236  1.00  0.00     0.025 A 
ATOM     13  C   UNL     1      18.064  40.240  34.759  1.00  0.00     0.016 A 
ATOM     14  C   UNL     1      16.992  40.737  34.016  1.00  0.00     0.051 A 
ATOM     15  C   UNL     1      15.892  39.918  33.726  1.00  0.00     0.157 A 
ATOM     16  C   UNL     1      16.952  38.095  34.926  1.00  0.00     0.062 A 
ATOM     17  C   UNL     1      15.875  38.590  34.182  1.00  0.00     0.158 A 
BRANCH  15  18
ATOM     18  O   UNL     1      14.822  40.418  32.984  1.00  0.00    -0.504 OA
ATOM     19  H   UNL     1      13.867  40.352  33.320  1.00  0.00     0.293 HD
ENDBRANCH  15  18
BRANCH  17  20
ATOM     20  O   UNL     1      14.798  37.747  33.904  1.00  0.00    -0.504 OA
ATOM     21  H   UNL     1      14.362  37.178  34.620  1.00  0.00     0.293 HD
ENDBRANCH  17  20
ENDBRANCH   1  12
BRANCH   2  22
ATOM     22  O   UNL     1      20.000  37.111  34.088  1.00  0.00    -0.502 OA
ATOM     23  H   UNL     1      20.444  37.646  33.352  1.00  0.00     0.293 HD
ENDBRANCH   2  22
BRANCH   6  24
ATOM     24  O   UNL     1      23.125  35.828  38.206  1.00  0.00    -0.507 OA
ATOM     25  H   UNL     1      22.897  34.845  38.212  1.00  0.00     0.293 HD
ENDBRANCH   6  24
BRANCH   8  26
ATOM     26  O   UNL     1      21.497  38.881  41.511  1.00  0.00    -0.508 OA
ATOM     27  H   UNL     1      20.794  38.687  42.215  1.00  0.00     0.293 HD
ENDBRANCH   8  26
TORSDOF 6
ENDMDL
MODEL 4
REMARK VINA RESULT:    -5.979      9.067     11.242
REMARK INTER + INTRA:          -7.389
REMARK INTER:                  -7.082
REMARK INTRA:                  -0.307
REMARK UNBOUND:                -0.187
REMARK SMILES O=c1c(O)c(-c2ccc(O)c(O)c2)oc2cc(O)cc(O)c12
REMARK SMILES IDX 5 1 3 2 2 3 1 4 22 5 20 6 19 7 17 8 16 9 15 10 14 11 6 12
REMARK SMILES IDX 7 13 8 14 9 15 13 16 11 17 10 18 12 20 4 22 21 24 18 26
REMARK H PARENT 10 19 12 21 4 23 21 25 18 27
REMARK Flexibility Score: inf
ROOT
ATOM      1  C   UNL     1      20.631  37.810  36.130  1.00  0.00     0.180 A 
ATOM      2  C   UNL     1      21.649  36.928  36.532  1.00  0.00     0.208 A 
ATOM      3  C   UNL     1      22.154  37.019  37.839  1.00  0.00     0.238 A 
ATOM      4  O   UNL     1      23.101  36.263  38.175  1.00  0.00    -0.285 OA
ATOM      5  C   UNL     1      21.622  37.979  38.733  1.00  0.00     0.111 A 
ATOM      6  C   UNL     1      22.029  38.133  40.093  1.00  0.00     0.134 A 
ATOM      7  C   UNL     1      21.529  39.202  40.847  1.00  0.00     0.093 A 
ATOM      8  C   UNL     1      20.588  40.081  40.313  1.00  0.00     0.123 A 
ATOM      9  C   UNL     1      20.139  39.905  39.004  1.00  0.00     0.094 A 
ATOM     10  C   UNL     1      20.646  38.870  38.215  1.00  0.00     0.146 A 
ATOM     11  O   UNL     1      20.200  38.743  36.971  1.00  0.00    -0.452 OA
ENDROOT
BRANCH   1  12
ATOM     12  C   UNL     1      20.032  37.758  34.778  1.00  0.00     0.025 A 
ATOM     13  C   UNL     1      20.648  38.382  33.679  1.00  0.00     0.016 A 
ATOM     14  C   UNL     1      20.076  38.300  32.407  1.00  0.00     0.051 A 
ATOM     15  C   UNL     1      18.888  37.584  32.211  1.00  0.00     0.157 A 
ATOM     16  C   UNL     1      18.852  37.025  34.571  1.00  0.00     0.062 A 
ATOM     17  C   UNL     1      18.276  36.941  33.299  1.00  0.00     0.158 A 
BRANCH  15  18
ATOM     18  O   UNL     1      18.319  37.505  30.940  1.00  0.00    -0.504 OA
ATOM     19  H   UNL     1      17.425  37.936  30.731  1.00  0.00     0.293 HD
ENDBRANCH  15  18
BRANCH  17  20
ATOM     20  O   UNL     1      17.095  36.215  33.135  1.00  0.00    -0.504 OA
ATOM     21  H   UNL     1      16.199  36.667  33.005  1.00  0.00     0.293 HD
ENDBRANCH  17  20
ENDBRANCH   1  12
BRANCH   2  22
ATOM     22  O   UNL     1      22.174  36.001  35.626  1.00  0.00    -0.502 OA
ATOM     23  H   UNL     1      23.166  35.927  35.437  1.00  0.00     0.293 HD
ENDBRANCH   2  22
BRANCH   6  24
ATOM     24  O   UNL     1      22.894  37.256  40.752  1.00  0.00    -0.507 OA
ATOM     25  H   UNL     1      22.622  36.627  41.493  1.00  0.00     0.293 HD
ENDBRANCH   6  24
BRANCH   8  26
ATOM     26  O   UNL     1      20.100  41.125  41.097  1.00  0.00    -0.508 OA
ATOM     27  H   UNL     1      19.379  40.973  41.792  1.00  0.00     0.293 HD
ENDBRANCH   8  26
TORSDOF 6
ENDMDL
MODEL 5
REMARK VINA RESULT:    -5.882      8.285     11.912
REMARK INTER + INTRA:          -7.272
REMARK INTER:                  -7.308
REMARK INTRA:                   0.036
REMARK UNBOUND:                -0.187
REMARK SMILES O=c1c(O)c(-c2ccc(O)c(O)c2)oc2cc(O)cc(O)c12
REMARK SMILES IDX 5 1 3 2 2 3 1 4 22 5 20 6 19 7 17 8 16 9 15 10 14 11 6 12
REMARK SMILES IDX 7 13 8 14 9 15 13 16 11 17 10 18 12 20 4 22 21 24 18 26
REMARK H PARENT 10 19 12 21 4 23 21 25 18 27
REMARK Flexibility Score: inf
ROOT
ATOM      1  C   UNL     1      20.205  37.736  36.131  1.00  0.00     0.180 A 
ATOM      2  C   UNL     1      18.854  38.122  36.105  1.00  0.00     0.208 A 
ATOM      3  C   UNL     1      18.178  38.156  34.874  1.00  0.00     0.238 A 
ATOM      4  O   UNL     1      16.985  38.554  34.851  1.00  0.00    -0.285 OA
ATOM      5  C   UNL     1      18.858  37.787  33.688  1.00  0.00     0.111 A 
ATOM      6  C   UNL     1      18.261  37.745  32.392  1.00  0.00     0.134 A 
ATOM      7  C   UNL     1      19.061  37.493  31.271  1.00  0.00     0.093 A 
ATOM      8  C   UNL     1      20.420  37.216  31.405  1.00  0.00     0.123 A 
ATOM      9  C   UNL     1      21.003  37.195  32.672  1.00  0.00     0.094 A 
ATOM     10  C   UNL     1      20.238  37.479  33.807  1.00  0.00     0.146 A 
ATOM     11  O   UNL     1      20.832  37.460  34.994  1.00  0.00    -0.452 OA
ENDROOT
BRANCH   1  12
ATOM     12  C   UNL     1      20.976  37.651  37.392  1.00  0.00     0.025 A 
ATOM     13  C   UNL     1      20.968  38.701  38.328  1.00  0.00     0.016 A 
ATOM     14  C   UNL     1      21.684  38.589  39.521  1.00  0.00     0.051 A 
ATOM     15  C   UNL     1      22.409  37.424  39.805  1.00  0.00     0.157 A 
ATOM     16  C   UNL     1      21.688  36.478  37.690  1.00  0.00     0.062 A 
ATOM     17  C   UNL     1      22.407  36.363  38.885  1.00  0.00     0.158 A 
BRANCH  15  18
ATOM     18  O   UNL     1      23.125  37.316  40.997  1.00  0.00    -0.504 OA
ATOM     19  H   UNL     1      22.805  36.726  41.757  1.00  0.00     0.293 HD
ENDBRANCH  15  18
BRANCH  17  20
ATOM     20  O   UNL     1      23.113  35.187  39.141  1.00  0.00    -0.504 OA
ATOM     21  H   UNL     1      22.758  34.470  39.761  1.00  0.00     0.293 HD
ENDBRANCH  17  20
ENDBRANCH   1  12
BRANCH   2  22
ATOM     22  O   UNL     1      18.209  38.503  37.285  1.00  0.00    -0.502 OA
ATOM     23  H   UNL     1      18.687  38.985  38.036  1.00  0.00     0.293 HD
ENDBRANCH   2  22
BRANCH   6  24
ATOM     24  O   UNL     1      16.894  37.917  32.157  1.00  0.00    -0.507 OA
ATOM     25  H   UNL     1      16.238  37.166  32.000  1.00  0.00     0.293 HD
ENDBRANCH   6  24
BRANCH   8  26
ATOM     26  O   UNL     1      21.184  36.953  30.269  1.00  0.00    -0.508 OA
ATOM     27  H   UNL     1      21.350  37.664  29.566  1.00  0.00     0.293 HD
ENDBRANCH   8  26
TORSDOF 6
ENDMDL
MODEL 6
REMARK VINA RESULT:    -5.872      9.225     13.142
REMARK INTER + INTRA:          -7.260
REMARK INTER:                  -7.169
REMARK INTRA:                  -0.091
REMARK UNBOUND:                -0.187
REMARK SMILES O=c1c(O)c(-c2ccc(O)c(O)c2)oc2cc(O)cc(O)c12
REMARK SMILES IDX 5 1 3 2 2 3 1 4 22 5 20 6 19 7 17 8 16 9 15 10 14 11 6 12
REMARK SMILES IDX 7 13 8 14 9 15 13 16 11 17 10 18 12 20 4 22 21 24 18 26
REMARK H PARENT 10 19 12 21 4 23 21 25 18 27
REMARK Flexibility Score: inf
ROOT
ATOM      1  C   UNL     1      20.468  38.390  36.850  1.00  0.00     0.180 A 
ATOM      2  C   UNL     1      19.120  38.166  36.523  1.00  0.00     0.208 A 
ATOM      3  C   UNL     1      18.761  38.018  35.173  1.00  0.00     0.238 A 
ATOM      4  O   UNL     1      17.545  37.872  34.884  1.00  0.00    -0.285 OA
ATOM      5  C   UNL     1      19.758  38.079  34.170  1.00  0.00     0.111 A 
ATOM      6  C   UNL     1      19.514  37.901  32.774  1.00  0.00     0.134 A 
ATOM      7  C   UNL     1      20.553  38.113  31.860  1.00  0.00     0.093 A 
ATOM      8  C   UNL     1      21.840  38.428  32.293  1.00  0.00     0.123 A 
ATOM      9  C   UNL     1      22.103  38.545  33.658  1.00  0.00     0.094 A 
ATOM     10  C   UNL     1      21.079  38.377  34.593  1.00  0.00     0.146 A 
ATOM     11  O   UNL     1      21.369  38.507  35.882  1.00  0.00    -0.452 OA
ENDROOT
BRANCH   1  12
ATOM     12  C   UNL     1      20.927  38.530  38.251  1.00  0.00     0.025 A 
ATOM     13  C   UNL     1      21.903  37.675  38.792  1.00  0.00     0.016 A 
ATOM     14  C   UNL     1      22.337  37.842  40.109  1.00  0.00     0.051 A 
ATOM     15  C   UNL     1      21.814  38.872  40.901  1.00  0.00     0.157 A 
ATOM     16  C   UNL     1      20.420  39.574  39.043  1.00  0.00     0.062 A 
ATOM     17  C   UNL     1      20.853  39.743  40.363  1.00  0.00     0.158 A 
BRANCH  15  18
ATOM     18  O   UNL     1      22.248  39.034  42.217  1.00  0.00    -0.504 OA
ATOM     19  H   UNL     1      21.604  38.989  42.998  1.00  0.00     0.293 HD
ENDBRANCH  15  18
BRANCH  17  20
ATOM     20  O   UNL     1      20.317  40.783  41.124  1.00  0.00    -0.504 OA
ATOM     21  H   UNL     1      20.550  40.910  42.101  1.00  0.00     0.293 HD
ENDBRANCH  17  20
ENDBRANCH   1  12
BRANCH   2  22
ATOM     22  O   UNL     1      18.149  38.131  37.529  1.00  0.00    -0.502 OA
ATOM     23  H   UNL     1      17.280  37.622  37.428  1.00  0.00     0.293 HD
ENDBRANCH   2  22
BRANCH   6  24
ATOM     24  O   UNL     1      18.287  37.497  32.242  1.00  0.00    -0.507 OA
ATOM     25  H   UNL     1      17.739  36.722  32.585  1.00  0.00     0.293 HD
ENDBRANCH   6  24
BRANCH   8  26
ATOM     26  O   UNL     1      22.854  38.616  31.355  1.00  0.00    -0.508 OA
ATOM     27  H   UNL     1      22.898  39.451  30.782  1.00  0.00     0.293 HD
ENDBRANCH   8  26
TORSDOF 6
ENDMDL
MODEL 7
REMARK VINA RESULT:    -5.828      1.727      7.515
REMARK INTER + INTRA:          -7.208
REMARK INTER:                  -7.591
REMARK INTRA:                   0.383
REMARK UNBOUND:                -0.187
REMARK SMILES O=c1c(O)c(-c2ccc(O)c(O)c2)oc2cc(O)cc(O)c12
REMARK SMILES IDX 5 1 3 2 2 3 1 4 22 5 20 6 19 7 17 8 16 9 15 10 14 11 6 12
REMARK SMILES IDX 7 13 8 14 9 15 13 16 11 17 10 18 12 20 4 22 21 24 18 26
REMARK H PARENT 10 19 12 21 4 23 21 25 18 27
REMARK Flexibility Score: inf
ROOT
ATOM      1  C   UNL     1      14.297  32.236  29.382  1.00  0.00     0.180 A 
ATOM      2  C   UNL     1      14.131  30.946  28.850  1.00  0.00     0.208 A 
ATOM      3  C   UNL     1      14.251  30.759  27.463  1.00  0.00     0.238 A 
ATOM      4  O   UNL     1      14.048  29.612  26.988  1.00  0.00    -0.285 OA
ATOM      5  C   UNL     1      14.553  31.862  26.629  1.00  0.00     0.111 A 
ATOM      6  C   UNL     1      14.739  31.782  25.215  1.00  0.00     0.134 A 
ATOM      7  C   UNL     1      14.904  32.957  24.472  1.00  0.00     0.093 A 
ATOM      8  C   UNL     1      14.957  34.202  25.098  1.00  0.00     0.123 A 
ATOM      9  C   UNL     1      14.837  34.287  26.485  1.00  0.00     0.094 A 
ATOM     10  C   UNL     1      14.634  33.135  27.249  1.00  0.00     0.146 A 
ATOM     11  O   UNL     1      14.514  33.261  28.565  1.00  0.00    -0.452 OA
ENDROOT
BRANCH   1  12
ATOM     12  C   UNL     1      14.210  32.507  30.835  1.00  0.00     0.025 A 
ATOM     13  C   UNL     1      13.558  31.618  31.708  1.00  0.00     0.016 A 
ATOM     14  C   UNL     1      13.509  31.883  33.078  1.00  0.00     0.051 A 
ATOM     15  C   UNL     1      14.120  33.031  33.600  1.00  0.00     0.157 A 
ATOM     16  C   UNL     1      14.838  33.645  31.365  1.00  0.00     0.062 A 
ATOM     17  C   UNL     1      14.790  33.914  32.737  1.00  0.00     0.158 A 
BRANCH  15  18
ATOM     18  O   UNL     1      14.067  33.293  34.968  1.00  0.00    -0.504 OA
ATOM     19  H   UNL     1      14.455  32.648  35.647  1.00  0.00     0.293 HD
ENDBRANCH  15  18
BRANCH  17  20
ATOM     20  O   UNL     1      15.414  35.063  33.226  1.00  0.00    -0.504 OA
ATOM     21  H   UNL     1      16.415  35.203  33.155  1.00  0.00     0.293 HD
ENDBRANCH  17  20
ENDBRANCH   1  12
BRANCH   2  22
ATOM     22  O   UNL     1      13.812  29.875  29.690  1.00  0.00    -0.502 OA
ATOM     23  H   UNL     1      14.048  28.916  29.464  1.00  0.00     0.293 HD
ENDBRANCH   2  22
BRANCH   6  24
ATOM     24  O   UNL     1      14.795  30.580  24.503  1.00  0.00    -0.507 OA
ATOM     25  H   UNL     1      15.377  29.794  24.747  1.00  0.00     0.293 HD
ENDBRANCH   6  24
BRANCH   8  26
ATOM     26  O   UNL     1      15.139  35.350  24.329  1.00  0.00    -0.508 OA
ATOM     27  H   UNL     1      15.370  35.297  23.343  1.00  0.00     0.293 HD
ENDBRANCH   8  26
TORSDOF 6
ENDMDL
MODEL 8
REMARK VINA RESULT:    -5.756      8.884     12.226
REMARK INTER + INTRA:          -7.121
REMARK INTER:                  -6.949
REMARK INTRA:                  -0.172
REMARK UNBOUND:                -0.187
REMARK SMILES O=c1c(O)c(-c2ccc(O)c(O)c2)oc2cc(O)cc(O)c12
REMARK SMILES IDX 5 1 3 2 2 3 1 4 22 5 20 6 19 7 17 8 16 9 15 10 14 11 6 12
REMARK SMILES IDX 7 13 8 14 9 15 13 16 11 17 10 18 12 20 4 22 21 24 18 26
REMARK H PARENT 10 19 12 21 4 23 21 25 18 27
REMARK Flexibility Score: inf
ROOT
ATOM      1  C   UNL     1      19.502  38.444  36.264  1.00  0.00     0.180 A 
ATOM      2  C   UNL     1      20.104  37.556  35.355  1.00  0.00     0.208 A 
ATOM      3  C   UNL     1      19.688  37.566  34.015  1.00  0.00     0.238 A 
ATOM      4  O   UNL     1      20.192  36.733  33.219  1.00  0.00    -0.285 OA
ATOM      5  C   UNL     1      18.687  38.476  33.596  1.00  0.00     0.111 A 
ATOM      6  C   UNL     1      18.217  38.602  32.253  1.00  0.00     0.134 A 
ATOM      7  C   UNL     1      17.132  39.443  31.977  1.00  0.00     0.093 A 
ATOM      8  C   UNL     1      16.544  40.211  32.981  1.00  0.00     0.123 A 
ATOM      9  C   UNL     1      17.033  40.141  34.285  1.00  0.00     0.094 A 
ATOM     10  C   UNL     1      18.091  39.283  34.599  1.00  0.00     0.146 A 
ATOM     11  O   UNL     1      18.520  39.238  35.854  1.00  0.00    -0.452 OA
ENDROOT
BRANCH   1  12
ATOM     12  C   UNL     1      19.905  38.509  37.687  1.00  0.00     0.025 A 
ATOM     13  C   UNL     1      19.035  38.104  38.714  1.00  0.00     0.016 A 
ATOM     14  C   UNL     1      19.445  38.152  40.049  1.00  0.00     0.051 A 
ATOM     15  C   UNL     1      20.735  38.592  40.376  1.00  0.00     0.157 A 
ATOM     16  C   UNL     1      21.204  38.929  38.020  1.00  0.00     0.062 A 
ATOM     17  C   UNL     1      21.618  38.979  39.355  1.00  0.00     0.158 A 
BRANCH  15  18
ATOM     18  O   UNL     1      21.141  38.640  41.710  1.00  0.00    -0.504 OA
ATOM     19  H   UNL     1      20.845  37.940  42.380  1.00  0.00     0.293 HD
ENDBRANCH  15  18
BRANCH  17  20
ATOM     20  O   UNL     1      22.911  39.415  39.648  1.00  0.00    -0.504 OA
ATOM     21  H   UNL     1      23.635  38.780  39.959  1.00  0.00     0.293 HD
ENDBRANCH  17  20
ENDBRANCH   1  12
BRANCH   2  22
ATOM     22  O   UNL     1      21.075  36.651  35.795  1.00  0.00    -0.502 OA
ATOM     23  H   UNL     1      20.899  35.657  35.870  1.00  0.00     0.293 HD
ENDBRANCH   2  22
BRANCH   6  24
ATOM     24  O   UNL     1      18.794  37.949  31.160  1.00  0.00    -0.507 OA
ATOM     25  H   UNL     1      18.283  37.601  30.363  1.00  0.00     0.293 HD
ENDBRANCH   6  24
BRANCH   8  26
ATOM     26  O   UNL     1      15.476  41.049  32.668  1.00  0.00    -0.508 OA
ATOM     27  H   UNL     1      14.880  41.441  33.388  1.00  0.00     0.293 HD
ENDBRANCH   8  26
TORSDOF 6
ENDMDL
MODEL 9
REMARK VINA RESULT:    -5.729      4.845      7.241
REMARK INTER + INTRA:          -7.088
REMARK INTER:                  -6.768
REMARK INTRA:                  -0.320
REMARK UNBOUND:                -0.187
REMARK SMILES O=c1c(O)c(-c2ccc(O)c(O)c2)oc2cc(O)cc(O)c12
REMARK SMILES IDX 5 1 3 2 2 3 1 4 22 5 20 6 19 7 17 8 16 9 15 10 14 11 6 12
REMARK SMILES IDX 7 13 8 14 9 15 13 16 11 17 10 18 12 20 4 22 21 24 18 26
REMARK H PARENT 10 19 12 21 4 23 21 25 18 27
REMARK Flexibility Score: inf
ROOT
ATOM      1  C   UNL     1      15.250  34.180  26.228  1.00  0.00     0.180 A 
ATOM      2  C   UNL     1      16.639  34.317  26.062  1.00  0.00     0.208 A 
ATOM      3  C   UNL     1      17.218  35.590  26.191  1.00  0.00     0.238 A 
ATOM      4  O   UNL     1      18.454  35.714  25.987  1.00  0.00    -0.285 OA
ATOM      5  C   UNL     1      16.404  36.705  26.501  1.00  0.00     0.111 A 
ATOM      6  C   UNL     1      16.890  38.034  26.696  1.00  0.00     0.134 A 
ATOM      7  C   UNL     1      15.980  39.084  26.868  1.00  0.00     0.093 A 
ATOM      8  C   UNL     1      14.608  38.845  26.922  1.00  0.00     0.123 A 
ATOM      9  C   UNL     1      14.125  37.542  26.792  1.00  0.00     0.094 A 
ATOM     10  C   UNL     1      15.006  36.479  26.581  1.00  0.00     0.146 A 
ATOM     11  O   UNL     1      14.505  35.256  26.453  1.00  0.00    -0.452 OA
ENDROOT
BRANCH   1  12
ATOM     12  C   UNL     1      14.570  32.868  26.132  1.00  0.00     0.025 A 
ATOM     13  C   UNL     1      14.032  32.409  24.917  1.00  0.00     0.016 A 
ATOM     14  C   UNL     1      13.416  31.157  24.845  1.00  0.00     0.051 A 
ATOM     15  C   UNL     1      13.339  30.340  25.981  1.00  0.00     0.157 A 
ATOM     16  C   UNL     1      14.509  32.037  27.263  1.00  0.00     0.062 A 
ATOM     17  C   UNL     1      13.892  30.783  27.195  1.00  0.00     0.158 A 
BRANCH  15  18
ATOM     18  O   UNL     1      12.722  29.092  25.907  1.00  0.00    -0.504 OA
ATOM     19  H   UNL     1      12.636  28.493  26.720  1.00  0.00     0.293 HD
ENDBRANCH  15  18
BRANCH  17  20
ATOM     20  O   UNL     1      13.837  29.990  28.342  1.00  0.00    -0.504 OA
ATOM     21  H   UNL     1      13.052  30.020  28.980  1.00  0.00     0.293 HD
ENDBRANCH  17  20
ENDBRANCH   1  12
BRANCH   2  22
ATOM     22  O   UNL     1      17.420  33.205  25.734  1.00  0.00    -0.502 OA
ATOM     23  H   UNL     1      18.414  33.274  25.550  1.00  0.00     0.293 HD
ENDBRANCH   2  22
BRANCH   6  24
ATOM     24  O   UNL     1      18.246  38.368  26.752  1.00  0.00    -0.507 OA
ATOM     25  H   UNL     1      18.934  38.100  26.064  1.00  0.00     0.293 HD
ENDBRANCH   6  24
BRANCH   8  26
ATOM     26  O   UNL     1      13.731  39.911  27.111  1.00  0.00    -0.508 OA
ATOM     27  H   UNL     1      13.636  40.648  26.422  1.00  0.00     0.293 HD
ENDBRANCH   8  26
TORSDOF 6
ENDMDL
