MODEL 1
REMARK VINA RESULT:    -3.984      0.000      0.000
REMARK INTER + INTRA:          -5.756
REMARK INTER:                  -5.381
REMARK INTRA:                  -0.375
REMARK UNBOUND:                -0.375
REMARK SMILES CC(=O)CCC=C(C)CCC=C(C)C
REMARK SMILES IDX 7 1 6 2 8 3 9 4 10 5 11 6 13 7 12 8 14 9 5 10 4 11 2 12 3 13
REMARK SMILES IDX 1 14
REMARK H PARENT
REMARK Flexibility Score: inf
ROOT
ATOM      1  C   UNL     1      11.137  78.555  19.285  1.00  0.00    -0.077 C 
ATOM      2  C   UNL     1      11.144  77.403  19.993  1.00  0.00    -0.028 C 
ATOM      3  C   UNL     1      10.233  78.650  18.082  1.00  0.00     0.039 C 
ENDROOT
BRANCH   1   4
ATOM      4  C   UNL     1      11.940  79.777  19.686  1.00  0.00     0.034 C 
BRANCH   4   5
ATOM      5  C   UNL     1      11.122  81.055  19.472  1.00  0.00     0.032 C 
BRANCH   5   6
ATOM      6  C   UNL     1      11.652  81.837  18.297  1.00  0.00    -0.028 C 
ATOM      7  C   UNL     1      11.020  84.052  19.282  1.00  0.00     0.039 C 
ATOM      8  C   UNL     1      11.589  83.183  18.186  1.00  0.00    -0.080 C 
ATOM      9  C   UNL     1      12.125  83.825  16.931  1.00  0.00     0.039 C 
ENDBRANCH   5   6
ENDBRANCH   4   5
ENDBRANCH   1   4
BRANCH   2  10
ATOM     10  C   UNL     1      11.994  77.147  21.213  1.00  0.00     0.035 C 
BRANCH  10  11
ATOM     11  C   UNL     1      12.116  75.644  21.486  1.00  0.00     0.079 C 
BRANCH  11  12
ATOM     12  C   UNL     1      11.470  75.288  22.799  1.00  0.00     0.130 C 
ATOM     13  O   UNL     1      12.088  75.462  23.839  1.00  0.00    -0.300 OA
ATOM     14  C   UNL     1      10.087  74.711  22.859  1.00  0.00     0.087 C 
ENDBRANCH  11  12
ENDBRANCH  10  11
ENDBRANCH   2  10
TORSDOF 6
ENDMDL
MODEL 2
REMARK VINA RESULT:    -3.814      2.552      7.088
REMARK INTER + INTRA:          -5.527
REMARK INTER:                  -5.811
REMARK INTRA:                   0.284
REMARK UNBOUND:                -0.375
REMARK SMILES CC(=O)CCC=C(C)CCC=C(C)C
REMARK SMILES IDX 7 1 6 2 8 3 9 4 10 5 11 6 13 7 12 8 14 9 5 10 4 11 2 12 3 13
REMARK SMILES IDX 1 14
REMARK H PARENT
REMARK Flexibility Score: inf
ROOT
ATOM      1  C   UNL     1      11.101  78.670  19.141  1.00  0.00    -0.077 C 
ATOM      2  C   UNL     1      11.092  80.015  19.283  1.00  0.00    -0.028 C 
ATOM      3  C   UNL     1      10.090  78.042  18.214  1.00  0.00     0.039 C 
ENDROOT
BRANCH   1   4
ATOM      4  C   UNL     1      12.123  77.774  19.811  1.00  0.00     0.034 C 
BRANCH   4   5
ATOM      5  C   UNL     1      11.600  77.272  21.160  1.00  0.00     0.032 C 
BRANCH   5   6
ATOM      6  C   UNL     1      12.125  75.890  21.456  1.00  0.00    -0.028 C 
ATOM      7  C   UNL     1       9.974  75.117  22.480  1.00  0.00     0.039 C 
ATOM      8  C   UNL     1      11.415  74.919  22.072  1.00  0.00    -0.080 C 
ATOM      9  C   UNL     1      12.088  73.597  22.339  1.00  0.00     0.039 C 
ENDBRANCH   5   6
ENDBRANCH   4   5
ENDBRANCH   1   4
BRANCH   2  10
ATOM     10  C   UNL     1      12.029  80.792  20.174  1.00  0.00     0.035 C 
BRANCH  10  11
ATOM     11  C   UNL     1      11.815  82.300  20.005  1.00  0.00     0.079 C 
BRANCH  11  12
ATOM     12  C   UNL     1      11.613  82.650  18.554  1.00  0.00     0.130 C 
ATOM     13  O   UNL     1      12.007  81.881  17.691  1.00  0.00    -0.300 OA
ATOM     14  C   UNL     1      10.951  83.931  18.144  1.00  0.00     0.087 C 
ENDBRANCH  11  12
ENDBRANCH  10  11
ENDBRANCH   2  10
TORSDOF 6
ENDMDL
MODEL 3
REMARK VINA RESULT:    -3.145      1.408      2.688
REMARK INTER + INTRA:          -4.622
REMARK INTER:                  -4.609
REMARK INTRA:                  -0.013
REMARK UNBOUND:                -0.375
REMARK SMILES CC(=O)CCC=C(C)CCC=C(C)C
REMARK SMILES IDX 7 1 6 2 8 3 9 4 10 5 11 6 13 7 12 8 14 9 5 10 4 11 2 12 3 13
REMARK SMILES IDX 1 14
REMARK H PARENT
REMARK Flexibility Score: inf
ROOT
ATOM      1  C   UNL     1      12.068  77.690  21.114  1.00  0.00    -0.077 C 
ATOM      2  C   UNL     1      12.077  76.547  21.839  1.00  0.00    -0.028 C 
ATOM      3  C   UNL     1      12.124  79.003  21.851  1.00  0.00     0.039 C 
ENDROOT
BRANCH   1   4
ATOM      4  C   UNL     1      12.080  77.708  19.599  1.00  0.00     0.034 C 
BRANCH   4   5
ATOM      5  C   UNL     1      10.792  78.335  19.057  1.00  0.00     0.032 C 
BRANCH   5   6
ATOM      6  C   UNL     1      10.873  79.840  19.095  1.00  0.00    -0.028 C 
ATOM      7  C   UNL     1      12.067  79.992  16.899  1.00  0.00     0.039 C 
ATOM      8  C   UNL     1      11.466  80.597  18.145  1.00  0.00    -0.080 C 
ATOM      9  C   UNL     1      11.506  82.091  18.340  1.00  0.00     0.039 C 
ENDBRANCH   5   6
ENDBRANCH   4   5
ENDBRANCH   1   4
BRANCH   2  10
ATOM     10  C   UNL     1      12.019  75.157  21.255  1.00  0.00     0.035 C 
BRANCH  10  11
ATOM     11  C   UNL     1      12.044  74.100  22.363  1.00  0.00     0.079 C 
BRANCH  11  12
ATOM     12  C   UNL     1      11.270  74.571  23.566  1.00  0.00     0.130 C 
ATOM     13  O   UNL     1      10.050  74.605  23.520  1.00  0.00    -0.300 OA
ATOM     14  C   UNL     1      11.966  75.014  24.819  1.00  0.00     0.087 C 
ENDBRANCH  11  12
ENDBRANCH  10  11
ENDBRANCH   2  10
TORSDOF 6
ENDMDL
MODEL 4
REMARK VINA RESULT:    -3.139      1.320      1.796
REMARK INTER + INTRA:          -4.615
REMARK INTER:                  -4.374
REMARK INTRA:                  -0.241
REMARK UNBOUND:                -0.375
REMARK SMILES CC(=O)CCC=C(C)CCC=C(C)C
REMARK SMILES IDX 7 1 6 2 8 3 9 4 10 5 11 6 13 7 12 8 14 9 5 10 4 11 2 12 3 13
REMARK SMILES IDX 1 14
REMARK H PARENT
REMARK Flexibility Score: inf
ROOT
ATOM      1  C   UNL     1      11.634  79.606  20.038  1.00  0.00    -0.077 C 
ATOM      2  C   UNL     1      11.779  78.456  20.734  1.00  0.00    -0.028 C 
ATOM      3  C   UNL     1      12.105  80.890  20.672  1.00  0.00     0.039 C 
ENDROOT
BRANCH   1   4
ATOM      4  C   UNL     1      11.088  79.654  18.625  1.00  0.00     0.034 C 
BRANCH   4   5
ATOM      5  C   UNL     1      11.992  80.502  17.725  1.00  0.00     0.032 C 
BRANCH   5   6
ATOM      6  C   UNL     1      11.227  81.662  17.139  1.00  0.00    -0.028 C 
ATOM      7  C   UNL     1      12.125  83.304  18.803  1.00  0.00     0.039 C 
ATOM      8  C   UNL     1      11.256  82.921  17.628  1.00  0.00    -0.080 C 
ATOM      9  C   UNL     1      10.404  83.971  16.961  1.00  0.00     0.039 C 
ENDBRANCH   5   6
ENDBRANCH   4   5
ENDBRANCH   1   4
BRANCH   2  10
ATOM     10  C   UNL     1      11.354  77.094  20.244  1.00  0.00     0.035 C 
BRANCH  10  11
ATOM     11  C   UNL     1      12.124  75.988  20.973  1.00  0.00     0.079 C 
BRANCH  11  12
ATOM     12  C   UNL     1      11.320  75.451  22.128  1.00  0.00     0.130 C 
ATOM     13  O   UNL     1      10.104  75.569  22.119  1.00  0.00    -0.300 OA
ATOM     14  C   UNL     1      11.980  74.783  23.297  1.00  0.00     0.087 C 
ENDBRANCH  11  12
ENDBRANCH  10  11
ENDBRANCH   2  10
TORSDOF 6
ENDMDL
MODEL 5
REMARK VINA RESULT:    -2.289      2.858      7.307
REMARK INTER + INTRA:          -3.467
REMARK INTER:                  -3.280
REMARK INTRA:                  -0.187
REMARK UNBOUND:                -0.375
REMARK SMILES CC(=O)CCC=C(C)CCC=C(C)C
REMARK SMILES IDX 7 1 6 2 8 3 9 4 10 5 11 6 13 7 12 8 14 9 5 10 4 11 2 12 3 13
REMARK SMILES IDX 1 14
REMARK H PARENT
REMARK Flexibility Score: inf
ROOT
ATOM      1  C   UNL     1      11.834  78.353  20.590  1.00  0.00    -0.077 C 
ATOM      2  C   UNL     1      11.421  79.460  19.931  1.00  0.00    -0.028 C 
ATOM      3  C   UNL     1      12.125  78.466  22.065  1.00  0.00     0.039 C 
ENDROOT
BRANCH   1   4
ATOM      4  C   UNL     1      11.946  76.992  19.932  1.00  0.00     0.034 C 
BRANCH   4   5
ATOM      5  C   UNL     1      12.125  75.895  20.986  1.00  0.00     0.032 C 
BRANCH   5   6
ATOM      6  C   UNL     1      10.810  75.571  21.647  1.00  0.00    -0.028 C 
ATOM      7  C   UNL     1      11.882  74.314  23.529  1.00  0.00     0.039 C 
ATOM      8  C   UNL     1      10.683  74.839  22.777  1.00  0.00    -0.080 C 
ATOM      9  C   UNL     1       9.297  74.561  23.300  1.00  0.00     0.039 C 
ENDBRANCH   5   6
ENDBRANCH   4   5
ENDBRANCH   1   4
BRANCH   2  10
ATOM     10  C   UNL     1      11.098  79.514  18.459  1.00  0.00     0.035 C 
BRANCH  10  11
ATOM     11  C   UNL     1      12.011  80.511  17.737  1.00  0.00     0.079 C 
BRANCH  11  12
ATOM     12  C   UNL     1      11.594  81.927  18.034  1.00  0.00     0.130 C 
ATOM     13  O   UNL     1      10.833  82.502  17.271  1.00  0.00    -0.300 OA
ATOM     14  C   UNL     1      12.103  82.655  19.243  1.00  0.00     0.087 C 
ENDBRANCH  11  12
ENDBRANCH  10  11
ENDBRANCH   2  10
TORSDOF 6
ENDMDL
MODEL 6
REMARK VINA RESULT:    -1.325      1.467      2.146
REMARK INTER + INTRA:          -2.165
REMARK INTER:                  -4.153
REMARK INTRA:                   1.988
REMARK UNBOUND:                -0.375
REMARK SMILES CC(=O)CCC=C(C)CCC=C(C)C
REMARK SMILES IDX 7 1 6 2 8 3 9 4 10 5 11 6 13 7 12 8 14 9 5 10 4 11 2 12 3 13
REMARK SMILES IDX 1 14
REMARK H PARENT
REMARK Flexibility Score: inf
ROOT
ATOM      1  C   UNL     1      10.471  78.714  18.053  1.00  0.00    -0.077 C 
ATOM      2  C   UNL     1      11.122  78.137  19.089  1.00  0.00    -0.028 C 
ATOM      3  C   UNL     1       9.502  77.874  17.261  1.00  0.00     0.039 C 
ENDROOT
BRANCH   1   4
ATOM      4  C   UNL     1      10.615  80.181  17.700  1.00  0.00     0.034 C 
BRANCH   4   5
ATOM      5  C   UNL     1      12.054  80.653  17.930  1.00  0.00     0.032 C 
BRANCH   5   6
ATOM      6  C   UNL     1      12.121  81.621  19.084  1.00  0.00    -0.028 C 
ATOM      7  C   UNL     1      11.169  83.520  17.758  1.00  0.00     0.039 C 
ATOM      8  C   UNL     1      11.751  82.919  19.014  1.00  0.00    -0.080 C 
ATOM      9  C   UNL     1      11.914  83.779  20.242  1.00  0.00     0.039 C 
ENDBRANCH   5   6
ENDBRANCH   4   5
ENDBRANCH   1   4
BRANCH   2  10
ATOM     10  C   UNL     1      12.124  78.837  19.973  1.00  0.00     0.035 C 
BRANCH  10  11
ATOM     11  C   UNL     1      12.083  78.272  21.396  1.00  0.00     0.079 C 
BRANCH  11  12
ATOM     12  C   UNL     1      12.116  76.766  21.373  1.00  0.00     0.130 C 
ATOM     13  O   UNL     1      12.125  76.183  20.299  1.00  0.00    -0.300 OA
ATOM     14  C   UNL     1      12.125  75.964  22.640  1.00  0.00     0.087 C 
ENDBRANCH  11  12
ENDBRANCH  10  11
ENDBRANCH   2  10
TORSDOF 6
ENDMDL
