MODEL 1
REMARK VINA RESULT:    -5.025      0.000      0.000
REMARK INTER + INTRA:         -10.963
REMARK INTER:                  -9.725
REMARK INTRA:                  -1.238
REMARK UNBOUND:                -1.238
REMARK SMILES CCCCCCCCCCCCCCCCCC(=O)[O-]
REMARK SMILES IDX 10 1 11 2 12 3 13 4 14 5 15 6 16 7 17 8 18 9 19 10 20 11
REMARK SMILES IDX 9 12 8 13 7 14 6 15 5 16 4 17 3 18 2 19 1 20
REMARK H PARENT
REMARK Flexibility Score: inf
ROOT
ATOM      1  C   UNL     1      48.332  64.066  92.611  1.00  0.00     0.000 C 
ENDROOT
BRANCH   1   2
ATOM      2  C   UNL     1      49.154  63.049  93.423  1.00  0.00     0.000 C 
BRANCH   2   3
ATOM      3  C   UNL     1      48.885  61.596  93.000  1.00  0.00     0.000 C 
BRANCH   3   4
ATOM      4  C   UNL     1      50.075  60.668  93.283  1.00  0.00     0.000 C 
BRANCH   4   5
ATOM      5  C   UNL     1      49.860  59.880  94.584  1.00  0.00     0.000 C 
BRANCH   5   6
ATOM      6  C   UNL     1      50.001  58.362  94.391  1.00  0.00     0.000 C 
BRANCH   6   7
ATOM      7  C   UNL     1      50.247  57.971  92.923  1.00  0.00     0.006 C 
BRANCH   7   8
ATOM      8  C   UNL     1      51.532  57.150  92.753  1.00  0.00     0.053 C 
BRANCH   8   9
ATOM      9  C   UNL     1      52.753  58.018  92.776  1.00  0.00     0.041 C 
ATOM     10  O   UNL     1      53.529  57.996  93.768  1.00  0.00    -0.550 OA
ATOM     11  O   UNL     1      53.020  58.871  91.712  1.00  0.00    -0.550 OA
ENDBRANCH   8   9
ENDBRANCH   7   8
ENDBRANCH   6   7
ENDBRANCH   5   6
ENDBRANCH   4   5
ENDBRANCH   3   4
ENDBRANCH   2   3
ENDBRANCH   1   2
BRANCH   1  12
ATOM     12  C   UNL     1      48.408  65.487  93.209  1.00  0.00     0.000 C 
BRANCH  12  13
ATOM     13  C   UNL     1      47.735  66.558  92.334  1.00  0.00    -0.000 C 
BRANCH  13  14
ATOM     14  C   UNL     1      48.297  66.602  90.907  1.00  0.00    -0.000 C 
BRANCH  14  15
ATOM     15  C   UNL     1      49.345  67.716  90.759  1.00  0.00    -0.000 C 
BRANCH  15  16
ATOM     16  C   UNL     1      50.783  67.183  90.833  1.00  0.00    -0.000 C 
BRANCH  16  17
ATOM     17  C   UNL     1      51.656  67.969  91.826  1.00  0.00    -0.000 C 
BRANCH  17  18
ATOM     18  C   UNL     1      51.077  67.975  93.253  1.00  0.00    -0.000 C 
BRANCH  18  19
ATOM     19  C   UNL     1      52.130  67.944  94.375  1.00  0.00    -0.003 C 
ATOM     20  C   UNL     1      53.416  67.221  93.970  1.00  0.00     0.004 C 
ENDBRANCH  18  19
ENDBRANCH  17  18
ENDBRANCH  16  17
ENDBRANCH  15  16
ENDBRANCH  14  15
ENDBRANCH  13  14
ENDBRANCH  12  13
ENDBRANCH   1  12
TORSDOF 16
ENDMDL
MODEL 2
REMARK VINA RESULT:    -4.962      3.024      8.499
REMARK INTER + INTRA:         -10.841
REMARK INTER:                  -9.681
REMARK INTRA:                  -1.159
REMARK UNBOUND:                -1.238
REMARK SMILES CCCCCCCCCCCCCCCCCC(=O)[O-]
REMARK SMILES IDX 10 1 11 2 12 3 13 4 14 5 15 6 16 7 17 8 18 9 19 10 20 11
REMARK SMILES IDX 9 12 8 13 7 14 6 15 5 16 4 17 3 18 2 19 1 20
REMARK H PARENT
REMARK Flexibility Score: inf
ROOT
ATOM      1  C   UNL     1      48.386  63.585  92.735  1.00  0.00     0.000 C 
ENDROOT
BRANCH   1   2
ATOM      2  C   UNL     1      48.614  65.097  92.910  1.00  0.00     0.000 C 
BRANCH   2   3
ATOM      3  C   UNL     1      47.546  65.944  92.199  1.00  0.00     0.000 C 
BRANCH   3   4
ATOM      4  C   UNL     1      48.078  66.621  90.928  1.00  0.00     0.000 C 
BRANCH   4   5
ATOM      5  C   UNL     1      49.033  67.772  91.276  1.00  0.00     0.000 C 
BRANCH   5   6
ATOM      6  C   UNL     1      50.454  67.552  90.731  1.00  0.00     0.000 C 
BRANCH   6   7
ATOM      7  C   UNL     1      51.544  68.013  91.713  1.00  0.00     0.006 C 
BRANCH   7   8
ATOM      8  C   UNL     1      51.125  67.813  93.175  1.00  0.00     0.053 C 
BRANCH   8   9
ATOM      9  C   UNL     1      52.311  67.727  94.087  1.00  0.00     0.041 C 
ATOM     10  O   UNL     1      52.192  68.003  95.310  1.00  0.00    -0.550 OA
ATOM     11  O   UNL     1      53.554  67.369  93.579  1.00  0.00    -0.550 OA
ENDBRANCH   8   9
ENDBRANCH   7   8
ENDBRANCH   6   7
ENDBRANCH   5   6
ENDBRANCH   4   5
ENDBRANCH   3   4
ENDBRANCH   2   3
ENDBRANCH   1   2
BRANCH   1  12
ATOM     12  C   UNL     1      49.370  62.746  93.577  1.00  0.00     0.000 C 
BRANCH  12  13
ATOM     13  C   UNL     1      49.360  61.249  93.223  1.00  0.00    -0.000 C 
BRANCH  13  14
ATOM     14  C   UNL     1      50.362  60.434  94.052  1.00  0.00    -0.000 C 
BRANCH  14  15
ATOM     15  C   UNL     1      49.642  59.380  94.908  1.00  0.00    -0.000 C 
BRANCH  15  16
ATOM     16  C   UNL     1      50.054  57.946  94.543  1.00  0.00    -0.000 C 
BRANCH  16  17
ATOM     17  C   UNL     1      51.564  57.704  94.706  1.00  0.00    -0.000 C 
BRANCH  17  18
ATOM     18  C   UNL     1      52.175  56.925  93.527  1.00  0.00    -0.000 C 
BRANCH  18  19
ATOM     19  C   UNL     1      51.996  57.592  92.152  1.00  0.00    -0.003 C 
ATOM     20  C   UNL     1      53.097  58.601  91.827  1.00  0.00     0.004 C 
ENDBRANCH  18  19
ENDBRANCH  17  18
ENDBRANCH  16  17
ENDBRANCH  15  16
ENDBRANCH  14  15
ENDBRANCH  13  14
ENDBRANCH  12  13
ENDBRANCH   1  12
TORSDOF 16
ENDMDL
MODEL 3
REMARK VINA RESULT:    -4.954      1.149      1.808
REMARK INTER + INTRA:         -10.825
REMARK INTER:                  -9.802
REMARK INTRA:                  -1.023
REMARK UNBOUND:                -1.238
REMARK SMILES CCCCCCCCCCCCCCCCCC(=O)[O-]
REMARK SMILES IDX 10 1 11 2 12 3 13 4 14 5 15 6 16 7 17 8 18 9 19 10 20 11
REMARK SMILES IDX 9 12 8 13 7 14 6 15 5 16 4 17 3 18 2 19 1 20
REMARK H PARENT
REMARK Flexibility Score: inf
ROOT
ATOM      1  C   UNL     1      47.901  62.570  92.613  1.00  0.00     0.000 C 
ENDROOT
BRANCH   1   2
ATOM      2  C   UNL     1      48.638  61.232  92.807  1.00  0.00     0.000 C 
BRANCH   2   3
ATOM      3  C   UNL     1      49.938  61.383  93.613  1.00  0.00     0.000 C 
BRANCH   3   4
ATOM      4  C   UNL     1      49.818  60.824  95.038  1.00  0.00     0.000 C 
BRANCH   4   5
ATOM      5  C   UNL     1      49.427  59.339  95.015  1.00  0.00     0.000 C 
BRANCH   5   6
ATOM      6  C   UNL     1      50.549  58.436  94.477  1.00  0.00     0.000 C 
BRANCH   6   7
ATOM      7  C   UNL     1      50.135  57.665  93.212  1.00  0.00     0.006 C 
BRANCH   7   8
ATOM      8  C   UNL     1      51.180  56.616  92.808  1.00  0.00     0.053 C 
BRANCH   8   9
ATOM      9  C   UNL     1      51.957  57.042  91.600  1.00  0.00     0.041 C 
ATOM     10  O   UNL     1      51.880  56.379  90.531  1.00  0.00    -0.550 OA
ATOM     11  O   UNL     1      52.787  58.154  91.663  1.00  0.00    -0.550 OA
ENDBRANCH   8   9
ENDBRANCH   7   8
ENDBRANCH   6   7
ENDBRANCH   5   6
ENDBRANCH   4   5
ENDBRANCH   3   4
ENDBRANCH   2   3
ENDBRANCH   1   2
BRANCH   1  12
ATOM     12  C   UNL     1      48.776  63.780  93.001  1.00  0.00     0.000 C 
BRANCH  12  13
ATOM     13  C   UNL     1      48.187  65.131  92.562  1.00  0.00    -0.000 C 
BRANCH  13  14
ATOM     14  C   UNL     1      48.948  66.330  93.143  1.00  0.00    -0.000 C 
BRANCH  14  15
ATOM     15  C   UNL     1      49.876  66.958  92.091  1.00  0.00    -0.000 C 
BRANCH  15  16
ATOM     16  C   UNL     1      51.159  67.533  92.709  1.00  0.00    -0.000 C 
BRANCH  16  17
ATOM     17  C   UNL     1      50.994  67.883  94.198  1.00  0.00    -0.000 C 
BRANCH  17  18
ATOM     18  C   UNL     1      52.337  67.958  94.946  1.00  0.00    -0.000 C 
BRANCH  18  19
ATOM     19  C   UNL     1      53.564  67.550  94.111  1.00  0.00    -0.003 C 
ATOM     20  C   UNL     1      54.888  67.777  94.841  1.00  0.00     0.004 C 
ENDBRANCH  18  19
ENDBRANCH  17  18
ENDBRANCH  16  17
ENDBRANCH  15  16
ENDBRANCH  14  15
ENDBRANCH  13  14
ENDBRANCH  12  13
ENDBRANCH   1  12
TORSDOF 16
ENDMDL
MODEL 4
REMARK VINA RESULT:    -4.911      1.422      2.140
REMARK INTER + INTRA:         -10.743
REMARK INTER:                  -9.612
REMARK INTRA:                  -1.130
REMARK UNBOUND:                -1.238
REMARK SMILES CCCCCCCCCCCCCCCCCC(=O)[O-]
REMARK SMILES IDX 10 1 11 2 12 3 13 4 14 5 15 6 16 7 17 8 18 9 19 10 20 11
REMARK SMILES IDX 9 12 8 13 7 14 6 15 5 16 4 17 3 18 2 19 1 20
REMARK H PARENT
REMARK Flexibility Score: inf
ROOT
ATOM      1  C   UNL     1      48.323  61.944  92.619  1.00  0.00     0.000 C 
ENDROOT
BRANCH   1   2
ATOM      2  C   UNL     1      49.486  61.894  93.626  1.00  0.00     0.000 C 
BRANCH   2   3
ATOM      3  C   UNL     1      50.215  60.542  93.624  1.00  0.00     0.000 C 
BRANCH   3   4
ATOM      4  C   UNL     1      49.777  59.632  94.782  1.00  0.00     0.000 C 
BRANCH   4   5
ATOM      5  C   UNL     1      50.150  58.169  94.502  1.00  0.00     0.000 C 
BRANCH   5   6
ATOM      6  C   UNL     1      50.206  57.846  93.000  1.00  0.00     0.000 C 
BRANCH   6   7
ATOM      7  C   UNL     1      51.567  57.274  92.566  1.00  0.00     0.006 C 
BRANCH   7   8
ATOM      8  C   UNL     1      52.465  56.948  93.768  1.00  0.00     0.053 C 
BRANCH   8   9
ATOM      9  C   UNL     1      52.602  55.471  93.976  1.00  0.00     0.041 C 
ATOM     10  O   UNL     1      52.903  55.016  95.111  1.00  0.00    -0.550 OA
ATOM     11  O   UNL     1      52.425  54.599  92.908  1.00  0.00    -0.550 OA
ENDBRANCH   8   9
ENDBRANCH   7   8
ENDBRANCH   6   7
ENDBRANCH   5   6
ENDBRANCH   4   5
ENDBRANCH   3   4
ENDBRANCH   2   3
ENDBRANCH   1   2
BRANCH   1  12
ATOM     12  C   UNL     1      47.673  63.342  92.547  1.00  0.00     0.000 C 
BRANCH  12  13
ATOM     13  C   UNL     1      48.675  64.495  92.732  1.00  0.00    -0.000 C 
BRANCH  13  14
ATOM     14  C   UNL     1      48.025  65.878  92.590  1.00  0.00    -0.000 C 
BRANCH  14  15
ATOM     15  C   UNL     1      48.154  66.405  91.153  1.00  0.00    -0.000 C 
BRANCH  15  16
ATOM     16  C   UNL     1      49.022  67.669  91.066  1.00  0.00    -0.000 C 
BRANCH  16  17
ATOM     17  C   UNL     1      50.469  67.364  90.643  1.00  0.00    -0.000 C 
BRANCH  17  18
ATOM     18  C   UNL     1      51.508  67.884  91.653  1.00  0.00    -0.000 C 
BRANCH  18  19
ATOM     19  C   UNL     1      51.569  67.099  92.975  1.00  0.00    -0.003 C 
ATOM     20  C   UNL     1      52.851  67.358  93.768  1.00  0.00     0.004 C 
ENDBRANCH  18  19
ENDBRANCH  17  18
ENDBRANCH  16  17
ENDBRANCH  15  16
ENDBRANCH  14  15
ENDBRANCH  13  14
ENDBRANCH  12  13
ENDBRANCH   1  12
TORSDOF 16
ENDMDL
MODEL 5
REMARK VINA RESULT:    -4.891      1.098      1.515
REMARK INTER + INTRA:         -10.704
REMARK INTER:                  -9.554
REMARK INTRA:                  -1.151
REMARK UNBOUND:                -1.238
REMARK SMILES CCCCCCCCCCCCCCCCCC(=O)[O-]
REMARK SMILES IDX 10 1 11 2 12 3 13 4 14 5 15 6 16 7 17 8 18 9 19 10 20 11
REMARK SMILES IDX 9 12 8 13 7 14 6 15 5 16 4 17 3 18 2 19 1 20
REMARK H PARENT
REMARK Flexibility Score: inf
ROOT
ATOM      1  C   UNL     1      48.119  64.914  92.391  1.00  0.00     0.000 C 
ENDROOT
BRANCH   1   2
ATOM      2  C   UNL     1      48.981  64.121  93.390  1.00  0.00     0.000 C 
BRANCH   2   3
ATOM      3  C   UNL     1      48.974  62.610  93.110  1.00  0.00     0.000 C 
BRANCH   3   4
ATOM      4  C   UNL     1      49.771  61.812  94.153  1.00  0.00     0.000 C 
BRANCH   4   5
ATOM      5  C   UNL     1      49.982  60.362  93.690  1.00  0.00     0.000 C 
BRANCH   5   6
ATOM      6  C   UNL     1      49.732  59.338  94.809  1.00  0.00     0.000 C 
BRANCH   6   7
ATOM      7  C   UNL     1      50.337  57.959  94.497  1.00  0.00     0.006 C 
BRANCH   7   8
ATOM      8  C   UNL     1      50.150  57.567  93.025  1.00  0.00     0.053 C 
BRANCH   8   9
ATOM      9  C   UNL     1      51.436  57.117  92.401  1.00  0.00     0.041 C 
ATOM     10  O   UNL     1      52.257  57.964  91.959  1.00  0.00    -0.550 OA
ATOM     11  O   UNL     1      51.714  55.761  92.284  1.00  0.00    -0.550 OA
ENDBRANCH   8   9
ENDBRANCH   7   8
ENDBRANCH   6   7
ENDBRANCH   5   6
ENDBRANCH   4   5
ENDBRANCH   3   4
ENDBRANCH   2   3
ENDBRANCH   1   2
BRANCH   1  12
ATOM     12  C   UNL     1      47.628  66.253  92.980  1.00  0.00     0.000 C 
BRANCH  12  13
ATOM     13  C   UNL     1      47.938  67.467  92.088  1.00  0.00    -0.000 C 
BRANCH  13  14
ATOM     14  C   UNL     1      48.471  67.070  90.704  1.00  0.00    -0.000 C 
BRANCH  14  15
ATOM     15  C   UNL     1      49.831  67.728  90.426  1.00  0.00    -0.000 C 
BRANCH  15  16
ATOM     16  C   UNL     1      50.965  67.106  91.254  1.00  0.00    -0.000 C 
BRANCH  16  17
ATOM     17  C   UNL     1      51.432  68.019  92.400  1.00  0.00    -0.000 C 
BRANCH  17  18
ATOM     18  C   UNL     1      52.418  67.322  93.355  1.00  0.00    -0.000 C 
BRANCH  18  19
ATOM     19  C   UNL     1      52.365  67.818  94.810  1.00  0.00    -0.003 C 
ATOM     20  C   UNL     1      50.943  68.099  95.296  1.00  0.00     0.004 C 
ENDBRANCH  18  19
ENDBRANCH  17  18
ENDBRANCH  16  17
ENDBRANCH  15  16
ENDBRANCH  14  15
ENDBRANCH  13  14
ENDBRANCH  12  13
ENDBRANCH   1  12
TORSDOF 16
ENDMDL
MODEL 6
REMARK VINA RESULT:    -4.804      1.391      2.664
REMARK INTER + INTRA:         -10.535
REMARK INTER:                  -9.129
REMARK INTRA:                  -1.406
REMARK UNBOUND:                -1.238
REMARK SMILES CCCCCCCCCCCCCCCCCC(=O)[O-]
REMARK SMILES IDX 10 1 11 2 12 3 13 4 14 5 15 6 16 7 17 8 18 9 19 10 20 11
REMARK SMILES IDX 9 12 8 13 7 14 6 15 5 16 4 17 3 18 2 19 1 20
REMARK H PARENT
REMARK Flexibility Score: inf
ROOT
ATOM      1  C   UNL     1      47.839  65.256  92.110  1.00  0.00     0.000 C 
ENDROOT
BRANCH   1   2
ATOM      2  C   UNL     1      48.520  64.039  92.761  1.00  0.00     0.000 C 
BRANCH   2   3
ATOM      3  C   UNL     1      47.697  62.749  92.614  1.00  0.00     0.000 C 
BRANCH   3   4
ATOM      4  C   UNL     1      48.572  61.487  92.608  1.00  0.00     0.000 C 
BRANCH   4   5
ATOM      5  C   UNL     1      49.775  61.648  93.549  1.00  0.00     0.000 C 
BRANCH   5   6
ATOM      6  C   UNL     1      49.563  60.960  94.908  1.00  0.00     0.000 C 
BRANCH   6   7
ATOM      7  C   UNL     1      49.763  59.437  94.840  1.00  0.00     0.006 C 
BRANCH   7   8
ATOM      8  C   UNL     1      50.418  58.999  93.523  1.00  0.00     0.053 C 
BRANCH   8   9
ATOM      9  C   UNL     1      51.787  58.431  93.744  1.00  0.00     0.041 C 
ATOM     10  O   UNL     1      52.808  59.143  93.548  1.00  0.00    -0.550 OA
ATOM     11  O   UNL     1      51.934  57.107  94.138  1.00  0.00    -0.550 OA
ENDBRANCH   8   9
ENDBRANCH   7   8
ENDBRANCH   6   7
ENDBRANCH   5   6
ENDBRANCH   4   5
ENDBRANCH   3   4
ENDBRANCH   2   3
ENDBRANCH   1   2
BRANCH   1  12
ATOM     12  C   UNL     1      47.149  66.163  93.150  1.00  0.00     0.000 C 
BRANCH  12  13
ATOM     13  C   UNL     1      47.786  67.559  93.267  1.00  0.00    -0.000 C 
BRANCH  13  14
ATOM     14  C   UNL     1      48.153  67.927  94.711  1.00  0.00    -0.000 C 
BRANCH  14  15
ATOM     15  C   UNL     1      49.395  67.154  95.180  1.00  0.00    -0.000 C 
BRANCH  15  16
ATOM     16  C   UNL     1      50.617  68.064  95.372  1.00  0.00    -0.000 C 
BRANCH  16  17
ATOM     17  C   UNL     1      51.761  67.732  94.399  1.00  0.00    -0.000 C 
BRANCH  17  18
ATOM     18  C   UNL     1      51.440  68.121  92.945  1.00  0.00    -0.000 C 
BRANCH  18  19
ATOM     19  C   UNL     1      51.138  66.934  92.013  1.00  0.00    -0.003 C 
ATOM     20  C   UNL     1      50.560  67.364  90.664  1.00  0.00     0.004 C 
ENDBRANCH  18  19
ENDBRANCH  17  18
ENDBRANCH  16  17
ENDBRANCH  15  16
ENDBRANCH  14  15
ENDBRANCH  13  14
ENDBRANCH  12  13
ENDBRANCH   1  12
TORSDOF 16
ENDMDL
MODEL 7
REMARK VINA RESULT:    -4.689      3.190      9.110
REMARK INTER + INTRA:         -10.312
REMARK INTER:                  -9.363
REMARK INTRA:                  -0.949
REMARK UNBOUND:                -1.238
REMARK SMILES CCCCCCCCCCCCCCCCCC(=O)[O-]
REMARK SMILES IDX 10 1 11 2 12 3 13 4 14 5 15 6 16 7 17 8 18 9 19 10 20 11
REMARK SMILES IDX 9 12 8 13 7 14 6 15 5 16 4 17 3 18 2 19 1 20
REMARK H PARENT
REMARK Flexibility Score: inf
ROOT
ATOM      1  C   UNL     1      49.010  61.475  93.423  1.00  0.00     0.000 C 
ENDROOT
BRANCH   1   2
ATOM      2  C   UNL     1      49.393  62.966  93.381  1.00  0.00     0.000 C 
BRANCH   2   3
ATOM      3  C   UNL     1      48.347  63.827  92.655  1.00  0.00     0.000 C 
BRANCH   3   4
ATOM      4  C   UNL     1      48.461  65.317  93.006  1.00  0.00     0.000 C 
BRANCH   4   5
ATOM      5  C   UNL     1      48.424  66.184  91.738  1.00  0.00     0.000 C 
BRANCH   5   6
ATOM      6  C   UNL     1      49.700  67.020  91.552  1.00  0.00     0.000 C 
BRANCH   6   7
ATOM      7  C   UNL     1      50.845  66.571  92.477  1.00  0.00     0.006 C 
BRANCH   7   8
ATOM      8  C   UNL     1      51.958  67.623  92.570  1.00  0.00     0.053 C 
BRANCH   8   9
ATOM      9  C   UNL     1      52.655  67.579  93.895  1.00  0.00     0.041 C 
ATOM     10  O   UNL     1      52.022  67.830  94.955  1.00  0.00    -0.550 OA
ATOM     11  O   UNL     1      54.012  67.287  93.957  1.00  0.00    -0.550 OA
ENDBRANCH   8   9
ENDBRANCH   7   8
ENDBRANCH   6   7
ENDBRANCH   5   6
ENDBRANCH   4   5
ENDBRANCH   3   4
ENDBRANCH   2   3
ENDBRANCH   1   2
BRANCH   1  12
ATOM     12  C   UNL     1      50.178  60.587  93.902  1.00  0.00     0.000 C 
BRANCH  12  13
ATOM     13  C   UNL     1      49.743  59.467  94.862  1.00  0.00    -0.000 C 
BRANCH  13  14
ATOM     14  C   UNL     1      50.108  58.067  94.350  1.00  0.00    -0.000 C 
BRANCH  14  15
ATOM     15  C   UNL     1      51.534  57.679  94.771  1.00  0.00    -0.000 C 
BRANCH  15  16
ATOM     16  C   UNL     1      52.477  57.516  93.570  1.00  0.00    -0.000 C 
BRANCH  16  17
ATOM     17  C   UNL     1      51.720  57.348  92.242  1.00  0.00    -0.000 C 
BRANCH  17  18
ATOM     18  C   UNL     1      51.960  55.975  91.587  1.00  0.00    -0.000 C 
BRANCH  18  19
ATOM     19  C   UNL     1      52.056  54.799  92.574  1.00  0.00    -0.003 C 
ATOM     20  C   UNL     1      51.859  53.437  91.906  1.00  0.00     0.004 C 
ENDBRANCH  18  19
ENDBRANCH  17  18
ENDBRANCH  16  17
ENDBRANCH  15  16
ENDBRANCH  14  15
ENDBRANCH  13  14
ENDBRANCH  12  13
ENDBRANCH   1  12
TORSDOF 16
ENDMDL
MODEL 8
REMARK VINA RESULT:    -4.572      3.059      8.645
REMARK INTER + INTRA:         -10.087
REMARK INTER:                  -8.995
REMARK INTRA:                  -1.092
REMARK UNBOUND:                -1.238
REMARK SMILES CCCCCCCCCCCCCCCCCC(=O)[O-]
REMARK SMILES IDX 10 1 11 2 12 3 13 4 14 5 15 6 16 7 17 8 18 9 19 10 20 11
REMARK SMILES IDX 9 12 8 13 7 14 6 15 5 16 4 17 3 18 2 19 1 20
REMARK H PARENT
REMARK Flexibility Score: inf
ROOT
ATOM      1  C   UNL     1      48.719  62.646  93.013  1.00  0.00     0.000 C 
ENDROOT
BRANCH   1   2
ATOM      2  C   UNL     1      49.018  64.144  93.205  1.00  0.00     0.000 C 
BRANCH   2   3
ATOM      3  C   UNL     1      47.952  65.048  92.566  1.00  0.00     0.000 C 
BRANCH   3   4
ATOM      4  C   UNL     1      48.088  66.516  92.996  1.00  0.00     0.000 C 
BRANCH   4   5
ATOM      5  C   UNL     1      47.867  66.668  94.508  1.00  0.00     0.000 C 
BRANCH   5   6
ATOM      6  C   UNL     1      49.051  67.344  95.217  1.00  0.00     0.000 C 
BRANCH   6   7
ATOM      7  C   UNL     1      49.956  68.125  94.249  1.00  0.00     0.006 C 
BRANCH   7   8
ATOM      8  C   UNL     1      51.424  68.116  94.696  1.00  0.00     0.053 C 
BRANCH   8   9
ATOM      9  C   UNL     1      52.296  67.375  93.729  1.00  0.00     0.041 C 
ATOM     10  O   UNL     1      51.790  66.808  92.724  1.00  0.00    -0.550 OA
ATOM     11  O   UNL     1      53.664  67.286  93.954  1.00  0.00    -0.550 OA
ENDBRANCH   8   9
ENDBRANCH   7   8
ENDBRANCH   6   7
ENDBRANCH   5   6
ENDBRANCH   4   5
ENDBRANCH   3   4
ENDBRANCH   2   3
ENDBRANCH   1   2
BRANCH   1  12
ATOM     12  C   UNL     1      49.839  61.750  93.582  1.00  0.00     0.000 C 
BRANCH  12  13
ATOM     13  C   UNL     1      49.442  61.017  94.875  1.00  0.00    -0.000 C 
BRANCH  13  14
ATOM     14  C   UNL     1      49.721  59.509  94.816  1.00  0.00    -0.000 C 
BRANCH  14  15
ATOM     15  C   UNL     1      50.572  59.153  93.587  1.00  0.00    -0.000 C 
BRANCH  15  16
ATOM     16  C   UNL     1      50.124  57.841  92.923  1.00  0.00    -0.000 C 
BRANCH  16  17
ATOM     17  C   UNL     1      51.307  57.009  92.400  1.00  0.00    -0.000 C 
BRANCH  17  18
ATOM     18  C   UNL     1      52.557  57.122  93.292  1.00  0.00    -0.000 C 
BRANCH  18  19
ATOM     19  C   UNL     1      52.557  56.198  94.522  1.00  0.00    -0.003 C 
ATOM     20  C   UNL     1      53.117  54.807  94.227  1.00  0.00     0.004 C 
ENDBRANCH  18  19
ENDBRANCH  17  18
ENDBRANCH  16  17
ENDBRANCH  15  16
ENDBRANCH  14  15
ENDBRANCH  13  14
ENDBRANCH  12  13
ENDBRANCH   1  12
TORSDOF 16
ENDMDL
