MODEL 1
REMARK VINA RESULT:    -2.120      0.000      0.000
REMARK INTER + INTRA:          -2.374
REMARK INTER:                  -2.368
REMARK INTRA:                  -0.005
REMARK UNBOUND:                -0.005
REMARK SMILES CCCC(=O)[O-]
REMARK SMILES IDX 3 1 4 2 5 3 6 4 2 5 1 6
REMARK H PARENT
REMARK Flexibility Score: inf
ROOT
ATOM      1  C   UNL     1     167.905 169.133 152.529  1.00  0.00     0.052 C 
ENDROOT
BRANCH   1   2
ATOM      2  C   UNL     1     168.750 169.409 151.325  1.00  0.00     0.041 C 
ATOM      3  O   UNL     1     169.757 168.695 151.080  1.00  0.00    -0.550 OA
ATOM      4  O   UNL     1     168.396 170.425 150.445  1.00  0.00    -0.550 OA
ENDBRANCH   1   2
BRANCH   1   5
ATOM      5  C   UNL     1     167.914 170.334 153.477  1.00  0.00     0.003 C 
ATOM      6  C   UNL     1     167.638 169.903 154.914  1.00  0.00     0.004 C 
ENDBRANCH   1   5
TORSDOF 2
ENDMDL
MODEL 2
REMARK VINA RESULT:    -2.062      9.806     11.172
REMARK INTER + INTRA:          -2.309
REMARK INTER:                  -2.304
REMARK INTRA:                  -0.005
REMARK UNBOUND:                -0.005
REMARK SMILES CCCC(=O)[O-]
REMARK SMILES IDX 3 1 4 2 5 3 6 4 2 5 1 6
REMARK H PARENT
REMARK Flexibility Score: inf
ROOT
ATOM      1  C   UNL     1     170.291 160.566 146.374  1.00  0.00     0.052 C 
ENDROOT
BRANCH   1   2
ATOM      2  C   UNL     1     170.296 161.434 147.593  1.00  0.00     0.041 C 
ATOM      3  O   UNL     1     170.181 162.683 147.482  1.00  0.00    -0.550 OA
ATOM      4  O   UNL     1     170.377 160.861 148.856  1.00  0.00    -0.550 OA
ENDBRANCH   1   2
BRANCH   1   5
ATOM      5  C   UNL     1     171.719 160.350 145.865  1.00  0.00     0.003 C 
ATOM      6  C   UNL     1     171.783 159.179 144.889  1.00  0.00     0.004 C 
ENDBRANCH   1   5
TORSDOF 2
ENDMDL
MODEL 3
REMARK VINA RESULT:    -2.042     17.266     17.915
REMARK INTER + INTRA:          -2.286
REMARK INTER:                  -2.219
REMARK INTRA:                  -0.067
REMARK UNBOUND:                -0.005
REMARK SMILES CCCC(=O)[O-]
REMARK SMILES IDX 3 1 4 2 5 3 6 4 2 5 1 6
REMARK H PARENT
REMARK Flexibility Score: inf
ROOT
ATOM      1  C   UNL     1     173.103 152.363 155.448  1.00  0.00     0.052 C 
ENDROOT
BRANCH   1   2
ATOM      2  C   UNL     1     172.585 152.952 154.174  1.00  0.00     0.041 C 
ATOM      3  O   UNL     1     171.928 154.026 154.193  1.00  0.00    -0.550 OA
ATOM      4  O   UNL     1     172.869 152.341 152.958  1.00  0.00    -0.550 OA
ENDBRANCH   1   2
BRANCH   1   5
ATOM      5  C   UNL     1     171.943 151.973 156.368  1.00  0.00     0.003 C 
ATOM      6  C   UNL     1     171.019 150.966 155.693  1.00  0.00     0.004 C 
ENDBRANCH   1   5
TORSDOF 2
ENDMDL
MODEL 4
REMARK VINA RESULT:    -2.036      2.255      3.502
REMARK INTER + INTRA:          -2.279
REMARK INTER:                  -2.273
REMARK INTRA:                  -0.006
REMARK UNBOUND:                -0.005
REMARK SMILES CCCC(=O)[O-]
REMARK SMILES IDX 3 1 4 2 5 3 6 4 2 5 1 6
REMARK H PARENT
REMARK Flexibility Score: inf
ROOT
ATOM      1  C   UNL     1     168.090 169.060 152.316  1.00  0.00     0.052 C 
ENDROOT
BRANCH   1   2
ATOM      2  C   UNL     1     167.552 169.964 153.379  1.00  0.00     0.041 C 
ATOM      3  O   UNL     1     166.859 170.967 153.066  1.00  0.00    -0.550 OA
ATOM      4  O   UNL     1     167.771 169.671 154.719  1.00  0.00    -0.550 OA
ENDBRANCH   1   2
BRANCH   1   5
ATOM      5  C   UNL     1     169.059 169.820 151.406  1.00  0.00     0.003 C 
ATOM      6  C   UNL     1     169.930 168.858 150.604  1.00  0.00     0.004 C 
ENDBRANCH   1   5
TORSDOF 2
ENDMDL
MODEL 5
REMARK VINA RESULT:    -2.025      1.490      2.321
REMARK INTER + INTRA:          -2.267
REMARK INTER:                  -2.224
REMARK INTRA:                  -0.044
REMARK UNBOUND:                -0.005
REMARK SMILES CCCC(=O)[O-]
REMARK SMILES IDX 3 1 4 2 5 3 6 4 2 5 1 6
REMARK H PARENT
REMARK Flexibility Score: inf
ROOT
ATOM      1  C   UNL     1     168.092 170.996 153.992  1.00  0.00     0.052 C 
ENDROOT
BRANCH   1   2
ATOM      2  C   UNL     1     167.827 170.369 152.660  1.00  0.00     0.041 C 
ATOM      3  O   UNL     1     167.212 171.011 151.769  1.00  0.00    -0.550 OA
ATOM      4  O   UNL     1     168.303 169.094 152.384  1.00  0.00    -0.550 OA
ENDBRANCH   1   2
BRANCH   1   5
ATOM      5  C   UNL     1     167.713 170.036 155.122  1.00  0.00     0.003 C 
ATOM      6  C   UNL     1     166.268 170.248 155.562  1.00  0.00     0.004 C 
ENDBRANCH   1   5
TORSDOF 2
ENDMDL
MODEL 6
REMARK VINA RESULT:    -2.013     14.891     15.627
REMARK INTER + INTRA:          -2.254
REMARK INTER:                  -2.243
REMARK INTRA:                  -0.012
REMARK UNBOUND:                -0.005
REMARK SMILES CCCC(=O)[O-]
REMARK SMILES IDX 3 1 4 2 5 3 6 4 2 5 1 6
REMARK H PARENT
REMARK Flexibility Score: inf
ROOT
ATOM      1  C   UNL     1     172.463 154.950 151.948  1.00  0.00     0.052 C 
ENDROOT
BRANCH   1   2
ATOM      2  C   UNL     1     172.371 153.659 151.198  1.00  0.00     0.041 C 
ATOM      3  O   UNL     1     171.645 153.572 150.173  1.00  0.00    -0.550 OA
ATOM      4  O   UNL     1     173.125 152.564 151.602  1.00  0.00    -0.550 OA
ENDBRANCH   1   2
BRANCH   1   5
ATOM      5  C   UNL     1     171.357 155.909 151.502  1.00  0.00     0.003 C 
ATOM      6  C   UNL     1     171.431 157.228 152.266  1.00  0.00     0.004 C 
ENDBRANCH   1   5
TORSDOF 2
ENDMDL
MODEL 7
REMARK VINA RESULT:    -1.988     11.135     12.260
REMARK INTER + INTRA:          -2.226
REMARK INTER:                  -2.188
REMARK INTRA:                  -0.038
REMARK UNBOUND:                -0.005
REMARK SMILES CCCC(=O)[O-]
REMARK SMILES IDX 3 1 4 2 5 3 6 4 2 5 1 6
REMARK H PARENT
REMARK Flexibility Score: inf
ROOT
ATOM      1  C   UNL     1     172.081 160.415 145.878  1.00  0.00     0.052 C 
ENDROOT
BRANCH   1   2
ATOM      2  C   UNL     1     172.291 161.717 145.173  1.00  0.00     0.041 C 
ATOM      3  O   UNL     1     173.116 161.800 144.225  1.00  0.00    -0.550 OA
ATOM      4  O   UNL     1     171.538 162.830 145.528  1.00  0.00    -0.550 OA
ENDBRANCH   1   2
BRANCH   1   5
ATOM      5  C   UNL     1     171.090 159.540 145.106  1.00  0.00     0.003 C 
ATOM      6  C   UNL     1     171.803 158.392 144.399  1.00  0.00     0.004 C 
ENDBRANCH   1   5
TORSDOF 2
ENDMDL
MODEL 8
REMARK VINA RESULT:    -1.965     10.248     11.249
REMARK INTER + INTRA:          -2.201
REMARK INTER:                  -2.161
REMARK INTRA:                  -0.039
REMARK UNBOUND:                -0.005
REMARK SMILES CCCC(=O)[O-]
REMARK SMILES IDX 3 1 4 2 5 3 6 4 2 5 1 6
REMARK H PARENT
REMARK Flexibility Score: inf
ROOT
ATOM      1  C   UNL     1     170.243 160.375 146.068  1.00  0.00     0.052 C 
ENDROOT
BRANCH   1   2
ATOM      2  C   UNL     1     171.633 160.194 145.547  1.00  0.00     0.041 C 
ATOM      3  O   UNL     1     172.014 159.066 145.134  1.00  0.00    -0.550 OA
ATOM      4  O   UNL     1     172.495 161.281 145.469  1.00  0.00    -0.550 OA
ENDBRANCH   1   2
BRANCH   1   5
ATOM      5  C   UNL     1     170.190 161.538 147.061  1.00  0.00     0.003 C 
ATOM      6  C   UNL     1     170.260 161.037 148.500  1.00  0.00     0.004 C 
ENDBRANCH   1   5
TORSDOF 2
ENDMDL
MODEL 9
REMARK VINA RESULT:    -1.938      1.852      2.365
REMARK INTER + INTRA:          -2.170
REMARK INTER:                  -2.132
REMARK INTRA:                  -0.038
REMARK UNBOUND:                -0.005
REMARK SMILES CCCC(=O)[O-]
REMARK SMILES IDX 3 1 4 2 5 3 6 4 2 5 1 6
REMARK H PARENT
REMARK Flexibility Score: inf
ROOT
ATOM      1  C   UNL     1     167.708 169.937 152.400  1.00  0.00     0.052 C 
ENDROOT
BRANCH   1   2
ATOM      2  C   UNL     1     166.667 170.696 151.639  1.00  0.00     0.041 C 
ATOM      3  O   UNL     1     166.914 171.125 150.482  1.00  0.00    -0.550 OA
ATOM      4  O   UNL     1     165.405 170.889 152.188  1.00  0.00    -0.550 OA
ENDBRANCH   1   2
BRANCH   1   5
ATOM      5  C   UNL     1     168.118 170.704 153.659  1.00  0.00     0.003 C 
ATOM      6  C   UNL     1     167.654 169.982 154.920  1.00  0.00     0.004 C 
ENDBRANCH   1   5
TORSDOF 2
ENDMDL
