MODEL 1
REMARK VINA RESULT:    -8.382      0.000      0.000
REMARK INTER + INTRA:          -9.991
REMARK INTER:                 -10.097
REMARK INTRA:                   0.107
REMARK UNBOUND:                 0.107
REMARK SMILES O=c1c(O)c(-c2ccc(O)c(O)c2)oc2cc(O)cc(O)c12
REMARK SMILES IDX 5 1 3 2 2 3 1 4 22 5 20 6 19 7 17 8 16 9 15 10 14 11 6 12
REMARK SMILES IDX 7 13 8 14 9 15 13 16 11 17 10 18 12 20 4 22 21 24 18 26
REMARK H PARENT 10 19 12 21 4 23 21 25 18 27
REMARK Flexibility Score: inf
ROOT
ATOM      1  C   UNL     1      -1.300 -25.944  30.235  1.00  0.00     0.180 A 
ATOM      2  C   UNL     1      -0.890 -26.938  31.140  1.00  0.00     0.208 A 
ATOM      3  C   UNL     1       0.217 -27.739  30.818  1.00  0.00     0.238 A 
ATOM      4  O   UNL     1       0.610 -28.591  31.656  1.00  0.00    -0.285 OA
ATOM      5  C   UNL     1       0.890 -27.549  29.587  1.00  0.00     0.111 A 
ATOM      6  C   UNL     1       1.997 -28.329  29.140  1.00  0.00     0.134 A 
ATOM      7  C   UNL     1       2.667 -27.968  27.964  1.00  0.00     0.093 A 
ATOM      8  C   UNL     1       2.230 -26.892  27.187  1.00  0.00     0.123 A 
ATOM      9  C   UNL     1       1.113 -26.161  27.585  1.00  0.00     0.094 A 
ATOM     10  C   UNL     1       0.445 -26.475  28.772  1.00  0.00     0.146 A 
ATOM     11  O   UNL     1      -0.608 -25.745  29.119  1.00  0.00    -0.452 OA
ENDROOT
BRANCH   1  12
ATOM     12  C   UNL     1      -2.472 -25.077  30.493  1.00  0.00     0.025 A 
ATOM     13  C   UNL     1      -2.698 -24.508  31.758  1.00  0.00     0.016 A 
ATOM     14  C   UNL     1      -3.824 -23.712  31.985  1.00  0.00     0.051 A 
ATOM     15  C   UNL     1      -4.745 -23.483  30.955  1.00  0.00     0.157 A 
ATOM     16  C   UNL     1      -3.411 -24.861  29.470  1.00  0.00     0.062 A 
ATOM     17  C   UNL     1      -4.541 -24.061  29.697  1.00  0.00     0.158 A 
BRANCH  15  18
ATOM     18  O   UNL     1      -5.868 -22.688  31.177  1.00  0.00    -0.504 OA
ATOM     19  H   UNL     1      -5.788 -21.692  31.345  1.00  0.00     0.293 HD
ENDBRANCH  15  18
BRANCH  17  20
ATOM     20  O   UNL     1      -5.463 -23.838  28.676  1.00  0.00    -0.504 OA
ATOM     21  H   UNL     1      -6.054 -23.014  28.667  1.00  0.00     0.293 HD
ENDBRANCH  17  20
ENDBRANCH   1  12
BRANCH   2  22
ATOM     22  O   UNL     1      -1.556 -27.095  32.359  1.00  0.00    -0.502 OA
ATOM     23  H   UNL     1      -2.237 -26.427  32.697  1.00  0.00     0.293 HD
ENDBRANCH   2  22
BRANCH   6  24
ATOM     24  O   UNL     1       2.457 -29.477  29.792  1.00  0.00    -0.507 OA
ATOM     25  H   UNL     1       1.904 -30.305  29.958  1.00  0.00     0.293 HD
ENDBRANCH   6  24
BRANCH   8  26
ATOM     26  O   UNL     1       2.893 -26.549  26.011  1.00  0.00    -0.508 OA
ATOM     27  H   UNL     1       3.466 -25.715  25.950  1.00  0.00     0.293 HD
ENDBRANCH   8  26
TORSDOF 6
ENDMDL
MODEL 2
REMARK VINA RESULT:    -8.319      1.625      7.244
REMARK INTER + INTRA:          -9.914
REMARK INTER:                  -9.667
REMARK INTRA:                  -0.247
REMARK UNBOUND:                 0.107
REMARK SMILES O=c1c(O)c(-c2ccc(O)c(O)c2)oc2cc(O)cc(O)c12
REMARK SMILES IDX 5 1 3 2 2 3 1 4 22 5 20 6 19 7 17 8 16 9 15 10 14 11 6 12
REMARK SMILES IDX 7 13 8 14 9 15 13 16 11 17 10 18 12 20 4 22 21 24 18 26
REMARK H PARENT 10 19 12 21 4 23 21 25 18 27
REMARK Flexibility Score: inf
ROOT
ATOM      1  C   UNL     1      -1.169 -25.805  30.002  1.00  0.00     0.180 A 
ATOM      2  C   UNL     1      -1.883 -25.412  28.857  1.00  0.00     0.208 A 
ATOM      3  C   UNL     1      -3.045 -24.639  29.010  1.00  0.00     0.238 A 
ATOM      4  O   UNL     1      -3.649 -24.246  27.979  1.00  0.00    -0.285 OA
ATOM      5  C   UNL     1      -3.488 -24.283  30.306  1.00  0.00     0.111 A 
ATOM      6  C   UNL     1      -4.673 -23.537  30.581  1.00  0.00     0.134 A 
ATOM      7  C   UNL     1      -4.945 -23.131  31.894  1.00  0.00     0.093 A 
ATOM      8  C   UNL     1      -4.107 -23.499  32.949  1.00  0.00     0.123 A 
ATOM      9  C   UNL     1      -2.980 -24.277  32.699  1.00  0.00     0.094 A 
ATOM     10  C   UNL     1      -2.663 -24.668  31.395  1.00  0.00     0.146 A 
ATOM     11  O   UNL     1      -1.573 -25.401  31.201  1.00  0.00    -0.452 OA
ENDROOT
BRANCH   1  12
ATOM     12  C   UNL     1       0.050 -26.642  29.922  1.00  0.00     0.025 A 
ATOM     13  C   UNL     1       1.271 -26.115  29.467  1.00  0.00     0.016 A 
ATOM     14  C   UNL     1       2.404 -26.929  29.378  1.00  0.00     0.051 A 
ATOM     15  C   UNL     1       2.329 -28.282  29.731  1.00  0.00     0.157 A 
ATOM     16  C   UNL     1      -0.023 -28.005  30.256  1.00  0.00     0.062 A 
ATOM     17  C   UNL     1       1.114 -28.822  30.168  1.00  0.00     0.158 A 
BRANCH  15  18
ATOM     18  O   UNL     1       3.457 -29.097  29.646  1.00  0.00    -0.504 OA
ATOM     19  H   UNL     1       3.682 -29.604  28.798  1.00  0.00     0.293 HD
ENDBRANCH  15  18
BRANCH  17  20
ATOM     20  O   UNL     1       1.041 -30.171  30.512  1.00  0.00    -0.504 OA
ATOM     21  H   UNL     1       1.292 -30.495  31.439  1.00  0.00     0.293 HD
ENDBRANCH  17  20
ENDBRANCH   1  12
BRANCH   2  22
ATOM     22  O   UNL     1      -1.416 -25.756  27.586  1.00  0.00    -0.502 OA
ATOM     23  H   UNL     1      -0.434 -25.723  27.338  1.00  0.00     0.293 HD
ENDBRANCH   2  22
BRANCH   6  24
ATOM     24  O   UNL     1      -5.623 -23.197  29.614  1.00  0.00    -0.507 OA
ATOM     25  H   UNL     1      -6.597 -23.460  29.647  1.00  0.00     0.293 HD
ENDBRANCH   6  24
BRANCH   8  26
ATOM     26  O   UNL     1      -4.393 -23.102  34.254  1.00  0.00    -0.508 OA
ATOM     27  H   UNL     1      -5.109 -23.563  34.803  1.00  0.00     0.293 HD
ENDBRANCH   8  26
TORSDOF 6
ENDMDL
MODEL 3
REMARK VINA RESULT:    -8.251      1.758      3.746
REMARK INTER + INTRA:          -9.832
REMARK INTER:                  -9.857
REMARK INTRA:                   0.025
REMARK UNBOUND:                 0.107
REMARK SMILES O=c1c(O)c(-c2ccc(O)c(O)c2)oc2cc(O)cc(O)c12
REMARK SMILES IDX 5 1 3 2 2 3 1 4 22 5 20 6 19 7 17 8 16 9 15 10 14 11 6 12
REMARK SMILES IDX 7 13 8 14 9 15 13 16 11 17 10 18 12 20 4 22 21 24 18 26
REMARK H PARENT 10 19 12 21 4 23 21 25 18 27
REMARK Flexibility Score: inf
ROOT
ATOM      1  C   UNL     1      -2.900 -24.943  30.554  1.00  0.00     0.180 A 
ATOM      2  C   UNL     1      -2.868 -24.649  29.180  1.00  0.00     0.208 A 
ATOM      3  C   UNL     1      -1.887 -25.252  28.377  1.00  0.00     0.238 A 
ATOM      4  O   UNL     1      -1.898 -25.026  27.139  1.00  0.00    -0.285 OA
ATOM      5  C   UNL     1      -0.941 -26.129  28.959  1.00  0.00     0.111 A 
ATOM      6  C   UNL     1       0.120 -26.764  28.247  1.00  0.00     0.134 A 
ATOM      7  C   UNL     1       0.917 -27.714  28.899  1.00  0.00     0.093 A 
ATOM      8  C   UNL     1       0.732 -28.003  30.253  1.00  0.00     0.123 A 
ATOM      9  C   UNL     1      -0.263 -27.344  30.970  1.00  0.00     0.094 A 
ATOM     10  C   UNL     1      -1.098 -26.418  30.339  1.00  0.00     0.146 A 
ATOM     11  O   UNL     1      -2.040 -25.821  31.059  1.00  0.00    -0.452 OA
ENDROOT
BRANCH   1  12
ATOM     12  C   UNL     1      -3.887 -24.328  31.470  1.00  0.00     0.025 A 
ATOM     13  C   UNL     1      -5.259 -24.312  31.164  1.00  0.00     0.016 A 
ATOM     14  C   UNL     1      -6.170 -23.704  32.032  1.00  0.00     0.051 A 
ATOM     15  C   UNL     1      -5.722 -23.094  33.211  1.00  0.00     0.157 A 
ATOM     16  C   UNL     1      -3.442 -23.695  32.643  1.00  0.00     0.062 A 
ATOM     17  C   UNL     1      -4.356 -23.086  33.515  1.00  0.00     0.158 A 
BRANCH  15  18
ATOM     18  O   UNL     1      -6.628 -22.488  34.080  1.00  0.00    -0.504 OA
ATOM     19  H   UNL     1      -6.426 -22.384  35.068  1.00  0.00     0.293 HD
ENDBRANCH  15  18
BRANCH  17  20
ATOM     20  O   UNL     1      -3.912 -22.471  34.685  1.00  0.00    -0.504 OA
ATOM     21  H   UNL     1      -3.550 -21.524  34.681  1.00  0.00     0.293 HD
ENDBRANCH  17  20
ENDBRANCH   1  12
BRANCH   2  22
ATOM     22  O   UNL     1      -3.825 -23.797  28.622  1.00  0.00    -0.502 OA
ATOM     23  H   UNL     1      -4.796 -23.806  28.910  1.00  0.00     0.293 HD
ENDBRANCH   2  22
BRANCH   6  24
ATOM     24  O   UNL     1       0.449 -26.480  26.919  1.00  0.00    -0.507 OA
ATOM     25  H   UNL     1       0.004 -26.896  26.114  1.00  0.00     0.293 HD
ENDBRANCH   6  24
BRANCH   8  26
ATOM     26  O   UNL     1       1.540 -28.938  30.896  1.00  0.00    -0.508 OA
ATOM     27  H   UNL     1       2.475 -28.706  31.208  1.00  0.00     0.293 HD
ENDBRANCH   8  26
TORSDOF 6
ENDMDL
MODEL 4
REMARK VINA RESULT:    -8.209      1.131      1.756
REMARK INTER + INTRA:          -9.781
REMARK INTER:                  -9.561
REMARK INTRA:                  -0.220
REMARK UNBOUND:                 0.107
REMARK SMILES O=c1c(O)c(-c2ccc(O)c(O)c2)oc2cc(O)cc(O)c12
REMARK SMILES IDX 5 1 3 2 2 3 1 4 22 5 20 6 19 7 17 8 16 9 15 10 14 11 6 12
REMARK SMILES IDX 7 13 8 14 9 15 13 16 11 17 10 18 12 20 4 22 21 24 18 26
REMARK H PARENT 10 19 12 21 4 23 21 25 18 27
REMARK Flexibility Score: inf
ROOT
ATOM      1  C   UNL     1      -1.377 -25.773  30.606  1.00  0.00     0.180 A 
ATOM      2  C   UNL     1      -0.893 -26.916  31.265  1.00  0.00     0.208 A 
ATOM      3  C   UNL     1       0.207 -27.600  30.723  1.00  0.00     0.238 A 
ATOM      4  O   UNL     1       0.669 -28.591  31.347  1.00  0.00    -0.285 OA
ATOM      5  C   UNL     1       0.799 -27.144  29.521  1.00  0.00     0.111 A 
ATOM      6  C   UNL     1       1.891 -27.783  28.862  1.00  0.00     0.134 A 
ATOM      7  C   UNL     1       2.480 -27.170  27.749  1.00  0.00     0.093 A 
ATOM      8  C   UNL     1       1.975 -25.974  27.234  1.00  0.00     0.123 A 
ATOM      9  C   UNL     1       0.872 -25.373  27.835  1.00  0.00     0.094 A 
ATOM     10  C   UNL     1       0.284 -25.942  28.968  1.00  0.00     0.146 A 
ATOM     11  O   UNL     1      -0.759 -25.331  29.515  1.00  0.00    -0.452 OA
ENDROOT
BRANCH   1  12
ATOM     12  C   UNL     1      -2.547 -25.013  31.100  1.00  0.00     0.025 A 
ATOM     13  C   UNL     1      -3.769 -25.014  30.404  1.00  0.00     0.016 A 
ATOM     14  C   UNL     1      -4.853 -24.271  30.877  1.00  0.00     0.051 A 
ATOM     15  C   UNL     1      -4.729 -23.507  32.045  1.00  0.00     0.157 A 
ATOM     16  C   UNL     1      -2.423 -24.228  32.260  1.00  0.00     0.062 A 
ATOM     17  C   UNL     1      -3.511 -23.483  32.736  1.00  0.00     0.158 A 
BRANCH  15  18
ATOM     18  O   UNL     1      -5.809 -22.766  32.522  1.00  0.00    -0.504 OA
ATOM     19  H   UNL     1      -5.712 -21.788  32.772  1.00  0.00     0.293 HD
ENDBRANCH  15  18
BRANCH  17  20
ATOM     20  O   UNL     1      -3.389 -22.716  33.893  1.00  0.00    -0.504 OA
ATOM     21  H   UNL     1      -2.482 -22.501  34.293  1.00  0.00     0.293 HD
ENDBRANCH  17  20
ENDBRANCH   1  12
BRANCH   2  22
ATOM     22  O   UNL     1      -1.478 -27.337  32.461  1.00  0.00    -0.502 OA
ATOM     23  H   UNL     1      -1.349 -28.271  32.831  1.00  0.00     0.293 HD
ENDBRANCH   2  22
BRANCH   6  24
ATOM     24  O   UNL     1       2.413 -29.023  29.240  1.00  0.00    -0.507 OA
ATOM     25  H   UNL     1       3.320 -29.373  28.967  1.00  0.00     0.293 HD
ENDBRANCH   6  24
BRANCH   8  26
ATOM     26  O   UNL     1       2.558 -25.379  26.116  1.00  0.00    -0.508 OA
ATOM     27  H   UNL     1       3.509 -25.030  26.137  1.00  0.00     0.293 HD
ENDBRANCH   8  26
TORSDOF 6
ENDMDL
MODEL 5
REMARK VINA RESULT:    -8.198      1.722      7.490
REMARK INTER + INTRA:          -9.769
REMARK INTER:                  -9.474
REMARK INTRA:                  -0.295
REMARK UNBOUND:                 0.107
REMARK SMILES O=c1c(O)c(-c2ccc(O)c(O)c2)oc2cc(O)cc(O)c12
REMARK SMILES IDX 5 1 3 2 2 3 1 4 22 5 20 6 19 7 17 8 16 9 15 10 14 11 6 12
REMARK SMILES IDX 7 13 8 14 9 15 13 16 11 17 10 18 12 20 4 22 21 24 18 26
REMARK H PARENT 10 19 12 21 4 23 21 25 18 27
REMARK Flexibility Score: inf
ROOT
ATOM      1  C   UNL     1      -2.312 -25.006  30.440  1.00  0.00     0.180 A 
ATOM      2  C   UNL     1      -3.275 -24.678  29.471  1.00  0.00     0.208 A 
ATOM      3  C   UNL     1      -4.393 -23.919  29.850  1.00  0.00     0.238 A 
ATOM      4  O   UNL     1      -5.223 -23.583  28.967  1.00  0.00    -0.285 OA
ATOM      5  C   UNL     1      -4.543 -23.510  31.197  1.00  0.00     0.111 A 
ATOM      6  C   UNL     1      -5.655 -22.772  31.701  1.00  0.00     0.134 A 
ATOM      7  C   UNL     1      -5.635 -22.310  33.023  1.00  0.00     0.093 A 
ATOM      8  C   UNL     1      -4.573 -22.614  33.877  1.00  0.00     0.123 A 
ATOM      9  C   UNL     1      -3.510 -23.384  33.411  1.00  0.00     0.094 A 
ATOM     10  C   UNL     1      -3.484 -23.830  32.087  1.00  0.00     0.146 A 
ATOM     11  O   UNL     1      -2.447 -24.553  31.682  1.00  0.00    -0.452 OA
ENDROOT
BRANCH   1  12
ATOM     12  C   UNL     1      -1.119 -25.825  30.123  1.00  0.00     0.025 A 
ATOM     13  C   UNL     1       0.128 -25.231  29.860  1.00  0.00     0.016 A 
ATOM     14  C   UNL     1       1.234 -26.022  29.540  1.00  0.00     0.051 A 
ATOM     15  C   UNL     1       1.107 -27.416  29.465  1.00  0.00     0.157 A 
ATOM     16  C   UNL     1      -1.245 -27.221  30.026  1.00  0.00     0.062 A 
ATOM     17  C   UNL     1      -0.135 -28.016  29.704  1.00  0.00     0.158 A 
BRANCH  15  18
ATOM     18  O   UNL     1       2.209 -28.208  29.147  1.00  0.00    -0.504 OA
ATOM     19  H   UNL     1       2.416 -29.058  29.659  1.00  0.00     0.293 HD
ENDBRANCH  15  18
BRANCH  17  20
ATOM     20  O   UNL     1      -0.259 -29.401  29.622  1.00  0.00    -0.504 OA
ATOM     21  H   UNL     1       0.412 -29.964  29.111  1.00  0.00     0.293 HD
ENDBRANCH  17  20
ENDBRANCH   1  12
BRANCH   2  22
ATOM     22  O   UNL     1      -3.096 -25.073  28.143  1.00  0.00    -0.502 OA
ATOM     23  H   UNL     1      -2.709 -24.457  27.438  1.00  0.00     0.293 HD
ENDBRANCH   2  22
BRANCH   6  24
ATOM     24  O   UNL     1      -6.807 -22.493  30.960  1.00  0.00    -0.507 OA
ATOM     25  H   UNL     1      -6.813 -22.059  30.049  1.00  0.00     0.293 HD
ENDBRANCH   6  24
BRANCH   8  26
ATOM     26  O   UNL     1      -4.568 -22.163  35.195  1.00  0.00    -0.508 OA
ATOM     27  H   UNL     1      -3.914 -22.526  35.878  1.00  0.00     0.293 HD
ENDBRANCH   8  26
TORSDOF 6
ENDMDL
MODEL 6
REMARK VINA RESULT:    -8.137      1.656      3.743
REMARK INTER + INTRA:          -9.695
REMARK INTER:                  -9.653
REMARK INTRA:                  -0.041
REMARK UNBOUND:                 0.107
REMARK SMILES O=c1c(O)c(-c2ccc(O)c(O)c2)oc2cc(O)cc(O)c12
REMARK SMILES IDX 5 1 3 2 2 3 1 4 22 5 20 6 19 7 17 8 16 9 15 10 14 11 6 12
REMARK SMILES IDX 7 13 8 14 9 15 13 16 11 17 10 18 12 20 4 22 21 24 18 26
REMARK H PARENT 10 19 12 21 4 23 21 25 18 27
REMARK Flexibility Score: inf
ROOT
ATOM      1  C   UNL     1      -3.261 -24.764  30.792  1.00  0.00     0.180 A 
ATOM      2  C   UNL     1      -3.230 -24.506  29.411  1.00  0.00     0.208 A 
ATOM      3  C   UNL     1      -2.274 -25.159  28.617  1.00  0.00     0.238 A 
ATOM      4  O   UNL     1      -2.287 -24.964  27.374  1.00  0.00    -0.285 OA
ATOM      5  C   UNL     1      -1.350 -26.048  29.215  1.00  0.00     0.111 A 
ATOM      6  C   UNL     1      -0.314 -26.733  28.514  1.00  0.00     0.134 A 
ATOM      7  C   UNL     1       0.459 -27.689  29.184  1.00  0.00     0.093 A 
ATOM      8  C   UNL     1       0.275 -27.938  30.547  1.00  0.00     0.123 A 
ATOM      9  C   UNL     1      -0.695 -27.231  31.254  1.00  0.00     0.094 A 
ATOM     10  C   UNL     1      -1.506 -26.297  30.604  1.00  0.00     0.146 A 
ATOM     11  O   UNL     1      -2.424 -25.653  31.314  1.00  0.00    -0.452 OA
ENDROOT
BRANCH   1  12
ATOM     12  C   UNL     1      -4.223 -24.095  31.698  1.00  0.00     0.025 A 
ATOM     13  C   UNL     1      -3.789 -23.390  32.835  1.00  0.00     0.016 A 
ATOM     14  C   UNL     1      -4.716 -22.787  33.689  1.00  0.00     0.051 A 
ATOM     15  C   UNL     1      -6.089 -22.890  33.427  1.00  0.00     0.157 A 
ATOM     16  C   UNL     1      -5.602 -24.212  31.452  1.00  0.00     0.062 A 
ATOM     17  C   UNL     1      -6.532 -23.606  32.309  1.00  0.00     0.158 A 
BRANCH  15  18
ATOM     18  O   UNL     1      -7.016 -22.288  34.275  1.00  0.00    -0.504 OA
ATOM     19  H   UNL     1      -7.490 -21.429  34.020  1.00  0.00     0.293 HD
ENDBRANCH  15  18
BRANCH  17  20
ATOM     20  O   UNL     1      -7.898 -23.713  32.055  1.00  0.00    -0.504 OA
ATOM     21  H   UNL     1      -8.535 -24.108  32.739  1.00  0.00     0.293 HD
ENDBRANCH  17  20
ENDBRANCH   1  12
BRANCH   2  22
ATOM     22  O   UNL     1      -4.165 -23.640  28.837  1.00  0.00    -0.502 OA
ATOM     23  H   UNL     1      -4.027 -23.213  27.930  1.00  0.00     0.293 HD
ENDBRANCH   2  22
BRANCH   6  24
ATOM     24  O   UNL     1       0.014 -26.493  27.176  1.00  0.00    -0.507 OA
ATOM     25  H   UNL     1      -0.341 -27.022  26.393  1.00  0.00     0.293 HD
ENDBRANCH   6  24
BRANCH   8  26
ATOM     26  O   UNL     1       1.059 -28.880  31.209  1.00  0.00    -0.508 OA
ATOM     27  H   UNL     1       2.009 -29.078  30.919  1.00  0.00     0.293 HD
ENDBRANCH   8  26
TORSDOF 6
ENDMDL
MODEL 7
REMARK VINA RESULT:    -7.385      1.313      6.655
REMARK INTER + INTRA:          -8.789
REMARK INTER:                  -8.884
REMARK INTRA:                   0.095
REMARK UNBOUND:                 0.107
REMARK SMILES O=c1c(O)c(-c2ccc(O)c(O)c2)oc2cc(O)cc(O)c12
REMARK SMILES IDX 5 1 3 2 2 3 1 4 22 5 20 6 19 7 17 8 16 9 15 10 14 11 6 12
REMARK SMILES IDX 7 13 8 14 9 15 13 16 11 17 10 18 12 20 4 22 21 24 18 26
REMARK H PARENT 10 19 12 21 4 23 21 25 18 27
REMARK Flexibility Score: inf
ROOT
ATOM      1  C   UNL     1      -0.396 -26.028  29.343  1.00  0.00     0.180 A 
ATOM      2  C   UNL     1      -0.391 -26.206  30.737  1.00  0.00     0.208 A 
ATOM      3  C   UNL     1      -1.458 -25.697  31.494  1.00  0.00     0.238 A 
ATOM      4  O   UNL     1      -1.473 -25.907  32.735  1.00  0.00    -0.285 OA
ATOM      5  C   UNL     1      -2.510 -25.002  30.850  1.00  0.00     0.111 A 
ATOM      6  C   UNL     1      -3.620 -24.410  31.522  1.00  0.00     0.134 A 
ATOM      7  C   UNL     1      -4.668 -23.860  30.772  1.00  0.00     0.093 A 
ATOM      8  C   UNL     1      -4.614 -23.824  29.377  1.00  0.00     0.123 A 
ATOM      9  C   UNL     1      -3.506 -24.347  28.714  1.00  0.00     0.094 A 
ATOM     10  C   UNL     1      -2.461 -24.934  29.433  1.00  0.00     0.146 A 
ATOM     11  O   UNL     1      -1.429 -25.429  28.761  1.00  0.00    -0.452 OA
ENDROOT
BRANCH   1  12
ATOM     12  C   UNL     1       0.705 -26.513  28.482  1.00  0.00     0.025 A 
ATOM     13  C   UNL     1       1.259 -27.794  28.652  1.00  0.00     0.016 A 
ATOM     14  C   UNL     1       2.314 -28.222  27.843  1.00  0.00     0.051 A 
ATOM     15  C   UNL     1       2.839 -27.373  26.860  1.00  0.00     0.157 A 
ATOM     16  C   UNL     1       1.250 -25.658  27.508  1.00  0.00     0.062 A 
ATOM     17  C   UNL     1       2.309 -26.088  26.695  1.00  0.00     0.158 A 
BRANCH  15  18
ATOM     18  O   UNL     1       3.890 -27.797  26.049  1.00  0.00    -0.504 OA
ATOM     19  H   UNL     1       4.617 -27.159  25.746  1.00  0.00     0.293 HD
ENDBRANCH  15  18
BRANCH  17  20
ATOM     20  O   UNL     1       2.838 -25.243  25.721  1.00  0.00    -0.504 OA
ATOM     21  H   UNL     1       3.462 -25.589  25.001  1.00  0.00     0.293 HD
ENDBRANCH  17  20
ENDBRANCH   1  12
BRANCH   2  22
ATOM     22  O   UNL     1       0.646 -26.914  31.351  1.00  0.00    -0.502 OA
ATOM     23  H   UNL     1       0.819 -27.895  31.166  1.00  0.00     0.293 HD
ENDBRANCH   2  22
BRANCH   6  24
ATOM     24  O   UNL     1      -3.730 -24.311  32.912  1.00  0.00    -0.507 OA
ATOM     25  H   UNL     1      -4.504 -24.664  33.455  1.00  0.00     0.293 HD
ENDBRANCH   6  24
BRANCH   8  26
ATOM     26  O   UNL     1      -5.654 -23.262  28.640  1.00  0.00    -0.508 OA
ATOM     27  H   UNL     1      -5.501 -22.470  28.027  1.00  0.00     0.293 HD
ENDBRANCH   8  26
TORSDOF 6
ENDMDL
MODEL 8
REMARK VINA RESULT:    -7.056      4.760     10.387
REMARK INTER + INTRA:          -8.393
REMARK INTER:                  -8.177
REMARK INTRA:                  -0.216
REMARK UNBOUND:                 0.107
REMARK SMILES O=c1c(O)c(-c2ccc(O)c(O)c2)oc2cc(O)cc(O)c12
REMARK SMILES IDX 5 1 3 2 2 3 1 4 22 5 20 6 19 7 17 8 16 9 15 10 14 11 6 12
REMARK SMILES IDX 7 13 8 14 9 15 13 16 11 17 10 18 12 20 4 22 21 24 18 26
REMARK H PARENT 10 19 12 21 4 23 21 25 18 27
REMARK Flexibility Score: inf
ROOT
ATOM      1  C   UNL     1      -5.803 -21.861  33.451  1.00  0.00     0.180 A 
ATOM      2  C   UNL     1      -5.273 -20.639  33.898  1.00  0.00     0.208 A 
ATOM      3  C   UNL     1      -6.031 -19.847  34.775  1.00  0.00     0.238 A 
ATOM      4  O   UNL     1      -5.528 -18.780  35.214  1.00  0.00    -0.285 OA
ATOM      5  C   UNL     1      -7.317 -20.278  35.181  1.00  0.00     0.111 A 
ATOM      6  C   UNL     1      -8.188 -19.538  36.034  1.00  0.00     0.134 A 
ATOM      7  C   UNL     1      -9.383 -20.121  36.475  1.00  0.00     0.093 A 
ATOM      8  C   UNL     1      -9.767 -21.392  36.041  1.00  0.00     0.123 A 
ATOM      9  C   UNL     1      -8.951 -22.098  35.161  1.00  0.00     0.094 A 
ATOM     10  C   UNL     1      -7.736 -21.558  34.732  1.00  0.00     0.146 A 
ATOM     11  O   UNL     1      -6.984 -22.270  33.901  1.00  0.00    -0.452 OA
ENDROOT
BRANCH   1  12
ATOM     12  C   UNL     1      -5.074 -22.738  32.507  1.00  0.00     0.025 A 
ATOM     13  C   UNL     1      -3.920 -23.438  32.898  1.00  0.00     0.016 A 
ATOM     14  C   UNL     1      -3.235 -24.242  31.983  1.00  0.00     0.051 A 
ATOM     15  C   UNL     1      -3.687 -24.348  30.661  1.00  0.00     0.157 A 
ATOM     16  C   UNL     1      -5.510 -22.833  31.174  1.00  0.00     0.062 A 
ATOM     17  C   UNL     1      -4.824 -23.640  30.255  1.00  0.00     0.158 A 
BRANCH  15  18
ATOM     18  O   UNL     1      -3.008 -25.150  29.746  1.00  0.00    -0.504 OA
ATOM     19  H   UNL     1      -3.490 -25.850  29.193  1.00  0.00     0.293 HD
ENDBRANCH  15  18
BRANCH  17  20
ATOM     20  O   UNL     1      -5.266 -23.742  28.937  1.00  0.00    -0.504 OA
ATOM     21  H   UNL     1      -4.635 -23.992  28.184  1.00  0.00     0.293 HD
ENDBRANCH  17  20
ENDBRANCH   1  12
BRANCH   2  22
ATOM     22  O   UNL     1      -3.993 -20.242  33.502  1.00  0.00    -0.502 OA
ATOM     23  H   UNL     1      -3.817 -19.364  33.029  1.00  0.00     0.293 HD
ENDBRANCH   2  22
BRANCH   6  24
ATOM     24  O   UNL     1      -7.943 -18.227  36.452  1.00  0.00    -0.507 OA
ATOM     25  H   UNL     1      -7.180 -17.946  37.049  1.00  0.00     0.293 HD
ENDBRANCH   6  24
BRANCH   8  26
ATOM     26  O   UNL     1     -10.965 -21.958  36.473  1.00  0.00    -0.508 OA
ATOM     27  H   UNL     1     -11.306 -21.822  37.417  1.00  0.00     0.293 HD
ENDBRANCH   8  26
TORSDOF 6
ENDMDL
