MODEL 1
REMARK VINA RESULT:    -2.820      0.000      0.000
REMARK INTER + INTRA:          -2.820
REMARK INTER:                  -2.820
REMARK INTRA:                   0.000
REMARK UNBOUND:                 0.000
REMARK SMILES CC(=O)[O-]
REMARK SMILES IDX 1 1 2 2 3 3 4 4
REMARK H PARENT
REMARK Flexibility Score: inf
ROOT
ATOM      1  C   UNL     1      17.161 114.633 290.512  1.00  0.00     0.063 C 
ATOM      2  C   UNL     1      18.025 115.652 291.174  1.00  0.00     0.038 C 
ATOM      3  O   UNL     1      19.224 115.789 290.818  1.00  0.00    -0.550 OA
ATOM      4  O   UNL     1      17.494 116.488 292.148  1.00  0.00    -0.550 OA
ENDROOT
TORSDOF 0
ENDMDL
MODEL 2
REMARK VINA RESULT:    -2.717      1.401      1.772
REMARK INTER + INTRA:          -2.717
REMARK INTER:                  -2.717
REMARK INTRA:                   0.000
REMARK UNBOUND:                 0.000
REMARK SMILES CC(=O)[O-]
REMARK SMILES IDX 1 1 2 2 3 3 4 4
REMARK H PARENT
REMARK Flexibility Score: inf
ROOT
ATOM      1  C   UNL     1      17.517 116.535 292.359  1.00  0.00     0.063 C 
ATOM      2  C   UNL     1      17.924 115.658 291.223  1.00  0.00     0.038 C 
ATOM      3  O   UNL     1      19.115 115.663 290.816  1.00  0.00    -0.550 OA
ATOM      4  O   UNL     1      17.002 114.794 290.645  1.00  0.00    -0.550 OA
ENDROOT
TORSDOF 0
ENDMDL
MODEL 3
REMARK VINA RESULT:    -2.387      6.883      7.302
REMARK INTER + INTRA:          -2.387
REMARK INTER:                  -2.387
REMARK INTRA:                   0.000
REMARK UNBOUND:                 0.000
REMARK SMILES CC(=O)[O-]
REMARK SMILES IDX 1 1 2 2 3 3 4 4
REMARK H PARENT
REMARK Flexibility Score: inf
ROOT
ATOM      1  C   UNL     1      24.520 118.876 288.710  1.00  0.00     0.063 C 
ATOM      2  C   UNL     1      23.280 118.907 287.881  1.00  0.00     0.038 C 
ATOM      3  O   UNL     1      22.729 117.832 287.529  1.00  0.00    -0.550 OA
ATOM      4  O   UNL     1      22.700 120.123 287.542  1.00  0.00    -0.550 OA
ENDROOT
TORSDOF 0
ENDMDL
MODEL 4
REMARK VINA RESULT:    -2.322      6.637      7.132
REMARK INTER + INTRA:          -2.322
REMARK INTER:                  -2.322
REMARK INTRA:                   0.000
REMARK UNBOUND:                 0.000
REMARK SMILES CC(=O)[O-]
REMARK SMILES IDX 1 1 2 2 3 3 4 4
REMARK H PARENT
REMARK Flexibility Score: inf
ROOT
ATOM      1  C   UNL     1      22.907 119.674 287.505  1.00  0.00     0.063 C 
ATOM      2  C   UNL     1      23.613 118.698 288.385  1.00  0.00     0.038 C 
ATOM      3  O   UNL     1      24.726 118.996 288.892  1.00  0.00    -0.550 OA
ATOM      4  O   UNL     1      23.019 117.480 288.691  1.00  0.00    -0.550 OA
ENDROOT
TORSDOF 0
ENDMDL
MODEL 5
REMARK VINA RESULT:    -2.318      6.933      7.410
REMARK INTER + INTRA:          -2.318
REMARK INTER:                  -2.318
REMARK INTRA:                   0.000
REMARK UNBOUND:                 0.000
REMARK SMILES CC(=O)[O-]
REMARK SMILES IDX 1 1 2 2 3 3 4 4
REMARK H PARENT
REMARK Flexibility Score: inf
ROOT
ATOM      1  C   UNL     1      24.602 118.886 288.835  1.00  0.00     0.063 C 
ATOM      2  C   UNL     1      23.394 118.931 287.961  1.00  0.00     0.038 C 
ATOM      3  O   UNL     1      22.939 120.037 287.570  1.00  0.00    -0.550 OA
ATOM      4  O   UNL     1      22.802 117.750 287.532  1.00  0.00    -0.550 OA
ENDROOT
TORSDOF 0
ENDMDL
MODEL 6
REMARK VINA RESULT:    -2.302      6.641      7.208
REMARK INTER + INTRA:          -2.302
REMARK INTER:                  -2.302
REMARK INTRA:                   0.000
REMARK UNBOUND:                 0.000
REMARK SMILES CC(=O)[O-]
REMARK SMILES IDX 1 1 2 2 3 3 4 4
REMARK H PARENT
REMARK Flexibility Score: inf
ROOT
ATOM      1  C   UNL     1      22.872 119.851 287.504  1.00  0.00     0.063 C 
ATOM      2  C   UNL     1      23.480 118.760 288.319  1.00  0.00     0.038 C 
ATOM      3  O   UNL     1      22.896 117.650 288.424  1.00  0.00    -0.550 OA
ATOM      4  O   UNL     1      24.719 118.947 288.919  1.00  0.00    -0.550 OA
ENDROOT
TORSDOF 0
ENDMDL
MODEL 7
REMARK VINA RESULT:    -2.135      2.347      2.610
REMARK INTER + INTRA:          -2.135
REMARK INTER:                  -2.135
REMARK INTRA:                   0.000
REMARK UNBOUND:                 0.000
REMARK SMILES CC(=O)[O-]
REMARK SMILES IDX 1 1 2 2 3 3 4 4
REMARK H PARENT
REMARK Flexibility Score: inf
ROOT
ATOM      1  C   UNL     1      17.627 116.273 291.998  1.00  0.00     0.063 C 
ATOM      2  C   UNL     1      17.733 117.249 293.121  1.00  0.00     0.038 C 
ATOM      3  O   UNL     1      18.863 117.639 293.513  1.00  0.00    -0.550 OA
ATOM      4  O   UNL     1      16.583 117.770 293.701  1.00  0.00    -0.550 OA
ENDROOT
TORSDOF 0
ENDMDL
MODEL 8
REMARK VINA RESULT:    -2.092      6.628      7.199
REMARK INTER + INTRA:          -2.092
REMARK INTER:                  -2.092
REMARK INTRA:                   0.000
REMARK UNBOUND:                 0.000
REMARK SMILES CC(=O)[O-]
REMARK SMILES IDX 1 1 2 2 3 3 4 4
REMARK H PARENT
REMARK Flexibility Score: inf
ROOT
ATOM      1  C   UNL     1      24.072 118.777 287.934  1.00  0.00     0.063 C 
ATOM      2  C   UNL     1      24.177 118.202 289.306  1.00  0.00     0.038 C 
ATOM      3  O   UNL     1      23.490 117.196 289.623  1.00  0.00    -0.550 OA
ATOM      4  O   UNL     1      25.074 118.741 290.220  1.00  0.00    -0.550 OA
ENDROOT
TORSDOF 0
ENDMDL
MODEL 9
REMARK VINA RESULT:    -2.021      6.720      7.416
REMARK INTER + INTRA:          -2.021
REMARK INTER:                  -2.021
REMARK INTRA:                   0.000
REMARK UNBOUND:                 0.000
REMARK SMILES CC(=O)[O-]
REMARK SMILES IDX 1 1 2 2 3 3 4 4
REMARK H PARENT
REMARK Flexibility Score: inf
ROOT
ATOM      1  C   UNL     1      25.407 118.032 291.044  1.00  0.00     0.063 C 
ATOM      2  C   UNL     1      24.532 117.952 289.839  1.00  0.00     0.038 C 
ATOM      3  O   UNL     1      23.613 117.094 289.782  1.00  0.00    -0.550 OA
ATOM      4  O   UNL     1      24.694 118.859 288.799  1.00  0.00    -0.550 OA
ENDROOT
TORSDOF 0
ENDMDL
