MODEL 1
REMARK VINA RESULT:    -4.755      0.000      0.000
REMARK INTER + INTRA:          -5.935
REMARK INTER:                  -5.727
REMARK INTRA:                  -0.208
REMARK UNBOUND:                -0.208
REMARK SMILES NC(=O)C[C@@H]([NH3+])C(=O)[O-]
REMARK SMILES IDX 4 1 5 2 6 3 7 7 8 8 9 9 2 10 3 11 1 12
REMARK H PARENT 6 4 6 5 6 6 1 13 1 14
REMARK Flexibility Score: inf
ROOT
ATOM      1  C   UNL     1     172.353 171.244 209.392  1.00  0.00     0.171 C 
ENDROOT
BRANCH   1   2
ATOM      2  C   UNL     1     172.048 172.729 209.110  1.00  0.00     0.237 C 
BRANCH   2   3
ATOM      3  N   UNL     1     173.106 173.321 208.283  1.00  0.00    -0.350 N 
ATOM      4  H   UNL     1     173.992 172.776 208.394  1.00  0.00     0.345 HD
ATOM      5  H   UNL     1     172.828 173.287 207.274  1.00  0.00     0.345 HD
ATOM      6  H   UNL     1     173.277 174.316 208.556  1.00  0.00     0.345 HD
ENDBRANCH   2   3
BRANCH   2   7
ATOM      7  C   UNL     1     170.713 172.885 208.430  1.00  0.00     0.100 C 
ATOM      8  O   UNL     1     169.693 173.197 209.100  1.00  0.00    -0.544 OA
ATOM      9  O   UNL     1     170.593 172.673 207.061  1.00  0.00    -0.544 OA
ENDBRANCH   2   7
ENDBRANCH   1   2
BRANCH   1  10
ATOM     10  C   UNL     1     173.373 170.698 208.435  1.00  0.00     0.223 C 
ATOM     11  O   UNL     1     173.186 170.805 207.193  1.00  0.00    -0.275 OA
ATOM     12  N   UNL     1     174.573 170.094 208.919  1.00  0.00    -0.369 N 
ATOM     13  H   UNL     1     175.286 169.728 208.249  1.00  0.00     0.159 HD
ATOM     14  H   UNL     1     174.754 170.014 209.944  1.00  0.00     0.159 HD
ENDBRANCH   1  10
TORSDOF 4
ENDMDL
MODEL 2
REMARK VINA RESULT:    -4.600      1.251      1.251
REMARK INTER + INTRA:          -5.749
REMARK INTER:                  -5.268
REMARK INTRA:                  -0.481
REMARK UNBOUND:                -0.208
REMARK SMILES NC(=O)C[C@@H]([NH3+])C(=O)[O-]
REMARK SMILES IDX 4 1 5 2 6 3 7 7 8 8 9 9 2 10 3 11 1 12
REMARK H PARENT 6 4 6 5 6 6 1 13 1 14
REMARK Flexibility Score: inf
ROOT
ATOM      1  C   UNL     1     171.834 170.788 208.932  1.00  0.00     0.171 C 
ENDROOT
BRANCH   1   2
ATOM      2  C   UNL     1     171.484 172.229 209.355  1.00  0.00     0.237 C 
BRANCH   2   3
ATOM      3  N   UNL     1     172.688 173.069 209.357  1.00  0.00    -0.350 N 
ATOM      4  H   UNL     1     173.523 172.494 209.095  1.00  0.00     0.345 HD
ATOM      5  H   UNL     1     172.586 173.836 208.652  1.00  0.00     0.345 HD
ATOM      6  H   UNL     1     172.843 173.491 210.301  1.00  0.00     0.345 HD
ENDBRANCH   2   3
BRANCH   2   7
ATOM      7  C   UNL     1     170.444 172.821 208.440  1.00  0.00     0.100 C 
ATOM      8  O   UNL     1     169.429 173.391 208.920  1.00  0.00    -0.544 OA
ATOM      9  O   UNL     1     170.590 172.732 207.060  1.00  0.00    -0.544 OA
ENDBRANCH   2   7
ENDBRANCH   1   2
BRANCH   1  10
ATOM     10  C   UNL     1     173.135 170.732 208.184  1.00  0.00     0.223 C 
ATOM     11  O   UNL     1     174.199 170.455 208.800  1.00  0.00    -0.275 OA
ATOM     12  N   UNL     1     173.171 170.952 206.774  1.00  0.00    -0.369 N 
ATOM     13  H   UNL     1     174.077 170.898 206.256  1.00  0.00     0.159 HD
ATOM     14  H   UNL     1     172.297 171.164 206.244  1.00  0.00     0.159 HD
ENDBRANCH   1  10
TORSDOF 4
ENDMDL
MODEL 3
REMARK VINA RESULT:    -4.596      1.808      3.894
REMARK INTER + INTRA:          -5.744
REMARK INTER:                  -5.276
REMARK INTRA:                  -0.468
REMARK UNBOUND:                -0.208
REMARK SMILES NC(=O)C[C@@H]([NH3+])C(=O)[O-]
REMARK SMILES IDX 4 1 5 2 6 3 7 7 8 8 9 9 2 10 3 11 1 12
REMARK H PARENT 6 4 6 5 6 6 1 13 1 14
REMARK Flexibility Score: inf
ROOT
ATOM      1  C   UNL     1     171.748 172.814 208.983  1.00  0.00     0.171 C 
ENDROOT
BRANCH   1   2
ATOM      2  C   UNL     1     172.137 171.355 209.298  1.00  0.00     0.237 C 
BRANCH   2   3
ATOM      3  N   UNL     1     170.944 170.501 209.321  1.00  0.00    -0.350 N 
ATOM      4  H   UNL     1     170.824 170.033 208.392  1.00  0.00     0.345 HD
ATOM      5  H   UNL     1     171.055 169.757 210.048  1.00  0.00     0.345 HD
ATOM      6  H   UNL     1     170.089 171.064 209.536  1.00  0.00     0.345 HD
ENDBRANCH   2   3
BRANCH   2   7
ATOM      7  C   UNL     1     173.127 170.832 208.290  1.00  0.00     0.100 C 
ATOM      8  O   UNL     1     172.914 170.981 207.057  1.00  0.00    -0.544 OA
ATOM      9  O   UNL     1     174.276 170.172 208.711  1.00  0.00    -0.544 OA
ENDBRANCH   2   7
ENDBRANCH   1   2
BRANCH   1  10
ATOM     10  C   UNL     1     170.420 172.893 208.287  1.00  0.00     0.223 C 
ATOM     11  O   UNL     1     169.376 173.118 208.957  1.00  0.00    -0.275 OA
ATOM     12  N   UNL     1     170.334 172.755 206.869  1.00  0.00    -0.369 N 
ATOM     13  H   UNL     1     169.409 172.826 206.388  1.00  0.00     0.159 HD
ATOM     14  H   UNL     1     171.191 172.588 206.296  1.00  0.00     0.159 HD
ENDBRANCH   1  10
TORSDOF 4
ENDMDL
MODEL 4
REMARK VINA RESULT:    -4.585      1.510      1.605
REMARK INTER + INTRA:          -5.731
REMARK INTER:                  -5.468
REMARK INTRA:                  -0.263
REMARK UNBOUND:                -0.208
REMARK SMILES NC(=O)C[C@@H]([NH3+])C(=O)[O-]
REMARK SMILES IDX 4 1 5 2 6 3 7 7 8 8 9 9 2 10 3 11 1 12
REMARK H PARENT 6 4 6 5 6 6 1 13 1 14
REMARK Flexibility Score: inf
ROOT
ATOM      1  C   UNL     1     172.343 171.099 209.184  1.00  0.00     0.171 C 
ENDROOT
BRANCH   1   2
ATOM      2  C   UNL     1     171.321 171.900 208.352  1.00  0.00     0.237 C 
BRANCH   2   3
ATOM      3  N   UNL     1     170.540 171.001 207.495  1.00  0.00    -0.350 N 
ATOM      4  H   UNL     1     170.928 170.030 207.551  1.00  0.00     0.345 HD
ATOM      5  H   UNL     1     169.547 170.973 207.822  1.00  0.00     0.345 HD
ATOM      6  H   UNL     1     170.564 171.324 206.500  1.00  0.00     0.345 HD
ENDBRANCH   2   3
BRANCH   2   7
ATOM      7  C   UNL     1     170.399 172.689 209.247  1.00  0.00     0.100 C 
ATOM      8  O   UNL     1     170.577 172.691 210.493  1.00  0.00    -0.544 OA
ATOM      9  O   UNL     1     169.341 173.410 208.704  1.00  0.00    -0.544 OA
ENDBRANCH   2   7
ENDBRANCH   1   2
BRANCH   1  10
ATOM     10  C   UNL     1     173.483 170.612 208.337  1.00  0.00     0.223 C 
ATOM     11  O   UNL     1     173.460 170.797 207.091  1.00  0.00    -0.275 OA
ATOM     12  N   UNL     1     174.612 169.975 208.936  1.00  0.00    -0.369 N 
ATOM     13  H   UNL     1     175.410 169.651 208.344  1.00  0.00     0.159 HD
ATOM     14  H   UNL     1     174.657 169.830 209.969  1.00  0.00     0.159 HD
ENDBRANCH   1  10
TORSDOF 4
ENDMDL
MODEL 5
REMARK VINA RESULT:    -4.558      1.946      2.345
REMARK INTER + INTRA:          -5.698
REMARK INTER:                  -5.425
REMARK INTRA:                  -0.273
REMARK UNBOUND:                -0.208
REMARK SMILES NC(=O)C[C@@H]([NH3+])C(=O)[O-]
REMARK SMILES IDX 4 1 5 2 6 3 7 7 8 8 9 9 2 10 3 11 1 12
REMARK H PARENT 6 4 6 5 6 6 1 13 1 14
REMARK Flexibility Score: inf
ROOT
ATOM      1  C   UNL     1     173.001 170.942 207.267  1.00  0.00     0.171 C 
ENDROOT
BRANCH   1   2
ATOM      2  C   UNL     1     172.219 172.268 207.179  1.00  0.00     0.237 C 
BRANCH   2   3
ATOM      3  N   UNL     1     173.018 173.371 207.724  1.00  0.00    -0.350 N 
ATOM      4  H   UNL     1     172.452 174.252 207.729  1.00  0.00     0.345 HD
ATOM      5  H   UNL     1     173.294 173.156 208.710  1.00  0.00     0.345 HD
ATOM      6  H   UNL     1     173.882 173.520 207.152  1.00  0.00     0.345 HD
ENDBRANCH   2   3
BRANCH   2   7
ATOM      7  C   UNL     1     171.827 172.567 205.755  1.00  0.00     0.100 C 
ATOM      8  O   UNL     1     170.655 172.332 205.358  1.00  0.00    -0.544 OA
ATOM      9  O   UNL     1     172.758 173.093 204.866  1.00  0.00    -0.544 OA
ENDBRANCH   2   7
ENDBRANCH   1   2
BRANCH   1  10
ATOM     10  C   UNL     1     173.433 170.648 208.675  1.00  0.00     0.223 C 
ATOM     11  O   UNL     1     172.697 170.990 209.639  1.00  0.00    -0.275 OA
ATOM     12  N   UNL     1     174.653 169.950 208.930  1.00  0.00    -0.369 N 
ATOM     13  H   UNL     1     174.942 169.736 209.911  1.00  0.00     0.159 HD
ATOM     14  H   UNL     1     175.266 169.643 208.143  1.00  0.00     0.159 HD
ENDBRANCH   1  10
TORSDOF 4
ENDMDL
MODEL 6
REMARK VINA RESULT:    -4.506      2.551      4.160
REMARK INTER + INTRA:          -5.636
REMARK INTER:                  -5.380
REMARK INTRA:                  -0.256
REMARK UNBOUND:                -0.208
REMARK SMILES NC(=O)C[C@@H]([NH3+])C(=O)[O-]
REMARK SMILES IDX 4 1 5 2 6 3 7 7 8 8 9 9 2 10 3 11 1 12
REMARK H PARENT 6 4 6 5 6 6 1 13 1 14
REMARK Flexibility Score: inf
ROOT
ATOM      1  C   UNL     1     170.346 172.720 207.501  1.00  0.00     0.171 C 
ENDROOT
BRANCH   1   2
ATOM      2  C   UNL     1     171.282 171.494 207.497  1.00  0.00     0.237 C 
BRANCH   2   3
ATOM      3  N   UNL     1     170.535 170.278 207.837  1.00  0.00    -0.350 N 
ATOM      4  H   UNL     1     170.805 169.950 208.793  1.00  0.00     0.345 HD
ATOM      5  H   UNL     1     169.508 170.482 207.841  1.00  0.00     0.345 HD
ATOM      6  H   UNL     1     170.730 169.518 207.144  1.00  0.00     0.345 HD
ENDBRANCH   2   3
BRANCH   2   7
ATOM      7  C   UNL     1     171.950 171.332 206.156  1.00  0.00     0.100 C 
ATOM      8  O   UNL     1     173.130 170.898 206.084  1.00  0.00    -0.544 OA
ATOM      9  O   UNL     1     171.274 171.672 204.989  1.00  0.00    -0.544 OA
ENDBRANCH   2   7
ENDBRANCH   1   2
BRANCH   1  10
ATOM     10  C   UNL     1     169.880 173.054 208.889  1.00  0.00     0.223 C 
ATOM     11  O   UNL     1     170.562 172.685 209.883  1.00  0.00    -0.275 OA
ATOM     12  N   UNL     1     168.692 173.820 209.092  1.00  0.00    -0.369 N 
ATOM     13  H   UNL     1     168.380 174.062 210.059  1.00  0.00     0.159 HD
ATOM     14  H   UNL     1     168.125 174.150 208.279  1.00  0.00     0.159 HD
ENDBRANCH   1  10
TORSDOF 4
ENDMDL
MODEL 7
REMARK VINA RESULT:    -4.384      2.517      2.942
REMARK INTER + INTRA:          -5.489
REMARK INTER:                  -5.021
REMARK INTRA:                  -0.467
REMARK UNBOUND:                -0.208
REMARK SMILES NC(=O)C[C@@H]([NH3+])C(=O)[O-]
REMARK SMILES IDX 4 1 5 2 6 3 7 7 8 8 9 9 2 10 3 11 1 12
REMARK H PARENT 6 4 6 5 6 6 1 13 1 14
REMARK Flexibility Score: inf
ROOT
ATOM      1  C   UNL     1     170.618 172.078 209.050  1.00  0.00     0.171 C 
ENDROOT
BRANCH   1   2
ATOM      2  C   UNL     1     172.058 172.334 209.540  1.00  0.00     0.237 C 
BRANCH   2   3
ATOM      3  N   UNL     1     172.734 171.064 209.831  1.00  0.00    -0.350 N 
ATOM      4  H   UNL     1     173.472 170.882 209.112  1.00  0.00     0.345 HD
ATOM      5  H   UNL     1     173.197 171.116 210.768  1.00  0.00     0.345 HD
ATOM      6  H   UNL     1     172.050 170.273 209.831  1.00  0.00     0.345 HD
ENDBRANCH   2   3
BRANCH   2   7
ATOM      7  C   UNL     1     172.844 173.115 208.517  1.00  0.00     0.100 C 
ATOM      8  O   UNL     1     173.533 174.107 208.871  1.00  0.00    -0.544 OA
ATOM      9  O   UNL     1     172.804 172.752 207.175  1.00  0.00    -0.544 OA
ENDBRANCH   2   7
ENDBRANCH   1   2
BRANCH   1  10
ATOM     10  C   UNL     1     170.493 170.741 208.378  1.00  0.00     0.223 C 
ATOM     11  O   UNL     1     170.145 169.734 209.050  1.00  0.00    -0.275 OA
ATOM     12  N   UNL     1     170.729 170.608 206.976  1.00  0.00    -0.369 N 
ATOM     13  H   UNL     1     170.626 169.679 206.510  1.00  0.00     0.159 HD
ATOM     14  H   UNL     1     171.000 171.436 206.400  1.00  0.00     0.159 HD
ENDBRANCH   1  10
TORSDOF 4
ENDMDL
MODEL 8
REMARK VINA RESULT:    -4.367      1.907      3.768
REMARK INTER + INTRA:          -5.468
REMARK INTER:                  -4.997
REMARK INTRA:                  -0.472
REMARK UNBOUND:                -0.208
REMARK SMILES NC(=O)C[C@@H]([NH3+])C(=O)[O-]
REMARK SMILES IDX 4 1 5 2 6 3 7 7 8 8 9 9 2 10 3 11 1 12
REMARK H PARENT 6 4 6 5 6 6 1 13 1 14
REMARK Flexibility Score: inf
ROOT
ATOM      1  C   UNL     1     170.535 171.239 208.472  1.00  0.00     0.171 C 
ENDROOT
BRANCH   1   2
ATOM      2  C   UNL     1     171.940 171.356 207.846  1.00  0.00     0.237 C 
BRANCH   2   3
ATOM      3  N   UNL     1     172.205 172.741 207.438  1.00  0.00    -0.350 N 
ATOM      4  H   UNL     1     171.308 173.212 207.175  1.00  0.00     0.345 HD
ATOM      5  H   UNL     1     172.628 173.270 208.236  1.00  0.00     0.345 HD
ATOM      6  H   UNL     1     172.861 172.768 206.623  1.00  0.00     0.345 HD
ENDBRANCH   2   3
BRANCH   2   7
ATOM      7  C   UNL     1     173.000 170.890 208.810  1.00  0.00     0.100 C 
ATOM      8  O   UNL     1     174.068 170.381 208.379  1.00  0.00    -0.544 OA
ATOM      9  O   UNL     1     172.802 171.006 210.182  1.00  0.00    -0.544 OA
ENDBRANCH   2   7
ENDBRANCH   1   2
BRANCH   1  10
ATOM     10  C   UNL     1     170.095 172.536 209.087  1.00  0.00     0.223 C 
ATOM     11  O   UNL     1     169.420 173.353 208.406  1.00  0.00    -0.275 OA
ATOM     12  N   UNL     1     170.401 172.835 210.449  1.00  0.00    -0.369 N 
ATOM     13  H   UNL     1     170.080 173.732 210.877  1.00  0.00     0.159 HD
ATOM     14  H   UNL     1     170.943 172.160 211.034  1.00  0.00     0.159 HD
ENDBRANCH   1  10
TORSDOF 4
ENDMDL
MODEL 9
REMARK VINA RESULT:    -4.256      2.080      2.777
REMARK INTER + INTRA:          -5.335
REMARK INTER:                  -4.829
REMARK INTRA:                  -0.505
REMARK UNBOUND:                -0.208
REMARK SMILES NC(=O)C[C@@H]([NH3+])C(=O)[O-]
REMARK SMILES IDX 4 1 5 2 6 3 7 7 8 8 9 9 2 10 3 11 1 12
REMARK H PARENT 6 4 6 5 6 6 1 13 1 14
REMARK Flexibility Score: inf
ROOT
ATOM      1  C   UNL     1     172.371 171.464 207.332  1.00  0.00     0.171 C 
ENDROOT
BRANCH   1   2
ATOM      2  C   UNL     1     172.752 172.293 208.576  1.00  0.00     0.237 C 
BRANCH   2   3
ATOM      3  N   UNL     1     173.167 173.645 208.182  1.00  0.00    -0.350 N 
ATOM      4  H   UNL     1     173.473 174.183 209.026  1.00  0.00     0.345 HD
ATOM      5  H   UNL     1     173.977 173.588 207.521  1.00  0.00     0.345 HD
ATOM      6  H   UNL     1     172.380 174.153 207.716  1.00  0.00     0.345 HD
ENDBRANCH   2   3
BRANCH   2   7
ATOM      7  C   UNL     1     171.601 172.369 209.545  1.00  0.00     0.100 C 
ATOM      8  O   UNL     1     171.676 171.795 210.664  1.00  0.00    -0.544 OA
ATOM      9  O   UNL     1     170.443 173.061 209.208  1.00  0.00    -0.544 OA
ENDBRANCH   2   7
ENDBRANCH   1   2
BRANCH   1  10
ATOM     10  C   UNL     1     171.847 172.334 206.227  1.00  0.00     0.223 C 
ATOM     11  O   UNL     1     172.633 172.758 205.339  1.00  0.00    -0.275 OA
ATOM     12  N   UNL     1     170.457 172.655 206.152  1.00  0.00    -0.369 N 
ATOM     13  H   UNL     1     170.095 173.249 205.373  1.00  0.00     0.159 HD
ATOM     14  H   UNL     1     169.788 172.296 206.869  1.00  0.00     0.159 HD
ENDBRANCH   1  10
TORSDOF 4
ENDMDL
