MODEL 1
REMARK VINA RESULT:     0.000      0.000      0.000
REMARK INTER + INTRA:          -1.532
REMARK INTER:                   0.000
REMARK INTRA:                  -1.532
REMARK UNBOUND:                -1.532
REMARK SMILES CCCCCCCCCCC(=O)[O-]
REMARK SMILES IDX 7 1 8 2 9 3 10 4 11 5 12 6 13 7 6 8 5 9 4 10 3 11 2 12 1 13
REMARK H PARENT
REMARK Flexibility Score: inf
ROOT
ATOM      1  C   UNL     1     172.289 189.387 186.310  1.00  0.00     0.000 C 
ENDROOT
BRANCH   1   2
ATOM      2  C   UNL     1     173.437 188.841 185.446  1.00  0.00     0.000 C 
BRANCH   2   3
ATOM      3  C   UNL     1     173.037 187.584 184.652  1.00  0.00     0.006 C 
BRANCH   3   4
ATOM      4  C   UNL     1     173.128 187.804 183.137  1.00  0.00     0.053 C 
BRANCH   4   5
ATOM      5  C   UNL     1     171.828 187.509 182.454  1.00  0.00     0.041 C 
ATOM      6  O   UNL     1     170.940 186.842 183.044  1.00  0.00    -0.550 OA
ATOM      7  O   UNL     1     171.585 188.003 181.178  1.00  0.00    -0.550 OA
ENDBRANCH   4   5
ENDBRANCH   3   4
ENDBRANCH   2   3
ENDBRANCH   1   2
BRANCH   1   8
ATOM      8  C   UNL     1     170.983 188.594 186.124  1.00  0.00     0.000 C 
BRANCH   8   9
ATOM      9  C   UNL     1     169.884 189.407 185.418  1.00  0.00    -0.000 C 
BRANCH   9  10
ATOM     10  C   UNL     1     170.334 190.770 184.861  1.00  0.00    -0.000 C 
BRANCH  10  11
ATOM     11  C   UNL     1     170.410 190.796 183.327  1.00  0.00    -0.000 C 
BRANCH  11  12
ATOM     12  C   UNL     1     171.790 191.266 182.855  1.00  0.00    -0.003 C 
ATOM     13  C   UNL     1     172.442 192.186 183.884  1.00  0.00     0.004 C 
ENDBRANCH  11  12
ENDBRANCH  10  11
ENDBRANCH   9  10
ENDBRANCH   8   9
ENDBRANCH   1   8
TORSDOF 9
ENDMDL
MODEL 2
REMARK VINA RESULT:     0.000      3.219      4.709
REMARK INTER + INTRA:          -1.532
REMARK INTER:                   0.000
REMARK INTRA:                  -1.532
REMARK UNBOUND:                -1.532
REMARK SMILES CCCCCCCCCCC(=O)[O-]
REMARK SMILES IDX 7 1 8 2 9 3 10 4 11 5 12 6 13 7 6 8 5 9 4 10 3 11 2 12 1 13
REMARK H PARENT
REMARK Flexibility Score: inf
ROOT
ATOM      1  C   UNL     1     169.836 189.666 184.078  1.00  0.00     0.000 C 
ENDROOT
BRANCH   1   2
ATOM      2  C   UNL     1     169.043 189.511 185.386  1.00  0.00     0.000 C 
BRANCH   2   3
ATOM      3  C   UNL     1     169.943 189.188 186.592  1.00  0.00     0.006 C 
BRANCH   3   4
ATOM      4  C   UNL     1     169.874 190.274 187.673  1.00  0.00     0.053 C 
BRANCH   4   5
ATOM      5  C   UNL     1     171.225 190.845 187.976  1.00  0.00     0.041 C 
ATOM      6  O   UNL     1     172.265 190.212 187.657  1.00  0.00    -0.550 OA
ATOM      7  O   UNL     1     171.335 192.092 188.579  1.00  0.00    -0.550 OA
ENDBRANCH   4   5
ENDBRANCH   3   4
ENDBRANCH   2   3
ENDBRANCH   1   2
BRANCH   1   8
ATOM      8  C   UNL     1     171.355 189.554 184.293  1.00  0.00     0.000 C 
BRANCH   8   9
ATOM      9  C   UNL     1     172.089 190.891 184.086  1.00  0.00    -0.000 C 
BRANCH   9  10
ATOM     10  C   UNL     1     171.177 192.110 183.854  1.00  0.00    -0.000 C 
BRANCH  10  11
ATOM     11  C   UNL     1     171.161 193.082 185.043  1.00  0.00    -0.000 C 
BRANCH  11  12
ATOM     12  C   UNL     1     169.729 193.324 185.533  1.00  0.00    -0.003 C 
ATOM     13  C   UNL     1     168.725 193.200 184.390  1.00  0.00     0.004 C 
ENDBRANCH  11  12
ENDBRANCH  10  11
ENDBRANCH   9  10
ENDBRANCH   8   9
ENDBRANCH   1   8
TORSDOF 9
ENDMDL
MODEL 3
REMARK VINA RESULT:     0.001      7.623      9.169
REMARK INTER + INTRA:          -1.531
REMARK INTER:                   0.000
REMARK INTRA:                  -1.531
REMARK UNBOUND:                -1.532
REMARK SMILES CCCCCCCCCCC(=O)[O-]
REMARK SMILES IDX 7 1 8 2 9 3 10 4 11 5 12 6 13 7 6 8 5 9 4 10 3 11 2 12 1 13
REMARK H PARENT
REMARK Flexibility Score: inf
ROOT
ATOM      1  C   UNL     1     170.549 186.176 189.914  1.00  0.00     0.000 C 
ENDROOT
BRANCH   1   2
ATOM      2  C   UNL     1     171.310 187.042 190.932  1.00  0.00     0.000 C 
BRANCH   2   3
ATOM      3  C   UNL     1     171.197 186.506 192.370  1.00  0.00     0.006 C 
BRANCH   3   4
ATOM      4  C   UNL     1     172.561 186.112 192.950  1.00  0.00     0.053 C 
BRANCH   4   5
ATOM      5  C   UNL     1     172.577 184.689 193.417  1.00  0.00     0.041 C 
ATOM      6  O   UNL     1     171.496 184.074 193.609  1.00  0.00    -0.550 OA
ATOM      7  O   UNL     1     173.786 184.032 193.606  1.00  0.00    -0.550 OA
ENDBRANCH   4   5
ENDBRANCH   3   4
ENDBRANCH   2   3
ENDBRANCH   1   2
BRANCH   1   8
ATOM      8  C   UNL     1     169.907 184.936 190.559  1.00  0.00     0.000 C 
BRANCH   8   9
ATOM      9  C   UNL     1     170.566 183.619 190.113  1.00  0.00    -0.000 C 
BRANCH   9  10
ATOM     10  C   UNL     1     171.839 183.780 189.261  1.00  0.00    -0.000 C 
BRANCH  10  11
ATOM     11  C   UNL     1     173.118 183.382 190.012  1.00  0.00    -0.000 C 
BRANCH  11  12
ATOM     12  C   UNL     1     174.147 184.519 189.983  1.00  0.00    -0.003 C 
ATOM     13  C   UNL     1     173.975 185.386 188.739  1.00  0.00     0.004 C 
ENDBRANCH  11  12
ENDBRANCH  10  11
ENDBRANCH   9  10
ENDBRANCH   8   9
ENDBRANCH   1   8
TORSDOF 9
ENDMDL
MODEL 4
REMARK VINA RESULT:     0.001     10.396     11.907
REMARK INTER + INTRA:          -1.531
REMARK INTER:                   0.000
REMARK INTRA:                  -1.531
REMARK UNBOUND:                -1.532
REMARK SMILES CCCCCCCCCCC(=O)[O-]
REMARK SMILES IDX 7 1 8 2 9 3 10 4 11 5 12 6 13 7 6 8 5 9 4 10 3 11 2 12 1 13
REMARK H PARENT
REMARK Flexibility Score: inf
ROOT
ATOM      1  C   UNL     1     162.679 196.052 191.972  1.00  0.00     0.000 C 
ENDROOT
BRANCH   1   2
ATOM      2  C   UNL     1     164.026 195.359 192.235  1.00  0.00     0.000 C 
BRANCH   2   3
ATOM      3  C   UNL     1     164.223 194.097 191.375  1.00  0.00     0.006 C 
BRANCH   3   4
ATOM      4  C   UNL     1     165.434 194.216 190.441  1.00  0.00     0.053 C 
BRANCH   4   5
ATOM      5  C   UNL     1     165.050 194.024 189.006  1.00  0.00     0.041 C 
ATOM      6  O   UNL     1     163.970 193.450 188.711  1.00  0.00    -0.550 OA
ATOM      7  O   UNL     1     165.869 194.511 187.995  1.00  0.00    -0.550 OA
ENDBRANCH   4   5
ENDBRANCH   3   4
ENDBRANCH   2   3
ENDBRANCH   1   2
BRANCH   1   8
ATOM      8  C   UNL     1     161.880 195.377 190.844  1.00  0.00     0.000 C 
BRANCH   8   9
ATOM      9  C   UNL     1     161.788 196.242 189.574  1.00  0.00    -0.000 C 
BRANCH   9  10
ATOM     10  C   UNL     1     162.617 197.540 189.605  1.00  0.00    -0.000 C 
BRANCH  10  11
ATOM     11  C   UNL     1     163.836 197.496 188.672  1.00  0.00    -0.000 C 
BRANCH  11  12
ATOM     12  C   UNL     1     165.128 197.787 189.444  1.00  0.00    -0.003 C 
ATOM     13  C   UNL     1     164.869 198.730 190.616  1.00  0.00     0.004 C 
ENDBRANCH  11  12
ENDBRANCH  10  11
ENDBRANCH   9  10
ENDBRANCH   8   9
ENDBRANCH   1   8
TORSDOF 9
ENDMDL
MODEL 5
REMARK VINA RESULT:     0.001      7.773      9.725
REMARK INTER + INTRA:          -1.530
REMARK INTER:                   0.000
REMARK INTRA:                  -1.530
REMARK UNBOUND:                -1.532
REMARK SMILES CCCCCCCCCCC(=O)[O-]
REMARK SMILES IDX 7 1 8 2 9 3 10 4 11 5 12 6 13 7 6 8 5 9 4 10 3 11 2 12 1 13
REMARK H PARENT
REMARK Flexibility Score: inf
ROOT
ATOM      1  C   UNL     1     162.113 185.257 184.976  1.00  0.00     0.000 C 
ENDROOT
BRANCH   1   2
ATOM      2  C   UNL     1     163.078 184.350 184.195  1.00  0.00     0.000 C 
BRANCH   2   3
ATOM      3  C   UNL     1     164.475 184.975 184.026  1.00  0.00     0.006 C 
BRANCH   3   4
ATOM      4  C   UNL     1     165.567 184.145 184.714  1.00  0.00     0.053 C 
BRANCH   4   5
ATOM      5  C   UNL     1     166.387 184.974 185.653  1.00  0.00     0.041 C 
ATOM      6  O   UNL     1     166.312 186.230 185.619  1.00  0.00    -0.550 OA
ATOM      7  O   UNL     1     167.209 184.358 186.589  1.00  0.00    -0.550 OA
ENDBRANCH   4   5
ENDBRANCH   3   4
ENDBRANCH   2   3
ENDBRANCH   1   2
BRANCH   1   8
ATOM      8  C   UNL     1     162.785 186.552 185.463  1.00  0.00     0.000 C 
BRANCH   8   9
ATOM      9  C   UNL     1     162.913 186.622 186.995  1.00  0.00    -0.000 C 
BRANCH   9  10
ATOM     10  C   UNL     1     162.616 185.305 187.737  1.00  0.00    -0.000 C 
BRANCH  10  11
ATOM     11  C   UNL     1     163.876 184.644 188.314  1.00  0.00    -0.000 C 
BRANCH  11  12
ATOM     12  C   UNL     1     163.959 183.170 187.904  1.00  0.00    -0.003 C 
ATOM     13  C   UNL     1     162.583 182.621 187.538  1.00  0.00     0.004 C 
ENDBRANCH  11  12
ENDBRANCH  10  11
ENDBRANCH   9  10
ENDBRANCH   8   9
ENDBRANCH   1   8
TORSDOF 9
ENDMDL
MODEL 6
REMARK VINA RESULT:     0.002      3.947      5.422
REMARK INTER + INTRA:          -1.529
REMARK INTER:                   0.000
REMARK INTRA:                  -1.529
REMARK UNBOUND:                -1.532
REMARK SMILES CCCCCCCCCCC(=O)[O-]
REMARK SMILES IDX 7 1 8 2 9 3 10 4 11 5 12 6 13 7 6 8 5 9 4 10 3 11 2 12 1 13
REMARK H PARENT
REMARK Flexibility Score: inf
ROOT
ATOM      1  C   UNL     1     170.099 187.693 184.851  1.00  0.00     0.000 C 
ENDROOT
BRANCH   1   2
ATOM      2  C   UNL     1     170.636 186.325 185.303  1.00  0.00     0.000 C 
BRANCH   2   3
ATOM      3  C   UNL     1     169.646 185.179 185.029  1.00  0.00     0.006 C 
BRANCH   3   4
ATOM      4  C   UNL     1     169.190 184.487 186.321  1.00  0.00     0.053 C 
BRANCH   4   5
ATOM      5  C   UNL     1     167.702 184.533 186.482  1.00  0.00     0.041 C 
ATOM      6  O   UNL     1     166.963 184.719 185.481  1.00  0.00    -0.550 OA
ATOM      7  O   UNL     1     167.130 184.335 187.733  1.00  0.00    -0.550 OA
ENDBRANCH   4   5
ENDBRANCH   3   4
ENDBRANCH   2   3
ENDBRANCH   1   2
BRANCH   1   8
ATOM      8  C   UNL     1     168.658 187.614 184.318  1.00  0.00     0.000 C 
BRANCH   8   9
ATOM      9  C   UNL     1     167.637 188.298 185.243  1.00  0.00    -0.000 C 
BRANCH   9  10
ATOM     10  C   UNL     1     168.204 188.803 186.583  1.00  0.00    -0.000 C 
BRANCH  10  11
ATOM     11  C   UNL     1     167.721 187.981 187.787  1.00  0.00    -0.000 C 
BRANCH  11  12
ATOM     12  C   UNL     1     168.908 187.434 188.589  1.00  0.00    -0.003 C 
ATOM     13  C   UNL     1     170.113 188.366 188.496  1.00  0.00     0.004 C 
ENDBRANCH  11  12
ENDBRANCH  10  11
ENDBRANCH   9  10
ENDBRANCH   8   9
ENDBRANCH   1   8
TORSDOF 9
ENDMDL
MODEL 7
REMARK VINA RESULT:     0.003      9.717     11.286
REMARK INTER + INTRA:          -1.529
REMARK INTER:                   0.000
REMARK INTRA:                  -1.529
REMARK UNBOUND:                -1.532
REMARK SMILES CCCCCCCCCCC(=O)[O-]
REMARK SMILES IDX 7 1 8 2 9 3 10 4 11 5 12 6 13 7 6 8 5 9 4 10 3 11 2 12 1 13
REMARK H PARENT
REMARK Flexibility Score: inf
ROOT
ATOM      1  C   UNL     1     165.722 191.201 189.857  1.00  0.00     0.000 C 
ENDROOT
BRANCH   1   2
ATOM      2  C   UNL     1     164.950 189.872 189.814  1.00  0.00     0.000 C 
BRANCH   2   3
ATOM      3  C   UNL     1     164.439 189.437 191.199  1.00  0.00     0.006 C 
BRANCH   3   4
ATOM      4  C   UNL     1     162.907 189.373 191.256  1.00  0.00     0.053 C 
BRANCH   4   5
ATOM      5  C   UNL     1     162.360 190.160 192.407  1.00  0.00     0.041 C 
ATOM      6  O   UNL     1     163.132 190.594 193.301  1.00  0.00    -0.550 OA
ATOM      7  O   UNL     1     161.002 190.444 192.473  1.00  0.00    -0.550 OA
ENDBRANCH   4   5
ENDBRANCH   3   4
ENDBRANCH   2   3
ENDBRANCH   1   2
BRANCH   1   8
ATOM      8  C   UNL     1     165.760 191.815 191.266  1.00  0.00     0.000 C 
BRANCH   8   9
ATOM      9  C   UNL     1     164.986 193.142 191.364  1.00  0.00    -0.000 C 
BRANCH   9  10
ATOM     10  C   UNL     1     164.056 193.445 190.174  1.00  0.00    -0.000 C 
BRANCH  10  11
ATOM     11  C   UNL     1     162.568 193.290 190.521  1.00  0.00    -0.000 C 
BRANCH  11  12
ATOM     12  C   UNL     1     161.844 192.448 189.464  1.00  0.00    -0.003 C 
ATOM     13  C   UNL     1     162.646 192.381 188.168  1.00  0.00     0.004 C 
ENDBRANCH  11  12
ENDBRANCH  10  11
ENDBRANCH   9  10
ENDBRANCH   8   9
ENDBRANCH   1   8
TORSDOF 9
ENDMDL
MODEL 8
REMARK VINA RESULT:     0.003      2.361      4.298
REMARK INTER + INTRA:          -1.528
REMARK INTER:                   0.000
REMARK INTRA:                  -1.528
REMARK UNBOUND:                -1.532
REMARK SMILES CCCCCCCCCCC(=O)[O-]
REMARK SMILES IDX 7 1 8 2 9 3 10 4 11 5 12 6 13 7 6 8 5 9 4 10 3 11 2 12 1 13
REMARK H PARENT
REMARK Flexibility Score: inf
ROOT
ATOM      1  C   UNL     1     171.910 186.544 185.806  1.00  0.00     0.000 C 
ENDROOT
BRANCH   1   2
ATOM      2  C   UNL     1     170.480 187.025 186.102  1.00  0.00     0.000 C 
BRANCH   2   3
ATOM      3  C   UNL     1     170.157 188.373 185.434  1.00  0.00     0.006 C 
BRANCH   3   4
ATOM      4  C   UNL     1     171.368 188.958 184.695  1.00  0.00     0.053 C 
BRANCH   4   5
ATOM      5  C   UNL     1     170.961 189.690 183.453  1.00  0.00     0.041 C 
ATOM      6  O   UNL     1     171.709 189.685 182.441  1.00  0.00    -0.550 OA
ATOM      7  O   UNL     1     169.739 190.349 183.402  1.00  0.00    -0.550 OA
ENDBRANCH   4   5
ENDBRANCH   3   4
ENDBRANCH   2   3
ENDBRANCH   1   2
BRANCH   1   8
ATOM      8  C   UNL     1     171.974 185.039 185.495  1.00  0.00     0.000 C 
BRANCH   8   9
ATOM      9  C   UNL     1     171.592 184.710 184.041  1.00  0.00    -0.000 C 
BRANCH   9  10
ATOM     10  C   UNL     1     172.118 185.702 182.986  1.00  0.00    -0.000 C 
BRANCH  10  11
ATOM     11  C   UNL     1     171.019 186.215 182.045  1.00  0.00    -0.000 C 
BRANCH  11  12
ATOM     12  C   UNL     1     169.627 185.911 182.610  1.00  0.00    -0.003 C 
ATOM     13  C   UNL     1     168.638 187.024 182.274  1.00  0.00     0.004 C 
ENDBRANCH  11  12
ENDBRANCH  10  11
ENDBRANCH   9  10
ENDBRANCH   8   9
ENDBRANCH   1   8
TORSDOF 9
ENDMDL
MODEL 9
REMARK VINA RESULT:     0.003      4.019      5.591
REMARK INTER + INTRA:          -1.527
REMARK INTER:                   0.000
REMARK INTRA:                  -1.527
REMARK UNBOUND:                -1.532
REMARK SMILES CCCCCCCCCCC(=O)[O-]
REMARK SMILES IDX 7 1 8 2 9 3 10 4 11 5 12 6 13 7 6 8 5 9 4 10 3 11 2 12 1 13
REMARK H PARENT
REMARK Flexibility Score: inf
ROOT
ATOM      1  C   UNL     1     171.180 193.174 183.077  1.00  0.00     0.000 C 
ENDROOT
BRANCH   1   2
ATOM      2  C   UNL     1     170.321 191.935 182.774  1.00  0.00     0.000 C 
BRANCH   2   3
ATOM      3  C   UNL     1     169.743 191.947 181.348  1.00  0.00     0.006 C 
BRANCH   3   4
ATOM      4  C   UNL     1     170.105 193.230 180.588  1.00  0.00     0.053 C 
BRANCH   4   5
ATOM      5  C   UNL     1     170.327 192.969 179.130  1.00  0.00     0.041 C 
ATOM      6  O   UNL     1     171.183 193.633 178.491  1.00  0.00    -0.550 OA
ATOM      7  O   UNL     1     169.612 191.967 178.486  1.00  0.00    -0.550 OA
ENDBRANCH   4   5
ENDBRANCH   3   4
ENDBRANCH   2   3
ENDBRANCH   1   2
BRANCH   1   8
ATOM      8  C   UNL     1     172.470 192.825 183.838  1.00  0.00     0.000 C 
BRANCH   8   9
ATOM      9  C   UNL     1     173.574 192.267 182.923  1.00  0.00    -0.000 C 
BRANCH   9  10
ATOM     10  C   UNL     1     173.723 192.981 181.567  1.00  0.00    -0.000 C 
BRANCH  10  11
ATOM     11  C   UNL     1     173.733 192.011 180.376  1.00  0.00    -0.000 C 
BRANCH  11  12
ATOM     12  C   UNL     1     173.248 190.619 180.799  1.00  0.00    -0.003 C 
ATOM     13  C   UNL     1     172.447 189.952 179.684  1.00  0.00     0.004 C 
ENDBRANCH  11  12
ENDBRANCH  10  11
ENDBRANCH   9  10
ENDBRANCH   8   9
ENDBRANCH   1   8
TORSDOF 9
ENDMDL
