MODEL 1
REMARK VINA RESULT:    -2.331      0.000      0.000
REMARK INTER + INTRA:          -2.331
REMARK INTER:                  -2.331
REMARK INTRA:                   0.000
REMARK UNBOUND:                 0.000
REMARK SMILES CC(=O)[O-]
REMARK SMILES IDX 1 1 2 2 3 3 4 4
REMARK H PARENT
REMARK Flexibility Score: inf
ROOT
ATOM      1  C   UNL     1      68.402  50.804  18.463  1.00  0.00     0.063 C 
ATOM      2  C   UNL     1      67.016  50.580  18.966  1.00  0.00     0.038 C 
ATOM      3  O   UNL     1      66.731  49.516  19.576  1.00  0.00    -0.550 OA
ATOM      4  O   UNL     1      66.051  51.567  18.811  1.00  0.00    -0.550 OA
ENDROOT
TORSDOF 0
ENDMDL
MODEL 2
REMARK VINA RESULT:    -2.287     11.751     12.081
REMARK INTER + INTRA:          -2.287
REMARK INTER:                  -2.287
REMARK INTRA:                   0.000
REMARK UNBOUND:                 0.000
REMARK SMILES CC(=O)[O-]
REMARK SMILES IDX 1 1 2 2 3 3 4 4
REMARK H PARENT
REMARK Flexibility Score: inf
ROOT
ATOM      1  C   UNL     1      66.576  41.158  27.291  1.00  0.00     0.063 C 
ATOM      2  C   UNL     1      65.325  41.590  26.603  1.00  0.00     0.038 C 
ATOM      3  O   UNL     1      64.792  42.691  26.897  1.00  0.00    -0.550 OA
ATOM      4  O   UNL     1      64.776  40.803  25.598  1.00  0.00    -0.550 OA
ENDROOT
TORSDOF 0
ENDMDL
MODEL 3
REMARK VINA RESULT:    -2.280      1.360      1.766
REMARK INTER + INTRA:          -2.280
REMARK INTER:                  -2.280
REMARK INTRA:                   0.000
REMARK UNBOUND:                 0.000
REMARK SMILES CC(=O)[O-]
REMARK SMILES IDX 1 1 2 2 3 3 4 4
REMARK H PARENT
REMARK Flexibility Score: inf
ROOT
ATOM      1  C   UNL     1      66.183  51.603  18.656  1.00  0.00     0.063 C 
ATOM      2  C   UNL     1      67.138  50.494  18.940  1.00  0.00     0.038 C 
ATOM      3  O   UNL     1      66.753  49.474  19.570  1.00  0.00    -0.550 OA
ATOM      4  O   UNL     1      68.442  50.558  18.463  1.00  0.00    -0.550 OA
ENDROOT
TORSDOF 0
ENDMDL
MODEL 4
REMARK VINA RESULT:    -2.157      1.631      1.912
REMARK INTER + INTRA:          -2.157
REMARK INTER:                  -2.157
REMARK INTRA:                   0.000
REMARK UNBOUND:                 0.000
REMARK SMILES CC(=O)[O-]
REMARK SMILES IDX 1 1 2 2 3 3 4 4
REMARK H PARENT
REMARK Flexibility Score: inf
ROOT
ATOM      1  C   UNL     1      67.126  50.008  19.258  1.00  0.00     0.063 C 
ATOM      2  C   UNL     1      66.758  51.263  18.542  1.00  0.00     0.038 C 
ATOM      3  O   UNL     1      65.604  51.750  18.674  1.00  0.00    -0.550 OA
ATOM      4  O   UNL     1      67.704  51.928  17.772  1.00  0.00    -0.550 OA
ENDROOT
TORSDOF 0
ENDMDL
MODEL 5
REMARK VINA RESULT:    -2.110      2.381      2.927
REMARK INTER + INTRA:          -2.110
REMARK INTER:                  -2.110
REMARK INTRA:                   0.000
REMARK UNBOUND:                 0.000
REMARK SMILES CC(=O)[O-]
REMARK SMILES IDX 1 1 2 2 3 3 4 4
REMARK H PARENT
REMARK Flexibility Score: inf
ROOT
ATOM      1  C   UNL     1      67.491  50.381  18.970  1.00  0.00     0.063 C 
ATOM      2  C   UNL     1      68.910  50.839  19.011  1.00  0.00     0.038 C 
ATOM      3  O   UNL     1      69.381  51.520  18.063  1.00  0.00    -0.550 OA
ATOM      4  O   UNL     1      69.699  50.563  20.121  1.00  0.00    -0.550 OA
ENDROOT
TORSDOF 0
ENDMDL
MODEL 6
REMARK VINA RESULT:    -2.083     12.596     12.883
REMARK INTER + INTRA:          -2.083
REMARK INTER:                  -2.083
REMARK INTRA:                   0.000
REMARK UNBOUND:                 0.000
REMARK SMILES CC(=O)[O-]
REMARK SMILES IDX 1 1 2 2 3 3 4 4
REMARK H PARENT
REMARK Flexibility Score: inf
ROOT
ATOM      1  C   UNL     1      65.417  41.855  26.814  1.00  0.00     0.063 C 
ATOM      2  C   UNL     1      66.531  40.986  27.293  1.00  0.00     0.038 C 
ATOM      3  O   UNL     1      67.039  41.179  28.428  1.00  0.00    -0.550 OA
ATOM      4  O   UNL     1      66.975  39.928  26.509  1.00  0.00    -0.550 OA
ENDROOT
TORSDOF 0
ENDMDL
MODEL 7
REMARK VINA RESULT:    -2.030     11.848     12.137
REMARK INTER + INTRA:          -2.030
REMARK INTER:                  -2.030
REMARK INTRA:                   0.000
REMARK UNBOUND:                 0.000
REMARK SMILES CC(=O)[O-]
REMARK SMILES IDX 1 1 2 2 3 3 4 4
REMARK H PARENT
REMARK Flexibility Score: inf
ROOT
ATOM      1  C   UNL     1      64.717  42.678  26.796  1.00  0.00     0.063 C 
ATOM      2  C   UNL     1      65.321  41.371  26.409  1.00  0.00     0.038 C 
ATOM      3  O   UNL     1      64.772  40.659  25.527  1.00  0.00    -0.550 OA
ATOM      4  O   UNL     1      66.519  40.961  26.979  1.00  0.00    -0.550 OA
ENDROOT
TORSDOF 0
ENDMDL
MODEL 8
REMARK VINA RESULT:    -1.957      4.160      4.557
REMARK INTER + INTRA:          -1.957
REMARK INTER:                  -1.957
REMARK INTRA:                   0.000
REMARK UNBOUND:                 0.000
REMARK SMILES CC(=O)[O-]
REMARK SMILES IDX 1 1 2 2 3 3 4 4
REMARK H PARENT
REMARK Flexibility Score: inf
ROOT
ATOM      1  C   UNL     1      69.641  50.495  21.057  1.00  0.00     0.063 C 
ATOM      2  C   UNL     1      69.508  50.017  22.463  1.00  0.00     0.038 C 
ATOM      3  O   UNL     1      68.528  49.300  22.796  1.00  0.00    -0.550 OA
ATOM      4  O   UNL     1      70.492  50.317  23.397  1.00  0.00    -0.550 OA
ENDROOT
TORSDOF 0
ENDMDL
MODEL 9
REMARK VINA RESULT:    -1.943      2.407      2.609
REMARK INTER + INTRA:          -1.943
REMARK INTER:                  -1.943
REMARK INTRA:                   0.000
REMARK UNBOUND:                 0.000
REMARK SMILES CC(=O)[O-]
REMARK SMILES IDX 1 1 2 2 3 3 4 4
REMARK H PARENT
REMARK Flexibility Score: inf
ROOT
ATOM      1  C   UNL     1      69.635  50.764  20.010  1.00  0.00     0.063 C 
ATOM      2  C   UNL     1      69.096  50.991  18.638  1.00  0.00     0.038 C 
ATOM      3  O   UNL     1      68.064  50.379  18.256  1.00  0.00    -0.550 OA
ATOM      4  O   UNL     1      69.698  51.919  17.798  1.00  0.00    -0.550 OA
ENDROOT
TORSDOF 0
ENDMDL
