MODEL 1
REMARK VINA RESULT:    -4.970      0.000      0.000
REMARK INTER + INTRA:          -5.486
REMARK INTER:                  -5.405
REMARK INTRA:                  -0.080
REMARK UNBOUND:                -0.080
REMARK SMILES CC1=C[C@H]2[C@@H](C(C)C)CC[C@](C)(O)[C@@H]2CC1
REMARK SMILES IDX 1 1 2 2 3 3 4 4 5 5 9 6 10 7 11 8 14 9 15 10 16 11 12 12
REMARK SMILES IDX 6 13 7 14 8 15 13 16
REMARK H PARENT 13 17
REMARK Flexibility Score: inf
ROOT
ATOM      1  C   UNL     1     134.034 129.243 141.198  1.00  0.00     0.039 C 
ATOM      2  C   UNL     1     134.184 129.208 139.702  1.00  0.00    -0.077 C 
ATOM      3  C   UNL     1     133.533 128.257 139.000  1.00  0.00    -0.024 C 
ATOM      4  C   UNL     1     133.676 128.102 137.502  1.00  0.00     0.021 C 
ATOM      5  C   UNL     1     132.416 127.484 136.823  1.00  0.00    -0.001 C 
ATOM      6  C   UNL     1     132.674 127.308 135.306  1.00  0.00     0.007 C 
ATOM      7  C   UNL     1     133.194 128.579 134.622  1.00  0.00     0.035 C 
ATOM      8  C   UNL     1     134.480 129.129 135.286  1.00  0.00     0.065 C 
ATOM      9  C   UNL     1     134.195 129.392 136.802  1.00  0.00     0.028 C 
ATOM     10  C   UNL     1     135.408 129.923 137.594  1.00  0.00     0.011 C 
ATOM     11  C   UNL     1     134.978 130.301 139.017  1.00  0.00     0.031 C 
ATOM     12  C   UNL     1     134.869 130.431 134.546  1.00  0.00     0.042 C 
ENDROOT
BRANCH   5  13
ATOM     13  C   UNL     1     130.992 128.099 137.136  1.00  0.00    -0.014 C 
ATOM     14  C   UNL     1     130.110 128.200 135.878  1.00  0.00     0.007 C 
ATOM     15  C   UNL     1     130.191 127.429 138.261  1.00  0.00     0.007 C 
ENDBRANCH   5  13
BRANCH   8  16
ATOM     16  O   UNL     1     135.500 128.166 135.126  1.00  0.00    -0.390 OA
ATOM     17  H   UNL     1     136.100 128.210 135.914  1.00  0.00     0.211 HD
ENDBRANCH   8  16
TORSDOF 2
ENDMDL
MODEL 2
REMARK VINA RESULT:    -4.626      2.023      3.684
REMARK INTER + INTRA:          -5.112
REMARK INTER:                  -5.025
REMARK INTRA:                  -0.086
REMARK UNBOUND:                -0.080
REMARK SMILES CC1=C[C@H]2[C@@H](C(C)C)CC[C@](C)(O)[C@@H]2CC1
REMARK SMILES IDX 1 1 2 2 3 3 4 4 5 5 9 6 10 7 11 8 14 9 15 10 16 11 12 12
REMARK SMILES IDX 6 13 7 14 8 15 13 16
REMARK H PARENT 13 17
REMARK Flexibility Score: inf
ROOT
ATOM      1  C   UNL     1     135.618 129.705 139.971  1.00  0.00     0.039 C 
ATOM      2  C   UNL     1     134.465 129.115 139.207  1.00  0.00    -0.077 C 
ATOM      3  C   UNL     1     133.705 128.168 139.796  1.00  0.00    -0.024 C 
ATOM      4  C   UNL     1     132.568 127.470 139.083  1.00  0.00     0.021 C 
ATOM      5  C   UNL     1     131.445 126.980 140.047  1.00  0.00    -0.001 C 
ATOM      6  C   UNL     1     130.356 126.229 139.241  1.00  0.00     0.007 C 
ATOM      7  C   UNL     1     129.842 127.014 138.028  1.00  0.00     0.035 C 
ATOM      8  C   UNL     1     130.978 127.431 137.063  1.00  0.00     0.065 C 
ATOM      9  C   UNL     1     132.036 128.267 137.857  1.00  0.00     0.028 C 
ATOM     10  C   UNL     1     133.243 128.731 137.014  1.00  0.00     0.011 C 
ATOM     11  C   UNL     1     134.126 129.673 137.840  1.00  0.00     0.031 C 
ATOM     12  C   UNL     1     130.341 128.258 135.920  1.00  0.00     0.042 C 
ENDROOT
BRANCH   5  13
ATOM     13  C   UNL     1     130.839 127.991 141.102  1.00  0.00    -0.014 C 
ATOM     14  C   UNL     1     129.337 127.754 141.344  1.00  0.00     0.007 C 
ATOM     15  C   UNL     1     131.558 128.079 142.456  1.00  0.00     0.007 C 
ENDBRANCH   5  13
BRANCH   8  16
ATOM     16  O   UNL     1     131.557 126.257 136.537  1.00  0.00    -0.390 OA
ATOM     17  H   UNL     1     132.541 126.377 136.509  1.00  0.00     0.211 HD
ENDBRANCH   8  16
TORSDOF 2
ENDMDL
MODEL 3
REMARK VINA RESULT:    -4.619      8.558     10.885
REMARK INTER + INTRA:          -5.105
REMARK INTER:                  -5.065
REMARK INTRA:                  -0.040
REMARK UNBOUND:                -0.080
REMARK SMILES CC1=C[C@H]2[C@@H](C(C)C)CC[C@](C)(O)[C@@H]2CC1
REMARK SMILES IDX 1 1 2 2 3 3 4 4 5 5 9 6 10 7 11 8 14 9 15 10 16 11 12 12
REMARK SMILES IDX 6 13 7 14 8 15 13 16
REMARK H PARENT 13 17
REMARK Flexibility Score: inf
ROOT
ATOM      1  C   UNL     1     138.542 134.147 138.965  1.00  0.00     0.039 C 
ATOM      2  C   UNL     1     138.656 134.753 140.337  1.00  0.00    -0.077 C 
ATOM      3  C   UNL     1     137.922 135.846 140.633  1.00  0.00    -0.024 C 
ATOM      4  C   UNL     1     138.021 136.563 141.962  1.00  0.00     0.021 C 
ATOM      5  C   UNL     1     136.705 137.294 142.367  1.00  0.00    -0.001 C 
ATOM      6  C   UNL     1     136.916 138.046 143.704  1.00  0.00     0.007 C 
ATOM      7  C   UNL     1     137.511 137.168 144.812  1.00  0.00     0.035 C 
ATOM      8  C   UNL     1     138.847 136.507 144.396  1.00  0.00     0.065 C 
ATOM      9  C   UNL     1     138.616 135.673 143.092  1.00  0.00     0.028 C 
ATOM     10  C   UNL     1     139.881 134.976 142.550  1.00  0.00     0.011 C 
ATOM     11  C   UNL     1     139.511 134.060 141.378  1.00  0.00     0.031 C 
ATOM     12  C   UNL     1     139.312 135.611 145.569  1.00  0.00     0.042 C 
ENDROOT
BRANCH   5  13
ATOM     13  C   UNL     1     135.336 136.502 142.317  1.00  0.00    -0.014 C 
ATOM     14  C   UNL     1     134.581 136.722 140.993  1.00  0.00     0.007 C 
ATOM     15  C   UNL     1     135.407 134.997 142.612  1.00  0.00     0.007 C 
ENDBRANCH   5  13
BRANCH   8  16
ATOM     16  O   UNL     1     139.791 137.533 144.175  1.00  0.00    -0.390 OA
ATOM     17  H   UNL     1     139.317 138.404 144.183  1.00  0.00     0.211 HD
ENDBRANCH   8  16
TORSDOF 2
ENDMDL
MODEL 4
REMARK VINA RESULT:    -4.614      7.913     10.771
REMARK INTER + INTRA:          -5.099
REMARK INTER:                  -5.034
REMARK INTRA:                  -0.066
REMARK UNBOUND:                -0.080
REMARK SMILES CC1=C[C@H]2[C@@H](C(C)C)CC[C@](C)(O)[C@@H]2CC1
REMARK SMILES IDX 1 1 2 2 3 3 4 4 5 5 9 6 10 7 11 8 14 9 15 10 16 11 12 12
REMARK SMILES IDX 6 13 7 14 8 15 13 16
REMARK H PARENT 13 17
REMARK Flexibility Score: inf
ROOT
ATOM      1  C   UNL     1     136.072 133.676 139.349  1.00  0.00     0.039 C 
ATOM      2  C   UNL     1     136.980 134.532 140.190  1.00  0.00    -0.077 C 
ATOM      3  C   UNL     1     136.436 135.460 141.004  1.00  0.00    -0.024 C 
ATOM      4  C   UNL     1     137.271 136.411 141.835  1.00  0.00     0.021 C 
ATOM      5  C   UNL     1     136.557 136.878 143.140  1.00  0.00    -0.001 C 
ATOM      6  C   UNL     1     137.456 137.889 143.893  1.00  0.00     0.007 C 
ATOM      7  C   UNL     1     138.890 137.391 144.108  1.00  0.00     0.035 C 
ATOM      8  C   UNL     1     139.588 136.994 142.784  1.00  0.00     0.065 C 
ATOM      9  C   UNL     1     138.725 135.905 142.063  1.00  0.00     0.028 C 
ATOM     10  C   UNL     1     139.297 135.433 140.710  1.00  0.00     0.011 C 
ATOM     11  C   UNL     1     138.470 134.258 140.175  1.00  0.00     0.031 C 
ATOM     12  C   UNL     1     140.997 136.460 143.138  1.00  0.00     0.042 C 
ENDROOT
BRANCH   5  13
ATOM     13  C   UNL     1     135.916 135.794 144.098  1.00  0.00    -0.014 C 
ATOM     14  C   UNL     1     136.277 136.035 145.576  1.00  0.00     0.007 C 
ATOM     15  C   UNL     1     134.399 135.587 143.978  1.00  0.00     0.007 C 
ENDBRANCH   5  13
BRANCH   8  16
ATOM     16  O   UNL     1     139.703 138.152 141.987  1.00  0.00    -0.390 OA
ATOM     17  H   UNL     1     140.419 138.725 142.365  1.00  0.00     0.211 HD
ENDBRANCH   8  16
TORSDOF 2
ENDMDL
MODEL 5
REMARK VINA RESULT:    -4.570     12.428     14.724
REMARK INTER + INTRA:          -5.051
REMARK INTER:                  -4.982
REMARK INTRA:                  -0.069
REMARK UNBOUND:                -0.080
REMARK SMILES CC1=C[C@H]2[C@@H](C(C)C)CC[C@](C)(O)[C@@H]2CC1
REMARK SMILES IDX 1 1 2 2 3 3 4 4 5 5 9 6 10 7 11 8 14 9 15 10 16 11 12 12
REMARK SMILES IDX 6 13 7 14 8 15 13 16
REMARK H PARENT 13 17
REMARK Flexibility Score: inf
ROOT
ATOM      1  C   UNL     1     125.895 132.415 147.135  1.00  0.00     0.039 C 
ATOM      2  C   UNL     1     126.665 133.702 147.021  1.00  0.00    -0.077 C 
ATOM      3  C   UNL     1     125.998 134.872 147.096  1.00  0.00    -0.024 C 
ATOM      4  C   UNL     1     126.677 136.214 146.924  1.00  0.00     0.021 C 
ATOM      5  C   UNL     1     125.963 137.368 147.691  1.00  0.00    -0.001 C 
ATOM      6  C   UNL     1     126.688 138.708 147.412  1.00  0.00     0.007 C 
ATOM      7  C   UNL     1     128.203 138.643 147.646  1.00  0.00     0.035 C 
ATOM      8  C   UNL     1     128.886 137.525 146.822  1.00  0.00     0.065 C 
ATOM      9  C   UNL     1     128.213 136.156 147.170  1.00  0.00     0.028 C 
ATOM     10  C   UNL     1     128.786 134.950 146.396  1.00  0.00     0.011 C 
ATOM     11  C   UNL     1     128.176 133.649 146.929  1.00  0.00     0.031 C 
ATOM     12  C   UNL     1     130.390 137.528 147.186  1.00  0.00     0.042 C 
ENDROOT
BRANCH   5  13
ATOM     13  C   UNL     1     125.604 137.172 149.220  1.00  0.00    -0.014 C 
ATOM     14  C   UNL     1     125.586 138.504 149.992  1.00  0.00     0.007 C 
ATOM     15  C   UNL     1     124.314 136.396 149.525  1.00  0.00     0.007 C 
ENDBRANCH   5  13
BRANCH   8  16
ATOM     16  O   UNL     1     128.725 137.831 145.454  1.00  0.00    -0.390 OA
ATOM     17  H   UNL     1     128.883 137.006 144.926  1.00  0.00     0.211 HD
ENDBRANCH   8  16
TORSDOF 2
ENDMDL
MODEL 6
REMARK VINA RESULT:    -4.505      3.606      6.028
REMARK INTER + INTRA:          -4.980
REMARK INTER:                  -4.896
REMARK INTRA:                  -0.084
REMARK UNBOUND:                -0.080
REMARK SMILES CC1=C[C@H]2[C@@H](C(C)C)CC[C@](C)(O)[C@@H]2CC1
REMARK SMILES IDX 1 1 2 2 3 3 4 4 5 5 9 6 10 7 11 8 14 9 15 10 16 11 12 12
REMARK SMILES IDX 6 13 7 14 8 15 13 16
REMARK H PARENT 13 17
REMARK Flexibility Score: inf
ROOT
ATOM      1  C   UNL     1     133.598 127.708 137.313  1.00  0.00     0.039 C 
ATOM      2  C   UNL     1     133.089 127.932 138.711  1.00  0.00    -0.077 C 
ATOM      3  C   UNL     1     131.892 127.419 139.062  1.00  0.00    -0.024 C 
ATOM      4  C   UNL     1     131.269 127.650 140.422  1.00  0.00     0.021 C 
ATOM      5  C   UNL     1     130.321 126.495 140.869  1.00  0.00    -0.001 C 
ATOM      6  C   UNL     1     129.686 126.842 142.238  1.00  0.00     0.007 C 
ATOM      7  C   UNL     1     130.711 127.258 143.301  1.00  0.00     0.035 C 
ATOM      8  C   UNL     1     131.593 128.446 142.845  1.00  0.00     0.065 C 
ATOM      9  C   UNL     1     132.307 128.063 141.506  1.00  0.00     0.028 C 
ATOM     10  C   UNL     1     133.206 129.173 140.924  1.00  0.00     0.011 C 
ATOM     11  C   UNL     1     133.979 128.639 139.713  1.00  0.00     0.031 C 
ATOM     12  C   UNL     1     132.614 128.730 143.972  1.00  0.00     0.042 C 
ENDROOT
BRANCH   5  13
ATOM     13  C   UNL     1     130.836 125.001 140.793  1.00  0.00    -0.014 C 
ATOM     14  C   UNL     1     130.254 124.124 141.917  1.00  0.00     0.007 C 
ATOM     15  C   UNL     1     130.653 124.283 139.448  1.00  0.00     0.007 C 
ENDBRANCH   5  13
BRANCH   8  16
ATOM     16  O   UNL     1     130.756 129.567 142.665  1.00  0.00    -0.390 OA
ATOM     17  H   UNL     1     131.325 130.376 142.589  1.00  0.00     0.211 HD
ENDBRANCH   8  16
TORSDOF 2
ENDMDL
MODEL 7
REMARK VINA RESULT:    -4.462      9.424     11.505
REMARK INTER + INTRA:          -4.934
REMARK INTER:                  -4.855
REMARK INTRA:                  -0.078
REMARK UNBOUND:                -0.080
REMARK SMILES CC1=C[C@H]2[C@@H](C(C)C)CC[C@](C)(O)[C@@H]2CC1
REMARK SMILES IDX 1 1 2 2 3 3 4 4 5 5 9 6 10 7 11 8 14 9 15 10 16 11 12 12
REMARK SMILES IDX 6 13 7 14 8 15 13 16
REMARK H PARENT 13 17
REMARK Flexibility Score: inf
ROOT
ATOM      1  C   UNL     1     134.605 136.754 140.748  1.00  0.00     0.039 C 
ATOM      2  C   UNL     1     135.896 136.589 141.501  1.00  0.00    -0.077 C 
ATOM      3  C   UNL     1     135.956 136.978 142.791  1.00  0.00    -0.024 C 
ATOM      4  C   UNL     1     137.228 136.914 143.608  1.00  0.00     0.021 C 
ATOM      5  C   UNL     1     136.971 136.733 145.136  1.00  0.00    -0.001 C 
ATOM      6  C   UNL     1     138.320 136.737 145.896  1.00  0.00     0.007 C 
ATOM      7  C   UNL     1     139.353 135.763 145.315  1.00  0.00     0.035 C 
ATOM      8  C   UNL     1     139.627 136.012 143.812  1.00  0.00     0.065 C 
ATOM      9  C   UNL     1     138.276 135.920 143.028  1.00  0.00     0.028 C 
ATOM     10  C   UNL     1     138.402 136.173 141.511  1.00  0.00     0.011 C 
ATOM     11  C   UNL     1     137.060 135.897 140.822  1.00  0.00     0.031 C 
ATOM     12  C   UNL     1     140.635 134.939 143.335  1.00  0.00     0.042 C 
ENDROOT
BRANCH   5  13
ATOM     13  C   UNL     1     135.996 135.586 145.623  1.00  0.00    -0.014 C 
ATOM     14  C   UNL     1     136.394 135.026 147.001  1.00  0.00     0.007 C 
ATOM     15  C   UNL     1     134.497 135.921 145.629  1.00  0.00     0.007 C 
ENDBRANCH   5  13
BRANCH   8  16
ATOM     16  O   UNL     1     140.198 137.295 143.679  1.00  0.00    -0.390 OA
ATOM     17  H   UNL     1     140.158 137.750 144.560  1.00  0.00     0.211 HD
ENDBRANCH   8  16
TORSDOF 2
ENDMDL
MODEL 8
REMARK VINA RESULT:    -4.434      1.703      4.345
REMARK INTER + INTRA:          -4.903
REMARK INTER:                  -4.895
REMARK INTRA:                  -0.008
REMARK UNBOUND:                -0.080
REMARK SMILES CC1=C[C@H]2[C@@H](C(C)C)CC[C@](C)(O)[C@@H]2CC1
REMARK SMILES IDX 1 1 2 2 3 3 4 4 5 5 9 6 10 7 11 8 14 9 15 10 16 11 12 12
REMARK SMILES IDX 6 13 7 14 8 15 13 16
REMARK H PARENT 13 17
REMARK Flexibility Score: inf
ROOT
ATOM      1  C   UNL     1     131.856 126.997 139.242  1.00  0.00     0.039 C 
ATOM      2  C   UNL     1     132.798 127.766 138.357  1.00  0.00    -0.077 C 
ATOM      3  C   UNL     1     133.424 128.853 138.854  1.00  0.00    -0.024 C 
ATOM      4  C   UNL     1     134.335 129.727 138.020  1.00  0.00     0.021 C 
ATOM      5  C   UNL     1     135.440 130.442 138.857  1.00  0.00    -0.001 C 
ATOM      6  C   UNL     1     136.284 131.356 137.935  1.00  0.00     0.007 C 
ATOM      7  C   UNL     1     136.810 130.643 136.683  1.00  0.00     0.035 C 
ATOM      8  C   UNL     1     135.679 129.998 135.845  1.00  0.00     0.065 C 
ATOM      9  C   UNL     1     134.879 129.005 136.753  1.00  0.00     0.028 C 
ATOM     10  C   UNL     1     133.700 128.305 136.045  1.00  0.00     0.011 C 
ATOM     11  C   UNL     1     133.095 127.241 136.968  1.00  0.00     0.031 C 
ATOM     12  C   UNL     1     136.339 129.270 134.649  1.00  0.00     0.042 C 
ENDROOT
BRANCH   5  13
ATOM     13  C   UNL     1     136.325 129.589 139.853  1.00  0.00    -0.014 C 
ATOM     14  C   UNL     1     137.629 130.311 140.240  1.00  0.00     0.007 C 
ATOM     15  C   UNL     1     135.631 129.087 141.127  1.00  0.00     0.007 C 
ENDBRANCH   5  13
BRANCH   8  16
ATOM     16  O   UNL     1     134.842 131.031 135.372  1.00  0.00    -0.390 OA
ATOM     17  H   UNL     1     135.413 131.771 135.040  1.00  0.00     0.211 HD
ENDBRANCH   8  16
TORSDOF 2
ENDMDL
MODEL 9
REMARK VINA RESULT:    -4.398     12.228     14.557
REMARK INTER + INTRA:          -4.864
REMARK INTER:                  -4.837
REMARK INTRA:                  -0.027
REMARK UNBOUND:                -0.080
REMARK SMILES CC1=C[C@H]2[C@@H](C(C)C)CC[C@](C)(O)[C@@H]2CC1
REMARK SMILES IDX 1 1 2 2 3 3 4 4 5 5 9 6 10 7 11 8 14 9 15 10 16 11 12 12
REMARK SMILES IDX 6 13 7 14 8 15 13 16
REMARK H PARENT 13 17
REMARK Flexibility Score: inf
ROOT
ATOM      1  C   UNL     1     129.053 132.455 146.656  1.00  0.00     0.039 C 
ATOM      2  C   UNL     1     128.462 133.837 146.726  1.00  0.00    -0.077 C 
ATOM      3  C   UNL     1     127.135 133.973 146.926  1.00  0.00    -0.024 C 
ATOM      4  C   UNL     1     126.443 135.318 146.944  1.00  0.00     0.021 C 
ATOM      5  C   UNL     1     125.159 135.339 147.828  1.00  0.00    -0.001 C 
ATOM      6  C   UNL     1     124.486 136.731 147.739  1.00  0.00     0.007 C 
ATOM      7  C   UNL     1     125.450 137.894 148.007  1.00  0.00     0.035 C 
ATOM      8  C   UNL     1     126.682 137.875 147.070  1.00  0.00     0.065 C 
ATOM      9  C   UNL     1     127.415 136.501 147.224  1.00  0.00     0.028 C 
ATOM     10  C   UNL     1     128.657 136.337 146.323  1.00  0.00     0.011 C 
ATOM     11  C   UNL     1     129.388 135.035 146.672  1.00  0.00     0.031 C 
ATOM     12  C   UNL     1     127.597 139.056 147.475  1.00  0.00     0.042 C 
ENDROOT
BRANCH   5  13
ATOM     13  C   UNL     1     125.233 134.787 149.308  1.00  0.00    -0.014 C 
ATOM     14  C   UNL     1     124.950 133.275 149.383  1.00  0.00     0.007 C 
ATOM     15  C   UNL     1     126.518 135.097 150.090  1.00  0.00     0.007 C 
ENDBRANCH   5  13
BRANCH   8  16
ATOM     16  O   UNL     1     126.227 138.056 145.747  1.00  0.00    -0.390 OA
ATOM     17  H   UNL     1     126.250 137.179 145.284  1.00  0.00     0.211 HD
ENDBRANCH   8  16
TORSDOF 2
ENDMDL
