MODEL 1
REMARK VINA RESULT:     0.000      0.000      0.000
REMARK INTER + INTRA:          -1.525
REMARK INTER:                   0.000
REMARK INTRA:                  -1.525
REMARK UNBOUND:                -1.525
REMARK SMILES CCCCCCCCCCC(=O)[O-]
REMARK SMILES IDX 7 1 8 2 9 3 10 4 11 5 12 6 13 7 6 8 5 9 4 10 3 11 2 12 1 13
REMARK H PARENT
REMARK Flexibility Score: inf
ROOT
ATOM      1  C   UNL     1     179.388 181.334 174.782  1.00  0.00     0.000 C 
ENDROOT
BRANCH   1   2
ATOM      2  C   UNL     1     179.352 182.725 175.434  1.00  0.00     0.000 C 
BRANCH   2   3
ATOM      3  C   UNL     1     179.403 183.864 174.401  1.00  0.00     0.006 C 
BRANCH   3   4
ATOM      4  C   UNL     1     178.508 185.047 174.796  1.00  0.00     0.053 C 
BRANCH   4   5
ATOM      5  C   UNL     1     177.574 185.431 173.690  1.00  0.00     0.041 C 
ATOM      6  O   UNL     1     176.433 185.890 173.955  1.00  0.00    -0.550 OA
ATOM      7  O   UNL     1     177.950 185.247 172.365  1.00  0.00    -0.550 OA
ENDBRANCH   4   5
ENDBRANCH   3   4
ENDBRANCH   2   3
ENDBRANCH   1   2
BRANCH   1   8
ATOM      8  C   UNL     1     178.857 181.347 173.338  1.00  0.00     0.000 C 
BRANCH   8   9
ATOM      9  C   UNL     1     177.389 180.902 173.247  1.00  0.00    -0.000 C 
BRANCH   9  10
ATOM     10  C   UNL     1     176.473 182.004 172.685  1.00  0.00    -0.000 C 
BRANCH  10  11
ATOM     11  C   UNL     1     175.404 182.453 173.694  1.00  0.00    -0.000 C 
BRANCH  11  12
ATOM     12  C   UNL     1     175.662 181.910 175.108  1.00  0.00    -0.003 C 
ATOM     13  C   UNL     1     175.670 183.037 176.137  1.00  0.00     0.004 C 
ENDBRANCH  11  12
ENDBRANCH  10  11
ENDBRANCH   9  10
ENDBRANCH   8   9
ENDBRANCH   1   8
TORSDOF 9
ENDMDL
MODEL 2
REMARK VINA RESULT:     0.000      2.229      2.872
REMARK INTER + INTRA:          -1.525
REMARK INTER:                   0.000
REMARK INTRA:                  -1.525
REMARK UNBOUND:                -1.525
REMARK SMILES CCCCCCCCCCC(=O)[O-]
REMARK SMILES IDX 7 1 8 2 9 3 10 4 11 5 12 6 13 7 6 8 5 9 4 10 3 11 2 12 1 13
REMARK H PARENT
REMARK Flexibility Score: inf
ROOT
ATOM      1  C   UNL     1     180.930 181.051 175.949  1.00  0.00     0.000 C 
ENDROOT
BRANCH   1   2
ATOM      2  C   UNL     1     181.264 182.511 176.293  1.00  0.00     0.000 C 
BRANCH   2   3
ATOM      3  C   UNL     1     182.022 183.227 175.162  1.00  0.00     0.006 C 
BRANCH   3   4
ATOM      4  C   UNL     1     181.587 184.690 175.007  1.00  0.00     0.053 C 
BRANCH   4   5
ATOM      5  C   UNL     1     181.202 185.010 173.596  1.00  0.00     0.041 C 
ATOM      6  O   UNL     1     180.299 185.856 173.362  1.00  0.00    -0.550 OA
ATOM      7  O   UNL     1     181.814 184.346 172.539  1.00  0.00    -0.550 OA
ENDBRANCH   4   5
ENDBRANCH   3   4
ENDBRANCH   2   3
ENDBRANCH   1   2
BRANCH   1   8
ATOM      8  C   UNL     1     180.845 180.808 174.432  1.00  0.00     0.000 C 
BRANCH   8   9
ATOM      9  C   UNL     1     179.399 180.839 173.912  1.00  0.00    -0.000 C 
BRANCH   9  10
ATOM     10  C   UNL     1     179.166 181.963 172.887  1.00  0.00    -0.000 C 
BRANCH  10  11
ATOM     11  C   UNL     1     178.126 182.990 173.363  1.00  0.00    -0.000 C 
BRANCH  11  12
ATOM     12  C   UNL     1     177.769 182.822 174.848  1.00  0.00    -0.003 C 
ATOM     13  C   UNL     1     177.949 184.133 175.608  1.00  0.00     0.004 C 
ENDBRANCH  11  12
ENDBRANCH  10  11
ENDBRANCH   9  10
ENDBRANCH   8   9
ENDBRANCH   1   8
TORSDOF 9
ENDMDL
MODEL 3
REMARK VINA RESULT:     0.001      4.464      5.916
REMARK INTER + INTRA:          -1.524
REMARK INTER:                   0.000
REMARK INTRA:                  -1.524
REMARK UNBOUND:                -1.525
REMARK SMILES CCCCCCCCCCC(=O)[O-]
REMARK SMILES IDX 7 1 8 2 9 3 10 4 11 5 12 6 13 7 6 8 5 9 4 10 3 11 2 12 1 13
REMARK H PARENT
REMARK Flexibility Score: inf
ROOT
ATOM      1  C   UNL     1     179.667 179.616 176.511  1.00  0.00     0.000 C 
ENDROOT
BRANCH   1   2
ATOM      2  C   UNL     1     179.047 178.217 176.649  1.00  0.00     0.000 C 
BRANCH   2   3
ATOM      3  C   UNL     1     179.496 177.258 175.532  1.00  0.00     0.006 C 
BRANCH   3   4
ATOM      4  C   UNL     1     178.307 176.602 174.817  1.00  0.00     0.053 C 
BRANCH   4   5
ATOM      5  C   UNL     1     178.570 176.420 173.354  1.00  0.00     0.041 C 
ATOM      6  O   UNL     1     179.660 176.804 172.854  1.00  0.00    -0.550 OA
ATOM      7  O   UNL     1     177.598 175.858 172.535  1.00  0.00    -0.550 OA
ENDBRANCH   4   5
ENDBRANCH   3   4
ENDBRANCH   2   3
ENDBRANCH   1   2
BRANCH   1   8
ATOM      8  C   UNL     1     180.096 179.931 175.067  1.00  0.00     0.000 C 
BRANCH   8   9
ATOM      9  C   UNL     1     179.093 180.841 174.341  1.00  0.00    -0.000 C 
BRANCH   9  10
ATOM     10  C   UNL     1     178.466 180.162 173.110  1.00  0.00    -0.000 C 
BRANCH  10  11
ATOM     11  C   UNL     1     176.991 179.790 173.330  1.00  0.00    -0.000 C 
BRANCH  11  12
ATOM     12  C   UNL     1     176.436 180.336 174.654  1.00  0.00    -0.003 C 
ATOM     13  C   UNL     1     175.687 179.252 175.425  1.00  0.00     0.004 C 
ENDBRANCH  11  12
ENDBRANCH  10  11
ENDBRANCH   9  10
ENDBRANCH   8   9
ENDBRANCH   1   8
TORSDOF 9
ENDMDL
MODEL 4
REMARK VINA RESULT:     0.001      6.726      8.565
REMARK INTER + INTRA:          -1.523
REMARK INTER:                   0.000
REMARK INTRA:                  -1.523
REMARK UNBOUND:                -1.525
REMARK SMILES CCCCCCCCCCC(=O)[O-]
REMARK SMILES IDX 7 1 8 2 9 3 10 4 11 5 12 6 13 7 6 8 5 9 4 10 3 11 2 12 1 13
REMARK H PARENT
REMARK Flexibility Score: inf
ROOT
ATOM      1  C   UNL     1     178.075 181.657 180.554  1.00  0.00     0.000 C 
ENDROOT
BRANCH   1   2
ATOM      2  C   UNL     1     176.951 181.016 179.724  1.00  0.00     0.000 C 
BRANCH   2   3
ATOM      3  C   UNL     1     175.706 181.915 179.622  1.00  0.00     0.006 C 
BRANCH   3   4
ATOM      4  C   UNL     1     174.422 181.174 180.021  1.00  0.00     0.053 C 
BRANCH   4   5
ATOM      5  C   UNL     1     173.512 182.041 180.836  1.00  0.00     0.041 C 
ATOM      6  O   UNL     1     173.860 183.211 181.144  1.00  0.00    -0.550 OA
ATOM      7  O   UNL     1     172.294 181.544 181.285  1.00  0.00    -0.550 OA
ENDBRANCH   4   5
ENDBRANCH   3   4
ENDBRANCH   2   3
ENDBRANCH   1   2
BRANCH   1   8
ATOM      8  C   UNL     1     177.536 182.553 181.683  1.00  0.00     0.000 C 
BRANCH   8   9
ATOM      9  C   UNL     1     177.456 181.817 183.030  1.00  0.00    -0.000 C 
BRANCH   9  10
ATOM     10  C   UNL     1     176.021 181.760 183.585  1.00  0.00    -0.000 C 
BRANCH  10  11
ATOM     11  C   UNL     1     175.426 180.344 183.536  1.00  0.00    -0.000 C 
BRANCH  11  12
ATOM     12  C   UNL     1     176.445 179.291 183.074  1.00  0.00    -0.003 C 
ATOM     13  C   UNL     1     175.827 178.335 182.059  1.00  0.00     0.004 C 
ENDBRANCH  11  12
ENDBRANCH  10  11
ENDBRANCH   9  10
ENDBRANCH   8   9
ENDBRANCH   1   8
TORSDOF 9
ENDMDL
MODEL 5
REMARK VINA RESULT:     0.001     10.481     12.079
REMARK INTER + INTRA:          -1.523
REMARK INTER:                   0.000
REMARK INTRA:                  -1.523
REMARK UNBOUND:                -1.525
REMARK SMILES CCCCCCCCCCC(=O)[O-]
REMARK SMILES IDX 7 1 8 2 9 3 10 4 11 5 12 6 13 7 6 8 5 9 4 10 3 11 2 12 1 13
REMARK H PARENT
REMARK Flexibility Score: inf
ROOT
ATOM      1  C   UNL     1     181.481 180.673 185.182  1.00  0.00     0.000 C 
ENDROOT
BRANCH   1   2
ATOM      2  C   UNL     1     180.851 179.280 185.025  1.00  0.00     0.000 C 
BRANCH   2   3
ATOM      3  C   UNL     1     181.876 178.145 185.199  1.00  0.00     0.006 C 
BRANCH   3   4
ATOM      4  C   UNL     1     181.851 177.156 184.025  1.00  0.00     0.053 C 
BRANCH   4   5
ATOM      5  C   UNL     1     183.230 176.711 183.646  1.00  0.00     0.041 C 
ATOM      6  O   UNL     1     184.234 177.177 184.247  1.00  0.00    -0.550 OA
ATOM      7  O   UNL     1     183.409 175.809 182.604  1.00  0.00    -0.550 OA
ENDBRANCH   4   5
ENDBRANCH   3   4
ENDBRANCH   2   3
ENDBRANCH   1   2
BRANCH   1   8
ATOM      8  C   UNL     1     182.953 180.708 184.734  1.00  0.00     0.000 C 
BRANCH   8   9
ATOM      9  C   UNL     1     183.117 181.227 183.297  1.00  0.00    -0.000 C 
BRANCH   9  10
ATOM     10  C   UNL     1     183.775 180.189 182.369  1.00  0.00    -0.000 C 
BRANCH  10  11
ATOM     11  C   UNL     1     182.789 179.604 181.345  1.00  0.00    -0.000 C 
BRANCH  11  12
ATOM     12  C   UNL     1     181.419 180.300 181.382  1.00  0.00    -0.003 C 
ATOM     13  C   UNL     1     180.284 179.281 181.342  1.00  0.00     0.004 C 
ENDBRANCH  11  12
ENDBRANCH  10  11
ENDBRANCH   9  10
ENDBRANCH   8   9
ENDBRANCH   1   8
TORSDOF 9
ENDMDL
MODEL 6
REMARK VINA RESULT:     0.001      6.364      8.346
REMARK INTER + INTRA:          -1.523
REMARK INTER:                   0.000
REMARK INTRA:                  -1.523
REMARK UNBOUND:                -1.525
REMARK SMILES CCCCCCCCCCC(=O)[O-]
REMARK SMILES IDX 7 1 8 2 9 3 10 4 11 5 12 6 13 7 6 8 5 9 4 10 3 11 2 12 1 13
REMARK H PARENT
REMARK Flexibility Score: inf
ROOT
ATOM      1  C   UNL     1     175.816 183.857 179.908  1.00  0.00     0.000 C 
ENDROOT
BRANCH   1   2
ATOM      2  C   UNL     1     176.850 182.728 180.039  1.00  0.00     0.000 C 
BRANCH   2   3
ATOM      3  C   UNL     1     176.409 181.437 179.328  1.00  0.00     0.006 C 
BRANCH   3   4
ATOM      4  C   UNL     1     176.490 180.211 180.248  1.00  0.00     0.053 C 
BRANCH   4   5
ATOM      5  C   UNL     1     175.325 179.290 180.050  1.00  0.00     0.041 C 
ATOM      6  O   UNL     1     174.425 179.577 179.218  1.00  0.00    -0.550 OA
ATOM      7  O   UNL     1     175.215 178.133 180.811  1.00  0.00    -0.550 OA
ENDBRANCH   4   5
ENDBRANCH   3   4
ENDBRANCH   2   3
ENDBRANCH   1   2
BRANCH   1   8
ATOM      8  C   UNL     1     174.374 183.328 179.812  1.00  0.00     0.000 C 
BRANCH   8   9
ATOM      9  C   UNL     1     173.651 183.343 181.168  1.00  0.00    -0.000 C 
BRANCH   9  10
ATOM     10  C   UNL     1     173.211 181.938 181.616  1.00  0.00    -0.000 C 
BRANCH  10  11
ATOM     11  C   UNL     1     174.024 181.418 182.812  1.00  0.00    -0.000 C 
BRANCH  11  12
ATOM     12  C   UNL     1     175.000 182.469 183.363  1.00  0.00    -0.003 C 
ATOM     13  C   UNL     1     176.372 181.858 183.632  1.00  0.00     0.004 C 
ENDBRANCH  11  12
ENDBRANCH  10  11
ENDBRANCH   9  10
ENDBRANCH   8   9
ENDBRANCH   1   8
TORSDOF 9
ENDMDL
MODEL 7
REMARK VINA RESULT:     0.001     14.386     16.073
REMARK INTER + INTRA:          -1.523
REMARK INTER:                   0.000
REMARK INTRA:                  -1.523
REMARK UNBOUND:                -1.525
REMARK SMILES CCCCCCCCCCC(=O)[O-]
REMARK SMILES IDX 7 1 8 2 9 3 10 4 11 5 12 6 13 7 6 8 5 9 4 10 3 11 2 12 1 13
REMARK H PARENT
REMARK Flexibility Score: inf
ROOT
ATOM      1  C   UNL     1     186.272 175.384 184.895  1.00  0.00     0.000 C 
ENDROOT
BRANCH   1   2
ATOM      2  C   UNL     1     187.383 176.218 184.238  1.00  0.00     0.000 C 
BRANCH   2   3
ATOM      3  C   UNL     1     186.871 177.568 183.704  1.00  0.00     0.006 C 
BRANCH   3   4
ATOM      4  C   UNL     1     187.712 178.748 184.209  1.00  0.00     0.053 C 
BRANCH   4   5
ATOM      5  C   UNL     1     186.856 179.916 184.593  1.00  0.00     0.041 C 
ATOM      6  O   UNL     1     187.384 180.966 185.044  1.00  0.00    -0.550 OA
ATOM      7  O   UNL     1     185.473 179.832 184.485  1.00  0.00    -0.550 OA
ENDBRANCH   4   5
ENDBRANCH   3   4
ENDBRANCH   2   3
ENDBRANCH   1   2
BRANCH   1   8
ATOM      8  C   UNL     1     185.215 176.256 185.595  1.00  0.00     0.000 C 
BRANCH   8   9
ATOM      9  C   UNL     1     185.495 176.427 187.097  1.00  0.00    -0.000 C 
BRANCH   9  10
ATOM     10  C   UNL     1     185.696 177.900 187.495  1.00  0.00    -0.000 C 
BRANCH  10  11
ATOM     11  C   UNL     1     187.148 178.212 187.889  1.00  0.00    -0.000 C 
BRANCH  11  12
ATOM     12  C   UNL     1     188.037 176.959 187.904  1.00  0.00    -0.003 C 
ATOM     13  C   UNL     1     189.376 177.227 187.224  1.00  0.00     0.004 C 
ENDBRANCH  11  12
ENDBRANCH  10  11
ENDBRANCH   9  10
ENDBRANCH   8   9
ENDBRANCH   1   8
TORSDOF 9
ENDMDL
MODEL 8
REMARK VINA RESULT:     0.002     11.503     13.079
REMARK INTER + INTRA:          -1.523
REMARK INTER:                   0.000
REMARK INTRA:                  -1.523
REMARK UNBOUND:                -1.525
REMARK SMILES CCCCCCCCCCC(=O)[O-]
REMARK SMILES IDX 7 1 8 2 9 3 10 4 11 5 12 6 13 7 6 8 5 9 4 10 3 11 2 12 1 13
REMARK H PARENT
REMARK Flexibility Score: inf
ROOT
ATOM      1  C   UNL     1     179.552 178.016 183.450  1.00  0.00     0.000 C 
ENDROOT
BRANCH   1   2
ATOM      2  C   UNL     1     179.578 176.485 183.581  1.00  0.00     0.000 C 
BRANCH   2   3
ATOM      3  C   UNL     1     180.559 175.824 182.597  1.00  0.00     0.006 C 
BRANCH   3   4
ATOM      4  C   UNL     1     181.541 174.880 183.305  1.00  0.00     0.053 C 
BRANCH   4   5
ATOM      5  C   UNL     1     182.904 174.930 182.685  1.00  0.00     0.041 C 
ATOM      6  O   UNL     1     183.842 174.239 183.162  1.00  0.00    -0.550 OA
ATOM      7  O   UNL     1     183.147 175.767 181.603  1.00  0.00    -0.550 OA
ENDBRANCH   4   5
ENDBRANCH   3   4
ENDBRANCH   2   3
ENDBRANCH   1   2
BRANCH   1   8
ATOM      8  C   UNL     1     180.855 178.579 182.854  1.00  0.00     0.000 C 
BRANCH   8   9
ATOM      9  C   UNL     1     181.788 179.162 183.927  1.00  0.00    -0.000 C 
BRANCH   9  10
ATOM     10  C   UNL     1     183.135 178.422 184.001  1.00  0.00    -0.000 C 
BRANCH  10  11
ATOM     11  C   UNL     1     183.272 177.573 185.275  1.00  0.00    -0.000 C 
BRANCH  11  12
ATOM     12  C   UNL     1     182.104 177.781 186.251  1.00  0.00    -0.003 C 
ATOM     13  C   UNL     1     181.548 176.445 186.736  1.00  0.00     0.004 C 
ENDBRANCH  11  12
ENDBRANCH  10  11
ENDBRANCH   9  10
ENDBRANCH   8   9
ENDBRANCH   1   8
TORSDOF 9
ENDMDL
MODEL 9
REMARK VINA RESULT:     0.002      7.626      8.864
REMARK INTER + INTRA:          -1.523
REMARK INTER:                   0.000
REMARK INTRA:                  -1.523
REMARK UNBOUND:                -1.525
REMARK SMILES CCCCCCCCCCC(=O)[O-]
REMARK SMILES IDX 7 1 8 2 9 3 10 4 11 5 12 6 13 7 6 8 5 9 4 10 3 11 2 12 1 13
REMARK H PARENT
REMARK Flexibility Score: inf
ROOT
ATOM      1  C   UNL     1     179.297 181.852 182.425  1.00  0.00     0.000 C 
ENDROOT
BRANCH   1   2
ATOM      2  C   UNL     1     179.581 181.839 180.915  1.00  0.00     0.000 C 
BRANCH   2   3
ATOM      3  C   UNL     1     180.797 180.970 180.550  1.00  0.00     0.006 C 
BRANCH   3   4
ATOM      4  C   UNL     1     180.469 179.940 179.460  1.00  0.00     0.053 C 
BRANCH   4   5
ATOM      5  C   UNL     1     181.177 178.640 179.692  1.00  0.00     0.041 C 
ATOM      6  O   UNL     1     180.993 177.671 178.910  1.00  0.00    -0.550 OA
ATOM      7  O   UNL     1     182.011 178.488 180.793  1.00  0.00    -0.550 OA
ENDBRANCH   4   5
ENDBRANCH   3   4
ENDBRANCH   2   3
ENDBRANCH   1   2
BRANCH   1   8
ATOM      8  C   UNL     1     179.831 180.596 183.136  1.00  0.00     0.000 C 
BRANCH   8   9
ATOM      9  C   UNL     1     178.728 179.561 183.408  1.00  0.00    -0.000 C 
BRANCH   9  10
ATOM     10  C   UNL     1     178.982 178.226 182.683  1.00  0.00    -0.000 C 
BRANCH  10  11
ATOM     11  C   UNL     1     178.002 177.989 181.524  1.00  0.00    -0.000 C 
BRANCH  11  12
ATOM     12  C   UNL     1     176.912 179.068 181.443  1.00  0.00    -0.003 C 
ATOM     13  C   UNL     1     176.758 179.589 180.017  1.00  0.00     0.004 C 
ENDBRANCH  11  12
ENDBRANCH  10  11
ENDBRANCH   9  10
ENDBRANCH   8   9
ENDBRANCH   1   8
TORSDOF 9
ENDMDL
