MODEL 1
REMARK VINA RESULT:    -4.246      0.000      0.000
REMARK INTER + INTRA:          -7.730
REMARK INTER:                  -6.480
REMARK INTRA:                  -1.250
REMARK UNBOUND:                -1.250
REMARK SMILES CCCCCCCCCC=CC(=O)[O-]
REMARK SMILES IDX 7 1 8 2 9 3 10 4 11 5 12 6 13 7 14 8 6 9 5 10 4 11 3 12 2 13
REMARK SMILES IDX 1 14
REMARK H PARENT
REMARK Flexibility Score: inf
ROOT
ATOM      1  C   UNL     1       7.548   5.193  19.424  1.00  0.00     0.000 C 
ENDROOT
BRANCH   1   2
ATOM      2  C   UNL     1       7.444   3.664  19.329  1.00  0.00     0.004 C 
BRANCH   2   3
ATOM      3  C   UNL     1       5.977   3.214  19.328  1.00  0.00     0.027 C 
BRANCH   3   4
ATOM      4  C   UNL     1       5.682   2.307  20.493  1.00  0.00    -0.025 C 
ATOM      5  C   UNL     1       5.373   2.700  21.739  1.00  0.00     0.020 C 
BRANCH   5   6
ATOM      6  C   UNL     1       5.217   4.091  22.213  1.00  0.00     0.064 C 
ATOM      7  O   UNL     1       4.167   4.720  21.918  1.00  0.00    -0.545 OA
ATOM      8  O   UNL     1       6.201   4.739  22.950  1.00  0.00    -0.545 OA
ENDBRANCH   5   6
ENDBRANCH   3   4
ENDBRANCH   2   3
ENDBRANCH   1   2
BRANCH   1   9
ATOM      9  C   UNL     1       6.246   5.904  19.022  1.00  0.00     0.000 C 
BRANCH   9  10
ATOM     10  C   UNL     1       6.497   7.283  18.388  1.00  0.00     0.000 C 
BRANCH  10  11
ATOM     11  C   UNL     1       6.431   7.248  16.852  1.00  0.00    -0.000 C 
BRANCH  11  12
ATOM     12  C   UNL     1       5.857   5.930  16.312  1.00  0.00    -0.000 C 
BRANCH  12  13
ATOM     13  C   UNL     1       6.941   5.110  15.602  1.00  0.00    -0.003 C 
ATOM     14  C   UNL     1       8.280   5.840  15.614  1.00  0.00     0.004 C 
ENDBRANCH  12  13
ENDBRANCH  11  12
ENDBRANCH  10  11
ENDBRANCH   9  10
ENDBRANCH   1   9
TORSDOF 9
ENDMDL
MODEL 2
REMARK VINA RESULT:    -4.243      1.164      2.150
REMARK INTER + INTRA:          -7.724
REMARK INTER:                  -6.511
REMARK INTRA:                  -1.213
REMARK UNBOUND:                -1.250
REMARK SMILES CCCCCCCCCC=CC(=O)[O-]
REMARK SMILES IDX 7 1 8 2 9 3 10 4 11 5 12 6 13 7 14 8 6 9 5 10 4 11 3 12 2 13
REMARK SMILES IDX 1 14
REMARK H PARENT
REMARK Flexibility Score: inf
ROOT
ATOM      1  C   UNL     1       6.108   3.735  19.200  1.00  0.00     0.000 C 
ENDROOT
BRANCH   1   2
ATOM      2  C   UNL     1       5.786   2.472  20.013  1.00  0.00     0.004 C 
BRANCH   2   3
ATOM      3  C   UNL     1       5.296   2.837  21.421  1.00  0.00     0.027 C 
BRANCH   3   4
ATOM      4  C   UNL     1       4.403   4.048  21.393  1.00  0.00    -0.025 C 
ATOM      5  C   UNL     1       4.616   5.200  22.050  1.00  0.00     0.020 C 
BRANCH   5   6
ATOM      6  C   UNL     1       5.782   5.532  22.896  1.00  0.00     0.064 C 
ATOM      7  O   UNL     1       5.741   5.258  24.124  1.00  0.00    -0.545 OA
ATOM      8  O   UNL     1       6.913   6.160  22.387  1.00  0.00    -0.545 OA
ENDBRANCH   5   6
ENDBRANCH   3   4
ENDBRANCH   2   3
ENDBRANCH   1   2
BRANCH   1   9
ATOM      9  C   UNL     1       7.530   4.259  19.453  1.00  0.00     0.000 C 
BRANCH   9  10
ATOM     10  C   UNL     1       7.739   5.685  18.914  1.00  0.00     0.000 C 
BRANCH  10  11
ATOM     11  C   UNL     1       6.413   6.419  18.653  1.00  0.00    -0.000 C 
BRANCH  11  12
ATOM     12  C   UNL     1       6.379   7.114  17.284  1.00  0.00    -0.000 C 
BRANCH  12  13
ATOM     13  C   UNL     1       6.682   6.119  16.157  1.00  0.00    -0.003 C 
ATOM     14  C   UNL     1       5.484   5.217  15.880  1.00  0.00     0.004 C 
ENDBRANCH  12  13
ENDBRANCH  11  12
ENDBRANCH  10  11
ENDBRANCH   9  10
ENDBRANCH   1   9
TORSDOF 9
ENDMDL
MODEL 3
REMARK VINA RESULT:    -4.238      3.013      5.837
REMARK INTER + INTRA:          -7.718
REMARK INTER:                  -6.429
REMARK INTRA:                  -1.289
REMARK UNBOUND:                -1.250
REMARK SMILES CCCCCCCCCC=CC(=O)[O-]
REMARK SMILES IDX 7 1 8 2 9 3 10 4 11 5 12 6 13 7 14 8 6 9 5 10 4 11 3 12 2 13
REMARK SMILES IDX 1 14
REMARK H PARENT
REMARK Flexibility Score: inf
ROOT
ATOM      1  C   UNL     1       7.609   5.519  19.346  1.00  0.00     0.000 C 
ENDROOT
BRANCH   1   2
ATOM      2  C   UNL     1       6.316   6.249  18.951  1.00  0.00     0.004 C 
BRANCH   2   3
ATOM      3  C   UNL     1       6.459   6.908  17.573  1.00  0.00     0.027 C 
BRANCH   3   4
ATOM      4  C   UNL     1       5.986   5.992  16.476  1.00  0.00    -0.025 C 
ATOM      5  C   UNL     1       6.769   5.281  15.650  1.00  0.00     0.020 C 
BRANCH   5   6
ATOM      6  C   UNL     1       8.246   5.215  15.672  1.00  0.00     0.064 C 
ATOM      7  O   UNL     1       8.802   4.131  15.988  1.00  0.00    -0.545 OA
ATOM      8  O   UNL     1       9.042   6.317  15.383  1.00  0.00    -0.545 OA
ENDBRANCH   5   6
ENDBRANCH   3   4
ENDBRANCH   2   3
ENDBRANCH   1   2
BRANCH   1   9
ATOM      9  C   UNL     1       7.486   3.992  19.238  1.00  0.00     0.000 C 
BRANCH   9  10
ATOM     10  C   UNL     1       6.023   3.515  19.245  1.00  0.00     0.000 C 
BRANCH  10  11
ATOM     11  C   UNL     1       5.809   2.274  20.128  1.00  0.00    -0.000 C 
BRANCH  11  12
ATOM     12  C   UNL     1       5.392   2.632  21.563  1.00  0.00    -0.000 C 
BRANCH  12  13
ATOM     13  C   UNL     1       4.468   3.856  21.575  1.00  0.00    -0.003 C 
ATOM     14  C   UNL     1       4.970   4.915  22.551  1.00  0.00     0.004 C 
ENDBRANCH  12  13
ENDBRANCH  11  12
ENDBRANCH  10  11
ENDBRANCH   9  10
ENDBRANCH   1   9
TORSDOF 9
ENDMDL
MODEL 4
REMARK VINA RESULT:    -4.188      4.581      7.267
REMARK INTER + INTRA:          -7.642
REMARK INTER:                  -6.452
REMARK INTRA:                  -1.190
REMARK UNBOUND:                -1.250
REMARK SMILES CCCCCCCCCC=CC(=O)[O-]
REMARK SMILES IDX 7 1 8 2 9 3 10 4 11 5 12 6 13 7 14 8 6 9 5 10 4 11 3 12 2 13
REMARK SMILES IDX 1 14
REMARK H PARENT
REMARK Flexibility Score: inf
ROOT
ATOM      1  C   UNL     1       9.659   5.643  16.348  1.00  0.00     0.000 C 
ENDROOT
BRANCH   1   2
ATOM      2  C   UNL     1       9.702   6.788  15.326  1.00  0.00     0.004 C 
BRANCH   2   3
ATOM      3  C   UNL     1      10.849   6.587  14.326  1.00  0.00     0.027 C 
BRANCH   3   4
ATOM      4  C   UNL     1      10.390   6.825  12.912  1.00  0.00    -0.025 C 
ATOM      5  C   UNL     1       9.871   5.903  12.085  1.00  0.00     0.020 C 
BRANCH   5   6
ATOM      6  C   UNL     1       9.603   4.484  12.403  1.00  0.00     0.064 C 
ATOM      7  O   UNL     1       8.425   4.051  12.308  1.00  0.00    -0.545 OA
ATOM      8  O   UNL     1      10.602   3.617  12.828  1.00  0.00    -0.545 OA
ENDBRANCH   5   6
ENDBRANCH   3   4
ENDBRANCH   2   3
ENDBRANCH   1   2
BRANCH   1   9
ATOM      9  C   UNL     1       8.532   4.637  16.067  1.00  0.00     0.000 C 
BRANCH   9  10
ATOM     10  C   UNL     1       7.343   5.274  15.326  1.00  0.00     0.000 C 
BRANCH  10  11
ATOM     11  C   UNL     1       6.203   5.679  16.275  1.00  0.00    -0.000 C 
BRANCH  11  12
ATOM     12  C   UNL     1       6.343   7.118  16.793  1.00  0.00    -0.000 C 
BRANCH  12  13
ATOM     13  C   UNL     1       6.387   7.147  18.325  1.00  0.00    -0.003 C 
ATOM     14  C   UNL     1       6.371   5.736  18.904  1.00  0.00     0.004 C 
ENDBRANCH  12  13
ENDBRANCH  11  12
ENDBRANCH  10  11
ENDBRANCH   9  10
ENDBRANCH   1   9
TORSDOF 9
ENDMDL
MODEL 5
REMARK VINA RESULT:    -4.142      2.571      4.467
REMARK INTER + INTRA:          -7.571
REMARK INTER:                  -6.597
REMARK INTRA:                  -0.975
REMARK UNBOUND:                -1.250
REMARK SMILES CCCCCCCCCC=CC(=O)[O-]
REMARK SMILES IDX 7 1 8 2 9 3 10 4 11 5 12 6 13 7 14 8 6 9 5 10 4 11 3 12 2 13
REMARK SMILES IDX 1 14
REMARK H PARENT
REMARK Flexibility Score: inf
ROOT
ATOM      1  C   UNL     1       8.221   6.393  15.829  1.00  0.00     0.000 C 
ENDROOT
BRANCH   1   2
ATOM      2  C   UNL     1       7.260   5.214  15.618  1.00  0.00     0.004 C 
BRANCH   2   3
ATOM      3  C   UNL     1       5.942   5.440  16.372  1.00  0.00     0.027 C 
BRANCH   3   4
ATOM      4  C   UNL     1       6.172   6.164  17.671  1.00  0.00    -0.025 C 
ATOM      5  C   UNL     1       6.422   5.591  18.860  1.00  0.00     0.020 C 
BRANCH   5   6
ATOM      6  C   UNL     1       6.566   4.145  19.129  1.00  0.00     0.064 C 
ATOM      7  O   UNL     1       7.688   3.601  18.953  1.00  0.00    -0.545 OA
ATOM      8  O   UNL     1       5.499   3.357  19.545  1.00  0.00    -0.545 OA
ENDBRANCH   5   6
ENDBRANCH   3   4
ENDBRANCH   2   3
ENDBRANCH   1   2
BRANCH   1   9
ATOM      9  C   UNL     1       9.684   6.028  15.536  1.00  0.00     0.000 C 
BRANCH   9  10
ATOM     10  C   UNL     1      10.421   7.126  14.750  1.00  0.00     0.000 C 
BRANCH  10  11
ATOM     11  C   UNL     1      10.603   6.770  13.266  1.00  0.00    -0.000 C 
BRANCH  11  12
ATOM     12  C   UNL     1      10.270   5.302  12.961  1.00  0.00    -0.000 C 
BRANCH  12  13
ATOM     13  C   UNL     1       9.036   5.197  12.057  1.00  0.00    -0.003 C 
ATOM     14  C   UNL     1       8.294   3.884  12.287  1.00  0.00     0.004 C 
ENDBRANCH  12  13
ENDBRANCH  11  12
ENDBRANCH  10  11
ENDBRANCH   9  10
ENDBRANCH   1   9
TORSDOF 9
ENDMDL
MODEL 6
REMARK VINA RESULT:    -4.134      2.598      4.763
REMARK INTER + INTRA:          -7.558
REMARK INTER:                  -6.538
REMARK INTRA:                  -1.021
REMARK UNBOUND:                -1.250
REMARK SMILES CCCCCCCCCC=CC(=O)[O-]
REMARK SMILES IDX 7 1 8 2 9 3 10 4 11 5 12 6 13 7 14 8 6 9 5 10 4 11 3 12 2 13
REMARK SMILES IDX 1 14
REMARK H PARENT
REMARK Flexibility Score: inf
ROOT
ATOM      1  C   UNL     1       8.205   4.614  15.480  1.00  0.00     0.000 C 
ENDROOT
BRANCH   1   2
ATOM      2  C   UNL     1       7.686   6.023  15.806  1.00  0.00     0.004 C 
BRANCH   2   3
ATOM      3  C   UNL     1       6.274   5.962  16.402  1.00  0.00     0.027 C 
BRANCH   3   4
ATOM      4  C   UNL     1       6.238   6.549  17.787  1.00  0.00    -0.025 C 
ATOM      5  C   UNL     1       6.385   5.870  18.936  1.00  0.00     0.020 C 
BRANCH   5   6
ATOM      6  C   UNL     1       6.654   4.423  19.078  1.00  0.00     0.064 C 
ATOM      7  O   UNL     1       7.842   4.014  18.999  1.00  0.00    -0.545 OA
ATOM      8  O   UNL     1       5.638   3.494  19.268  1.00  0.00    -0.545 OA
ENDBRANCH   5   6
ENDBRANCH   3   4
ENDBRANCH   2   3
ENDBRANCH   1   2
BRANCH   1   9
ATOM      9  C   UNL     1       8.045   4.250  13.996  1.00  0.00     0.000 C 
BRANCH   9  10
ATOM     10  C   UNL     1       9.347   4.437  13.198  1.00  0.00     0.000 C 
BRANCH  10  11
ATOM     11  C   UNL     1       9.316   5.683  12.298  1.00  0.00    -0.000 C 
BRANCH  11  12
ATOM     12  C   UNL     1      10.442   6.677  12.620  1.00  0.00    -0.000 C 
BRANCH  12  13
ATOM     13  C   UNL     1      11.180   6.271  13.902  1.00  0.00    -0.003 C 
ATOM     14  C   UNL     1      10.898   7.253  15.035  1.00  0.00     0.004 C 
ENDBRANCH  12  13
ENDBRANCH  11  12
ENDBRANCH  10  11
ENDBRANCH   9  10
ENDBRANCH   1   9
TORSDOF 9
ENDMDL
MODEL 7
REMARK VINA RESULT:    -4.120      1.300      2.500
REMARK INTER + INTRA:          -7.537
REMARK INTER:                  -6.168
REMARK INTRA:                  -1.369
REMARK UNBOUND:                -1.250
REMARK SMILES CCCCCCCCCC=CC(=O)[O-]
REMARK SMILES IDX 7 1 8 2 9 3 10 4 11 5 12 6 13 7 14 8 6 9 5 10 4 11 3 12 2 13
REMARK SMILES IDX 1 14
REMARK H PARENT
REMARK Flexibility Score: inf
ROOT
ATOM      1  C   UNL     1       8.414   4.558  19.172  1.00  0.00     0.000 C 
ENDROOT
BRANCH   1   2
ATOM      2  C   UNL     1       7.530   5.609  19.859  1.00  0.00     0.004 C 
BRANCH   2   3
ATOM      3  C   UNL     1       6.047   5.228  19.759  1.00  0.00     0.027 C 
BRANCH   3   4
ATOM      4  C   UNL     1       5.878   3.792  19.338  1.00  0.00    -0.025 C 
ATOM      5  C   UNL     1       5.691   2.747  20.160  1.00  0.00     0.020 C 
BRANCH   5   6
ATOM      6  C   UNL     1       5.569   2.792  21.632  1.00  0.00     0.064 C 
ATOM      7  O   UNL     1       6.610   2.681  22.333  1.00  0.00    -0.545 OA
ATOM      8  O   UNL     1       4.343   2.925  22.272  1.00  0.00    -0.545 OA
ENDBRANCH   5   6
ENDBRANCH   3   4
ENDBRANCH   2   3
ENDBRANCH   1   2
BRANCH   1   9
ATOM      9  C   UNL     1       9.162   5.116  17.951  1.00  0.00     0.000 C 
BRANCH   9  10
ATOM     10  C   UNL     1       8.925   4.280  16.681  1.00  0.00     0.000 C 
BRANCH  10  11
ATOM     11  C   UNL     1       8.006   4.987  15.671  1.00  0.00    -0.000 C 
BRANCH  11  12
ATOM     12  C   UNL     1       7.508   6.350  16.174  1.00  0.00    -0.000 C 
BRANCH  12  13
ATOM     13  C   UNL     1       5.984   6.346  16.348  1.00  0.00    -0.003 C 
ATOM     14  C   UNL     1       5.375   5.041  15.846  1.00  0.00     0.004 C 
ENDBRANCH  12  13
ENDBRANCH  11  12
ENDBRANCH  10  11
ENDBRANCH   9  10
ENDBRANCH   1   9
TORSDOF 9
ENDMDL
MODEL 8
REMARK VINA RESULT:    -4.116      4.799      7.268
REMARK INTER + INTRA:          -7.532
REMARK INTER:                  -6.510
REMARK INTRA:                  -1.021
REMARK UNBOUND:                -1.250
REMARK SMILES CCCCCCCCCC=CC(=O)[O-]
REMARK SMILES IDX 7 1 8 2 9 3 10 4 11 5 12 6 13 7 14 8 6 9 5 10 4 11 3 12 2 13
REMARK SMILES IDX 1 14
REMARK H PARENT
REMARK Flexibility Score: inf
ROOT
ATOM      1  C   UNL     1       7.481   5.365  15.452  1.00  0.00     0.000 C 
ENDROOT
BRANCH   1   2
ATOM      2  C   UNL     1       8.630   6.300  15.854  1.00  0.00     0.004 C 
BRANCH   2   3
ATOM      3  C   UNL     1       9.949   5.858  15.205  1.00  0.00     0.027 C 
BRANCH   3   4
ATOM      4  C   UNL     1      10.503   6.931  14.306  1.00  0.00    -0.025 C 
ATOM      5  C   UNL     1      10.599   6.866  12.969  1.00  0.00     0.020 C 
BRANCH   5   6
ATOM      6  C   UNL     1      10.144   5.758  12.103  1.00  0.00     0.064 C 
ATOM      7  O   UNL     1       8.929   5.699  11.778  1.00  0.00    -0.545 OA
ATOM      8  O   UNL     1      11.005   4.762  11.659  1.00  0.00    -0.545 OA
ENDBRANCH   5   6
ENDBRANCH   3   4
ENDBRANCH   2   3
ENDBRANCH   1   2
BRANCH   1   9
ATOM      9  C   UNL     1       6.183   5.652  16.222  1.00  0.00     0.000 C 
BRANCH   9  10
ATOM     10  C   UNL     1       6.386   6.658  17.368  1.00  0.00     0.000 C 
BRANCH  10  11
ATOM     11  C   UNL     1       6.385   5.988  18.751  1.00  0.00    -0.000 C 
BRANCH  11  12
ATOM     12  C   UNL     1       6.064   4.487  18.684  1.00  0.00    -0.000 C 
BRANCH  12  13
ATOM     13  C   UNL     1       7.142   3.664  19.398  1.00  0.00    -0.003 C 
ATOM     14  C   UNL     1       8.526   3.954  18.826  1.00  0.00     0.004 C 
ENDBRANCH  12  13
ENDBRANCH  11  12
ENDBRANCH  10  11
ENDBRANCH   9  10
ENDBRANCH   1   9
TORSDOF 9
ENDMDL
MODEL 9
REMARK VINA RESULT:    -4.087      3.113      5.579
REMARK INTER + INTRA:          -7.487
REMARK INTER:                  -6.534
REMARK INTRA:                  -0.953
REMARK UNBOUND:                -1.250
REMARK SMILES CCCCCCCCCC=CC(=O)[O-]
REMARK SMILES IDX 7 1 8 2 9 3 10 4 11 5 12 6 13 7 14 8 6 9 5 10 4 11 3 12 2 13
REMARK SMILES IDX 1 14
REMARK H PARENT
REMARK Flexibility Score: inf
ROOT
ATOM      1  C   UNL     1       6.843   6.852  20.166  1.00  0.00     0.000 C 
ENDROOT
BRANCH   1   2
ATOM      2  C   UNL     1       6.321   5.988  19.008  1.00  0.00     0.004 C 
BRANCH   2   3
ATOM      3  C   UNL     1       6.319   6.779  17.693  1.00  0.00     0.027 C 
BRANCH   3   4
ATOM      4  C   UNL     1       5.869   5.922  16.540  1.00  0.00    -0.025 C 
ATOM      5  C   UNL     1       6.667   5.222  15.718  1.00  0.00     0.020 C 
BRANCH   5   6
ATOM      6  C   UNL     1       8.139   5.112  15.800  1.00  0.00     0.064 C 
ATOM      7  O   UNL     1       8.847   5.873  15.089  1.00  0.00    -0.545 OA
ATOM      8  O   UNL     1       8.770   4.179  16.614  1.00  0.00    -0.545 OA
ENDBRANCH   5   6
ENDBRANCH   3   4
ENDBRANCH   2   3
ENDBRANCH   1   2
BRANCH   1   9
ATOM      9  C   UNL     1       5.819   7.008  21.300  1.00  0.00     0.000 C 
BRANCH   9  10
ATOM     10  C   UNL     1       4.642   6.025  21.173  1.00  0.00     0.000 C 
BRANCH  10  11
ATOM     11  C   UNL     1       4.691   4.904  22.223  1.00  0.00    -0.000 C 
BRANCH  11  12
ATOM     12  C   UNL     1       4.496   3.508  21.612  1.00  0.00    -0.000 C 
BRANCH  12  13
ATOM     13  C   UNL     1       5.844   2.808  21.404  1.00  0.00    -0.003 C 
ATOM     14  C   UNL     1       6.006   2.341  19.961  1.00  0.00     0.004 C 
ENDBRANCH  12  13
ENDBRANCH  11  12
ENDBRANCH  10  11
ENDBRANCH   9  10
ENDBRANCH   1   9
TORSDOF 9
ENDMDL
