MODEL 1
REMARK VINA RESULT:    -5.084      0.000      0.000
REMARK INTER + INTRA:         -11.164
REMARK INTER:                  -9.839
REMARK INTRA:                  -1.325
REMARK UNBOUND:                -1.325
REMARK SMILES CCCCCCCCCCCCCCCCCC(=O)[O-]
REMARK SMILES IDX 10 1 11 2 12 3 13 4 14 5 15 6 16 7 17 8 18 9 19 10 20 11
REMARK SMILES IDX 9 12 8 13 7 14 6 15 5 16 4 17 3 18 2 19 1 20
REMARK H PARENT
REMARK Flexibility Score: inf
ROOT
ATOM      1  C   UNL     1      26.850   0.994  29.101  1.00  0.00     0.000 C 
ENDROOT
BRANCH   1   2
ATOM      2  C   UNL     1      27.651   2.296  29.283  1.00  0.00     0.000 C 
BRANCH   2   3
ATOM      3  C   UNL     1      26.875   3.535  28.786  1.00  0.00     0.000 C 
BRANCH   3   4
ATOM      4  C   UNL     1      27.664   4.853  28.913  1.00  0.00     0.000 C 
BRANCH   4   5
ATOM      5  C   UNL     1      27.522   5.563  30.272  1.00  0.00     0.000 C 
BRANCH   5   6
ATOM      6  C   UNL     1      27.991   7.030  30.287  1.00  0.00     0.000 C 
BRANCH   6   7
ATOM      7  C   UNL     1      26.971   8.002  30.919  1.00  0.00     0.006 C 
BRANCH   7   8
ATOM      8  C   UNL     1      26.714   9.232  30.037  1.00  0.00     0.053 C 
BRANCH   8   9
ATOM      9  C   UNL     1      27.914  10.126  30.024  1.00  0.00     0.041 C 
ATOM     10  O   UNL     1      28.426  10.515  31.106  1.00  0.00    -0.550 OA
ATOM     11  O   UNL     1      28.437  10.570  28.816  1.00  0.00    -0.550 OA
ENDBRANCH   8   9
ENDBRANCH   7   8
ENDBRANCH   6   7
ENDBRANCH   5   6
ENDBRANCH   4   5
ENDBRANCH   3   4
ENDBRANCH   2   3
ENDBRANCH   1   2
BRANCH   1  12
ATOM     12  C   UNL     1      26.124   0.564  30.384  1.00  0.00     0.000 C 
BRANCH  12  13
ATOM     13  C   UNL     1      26.988   0.756  31.645  1.00  0.00    -0.000 C 
BRANCH  13  14
ATOM     14  C   UNL     1      27.992  -0.388  31.852  1.00  0.00    -0.000 C 
BRANCH  14  15
ATOM     15  C   UNL     1      29.431   0.018  31.498  1.00  0.00    -0.000 C 
BRANCH  15  16
ATOM     16  C   UNL     1      29.945  -0.777  30.290  1.00  0.00    -0.000 C 
BRANCH  16  17
ATOM     17  C   UNL     1      29.056  -2.000  30.019  1.00  0.00    -0.000 C 
BRANCH  17  18
ATOM     18  C   UNL     1      29.870  -3.259  29.679  1.00  0.00    -0.000 C 
BRANCH  18  19
ATOM     19  C   UNL     1      29.039  -4.546  29.780  1.00  0.00    -0.003 C 
ATOM     20  C   UNL     1      27.827  -4.349  30.687  1.00  0.00     0.004 C 
ENDBRANCH  18  19
ENDBRANCH  17  18
ENDBRANCH  16  17
ENDBRANCH  15  16
ENDBRANCH  14  15
ENDBRANCH  13  14
ENDBRANCH  12  13
ENDBRANCH   1  12
TORSDOF 16
ENDMDL
MODEL 2
REMARK VINA RESULT:    -5.045      1.561      2.446
REMARK INTER + INTRA:         -11.088
REMARK INTER:                 -10.016
REMARK INTRA:                  -1.073
REMARK UNBOUND:                -1.325
REMARK SMILES CCCCCCCCCCCCCCCCCC(=O)[O-]
REMARK SMILES IDX 10 1 11 2 12 3 13 4 14 5 15 6 16 7 17 8 18 9 19 10 20 11
REMARK SMILES IDX 9 12 8 13 7 14 6 15 5 16 4 17 3 18 2 19 1 20
REMARK H PARENT
REMARK Flexibility Score: inf
ROOT
ATOM      1  C   UNL     1      29.697   1.008  30.503  1.00  0.00     0.000 C 
ENDROOT
BRANCH   1   2
ATOM      2  C   UNL     1      28.710   1.634  31.503  1.00  0.00     0.000 C 
BRANCH   2   3
ATOM      3  C   UNL     1      28.014   2.889  30.933  1.00  0.00     0.000 C 
BRANCH   3   4
ATOM      4  C   UNL     1      28.416   4.197  31.642  1.00  0.00     0.000 C 
BRANCH   4   5
ATOM      5  C   UNL     1      27.610   5.438  31.216  1.00  0.00     0.000 C 
BRANCH   5   6
ATOM      6  C   UNL     1      27.991   6.016  29.840  1.00  0.00     0.000 C 
BRANCH   6   7
ATOM      7  C   UNL     1      28.035   7.560  29.806  1.00  0.00     0.006 C 
BRANCH   7   8
ATOM      8  C   UNL     1      26.991   8.193  30.736  1.00  0.00     0.053 C 
BRANCH   8   9
ATOM      9  C   UNL     1      26.688   9.593  30.304  1.00  0.00     0.041 C 
ATOM     10  O   UNL     1      25.784  10.253  30.880  1.00  0.00    -0.550 OA
ATOM     11  O   UNL     1      27.370  10.153  29.230  1.00  0.00    -0.550 OA
ENDBRANCH   8   9
ENDBRANCH   7   8
ENDBRANCH   6   7
ENDBRANCH   5   6
ENDBRANCH   4   5
ENDBRANCH   3   4
ENDBRANCH   2   3
ENDBRANCH   1   2
BRANCH   1  12
ATOM     12  C   UNL     1      29.129   0.943  29.077  1.00  0.00     0.000 C 
BRANCH  12  13
ATOM     13  C   UNL     1      28.303  -0.333  28.827  1.00  0.00    -0.000 C 
BRANCH  13  14
ATOM     14  C   UNL     1      26.824  -0.162  29.207  1.00  0.00    -0.000 C 
BRANCH  14  15
ATOM     15  C   UNL     1      26.398  -1.090  30.355  1.00  0.00    -0.000 C 
BRANCH  15  16
ATOM     16  C   UNL     1      27.557  -1.995  30.790  1.00  0.00    -0.000 C 
BRANCH  16  17
ATOM     17  C   UNL     1      27.116  -3.465  30.848  1.00  0.00    -0.000 C 
BRANCH  17  18
ATOM     18  C   UNL     1      28.191  -4.427  30.318  1.00  0.00    -0.000 C 
BRANCH  18  19
ATOM     19  C   UNL     1      28.420  -5.627  31.247  1.00  0.00    -0.003 C 
ATOM     20  C   UNL     1      28.760  -6.883  30.450  1.00  0.00     0.004 C 
ENDBRANCH  18  19
ENDBRANCH  17  18
ENDBRANCH  16  17
ENDBRANCH  15  16
ENDBRANCH  14  15
ENDBRANCH  13  14
ENDBRANCH  12  13
ENDBRANCH   1  12
TORSDOF 16
ENDMDL
MODEL 3
REMARK VINA RESULT:    -4.978      5.080     10.219
REMARK INTER + INTRA:         -10.959
REMARK INTER:                  -9.918
REMARK INTRA:                  -1.042
REMARK UNBOUND:                -1.325
REMARK SMILES CCCCCCCCCCCCCCCCCC(=O)[O-]
REMARK SMILES IDX 10 1 11 2 12 3 13 4 14 5 15 6 16 7 17 8 18 9 19 10 20 11
REMARK SMILES IDX 9 12 8 13 7 14 6 15 5 16 4 17 3 18 2 19 1 20
REMARK H PARENT
REMARK Flexibility Score: inf
ROOT
ATOM      1  C   UNL     1      29.145   2.021  31.633  1.00  0.00     0.000 C 
ENDROOT
BRANCH   1   2
ATOM      2  C   UNL     1      29.680   0.914  30.707  1.00  0.00     0.000 C 
BRANCH   2   3
ATOM      3  C   UNL     1      29.147   1.049  29.264  1.00  0.00     0.000 C 
BRANCH   3   4
ATOM      4  C   UNL     1      28.291  -0.146  28.804  1.00  0.00     0.000 C 
BRANCH   4   5
ATOM      5  C   UNL     1      26.819  -0.098  29.250  1.00  0.00     0.000 C 
BRANCH   5   6
ATOM      6  C   UNL     1      26.470  -1.022  30.432  1.00  0.00     0.000 C 
BRANCH   6   7
ATOM      7  C   UNL     1      27.577  -2.045  30.769  1.00  0.00     0.006 C 
BRANCH   7   8
ATOM      8  C   UNL     1      27.041  -3.481  30.843  1.00  0.00     0.053 C 
BRANCH   8   9
ATOM      9  C   UNL     1      28.162  -4.465  30.723  1.00  0.00     0.041 C 
ATOM     10  O   UNL     1      28.206  -5.472  31.478  1.00  0.00    -0.550 OA
ATOM     11  O   UNL     1      29.186  -4.243  29.811  1.00  0.00    -0.550 OA
ENDBRANCH   8   9
ENDBRANCH   7   8
ENDBRANCH   6   7
ENDBRANCH   5   6
ENDBRANCH   4   5
ENDBRANCH   3   4
ENDBRANCH   2   3
ENDBRANCH   1   2
BRANCH   1  12
ATOM     12  C   UNL     1      28.133   2.938  30.932  1.00  0.00     0.000 C 
BRANCH  12  13
ATOM     13  C   UNL     1      28.049   4.332  31.582  1.00  0.00    -0.000 C 
BRANCH  13  14
ATOM     14  C   UNL     1      27.419   5.380  30.653  1.00  0.00    -0.000 C 
BRANCH  14  15
ATOM     15  C   UNL     1      28.221   6.691  30.611  1.00  0.00    -0.000 C 
BRANCH  15  16
ATOM     16  C   UNL     1      27.286   7.905  30.554  1.00  0.00    -0.000 C 
BRANCH  16  17
ATOM     17  C   UNL     1      27.969   9.092  29.857  1.00  0.00    -0.000 C 
BRANCH  17  18
ATOM     18  C   UNL     1      27.084  10.348  29.823  1.00  0.00    -0.000 C 
BRANCH  18  19
ATOM     19  C   UNL     1      26.015  10.348  30.925  1.00  0.00    -0.003 C 
ATOM     20  C   UNL     1      26.554  10.963  32.214  1.00  0.00     0.004 C 
ENDBRANCH  18  19
ENDBRANCH  17  18
ENDBRANCH  16  17
ENDBRANCH  15  16
ENDBRANCH  14  15
ENDBRANCH  13  14
ENDBRANCH  12  13
ENDBRANCH   1  12
TORSDOF 16
ENDMDL
MODEL 4
REMARK VINA RESULT:    -4.967      5.015      9.902
REMARK INTER + INTRA:         -10.937
REMARK INTER:                  -9.522
REMARK INTRA:                  -1.415
REMARK UNBOUND:                -1.325
REMARK SMILES CCCCCCCCCCCCCCCCCC(=O)[O-]
REMARK SMILES IDX 10 1 11 2 12 3 13 4 14 5 15 6 16 7 17 8 18 9 19 10 20 11
REMARK SMILES IDX 9 12 8 13 7 14 6 15 5 16 4 17 3 18 2 19 1 20
REMARK H PARENT
REMARK Flexibility Score: inf
ROOT
ATOM      1  C   UNL     1      26.664   0.938  28.914  1.00  0.00     0.000 C 
ENDROOT
BRANCH   1   2
ATOM      2  C   UNL     1      26.128   0.443  30.269  1.00  0.00     0.000 C 
BRANCH   2   3
ATOM      3  C   UNL     1      26.987   0.934  31.454  1.00  0.00     0.000 C 
BRANCH   3   4
ATOM      4  C   UNL     1      27.986  -0.117  31.974  1.00  0.00     0.000 C 
BRANCH   4   5
ATOM      5  C   UNL     1      29.420   0.031  31.436  1.00  0.00     0.000 C 
BRANCH   5   6
ATOM      6  C   UNL     1      29.762  -0.883  30.244  1.00  0.00     0.000 C 
BRANCH   6   7
ATOM      7  C   UNL     1      28.885  -2.152  30.163  1.00  0.00     0.006 C 
BRANCH   7   8
ATOM      8  C   UNL     1      29.687  -3.388  29.732  1.00  0.00     0.053 C 
BRANCH   8   9
ATOM      9  C   UNL     1      28.873  -4.629  29.917  1.00  0.00     0.041 C 
ATOM     10  O   UNL     1      28.146  -4.765  30.936  1.00  0.00    -0.550 OA
ATOM     11  O   UNL     1      28.956  -5.660  28.989  1.00  0.00    -0.550 OA
ENDBRANCH   8   9
ENDBRANCH   7   8
ENDBRANCH   6   7
ENDBRANCH   5   6
ENDBRANCH   4   5
ENDBRANCH   3   4
ENDBRANCH   2   3
ENDBRANCH   1   2
BRANCH   1  12
ATOM     12  C   UNL     1      27.574   2.167  29.053  1.00  0.00     0.000 C 
BRANCH  12  13
ATOM     13  C   UNL     1      26.845   3.482  28.723  1.00  0.00    -0.000 C 
BRANCH  13  14
ATOM     14  C   UNL     1      27.673   4.724  29.087  1.00  0.00    -0.000 C 
BRANCH  14  15
ATOM     15  C   UNL     1      27.817   4.914  30.605  1.00  0.00    -0.000 C 
BRANCH  15  16
ATOM     16  C   UNL     1      27.959   6.399  30.962  1.00  0.00    -0.000 C 
BRANCH  16  17
ATOM     17  C   UNL     1      27.225   7.282  29.943  1.00  0.00    -0.000 C 
BRANCH  17  18
ATOM     18  C   UNL     1      26.892   8.676  30.499  1.00  0.00    -0.000 C 
BRANCH  18  19
ATOM     19  C   UNL     1      27.977   9.714  30.182  1.00  0.00    -0.003 C 
ATOM     20  C   UNL     1      28.124  10.722  31.318  1.00  0.00     0.004 C 
ENDBRANCH  18  19
ENDBRANCH  17  18
ENDBRANCH  16  17
ENDBRANCH  15  16
ENDBRANCH  14  15
ENDBRANCH  13  14
ENDBRANCH  12  13
ENDBRANCH   1  12
TORSDOF 16
ENDMDL
MODEL 5
REMARK VINA RESULT:    -4.934      2.050      3.963
REMARK INTER + INTRA:         -10.874
REMARK INTER:                  -9.549
REMARK INTRA:                  -1.325
REMARK UNBOUND:                -1.325
REMARK SMILES CCCCCCCCCCCCCCCCCC(=O)[O-]
REMARK SMILES IDX 10 1 11 2 12 3 13 4 14 5 15 6 16 7 17 8 18 9 19 10 20 11
REMARK SMILES IDX 9 12 8 13 7 14 6 15 5 16 4 17 3 18 2 19 1 20
REMARK H PARENT
REMARK Flexibility Score: inf
ROOT
ATOM      1  C   UNL     1      27.637   5.100  30.163  1.00  0.00     0.000 C 
ENDROOT
BRANCH   1   2
ATOM      2  C   UNL     1      27.123   6.543  30.020  1.00  0.00     0.000 C 
BRANCH   2   3
ATOM      3  C   UNL     1      28.214   7.588  30.339  1.00  0.00     0.000 C 
BRANCH   3   4
ATOM      4  C   UNL     1      28.508   8.554  29.176  1.00  0.00     0.000 C 
BRANCH   4   5
ATOM      5  C   UNL     1      28.448  10.048  29.543  1.00  0.00     0.000 C 
BRANCH   5   6
ATOM      6  C   UNL     1      27.116  10.744  29.208  1.00  0.00     0.000 C 
BRANCH   6   7
ATOM      7  C   UNL     1      26.142  10.829  30.403  1.00  0.00     0.006 C 
BRANCH   7   8
ATOM      8  C   UNL     1      26.864  11.124  31.725  1.00  0.00     0.053 C 
BRANCH   8   9
ATOM      9  C   UNL     1      26.324  10.260  32.820  1.00  0.00     0.041 C 
ATOM     10  O   UNL     1      26.264  10.695  34.000  1.00  0.00    -0.550 OA
ATOM     11  O   UNL     1      25.932   8.955  32.547  1.00  0.00    -0.550 OA
ENDBRANCH   8   9
ENDBRANCH   7   8
ENDBRANCH   6   7
ENDBRANCH   5   6
ENDBRANCH   4   5
ENDBRANCH   3   4
ENDBRANCH   2   3
ENDBRANCH   1   2
BRANCH   1  12
ATOM     12  C   UNL     1      27.208   4.202  28.993  1.00  0.00     0.000 C 
BRANCH  12  13
ATOM     13  C   UNL     1      27.650   2.738  29.179  1.00  0.00    -0.000 C 
BRANCH  13  14
ATOM     14  C   UNL     1      26.671   1.741  28.541  1.00  0.00    -0.000 C 
BRANCH  14  15
ATOM     15  C   UNL     1      26.707   0.362  29.219  1.00  0.00    -0.000 C 
BRANCH  15  16
ATOM     16  C   UNL     1      26.616   0.497  30.744  1.00  0.00    -0.000 C 
BRANCH  16  17
ATOM     17  C   UNL     1      27.593  -0.462  31.440  1.00  0.00    -0.000 C 
BRANCH  17  18
ATOM     18  C   UNL     1      28.828  -0.776  30.580  1.00  0.00    -0.000 C 
BRANCH  18  19
ATOM     19  C   UNL     1      29.958   0.245  30.772  1.00  0.00    -0.003 C 
ATOM     20  C   UNL     1      29.929   0.840  32.177  1.00  0.00     0.004 C 
ENDBRANCH  18  19
ENDBRANCH  17  18
ENDBRANCH  16  17
ENDBRANCH  15  16
ENDBRANCH  14  15
ENDBRANCH  13  14
ENDBRANCH  12  13
ENDBRANCH   1  12
TORSDOF 16
ENDMDL
MODEL 6
REMARK VINA RESULT:    -4.921      1.318      2.624
REMARK INTER + INTRA:         -10.849
REMARK INTER:                  -9.708
REMARK INTRA:                  -1.142
REMARK UNBOUND:                -1.325
REMARK SMILES CCCCCCCCCCCCCCCCCC(=O)[O-]
REMARK SMILES IDX 10 1 11 2 12 3 13 4 14 5 15 6 16 7 17 8 18 9 19 10 20 11
REMARK SMILES IDX 9 12 8 13 7 14 6 15 5 16 4 17 3 18 2 19 1 20
REMARK H PARENT
REMARK Flexibility Score: inf
ROOT
ATOM      1  C   UNL     1      26.995   0.696  31.463  1.00  0.00     0.000 C 
ENDROOT
BRANCH   1   2
ATOM      2  C   UNL     1      26.229   0.357  30.172  1.00  0.00     0.000 C 
BRANCH   2   3
ATOM      3  C   UNL     1      26.758   1.144  28.953  1.00  0.00     0.000 C 
BRANCH   3   4
ATOM      4  C   UNL     1      27.494   2.445  29.326  1.00  0.00     0.000 C 
BRANCH   4   5
ATOM      5  C   UNL     1      27.001   3.703  28.587  1.00  0.00     0.000 C 
BRANCH   5   6
ATOM      6  C   UNL     1      27.751   5.000  28.944  1.00  0.00     0.000 C 
BRANCH   6   7
ATOM      7  C   UNL     1      26.998   5.896  29.950  1.00  0.00     0.006 C 
BRANCH   7   8
ATOM      8  C   UNL     1      27.908   6.960  30.579  1.00  0.00     0.053 C 
BRANCH   8   9
ATOM      9  C   UNL     1      27.568   8.318  30.051  1.00  0.00     0.041 C 
ATOM     10  O   UNL     1      28.348   8.904  29.256  1.00  0.00    -0.550 OA
ATOM     11  O   UNL     1      26.411   8.959  30.477  1.00  0.00    -0.550 OA
ENDBRANCH   8   9
ENDBRANCH   7   8
ENDBRANCH   6   7
ENDBRANCH   5   6
ENDBRANCH   4   5
ENDBRANCH   3   4
ENDBRANCH   2   3
ENDBRANCH   1   2
BRANCH   1  12
ATOM     12  C   UNL     1      27.998  -0.397  31.858  1.00  0.00     0.000 C 
BRANCH  12  13
ATOM     13  C   UNL     1      29.420  -0.109  31.342  1.00  0.00    -0.000 C 
BRANCH  13  14
ATOM     14  C   UNL     1      29.867  -1.100  30.257  1.00  0.00    -0.000 C 
BRANCH  14  15
ATOM     15  C   UNL     1      28.844  -2.223  30.025  1.00  0.00    -0.000 C 
BRANCH  15  16
ATOM     16  C   UNL     1      29.512  -3.453  29.398  1.00  0.00    -0.000 C 
BRANCH  16  17
ATOM     17  C   UNL     1      29.749  -4.546  30.451  1.00  0.00    -0.000 C 
BRANCH  17  18
ATOM     18  C   UNL     1      28.558  -5.508  30.585  1.00  0.00    -0.000 C 
BRANCH  18  19
ATOM     19  C   UNL     1      28.871  -6.915  30.059  1.00  0.00    -0.003 C 
ATOM     20  C   UNL     1      28.584  -7.976  31.119  1.00  0.00     0.004 C 
ENDBRANCH  18  19
ENDBRANCH  17  18
ENDBRANCH  16  17
ENDBRANCH  15  16
ENDBRANCH  14  15
ENDBRANCH  13  14
ENDBRANCH  12  13
ENDBRANCH   1  12
TORSDOF 16
ENDMDL
MODEL 7
REMARK VINA RESULT:    -4.857      5.882     10.802
REMARK INTER + INTRA:         -10.724
REMARK INTER:                  -9.862
REMARK INTRA:                  -0.863
REMARK UNBOUND:                -1.325
REMARK SMILES CCCCCCCCCCCCCCCCCC(=O)[O-]
REMARK SMILES IDX 10 1 11 2 12 3 13 4 14 5 15 6 16 7 17 8 18 9 19 10 20 11
REMARK SMILES IDX 9 12 8 13 7 14 6 15 5 16 4 17 3 18 2 19 1 20
REMARK H PARENT
REMARK Flexibility Score: inf
ROOT
ATOM      1  C   UNL     1      29.027   1.231  29.393  1.00  0.00     0.000 C 
ENDROOT
BRANCH   1   2
ATOM      2  C   UNL     1      28.349  -0.037  28.843  1.00  0.00     0.000 C 
BRANCH   2   3
ATOM      3  C   UNL     1      26.858  -0.120  29.233  1.00  0.00     0.000 C 
BRANCH   3   4
ATOM      4  C   UNL     1      26.565  -1.138  30.352  1.00  0.00     0.000 C 
BRANCH   4   5
ATOM      5  C   UNL     1      27.682  -2.168  30.600  1.00  0.00     0.000 C 
BRANCH   5   6
ATOM      6  C   UNL     1      27.215  -3.488  31.242  1.00  0.00     0.000 C 
BRANCH   6   7
ATOM      7  C   UNL     1      27.340  -4.711  30.308  1.00  0.00     0.006 C 
BRANCH   7   8
ATOM      8  C   UNL     1      28.753  -5.311  30.319  1.00  0.00     0.053 C 
BRANCH   8   9
ATOM      9  C   UNL     1      28.688  -6.802  30.424  1.00  0.00     0.041 C 
ATOM     10  O   UNL     1      28.536  -7.353  31.545  1.00  0.00    -0.550 OA
ATOM     11  O   UNL     1      28.844  -7.586  29.287  1.00  0.00    -0.550 OA
ENDBRANCH   8   9
ENDBRANCH   7   8
ENDBRANCH   6   7
ENDBRANCH   5   6
ENDBRANCH   4   5
ENDBRANCH   3   4
ENDBRANCH   2   3
ENDBRANCH   1   2
BRANCH   1  12
ATOM     12  C   UNL     1      28.014   2.312  29.799  1.00  0.00     0.000 C 
BRANCH  12  13
ATOM     13  C   UNL     1      28.053   2.621  31.307  1.00  0.00    -0.000 C 
BRANCH  13  14
ATOM     14  C   UNL     1      28.321   4.105  31.599  1.00  0.00    -0.000 C 
BRANCH  14  15
ATOM     15  C   UNL     1      27.695   5.036  30.548  1.00  0.00    -0.000 C 
BRANCH  15  16
ATOM     16  C   UNL     1      28.257   6.458  30.668  1.00  0.00    -0.000 C 
BRANCH  16  17
ATOM     17  C   UNL     1      27.337   7.474  29.975  1.00  0.00    -0.000 C 
BRANCH  17  18
ATOM     18  C   UNL     1      27.241   8.804  30.738  1.00  0.00    -0.000 C 
BRANCH  18  19
ATOM     19  C   UNL     1      27.436  10.024  29.828  1.00  0.00    -0.003 C 
ATOM     20  C   UNL     1      28.658   9.851  28.929  1.00  0.00     0.004 C 
ENDBRANCH  18  19
ENDBRANCH  17  18
ENDBRANCH  16  17
ENDBRANCH  15  16
ENDBRANCH  14  15
ENDBRANCH  13  14
ENDBRANCH  12  13
ENDBRANCH   1  12
TORSDOF 16
ENDMDL
MODEL 8
REMARK VINA RESULT:    -4.794      6.238     11.214
REMARK INTER + INTRA:         -10.602
REMARK INTER:                  -9.822
REMARK INTRA:                  -0.781
REMARK UNBOUND:                -1.325
REMARK SMILES CCCCCCCCCCCCCCCCCC(=O)[O-]
REMARK SMILES IDX 10 1 11 2 12 3 13 4 14 5 15 6 16 7 17 8 18 9 19 10 20 11
REMARK SMILES IDX 9 12 8 13 7 14 6 15 5 16 4 17 3 18 2 19 1 20
REMARK H PARENT
REMARK Flexibility Score: inf
ROOT
ATOM      1  C   UNL     1      26.698   0.586  30.838  1.00  0.00     0.000 C 
ENDROOT
BRANCH   1   2
ATOM      2  C   UNL     1      27.620  -0.499  31.422  1.00  0.00     0.000 C 
BRANCH   2   3
ATOM      3  C   UNL     1      27.855  -1.662  30.433  1.00  0.00     0.000 C 
BRANCH   3   4
ATOM      4  C   UNL     1      29.328  -1.830  30.012  1.00  0.00     0.000 C 
BRANCH   4   5
ATOM      5  C   UNL     1      29.755  -3.279  29.715  1.00  0.00     0.000 C 
BRANCH   5   6
ATOM      6  C   UNL     1      28.726  -4.352  30.117  1.00  0.00     0.000 C 
BRANCH   6   7
ATOM      7  C   UNL     1      29.352  -5.734  30.407  1.00  0.00     0.006 C 
BRANCH   7   8
ATOM      8  C   UNL     1      28.329  -6.873  30.291  1.00  0.00     0.053 C 
BRANCH   8   9
ATOM      9  C   UNL     1      29.002  -8.139  29.863  1.00  0.00     0.041 C 
ATOM     10  O   UNL     1      28.843  -8.578  28.694  1.00  0.00    -0.550 OA
ATOM     11  O   UNL     1      29.766  -8.861  30.772  1.00  0.00    -0.550 OA
ENDBRANCH   8   9
ENDBRANCH   7   8
ENDBRANCH   6   7
ENDBRANCH   5   6
ENDBRANCH   4   5
ENDBRANCH   3   4
ENDBRANCH   2   3
ENDBRANCH   1   2
BRANCH   1  12
ATOM     12  C   UNL     1      27.203   1.127  29.492  1.00  0.00     0.000 C 
BRANCH  12  13
ATOM     13  C   UNL     1      28.032   2.416  29.646  1.00  0.00    -0.000 C 
BRANCH  13  14
ATOM     14  C   UNL     1      27.994   2.974  31.077  1.00  0.00    -0.000 C 
BRANCH  14  15
ATOM     15  C   UNL     1      28.061   4.509  31.114  1.00  0.00    -0.000 C 
BRANCH  15  16
ATOM     16  C   UNL     1      27.602   5.112  29.780  1.00  0.00    -0.000 C 
BRANCH  16  17
ATOM     17  C   UNL     1      26.946   6.484  29.994  1.00  0.00    -0.000 C 
BRANCH  17  18
ATOM     18  C   UNL     1      27.935   7.539  30.513  1.00  0.00    -0.000 C 
BRANCH  18  19
ATOM     19  C   UNL     1      27.604   8.954  30.020  1.00  0.00    -0.003 C 
ATOM     20  C   UNL     1      26.420   9.540  30.784  1.00  0.00     0.004 C 
ENDBRANCH  18  19
ENDBRANCH  17  18
ENDBRANCH  16  17
ENDBRANCH  15  16
ENDBRANCH  14  15
ENDBRANCH  13  14
ENDBRANCH  12  13
ENDBRANCH   1  12
TORSDOF 16
ENDMDL
MODEL 9
REMARK VINA RESULT:    -4.768      1.339      1.982
REMARK INTER + INTRA:         -10.553
REMARK INTER:                  -9.590
REMARK INTRA:                  -0.963
REMARK UNBOUND:                -1.325
REMARK SMILES CCCCCCCCCCCCCCCCCC(=O)[O-]
REMARK SMILES IDX 10 1 11 2 12 3 13 4 14 5 15 6 16 7 17 8 18 9 19 10 20 11
REMARK SMILES IDX 9 12 8 13 7 14 6 15 5 16 4 17 3 18 2 19 1 20
REMARK H PARENT
REMARK Flexibility Score: inf
ROOT
ATOM      1  C   UNL     1      28.002   2.612  31.108  1.00  0.00     0.000 C 
ENDROOT
BRANCH   1   2
ATOM      2  C   UNL     1      27.967   2.745  29.575  1.00  0.00     0.000 C 
BRANCH   2   3
ATOM      3  C   UNL     1      27.503   4.145  29.119  1.00  0.00     0.000 C 
BRANCH   3   4
ATOM      4  C   UNL     1      27.282   5.134  30.280  1.00  0.00     0.000 C 
BRANCH   4   5
ATOM      5  C   UNL     1      28.359   6.226  30.414  1.00  0.00     0.000 C 
BRANCH   5   6
ATOM      6  C   UNL     1      27.990   7.580  29.779  1.00  0.00     0.000 C 
BRANCH   6   7
ATOM      7  C   UNL     1      27.239   8.531  30.737  1.00  0.00     0.006 C 
BRANCH   7   8
ATOM      8  C   UNL     1      27.789   9.963  30.687  1.00  0.00     0.053 C 
BRANCH   8   9
ATOM      9  C   UNL     1      27.364  10.643  29.423  1.00  0.00     0.041 C 
ATOM     10  O   UNL     1      26.144  10.852  29.195  1.00  0.00    -0.550 OA
ATOM     11  O   UNL     1      28.314  11.000  28.474  1.00  0.00    -0.550 OA
ENDBRANCH   8   9
ENDBRANCH   7   8
ENDBRANCH   6   7
ENDBRANCH   5   6
ENDBRANCH   4   5
ENDBRANCH   3   4
ENDBRANCH   2   3
ENDBRANCH   1   2
BRANCH   1  12
ATOM     12  C   UNL     1      29.184   1.763  31.600  1.00  0.00     0.000 C 
BRANCH  12  13
ATOM     13  C   UNL     1      28.838   0.266  31.693  1.00  0.00    -0.000 C 
BRANCH  13  14
ATOM     14  C   UNL     1      29.614  -0.584  30.675  1.00  0.00    -0.000 C 
BRANCH  14  15
ATOM     15  C   UNL     1      28.733  -1.646  29.998  1.00  0.00    -0.000 C 
BRANCH  15  16
ATOM     16  C   UNL     1      27.455  -1.898  30.808  1.00  0.00    -0.000 C 
BRANCH  16  17
ATOM     17  C   UNL     1      27.187  -3.402  30.960  1.00  0.00    -0.000 C 
BRANCH  17  18
ATOM     18  C   UNL     1      28.337  -4.266  30.417  1.00  0.00    -0.000 C 
BRANCH  18  19
ATOM     19  C   UNL     1      27.891  -5.690  30.062  1.00  0.00    -0.003 C 
ATOM     20  C   UNL     1      28.789  -6.731  30.726  1.00  0.00     0.004 C 
ENDBRANCH  18  19
ENDBRANCH  17  18
ENDBRANCH  16  17
ENDBRANCH  15  16
ENDBRANCH  14  15
ENDBRANCH  13  14
ENDBRANCH  12  13
ENDBRANCH   1  12
TORSDOF 16
ENDMDL
