MODEL 1
REMARK VINA RESULT:    -4.946      0.000      0.000
REMARK INTER + INTRA:          -5.455
REMARK INTER:                  -5.235
REMARK INTRA:                  -0.220
REMARK UNBOUND:                -0.220
REMARK SMILES C=C(C)[C@@H]1CC=C(C)C(=O)C1
REMARK SMILES IDX 8 1 7 2 6 3 5 4 4 5 11 6 9 7 10 8 2 9 1 10 3 11
REMARK H PARENT
REMARK Flexibility Score: inf
ROOT
ATOM      1  C   UNL     1      14.968 -34.060  20.010  1.00  0.00     0.048 C 
ATOM      2  C   UNL     1      14.678 -33.315  21.283  1.00  0.00    -0.012 C 
ATOM      3  C   UNL     1      15.336 -33.639  22.408  1.00  0.00    -0.019 C 
ATOM      4  C   UNL     1      15.073 -32.958  23.723  1.00  0.00     0.036 C 
ATOM      5  C   UNL     1      14.597 -31.497  23.577  1.00  0.00     0.025 C 
ATOM      6  C   UNL     1      13.489 -31.359  22.513  1.00  0.00     0.089 C 
ATOM      7  C   UNL     1      13.786 -32.132  21.258  1.00  0.00     0.158 C 
ATOM      8  O   UNL     1      13.233 -31.782  20.181  1.00  0.00    -0.295 OA
ENDROOT
BRANCH   5   9
ATOM      9  C   UNL     1      15.751 -30.513  23.373  1.00  0.00    -0.077 C 
ATOM     10  C   UNL     1      15.615 -29.391  22.646  1.00  0.00     0.008 C 
ATOM     11  C   UNL     1      17.093 -30.793  23.999  1.00  0.00     0.039 C 
ENDBRANCH   5   9
TORSDOF 1
ENDMDL
MODEL 2
REMARK VINA RESULT:    -4.859      2.230      3.900
REMARK INTER + INTRA:          -5.363
REMARK INTER:                  -5.142
REMARK INTRA:                  -0.221
REMARK UNBOUND:                -0.220
REMARK SMILES C=C(C)[C@@H]1CC=C(C)C(=O)C1
REMARK SMILES IDX 8 1 7 2 6 3 5 4 4 5 11 6 9 7 10 8 2 9 1 10 3 11
REMARK H PARENT
REMARK Flexibility Score: inf
ROOT
ATOM      1  C   UNL     1      13.378 -31.598  20.856  1.00  0.00     0.048 C 
ATOM      2  C   UNL     1      14.284 -32.783  21.040  1.00  0.00    -0.012 C 
ATOM      3  C   UNL     1      14.454 -33.653  20.031  1.00  0.00    -0.019 C 
ATOM      4  C   UNL     1      15.320 -34.877  20.157  1.00  0.00     0.036 C 
ATOM      5  C   UNL     1      16.489 -34.707  21.151  1.00  0.00     0.025 C 
ATOM      6  C   UNL     1      16.024 -34.071  22.477  1.00  0.00     0.089 C 
ATOM      7  C   UNL     1      15.099 -32.904  22.272  1.00  0.00     0.158 C 
ATOM      8  O   UNL     1      14.995 -32.040  23.184  1.00  0.00    -0.295 OA
ENDROOT
BRANCH   5   9
ATOM      9  C   UNL     1      17.695 -33.997  20.535  1.00  0.00    -0.077 C 
ATOM     10  C   UNL     1      18.532 -33.242  21.266  1.00  0.00     0.008 C 
ATOM     11  C   UNL     1      17.973 -34.135  19.059  1.00  0.00     0.039 C 
ENDBRANCH   5   9
TORSDOF 1
ENDMDL
MODEL 3
REMARK VINA RESULT:    -4.682      1.610      3.180
REMARK INTER + INTRA:          -5.176
REMARK INTER:                  -5.361
REMARK INTRA:                   0.185
REMARK UNBOUND:                -0.220
REMARK SMILES C=C(C)[C@@H]1CC=C(C)C(=O)C1
REMARK SMILES IDX 8 1 7 2 6 3 5 4 4 5 11 6 9 7 10 8 2 9 1 10 3 11
REMARK H PARENT
REMARK Flexibility Score: inf
ROOT
ATOM      1  C   UNL     1      11.066 -30.565  21.571  1.00  0.00     0.048 C 
ATOM      2  C   UNL     1      12.533 -30.554  21.899  1.00  0.00    -0.012 C 
ATOM      3  C   UNL     1      12.959 -29.954  23.022  1.00  0.00    -0.019 C 
ATOM      4  C   UNL     1      14.414 -29.877  23.395  1.00  0.00     0.036 C 
ATOM      5  C   UNL     1      15.252 -31.059  22.862  1.00  0.00     0.025 C 
ATOM      6  C   UNL     1      14.951 -31.349  21.377  1.00  0.00     0.089 C 
ATOM      7  C   UNL     1      13.480 -31.331  21.065  1.00  0.00     0.158 C 
ATOM      8  O   UNL     1      13.062 -31.959  20.056  1.00  0.00    -0.295 OA
ENDROOT
BRANCH   5   9
ATOM      9  C   UNL     1      15.157 -32.303  23.748  1.00  0.00    -0.077 C 
ATOM     10  C   UNL     1      16.200 -33.129  23.936  1.00  0.00     0.008 C 
ATOM     11  C   UNL     1      13.860 -32.630  24.443  1.00  0.00     0.039 C 
ENDBRANCH   5   9
TORSDOF 1
ENDMDL
MODEL 4
REMARK VINA RESULT:    -4.681      1.994      3.119
REMARK INTER + INTRA:          -5.175
REMARK INTER:                  -5.187
REMARK INTRA:                   0.013
REMARK UNBOUND:                -0.220
REMARK SMILES C=C(C)[C@@H]1CC=C(C)C(=O)C1
REMARK SMILES IDX 8 1 7 2 6 3 5 4 4 5 11 6 9 7 10 8 2 9 1 10 3 11
REMARK H PARENT
REMARK Flexibility Score: inf
ROOT
ATOM      1  C   UNL     1      11.485 -30.222  21.762  1.00  0.00     0.048 C 
ATOM      2  C   UNL     1      12.788 -30.924  22.024  1.00  0.00    -0.012 C 
ATOM      3  C   UNL     1      13.351 -31.665  21.056  1.00  0.00    -0.019 C 
ATOM      4  C   UNL     1      14.636 -32.420  21.260  1.00  0.00     0.036 C 
ATOM      5  C   UNL     1      15.581 -31.763  22.288  1.00  0.00     0.025 C 
ATOM      6  C   UNL     1      14.832 -31.349  23.572  1.00  0.00     0.089 C 
ATOM      7  C   UNL     1      13.520 -30.672  23.288  1.00  0.00     0.158 C 
ATOM      8  O   UNL     1      13.025 -29.910  24.161  1.00  0.00    -0.295 OA
ENDROOT
BRANCH   5   9
ATOM      9  C   UNL     1      16.417 -30.631  21.689  1.00  0.00    -0.077 C 
ATOM     10  C   UNL     1      17.482 -30.865  20.904  1.00  0.00     0.008 C 
ATOM     11  C   UNL     1      16.050 -29.197  21.976  1.00  0.00     0.039 C 
ENDBRANCH   5   9
TORSDOF 1
ENDMDL
MODEL 5
REMARK VINA RESULT:    -4.662      8.565     10.645
REMARK INTER + INTRA:          -5.154
REMARK INTER:                  -5.247
REMARK INTRA:                   0.092
REMARK UNBOUND:                -0.220
REMARK SMILES C=C(C)[C@@H]1CC=C(C)C(=O)C1
REMARK SMILES IDX 8 1 7 2 6 3 5 4 4 5 11 6 9 7 10 8 2 9 1 10 3 11
REMARK H PARENT
REMARK Flexibility Score: inf
ROOT
ATOM      1  C   UNL     1      23.494 -22.756  21.897  1.00  0.00     0.048 C 
ATOM      2  C   UNL     1      23.246 -24.202  21.572  1.00  0.00    -0.012 C 
ATOM      3  C   UNL     1      22.771 -25.025  22.521  1.00  0.00    -0.019 C 
ATOM      4  C   UNL     1      22.530 -26.490  22.274  1.00  0.00     0.036 C 
ATOM      5  C   UNL     1      22.175 -26.819  20.808  1.00  0.00     0.025 C 
ATOM      6  C   UNL     1      23.126 -26.115  19.818  1.00  0.00     0.089 C 
ATOM      7  C   UNL     1      23.381 -24.677  20.175  1.00  0.00     0.158 C 
ATOM      8  O   UNL     1      23.751 -23.881  19.271  1.00  0.00    -0.295 OA
ENDROOT
BRANCH   5   9
ATOM      9  C   UNL     1      20.697 -26.588  20.488  1.00  0.00    -0.077 C 
ATOM     10  C   UNL     1      20.241 -25.418  20.012  1.00  0.00     0.008 C 
ATOM     11  C   UNL     1      19.702 -27.700  20.706  1.00  0.00     0.039 C 
ENDBRANCH   5   9
TORSDOF 1
ENDMDL
MODEL 6
REMARK VINA RESULT:    -4.654      1.557      3.720
REMARK INTER + INTRA:          -5.146
REMARK INTER:                  -5.300
REMARK INTRA:                   0.154
REMARK UNBOUND:                -0.220
REMARK SMILES C=C(C)[C@@H]1CC=C(C)C(=O)C1
REMARK SMILES IDX 8 1 7 2 6 3 5 4 4 5 11 6 9 7 10 8 2 9 1 10 3 11
REMARK H PARENT
REMARK Flexibility Score: inf
ROOT
ATOM      1  C   UNL     1      12.750 -29.198  24.186  1.00  0.00     0.048 C 
ATOM      2  C   UNL     1      13.522 -29.873  23.087  1.00  0.00    -0.012 C 
ATOM      3  C   UNL     1      14.862 -29.934  23.156  1.00  0.00    -0.019 C 
ATOM      4  C   UNL     1      15.699 -30.564  22.077  1.00  0.00     0.036 C 
ATOM      5  C   UNL     1      14.977 -31.700  21.320  1.00  0.00     0.025 C 
ATOM      6  C   UNL     1      13.545 -31.295  20.913  1.00  0.00     0.089 C 
ATOM      7  C   UNL     1      12.799 -30.599  22.017  1.00  0.00     0.158 C 
ATOM      8  O   UNL     1      11.539 -30.608  22.001  1.00  0.00    -0.295 OA
ENDROOT
BRANCH   5   9
ATOM      9  C   UNL     1      15.035 -33.038  22.058  1.00  0.00    -0.077 C 
ATOM     10  C   UNL     1      14.993 -33.119  23.399  1.00  0.00     0.008 C 
ATOM     11  C   UNL     1      15.144 -34.322  21.275  1.00  0.00     0.039 C 
ENDBRANCH   5   9
TORSDOF 1
ENDMDL
MODEL 7
REMARK VINA RESULT:    -4.617      1.979      3.556
REMARK INTER + INTRA:          -5.107
REMARK INTER:                  -5.154
REMARK INTRA:                   0.047
REMARK UNBOUND:                -0.220
REMARK SMILES C=C(C)[C@@H]1CC=C(C)C(=O)C1
REMARK SMILES IDX 8 1 7 2 6 3 5 4 4 5 11 6 9 7 10 8 2 9 1 10 3 11
REMARK H PARENT
REMARK Flexibility Score: inf
ROOT
ATOM      1  C   UNL     1      17.820 -30.613  20.919  1.00  0.00     0.048 C 
ATOM      2  C   UNL     1      16.641 -30.691  21.848  1.00  0.00    -0.012 C 
ATOM      3  C   UNL     1      15.985 -29.569  22.186  1.00  0.00    -0.019 C 
ATOM      4  C   UNL     1      14.819 -29.569  23.136  1.00  0.00     0.036 C 
ATOM      5  C   UNL     1      14.010 -30.884  23.121  1.00  0.00     0.025 C 
ATOM      6  C   UNL     1      14.930 -32.121  23.181  1.00  0.00     0.089 C 
ATOM      7  C   UNL     1      16.116 -32.013  22.263  1.00  0.00     0.158 C 
ATOM      8  O   UNL     1      16.687 -33.068  21.878  1.00  0.00    -0.295 OA
ENDROOT
BRANCH   5   9
ATOM      9  C   UNL     1      12.996 -30.945  21.977  1.00  0.00    -0.077 C 
ATOM     10  C   UNL     1      11.797 -30.343  22.050  1.00  0.00     0.008 C 
ATOM     11  C   UNL     1      13.333 -31.700  20.717  1.00  0.00     0.039 C 
ENDBRANCH   5   9
TORSDOF 1
ENDMDL
MODEL 8
REMARK VINA RESULT:    -4.595      1.844      3.645
REMARK INTER + INTRA:          -5.083
REMARK INTER:                  -4.871
REMARK INTRA:                  -0.212
REMARK UNBOUND:                -0.220
REMARK SMILES C=C(C)[C@@H]1CC=C(C)C(=O)C1
REMARK SMILES IDX 8 1 7 2 6 3 5 4 4 5 11 6 9 7 10 8 2 9 1 10 3 11
REMARK H PARENT
REMARK Flexibility Score: inf
ROOT
ATOM      1  C   UNL     1      12.809 -29.866  23.491  1.00  0.00     0.048 C 
ATOM      2  C   UNL     1      13.958 -30.823  23.645  1.00  0.00    -0.012 C 
ATOM      3  C   UNL     1      13.714 -32.123  23.878  1.00  0.00    -0.019 C 
ATOM      4  C   UNL     1      14.815 -33.129  24.075  1.00  0.00     0.036 C 
ATOM      5  C   UNL     1      16.116 -32.776  23.323  1.00  0.00     0.025 C 
ATOM      6  C   UNL     1      16.510 -31.298  23.524  1.00  0.00     0.089 C 
ATOM      7  C   UNL     1      15.342 -30.360  23.390  1.00  0.00     0.158 C 
ATOM      8  O   UNL     1      15.559 -29.155  23.093  1.00  0.00    -0.295 OA
ENDROOT
BRANCH   5   9
ATOM      9  C   UNL     1      16.085 -33.195  21.852  1.00  0.00    -0.077 C 
ATOM     10  C   UNL     1      15.306 -34.195  21.408  1.00  0.00     0.008 C 
ATOM     11  C   UNL     1      16.950 -32.473  20.850  1.00  0.00     0.039 C 
ENDBRANCH   5   9
TORSDOF 1
ENDMDL
MODEL 9
REMARK VINA RESULT:    -4.538      2.155      3.004
REMARK INTER + INTRA:          -5.024
REMARK INTER:                  -4.825
REMARK INTRA:                  -0.198
REMARK UNBOUND:                -0.220
REMARK SMILES C=C(C)[C@@H]1CC=C(C)C(=O)C1
REMARK SMILES IDX 8 1 7 2 6 3 5 4 4 5 11 6 9 7 10 8 2 9 1 10 3 11
REMARK H PARENT
REMARK Flexibility Score: inf
ROOT
ATOM      1  C   UNL     1      17.810 -34.076  18.963  1.00  0.00     0.048 C 
ATOM      2  C   UNL     1      17.154 -33.602  20.230  1.00  0.00    -0.012 C 
ATOM      3  C   UNL     1      17.668 -32.554  20.894  1.00  0.00    -0.019 C 
ATOM      4  C   UNL     1      17.083 -32.048  22.184  1.00  0.00     0.036 C 
ATOM      5  C   UNL     1      15.563 -32.289  22.309  1.00  0.00     0.025 C 
ATOM      6  C   UNL     1      15.178 -33.729  21.912  1.00  0.00     0.089 C 
ATOM      7  C   UNL     1      15.863 -34.192  20.657  1.00  0.00     0.158 C 
ATOM      8  O   UNL     1      15.343 -35.122  19.985  1.00  0.00    -0.295 OA
ENDROOT
BRANCH   5   9
ATOM      9  C   UNL     1      14.732 -31.225  21.590  1.00  0.00    -0.077 C 
ATOM     10  C   UNL     1      15.072 -29.925  21.595  1.00  0.00     0.008 C 
ATOM     11  C   UNL     1      13.485 -31.627  20.843  1.00  0.00     0.039 C 
ENDBRANCH   5   9
TORSDOF 1
ENDMDL
