MODEL 1
REMARK VINA RESULT:    -4.001      0.000      0.000
REMARK INTER + INTRA:          -6.542
REMARK INTER:                  -6.105
REMARK INTRA:                  -0.436
REMARK UNBOUND:                -0.436
REMARK SMILES CCCCCCCCCCC(=O)[O-]
REMARK SMILES IDX 7 1 8 2 9 3 10 4 11 5 12 6 13 7 6 8 5 9 4 10 3 11 2 12 1 13
REMARK H PARENT
REMARK Flexibility Score: inf
ROOT
ATOM      1  C   UNL     1     127.924 120.616 118.723  1.00  0.00     0.000 C 
ENDROOT
BRANCH   1   2
ATOM      2  C   UNL     1     126.747 120.406 117.753  1.00  0.00     0.000 C 
BRANCH   2   3
ATOM      3  C   UNL     1     125.400 120.988 118.229  1.00  0.00     0.006 C 
BRANCH   3   4
ATOM      4  C   UNL     1     124.644 121.801 117.164  1.00  0.00     0.053 C 
BRANCH   4   5
ATOM      5  C   UNL     1     123.264 122.169 117.615  1.00  0.00     0.041 C 
ATOM      6  O   UNL     1     122.973 123.372 117.847  1.00  0.00    -0.550 OA
ATOM      7  O   UNL     1     122.288 121.189 117.745  1.00  0.00    -0.550 OA
ENDBRANCH   4   5
ENDBRANCH   3   4
ENDBRANCH   2   3
ENDBRANCH   1   2
BRANCH   1   8
ATOM      8  C   UNL     1     127.468 120.840 120.174  1.00  0.00     0.000 C 
BRANCH   8   9
ATOM      9  C   UNL     1     128.402 121.786 120.945  1.00  0.00    -0.000 C 
BRANCH   9  10
ATOM     10  C   UNL     1     129.746 122.000 120.230  1.00  0.00    -0.000 C 
BRANCH  10  11
ATOM     11  C   UNL     1     130.600 123.101 120.879  1.00  0.00    -0.000 C 
BRANCH  11  12
ATOM     12  C   UNL     1     132.115 122.814 120.839  1.00  0.00    -0.003 C 
ATOM     13  C   UNL     1     132.424 121.321 120.754  1.00  0.00     0.004 C 
ENDBRANCH  11  12
ENDBRANCH  10  11
ENDBRANCH   9  10
ENDBRANCH   8   9
ENDBRANCH   1   8
TORSDOF 9
ENDMDL
MODEL 2
REMARK VINA RESULT:    -3.935      3.740      7.025
REMARK INTER + INTRA:          -6.442
REMARK INTER:                  -6.031
REMARK INTRA:                  -0.411
REMARK UNBOUND:                -0.436
REMARK SMILES CCCCCCCCCCC(=O)[O-]
REMARK SMILES IDX 7 1 8 2 9 3 10 4 11 5 12 6 13 7 6 8 5 9 4 10 3 11 2 12 1 13
REMARK H PARENT
REMARK Flexibility Score: inf
ROOT
ATOM      1  C   UNL     1     127.751 120.083 118.486  1.00  0.00     0.000 C 
ENDROOT
BRANCH   1   2
ATOM      2  C   UNL     1     129.048 120.911 118.444  1.00  0.00     0.000 C 
BRANCH   2   3
ATOM      3  C   UNL     1     129.541 121.419 119.814  1.00  0.00     0.006 C 
BRANCH   3   4
ATOM      4  C   UNL     1     131.052 121.694 119.887  1.00  0.00     0.053 C 
BRANCH   4   5
ATOM      5  C   UNL     1     131.359 122.944 120.653  1.00  0.00     0.041 C 
ATOM      6  O   UNL     1     130.478 123.474 121.380  1.00  0.00    -0.550 OA
ATOM      7  O   UNL     1     132.628 123.506 120.591  1.00  0.00    -0.550 OA
ENDBRANCH   4   5
ENDBRANCH   3   4
ENDBRANCH   2   3
ENDBRANCH   1   2
BRANCH   1   8
ATOM      8  C   UNL     1     126.581 120.770 117.763  1.00  0.00     0.000 C 
BRANCH   8   9
ATOM      9  C   UNL     1     125.306 119.912 117.761  1.00  0.00    -0.000 C 
BRANCH   9  10
ATOM     10  C   UNL     1     124.121 120.619 117.080  1.00  0.00    -0.000 C 
BRANCH  10  11
ATOM     11  C   UNL     1     124.300 122.144 117.003  1.00  0.00    -0.000 C 
BRANCH  11  12
ATOM     12  C   UNL     1     123.248 122.931 117.812  1.00  0.00    -0.003 C 
ATOM     13  C   UNL     1     123.405 122.737 119.319  1.00  0.00     0.004 C 
ENDBRANCH  11  12
ENDBRANCH  10  11
ENDBRANCH   9  10
ENDBRANCH   8   9
ENDBRANCH   1   8
TORSDOF 9
ENDMDL
MODEL 3
REMARK VINA RESULT:    -3.934      0.899      1.693
REMARK INTER + INTRA:          -6.441
REMARK INTER:                  -5.989
REMARK INTRA:                  -0.452
REMARK UNBOUND:                -0.436
REMARK SMILES CCCCCCCCCCC(=O)[O-]
REMARK SMILES IDX 7 1 8 2 9 3 10 4 11 5 12 6 13 7 6 8 5 9 4 10 3 11 2 12 1 13
REMARK H PARENT
REMARK Flexibility Score: inf
ROOT
ATOM      1  C   UNL     1     127.052 119.719 118.209  1.00  0.00     0.000 C 
ENDROOT
BRANCH   1   2
ATOM      2  C   UNL     1     125.661 120.207 117.769  1.00  0.00     0.000 C 
BRANCH   2   3
ATOM      3  C   UNL     1     125.590 121.695 117.368  1.00  0.00     0.006 C 
BRANCH   3   4
ATOM      4  C   UNL     1     124.279 122.108 116.679  1.00  0.00     0.053 C 
BRANCH   4   5
ATOM      5  C   UNL     1     123.147 122.232 117.652  1.00  0.00     0.041 C 
ATOM      6  O   UNL     1     122.327 121.286 117.792  1.00  0.00    -0.550 OA
ATOM      7  O   UNL     1     123.018 123.375 118.429  1.00  0.00    -0.550 OA
ENDBRANCH   4   5
ENDBRANCH   3   4
ENDBRANCH   2   3
ENDBRANCH   1   2
BRANCH   1   8
ATOM      8  C   UNL     1     127.945 120.855 118.734  1.00  0.00     0.000 C 
BRANCH   8   9
ATOM      9  C   UNL     1     129.380 120.777 118.189  1.00  0.00    -0.000 C 
BRANCH   9  10
ATOM     10  C   UNL     1     130.416 121.345 119.174  1.00  0.00    -0.000 C 
BRANCH  10  11
ATOM     11  C   UNL     1     129.772 122.000 120.406  1.00  0.00    -0.000 C 
BRANCH  11  12
ATOM     12  C   UNL     1     130.546 123.229 120.929  1.00  0.00    -0.003 C 
ATOM     13  C   UNL     1     132.055 123.094 120.732  1.00  0.00     0.004 C 
ENDBRANCH  11  12
ENDBRANCH  10  11
ENDBRANCH   9  10
ENDBRANCH   8   9
ENDBRANCH   1   8
TORSDOF 9
ENDMDL
MODEL 4
REMARK VINA RESULT:    -3.679      3.378      6.357
REMARK INTER + INTRA:          -6.052
REMARK INTER:                  -5.212
REMARK INTRA:                  -0.840
REMARK UNBOUND:                -0.436
REMARK SMILES CCCCCCCCCCC(=O)[O-]
REMARK SMILES IDX 7 1 8 2 9 3 10 4 11 5 12 6 13 7 6 8 5 9 4 10 3 11 2 12 1 13
REMARK H PARENT
REMARK Flexibility Score: inf
ROOT
ATOM      1  C   UNL     1     125.631 119.754 117.890  1.00  0.00     0.000 C 
ENDROOT
BRANCH   1   2
ATOM      2  C   UNL     1     126.817 120.731 117.973  1.00  0.00     0.000 C 
BRANCH   2   3
ATOM      3  C   UNL     1     128.193 120.068 118.196  1.00  0.00     0.006 C 
BRANCH   3   4
ATOM      4  C   UNL     1     129.391 121.020 118.047  1.00  0.00     0.053 C 
BRANCH   4   5
ATOM      5  C   UNL     1     129.987 121.384 119.372  1.00  0.00     0.041 C 
ATOM      6  O   UNL     1     131.233 121.321 119.545  1.00  0.00    -0.550 OA
ATOM      7  O   UNL     1     129.171 121.826 120.405  1.00  0.00    -0.550 OA
ENDBRANCH   4   5
ENDBRANCH   3   4
ENDBRANCH   2   3
ENDBRANCH   1   2
BRANCH   1   8
ATOM      8  C   UNL     1     124.397 120.370 117.211  1.00  0.00     0.000 C 
BRANCH   8   9
ATOM      9  C   UNL     1     124.509 121.895 117.057  1.00  0.00    -0.000 C 
BRANCH   9  10
ATOM     10  C   UNL     1     123.232 122.628 117.501  1.00  0.00    -0.000 C 
BRANCH  10  11
ATOM     11  C   UNL     1     122.731 122.172 118.882  1.00  0.00    -0.000 C 
BRANCH  11  12
ATOM     12  C   UNL     1     123.676 122.555 120.040  1.00  0.00    -0.003 C 
ATOM     13  C   UNL     1     124.109 121.344 120.865  1.00  0.00     0.004 C 
ENDBRANCH  11  12
ENDBRANCH  10  11
ENDBRANCH   9  10
ENDBRANCH   8   9
ENDBRANCH   1   8
TORSDOF 9
ENDMDL
MODEL 5
REMARK VINA RESULT:    -3.643      3.286      6.463
REMARK INTER + INTRA:          -5.996
REMARK INTER:                  -5.100
REMARK INTRA:                  -0.896
REMARK UNBOUND:                -0.436
REMARK SMILES CCCCCCCCCCC(=O)[O-]
REMARK SMILES IDX 7 1 8 2 9 3 10 4 11 5 12 6 13 7 6 8 5 9 4 10 3 11 2 12 1 13
REMARK H PARENT
REMARK Flexibility Score: inf
ROOT
ATOM      1  C   UNL     1     126.499 119.872 119.010  1.00  0.00     0.000 C 
ENDROOT
BRANCH   1   2
ATOM      2  C   UNL     1     126.483 120.646 120.340  1.00  0.00     0.000 C 
BRANCH   2   3
ATOM      3  C   UNL     1     127.776 121.428 120.653  1.00  0.00     0.006 C 
BRANCH   3   4
ATOM      4  C   UNL     1     129.072 120.625 120.453  1.00  0.00     0.053 C 
BRANCH   4   5
ATOM      5  C   UNL     1     129.983 121.268 119.453  1.00  0.00     0.041 C 
ATOM      6  O   UNL     1     130.885 122.059 119.836  1.00  0.00    -0.550 OA
ATOM      7  O   UNL     1     129.858 120.969 118.103  1.00  0.00    -0.550 OA
ENDBRANCH   4   5
ENDBRANCH   3   4
ENDBRANCH   2   3
ENDBRANCH   1   2
BRANCH   1   8
ATOM      8  C   UNL     1     126.266 120.778 117.789  1.00  0.00     0.000 C 
BRANCH   8   9
ATOM      9  C   UNL     1     124.786 120.847 117.381  1.00  0.00    -0.000 C 
BRANCH   9  10
ATOM     10  C   UNL     1     124.358 122.259 116.950  1.00  0.00    -0.000 C 
BRANCH  10  11
ATOM     11  C   UNL     1     123.266 122.855 117.853  1.00  0.00    -0.000 C 
BRANCH  11  12
ATOM     12  C   UNL     1     122.777 121.888 118.952  1.00  0.00    -0.003 C 
ATOM     13  C   UNL     1     123.185 122.341 120.352  1.00  0.00     0.004 C 
ENDBRANCH  11  12
ENDBRANCH  10  11
ENDBRANCH   9  10
ENDBRANCH   8   9
ENDBRANCH   1   8
TORSDOF 9
ENDMDL
MODEL 6
REMARK VINA RESULT:    -3.606      9.366     10.533
REMARK INTER + INTRA:          -5.940
REMARK INTER:                  -4.689
REMARK INTRA:                  -1.251
REMARK UNBOUND:                -0.436
REMARK SMILES CCCCCCCCCCC(=O)[O-]
REMARK SMILES IDX 7 1 8 2 9 3 10 4 11 5 12 6 13 7 6 8 5 9 4 10 3 11 2 12 1 13
REMARK H PARENT
REMARK Flexibility Score: inf
ROOT
ATOM      1  C   UNL     1     123.525 126.995 128.808  1.00  0.00     0.000 C 
ENDROOT
BRANCH   1   2
ATOM      2  C   UNL     1     123.866 128.491 128.689  1.00  0.00     0.000 C 
BRANCH   2   3
ATOM      3  C   UNL     1     123.515 129.134 127.331  1.00  0.00     0.006 C 
BRANCH   3   4
ATOM      4  C   UNL     1     122.889 128.168 126.311  1.00  0.00     0.053 C 
BRANCH   4   5
ATOM      5  C   UNL     1     122.430 128.878 125.075  1.00  0.00     0.041 C 
ATOM      6  O   UNL     1     121.399 129.600 125.105  1.00  0.00    -0.550 OA
ATOM      7  O   UNL     1     123.161 128.771 123.898  1.00  0.00    -0.550 OA
ENDBRANCH   4   5
ENDBRANCH   3   4
ENDBRANCH   2   3
ENDBRANCH   1   2
BRANCH   1   8
ATOM      8  C   UNL     1     124.761 126.120 129.072  1.00  0.00     0.000 C 
BRANCH   8   9
ATOM      9  C   UNL     1     125.306 125.468 127.792  1.00  0.00    -0.000 C 
BRANCH   9  10
ATOM     10  C   UNL     1     126.779 125.825 127.530  1.00  0.00    -0.000 C 
BRANCH  10  11
ATOM     11  C   UNL     1     126.959 127.247 126.973  1.00  0.00    -0.000 C 
BRANCH  11  12
ATOM     12  C   UNL     1     126.351 127.443 125.569  1.00  0.00    -0.003 C 
ATOM     13  C   UNL     1     126.541 128.865 125.045  1.00  0.00     0.004 C 
ENDBRANCH  11  12
ENDBRANCH  10  11
ENDBRANCH   9  10
ENDBRANCH   8   9
ENDBRANCH   1   8
TORSDOF 9
ENDMDL
MODEL 7
REMARK VINA RESULT:    -3.586      3.049      6.122
REMARK INTER + INTRA:          -5.909
REMARK INTER:                  -5.246
REMARK INTRA:                  -0.664
REMARK UNBOUND:                -0.436
REMARK SMILES CCCCCCCCCCC(=O)[O-]
REMARK SMILES IDX 7 1 8 2 9 3 10 4 11 5 12 6 13 7 6 8 5 9 4 10 3 11 2 12 1 13
REMARK H PARENT
REMARK Flexibility Score: inf
ROOT
ATOM      1  C   UNL     1     127.792 120.885 117.777  1.00  0.00     0.000 C 
ENDROOT
BRANCH   1   2
ATOM      2  C   UNL     1     129.265 120.740 118.196  1.00  0.00     0.000 C 
BRANCH   2   3
ATOM      3  C   UNL     1     129.563 121.103 119.666  1.00  0.00     0.006 C 
BRANCH   3   4
ATOM      4  C   UNL     1     128.326 121.504 120.487  1.00  0.00     0.053 C 
BRANCH   4   5
ATOM      5  C   UNL     1     127.875 120.402 121.396  1.00  0.00     0.041 C 
ATOM      6  O   UNL     1     127.077 120.647 122.340  1.00  0.00    -0.550 OA
ATOM      7  O   UNL     1     128.307 119.100 121.182  1.00  0.00    -0.550 OA
ENDBRANCH   4   5
ENDBRANCH   3   4
ENDBRANCH   2   3
ENDBRANCH   1   2
BRANCH   1   8
ATOM      8  C   UNL     1     127.034 119.547 117.784  1.00  0.00     0.000 C 
BRANCH   8   9
ATOM      9  C   UNL     1     125.509 119.734 117.747  1.00  0.00    -0.000 C 
BRANCH   9  10
ATOM     10  C   UNL     1     125.078 121.150 118.162  1.00  0.00    -0.000 C 
BRANCH  10  11
ATOM     11  C   UNL     1     124.288 121.881 117.064  1.00  0.00    -0.000 C 
BRANCH  11  12
ATOM     12  C   UNL     1     123.208 122.837 117.611  1.00  0.00    -0.003 C 
ATOM     13  C   UNL     1     122.793 122.492 119.040  1.00  0.00     0.004 C 
ENDBRANCH  11  12
ENDBRANCH  10  11
ENDBRANCH   9  10
ENDBRANCH   8   9
ENDBRANCH   1   8
TORSDOF 9
ENDMDL
MODEL 8
REMARK VINA RESULT:    -3.566      4.268      7.351
REMARK INTER + INTRA:          -5.878
REMARK INTER:                  -5.434
REMARK INTRA:                  -0.444
REMARK UNBOUND:                -0.436
REMARK SMILES CCCCCCCCCCC(=O)[O-]
REMARK SMILES IDX 7 1 8 2 9 3 10 4 11 5 12 6 13 7 6 8 5 9 4 10 3 11 2 12 1 13
REMARK H PARENT
REMARK Flexibility Score: inf
ROOT
ATOM      1  C   UNL     1     128.933 121.099 119.843  1.00  0.00     0.000 C 
ENDROOT
BRANCH   1   2
ATOM      2  C   UNL     1     130.215 121.928 120.035  1.00  0.00     0.000 C 
BRANCH   2   3
ATOM      3  C   UNL     1     131.518 121.219 119.612  1.00  0.00     0.006 C 
BRANCH   3   4
ATOM      4  C   UNL     1     132.249 120.493 120.754  1.00  0.00     0.053 C 
BRANCH   4   5
ATOM      5  C   UNL     1     132.043 119.011 120.700  1.00  0.00     0.041 C 
ATOM      6  O   UNL     1     131.241 118.453 121.495  1.00  0.00    -0.550 OA
ATOM      7  O   UNL     1     132.709 118.249 119.748  1.00  0.00    -0.550 OA
ENDBRANCH   4   5
ENDBRANCH   3   4
ENDBRANCH   2   3
ENDBRANCH   1   2
BRANCH   1   8
ATOM      8  C   UNL     1     128.773 120.572 118.407  1.00  0.00     0.000 C 
BRANCH   8   9
ATOM      9  C   UNL     1     127.454 121.022 117.758  1.00  0.00    -0.000 C 
BRANCH   9  10
ATOM     10  C   UNL     1     126.221 120.594 118.572  1.00  0.00    -0.000 C 
BRANCH  10  11
ATOM     11  C   UNL     1     124.938 120.538 117.727  1.00  0.00    -0.000 C 
BRANCH  11  12
ATOM     12  C   UNL     1     124.609 121.866 117.014  1.00  0.00    -0.003 C 
ATOM     13  C   UNL     1     123.490 122.640 117.709  1.00  0.00     0.004 C 
ENDBRANCH  11  12
ENDBRANCH  10  11
ENDBRANCH   9  10
ENDBRANCH   8   9
ENDBRANCH   1   8
TORSDOF 9
ENDMDL
MODEL 9
REMARK VINA RESULT:    -3.512      1.868      3.195
REMARK INTER + INTRA:          -5.796
REMARK INTER:                  -4.656
REMARK INTRA:                  -1.140
REMARK UNBOUND:                -0.436
REMARK SMILES CCCCCCCCCCC(=O)[O-]
REMARK SMILES IDX 7 1 8 2 9 3 10 4 11 5 12 6 13 7 6 8 5 9 4 10 3 11 2 12 1 13
REMARK H PARENT
REMARK Flexibility Score: inf
ROOT
ATOM      1  C   UNL     1     127.408 119.514 117.843  1.00  0.00     0.000 C 
ENDROOT
BRANCH   1   2
ATOM      2  C   UNL     1     125.906 119.833 117.734  1.00  0.00     0.000 C 
BRANCH   2   3
ATOM      3  C   UNL     1     125.555 121.335 117.772  1.00  0.00     0.006 C 
BRANCH   3   4
ATOM      4  C   UNL     1     124.310 121.720 116.957  1.00  0.00     0.053 C 
BRANCH   4   5
ATOM      5  C   UNL     1     123.183 122.172 117.834  1.00  0.00     0.041 C 
ATOM      6  O   UNL     1     122.716 123.336 117.716  1.00  0.00    -0.550 OA
ATOM      7  O   UNL     1     122.625 121.298 118.758  1.00  0.00    -0.550 OA
ENDBRANCH   4   5
ENDBRANCH   3   4
ENDBRANCH   2   3
ENDBRANCH   1   2
BRANCH   1   8
ATOM      8  C   UNL     1     128.265 120.762 118.114  1.00  0.00     0.000 C 
BRANCH   8   9
ATOM      9  C   UNL     1     128.986 120.697 119.470  1.00  0.00    -0.000 C 
BRANCH   9  10
ATOM     10  C   UNL     1     128.275 121.520 120.556  1.00  0.00    -0.000 C 
BRANCH  10  11
ATOM     11  C   UNL     1     127.390 120.660 121.474  1.00  0.00    -0.000 C 
BRANCH  11  12
ATOM     12  C   UNL     1     125.904 121.074 121.465  1.00  0.00    -0.003 C 
ATOM     13  C   UNL     1     124.968 119.882 121.266  1.00  0.00     0.004 C 
ENDBRANCH  11  12
ENDBRANCH  10  11
ENDBRANCH   9  10
ENDBRANCH   8   9
ENDBRANCH   1   8
TORSDOF 9
ENDMDL
