MODEL 1
REMARK VINA RESULT:    26.120      0.000      0.000
REMARK INTER + INTRA:          30.508
REMARK INTER:                  30.700
REMARK INTRA:                  -0.193
REMARK UNBOUND:                -0.193
REMARK SMILES O=c1c(O)c(-c2ccc(O)cc2)oc2cc(O)cc(O)c12
REMARK SMILES IDX 5 1 3 2 2 3 1 4 21 5 19 6 18 7 16 8 15 9 14 10 13 11 6 12
REMARK SMILES IDX 7 13 8 14 9 15 12 16 11 17 10 18 4 20 20 22 17 24
REMARK H PARENT 10 19 4 21 20 23 17 25
REMARK Flexibility Score: inf
ROOT
ATOM      1  C   UNL     1      20.133 -12.583 -16.267  1.00  0.00     0.180 A 
ATOM      2  C   UNL     1      19.995 -12.880 -17.634  1.00  0.00     0.208 A 
ATOM      3  C   UNL     1      21.034 -12.537 -18.514  1.00  0.00     0.238 A 
ATOM      4  O   UNL     1      20.928 -12.854 -19.727  1.00  0.00    -0.285 OA
ATOM      5  C   UNL     1      22.189 -11.885 -18.019  1.00  0.00     0.111 A 
ATOM      6  C   UNL     1      23.285 -11.455 -18.827  1.00  0.00     0.134 A 
ATOM      7  C   UNL     1      24.433 -10.938 -18.213  1.00  0.00     0.093 A 
ATOM      8  C   UNL     1      24.500 -10.776 -16.830  1.00  0.00     0.123 A 
ATOM      9  C   UNL     1      23.411 -11.138 -16.036  1.00  0.00     0.094 A 
ATOM     10  C   UNL     1      22.266 -11.690 -16.616  1.00  0.00     0.146 A 
ATOM     11  O   UNL     1      21.257 -12.031 -15.824  1.00  0.00    -0.452 OA
ENDROOT
BRANCH   1  12
ATOM     12  C   UNL     1      19.071 -12.893 -15.282  1.00  0.00     0.021 A 
ATOM     13  C   UNL     1      18.789 -14.218 -14.902  1.00  0.00     0.016 A 
ATOM     14  C   UNL     1      17.765 -14.488 -13.989  1.00  0.00     0.047 A 
ATOM     15  C   UNL     1      17.002 -13.441 -13.456  1.00  0.00     0.115 A 
ATOM     16  C   UNL     1      18.287 -11.851 -14.759  1.00  0.00     0.016 A 
ATOM     17  C   UNL     1      17.265 -12.124 -13.846  1.00  0.00     0.047 A 
BRANCH  15  18
ATOM     18  O   UNL     1      15.980 -13.697 -12.545  1.00  0.00    -0.508 OA
ATOM     19  H   UNL     1      15.194 -13.066 -12.439  1.00  0.00     0.293 HD
ENDBRANCH  15  18
ENDBRANCH   1  12
BRANCH   2  20
ATOM     20  O   UNL     1      18.856 -13.544 -18.098  1.00  0.00    -0.502 OA
ATOM     21  H   UNL     1      18.880 -14.177 -18.888  1.00  0.00     0.293 HD
ENDBRANCH   2  20
BRANCH   6  22
ATOM     22  O   UNL     1      23.285 -11.487 -20.225  1.00  0.00    -0.507 OA
ATOM     23  H   UNL     1      24.111 -11.430 -20.800  1.00  0.00     0.293 HD
ENDBRANCH   6  22
BRANCH   8  24
ATOM     24  O   UNL     1      25.653 -10.245 -16.256  1.00  0.00    -0.508 OA
ATOM     25  H   UNL     1      25.622  -9.731 -15.382  1.00  0.00     0.293 HD
ENDBRANCH   8  24
TORSDOF 5
ENDMDL
MODEL 2
REMARK VINA RESULT:    27.009      1.254      2.912
REMARK INTER + INTRA:          31.553
REMARK INTER:                  31.786
REMARK INTRA:                  -0.233
REMARK UNBOUND:                -0.193
REMARK SMILES O=c1c(O)c(-c2ccc(O)cc2)oc2cc(O)cc(O)c12
REMARK SMILES IDX 5 1 3 2 2 3 1 4 21 5 19 6 18 7 16 8 15 9 14 10 13 11 6 12
REMARK SMILES IDX 7 13 8 14 9 15 12 16 11 17 10 18 4 20 20 22 17 24
REMARK H PARENT 10 19 4 21 20 23 17 25
REMARK Flexibility Score: inf
ROOT
ATOM      1  C   UNL     1      20.192 -12.593 -15.588  1.00  0.00     0.180 A 
ATOM      2  C   UNL     1      21.349 -12.128 -14.938  1.00  0.00     0.208 A 
ATOM      3  C   UNL     1      22.481 -11.811 -15.705  1.00  0.00     0.238 A 
ATOM      4  O   UNL     1      23.495 -11.345 -15.123  1.00  0.00    -0.285 OA
ATOM      5  C   UNL     1      22.448 -11.979 -17.111  1.00  0.00     0.111 A 
ATOM      6  C   UNL     1      23.550 -11.727 -17.983  1.00  0.00     0.134 A 
ATOM      7  C   UNL     1      23.365 -11.801 -19.369  1.00  0.00     0.093 A 
ATOM      8  C   UNL     1      22.139 -12.181 -19.912  1.00  0.00     0.123 A 
ATOM      9  C   UNL     1      21.071 -12.487 -19.067  1.00  0.00     0.094 A 
ATOM     10  C   UNL     1      21.215 -12.387 -17.681  1.00  0.00     0.146 A 
ATOM     11  O   UNL     1      20.171 -12.677 -16.913  1.00  0.00    -0.452 OA
ENDROOT
BRANCH   1  12
ATOM     12  C   UNL     1      18.969 -12.970 -14.845  1.00  0.00     0.021 A 
ATOM     13  C   UNL     1      18.608 -14.318 -14.663  1.00  0.00     0.016 A 
ATOM     14  C   UNL     1      17.434 -14.650 -13.979  1.00  0.00     0.047 A 
ATOM     15  C   UNL     1      16.601 -13.640 -13.480  1.00  0.00     0.115 A 
ATOM     16  C   UNL     1      18.116 -11.965 -14.360  1.00  0.00     0.016 A 
ATOM     17  C   UNL     1      16.944 -12.299 -13.675  1.00  0.00     0.047 A 
BRANCH  15  18
ATOM     18  O   UNL     1      15.430 -13.958 -12.796  1.00  0.00    -0.508 OA
ATOM     19  H   UNL     1      14.759 -13.243 -12.533  1.00  0.00     0.293 HD
ENDBRANCH  15  18
ENDBRANCH   1  12
BRANCH   2  20
ATOM     20  O   UNL     1      21.353 -11.949 -13.552  1.00  0.00    -0.502 OA
ATOM     21  H   UNL     1      22.196 -12.023 -12.996  1.00  0.00     0.293 HD
ENDBRANCH   2  20
BRANCH   6  22
ATOM     22  O   UNL     1      24.844 -11.430 -17.541  1.00  0.00    -0.507 OA
ATOM     23  H   UNL     1      25.568 -12.114 -17.387  1.00  0.00     0.293 HD
ENDBRANCH   6  22
BRANCH   8  24
ATOM     24  O   UNL     1      21.994 -12.259 -21.296  1.00  0.00    -0.508 OA
ATOM     25  H   UNL     1      22.179 -13.117 -21.801  1.00  0.00     0.293 HD
ENDBRANCH   8  24
TORSDOF 5
ENDMDL
MODEL 3
REMARK VINA RESULT:    28.157      4.341      7.266
REMARK INTER + INTRA:          32.903
REMARK INTER:                  33.101
REMARK INTRA:                  -0.198
REMARK UNBOUND:                -0.193
REMARK SMILES O=c1c(O)c(-c2ccc(O)cc2)oc2cc(O)cc(O)c12
REMARK SMILES IDX 5 1 3 2 2 3 1 4 21 5 19 6 18 7 16 8 15 9 14 10 13 11 6 12
REMARK SMILES IDX 7 13 8 14 9 15 12 16 11 17 10 18 4 20 20 22 17 24
REMARK H PARENT 10 19 4 21 20 23 17 25
REMARK Flexibility Score: inf
ROOT
ATOM      1  C   UNL     1      22.456  -8.077 -18.430  1.00  0.00     0.180 A 
ATOM      2  C   UNL     1      23.294  -8.339 -17.332  1.00  0.00     0.208 A 
ATOM      3  C   UNL     1      23.625  -9.669 -17.029  1.00  0.00     0.238 A 
ATOM      4  O   UNL     1      24.418  -9.892 -16.078  1.00  0.00    -0.285 OA
ATOM      5  C   UNL     1      23.100 -10.722 -17.817  1.00  0.00     0.111 A 
ATOM      6  C   UNL     1      23.337 -12.109 -17.575  1.00  0.00     0.134 A 
ATOM      7  C   UNL     1      22.875 -13.058 -18.496  1.00  0.00     0.093 A 
ATOM      8  C   UNL     1      22.132 -12.677 -19.612  1.00  0.00     0.123 A 
ATOM      9  C   UNL     1      21.844 -11.328 -19.825  1.00  0.00     0.094 A 
ATOM     10  C   UNL     1      22.322 -10.355 -18.944  1.00  0.00     0.146 A 
ATOM     11  O   UNL     1      22.034  -9.082 -19.189  1.00  0.00    -0.452 OA
ENDROOT
BRANCH   1  12
ATOM     12  C   UNL     1      22.044  -6.703 -18.798  1.00  0.00     0.021 A 
ATOM     13  C   UNL     1      22.954  -5.794 -19.369  1.00  0.00     0.016 A 
ATOM     14  C   UNL     1      22.548  -4.494 -19.685  1.00  0.00     0.047 A 
ATOM     15  C   UNL     1      21.235  -4.081 -19.421  1.00  0.00     0.115 A 
ATOM     16  C   UNL     1      20.736  -6.275 -18.518  1.00  0.00     0.016 A 
ATOM     17  C   UNL     1      20.333  -4.975 -18.835  1.00  0.00     0.047 A 
BRANCH  15  18
ATOM     18  O   UNL     1      20.819  -2.789 -19.732  1.00  0.00    -0.508 OA
ATOM     19  H   UNL     1      21.328  -2.214 -20.395  1.00  0.00     0.293 HD
ENDBRANCH  15  18
ENDBRANCH   1  12
BRANCH   2  20
ATOM     20  O   UNL     1      23.819  -7.283 -16.581  1.00  0.00    -0.502 OA
ATOM     21  H   UNL     1      23.873  -6.337 -16.937  1.00  0.00     0.293 HD
ENDBRANCH   2  20
BRANCH   6  22
ATOM     22  O   UNL     1      23.990 -12.605 -16.443  1.00  0.00    -0.507 OA
ATOM     23  H   UNL     1      23.661 -13.376 -15.882  1.00  0.00     0.293 HD
ENDBRANCH   6  22
BRANCH   8  24
ATOM     24  O   UNL     1      21.675 -13.649 -20.499  1.00  0.00    -0.508 OA
ATOM     25  H   UNL     1      21.534 -14.609 -20.207  1.00  0.00     0.293 HD
ENDBRANCH   8  24
TORSDOF 5
ENDMDL
