MODEL 1
REMARK VINA RESULT:    -3.640      0.000      0.000
REMARK INTER + INTRA:          -6.797
REMARK INTER:                  -5.555
REMARK INTRA:                  -1.242
REMARK UNBOUND:                -1.242
REMARK SMILES CCCCCCCCCCC(=O)[O-]
REMARK SMILES IDX 7 1 8 2 9 3 10 4 11 5 12 6 13 7 6 8 5 9 4 10 3 11 2 12 1 13
REMARK H PARENT
REMARK Flexibility Score: inf
ROOT
ATOM      1  C   UNL     1       8.753   2.391  50.975  1.00  0.00     0.000 C 
ENDROOT
BRANCH   1   2
ATOM      2  C   UNL     1       7.905   3.667  51.111  1.00  0.00     0.000 C 
BRANCH   2   3
ATOM      3  C   UNL     1       7.391   3.886  52.542  1.00  0.00     0.006 C 
BRANCH   3   4
ATOM      4  C   UNL     1       8.447   4.591  53.400  1.00  0.00     0.053 C 
BRANCH   4   5
ATOM      5  C   UNL     1       7.887   4.930  54.745  1.00  0.00     0.041 C 
ATOM      6  O   UNL     1       8.555   5.630  55.551  1.00  0.00    -0.550 OA
ATOM      7  O   UNL     1       6.608   4.514  55.090  1.00  0.00    -0.550 OA
ENDBRANCH   4   5
ENDBRANCH   3   4
ENDBRANCH   2   3
ENDBRANCH   1   2
BRANCH   1   8
ATOM      8  C   UNL     1      10.177   2.678  50.475  1.00  0.00     0.000 C 
BRANCH   8   9
ATOM      9  C   UNL     1      11.199   2.519  51.608  1.00  0.00    -0.000 C 
BRANCH   9  10
ATOM     10  C   UNL     1      11.839   3.867  51.964  1.00  0.00    -0.000 C 
BRANCH  10  11
ATOM     11  C   UNL     1      11.670   4.924  50.857  1.00  0.00    -0.000 C 
BRANCH  11  12
ATOM     12  C   UNL     1      11.087   6.268  51.330  1.00  0.00    -0.003 C 
ATOM     13  C   UNL     1       9.837   6.684  50.556  1.00  0.00     0.004 C 
ENDBRANCH  11  12
ENDBRANCH  10  11
ENDBRANCH   9  10
ENDBRANCH   8   9
ENDBRANCH   1   8
TORSDOF 9
ENDMDL
MODEL 2
REMARK VINA RESULT:    -3.525      2.223      3.563
REMARK INTER + INTRA:          -6.622
REMARK INTER:                  -5.509
REMARK INTRA:                  -1.114
REMARK UNBOUND:                -1.242
REMARK SMILES CCCCCCCCCCC(=O)[O-]
REMARK SMILES IDX 7 1 8 2 9 3 10 4 11 5 12 6 13 7 6 8 5 9 4 10 3 11 2 12 1 13
REMARK H PARENT
REMARK Flexibility Score: inf
ROOT
ATOM      1  C   UNL     1       8.925   5.168  53.358  1.00  0.00     0.000 C 
ENDROOT
BRANCH   1   2
ATOM      2  C   UNL     1       7.730   4.201  53.315  1.00  0.00     0.000 C 
BRANCH   2   3
ATOM      3  C   UNL     1       7.434   3.690  51.897  1.00  0.00     0.006 C 
BRANCH   3   4
ATOM      4  C   UNL     1       5.929   3.715  51.610  1.00  0.00     0.053 C 
BRANCH   4   5
ATOM      5  C   UNL     1       5.487   5.099  51.255  1.00  0.00     0.041 C 
ATOM      6  O   UNL     1       6.135   5.775  50.412  1.00  0.00    -0.550 OA
ATOM      7  O   UNL     1       4.332   5.625  51.817  1.00  0.00    -0.550 OA
ENDBRANCH   4   5
ENDBRANCH   3   4
ENDBRANCH   2   3
ENDBRANCH   1   2
BRANCH   1   8
ATOM      8  C   UNL     1       9.352   5.645  51.961  1.00  0.00     0.000 C 
BRANCH   8   9
ATOM      9  C   UNL     1      10.834   6.036  51.944  1.00  0.00    -0.000 C 
BRANCH   9  10
ATOM     10  C   UNL     1      11.709   4.858  51.493  1.00  0.00    -0.000 C 
BRANCH  10  11
ATOM     11  C   UNL     1      10.989   3.920  50.506  1.00  0.00    -0.000 C 
BRANCH  11  12
ATOM     12  C   UNL     1      10.806   2.476  51.005  1.00  0.00    -0.003 C 
ATOM     13  C   UNL     1      11.644   2.159  52.243  1.00  0.00     0.004 C 
ENDBRANCH  11  12
ENDBRANCH  10  11
ENDBRANCH   9  10
ENDBRANCH   8   9
ENDBRANCH   1   8
TORSDOF 9
ENDMDL
MODEL 3
REMARK VINA RESULT:    -3.522      2.087      4.216
REMARK INTER + INTRA:          -6.618
REMARK INTER:                  -5.555
REMARK INTRA:                  -1.063
REMARK UNBOUND:                -1.242
REMARK SMILES CCCCCCCCCCC(=O)[O-]
REMARK SMILES IDX 7 1 8 2 9 3 10 4 11 5 12 6 13 7 6 8 5 9 4 10 3 11 2 12 1 13
REMARK H PARENT
REMARK Flexibility Score: inf
ROOT
ATOM      1  C   UNL     1       9.878   2.904  50.632  1.00  0.00     0.000 C 
ENDROOT
BRANCH   1   2
ATOM      2  C   UNL     1      10.859   2.852  51.815  1.00  0.00     0.000 C 
BRANCH   2   3
ATOM      3  C   UNL     1      11.857   4.020  51.807  1.00  0.00     0.006 C 
BRANCH   3   4
ATOM      4  C   UNL     1      11.494   5.043  50.726  1.00  0.00     0.053 C 
BRANCH   4   5
ATOM      5  C   UNL     1      10.824   6.233  51.336  1.00  0.00     0.041 C 
ATOM      6  O   UNL     1      11.263   6.727  52.408  1.00  0.00    -0.550 OA
ATOM      7  O   UNL     1       9.744   6.827  50.695  1.00  0.00    -0.550 OA
ENDBRANCH   4   5
ENDBRANCH   3   4
ENDBRANCH   2   3
ENDBRANCH   1   2
BRANCH   1   8
ATOM      8  C   UNL     1       8.422   2.659  51.059  1.00  0.00     0.000 C 
BRANCH   8   9
ATOM      9  C   UNL     1       7.513   3.801  50.590  1.00  0.00    -0.000 C 
BRANCH   9  10
ATOM     10  C   UNL     1       7.166   4.741  51.753  1.00  0.00    -0.000 C 
BRANCH  10  11
ATOM     11  C   UNL     1       7.536   4.155  53.128  1.00  0.00    -0.000 C 
BRANCH  11  12
ATOM     12  C   UNL     1       8.588   4.962  53.912  1.00  0.00    -0.003 C 
ATOM     13  C   UNL     1       8.163   5.261  55.349  1.00  0.00     0.004 C 
ENDBRANCH  11  12
ENDBRANCH  10  11
ENDBRANCH   9  10
ENDBRANCH   8   9
ENDBRANCH   1   8
TORSDOF 9
ENDMDL
MODEL 4
REMARK VINA RESULT:    -3.514      3.103      5.047
REMARK INTER + INTRA:          -6.605
REMARK INTER:                  -5.572
REMARK INTRA:                  -1.033
REMARK UNBOUND:                -1.242
REMARK SMILES CCCCCCCCCCC(=O)[O-]
REMARK SMILES IDX 7 1 8 2 9 3 10 4 11 5 12 6 13 7 6 8 5 9 4 10 3 11 2 12 1 13
REMARK H PARENT
REMARK Flexibility Score: inf
ROOT
ATOM      1  C   UNL     1       8.099   4.181  53.264  1.00  0.00     0.000 C 
ENDROOT
BRANCH   1   2
ATOM      2  C   UNL     1       8.706   5.117  52.205  1.00  0.00     0.000 C 
BRANCH   2   3
ATOM      3  C   UNL     1       9.368   4.352  51.049  1.00  0.00     0.006 C 
BRANCH   3   4
ATOM      4  C   UNL     1       9.932   3.012  51.533  1.00  0.00     0.053 C 
BRANCH   4   5
ATOM      5  C   UNL     1      11.397   3.131  51.811  1.00  0.00     0.041 C 
ATOM      6  O   UNL     1      12.013   2.188  52.376  1.00  0.00    -0.550 OA
ATOM      7  O   UNL     1      12.092   4.262  51.404  1.00  0.00    -0.550 OA
ENDBRANCH   4   5
ENDBRANCH   3   4
ENDBRANCH   2   3
ENDBRANCH   1   2
BRANCH   1   8
ATOM      8  C   UNL     1       6.562   4.192  53.251  1.00  0.00     0.000 C 
BRANCH   8   9
ATOM      9  C   UNL     1       6.015   3.231  52.188  1.00  0.00    -0.000 C 
BRANCH   9  10
ATOM     10  C   UNL     1       5.251   3.994  51.098  1.00  0.00    -0.000 C 
BRANCH  10  11
ATOM     11  C   UNL     1       4.661   5.326  51.599  1.00  0.00    -0.000 C 
BRANCH  11  12
ATOM     12  C   UNL     1       4.639   6.456  50.554  1.00  0.00    -0.003 C 
ATOM     13  C   UNL     1       6.007   6.716  49.925  1.00  0.00     0.004 C 
ENDBRANCH  11  12
ENDBRANCH  10  11
ENDBRANCH   9  10
ENDBRANCH   8   9
ENDBRANCH   1   8
TORSDOF 9
ENDMDL
MODEL 5
REMARK VINA RESULT:    -3.504      2.518      4.952
REMARK INTER + INTRA:          -6.590
REMARK INTER:                  -5.686
REMARK INTRA:                  -0.904
REMARK UNBOUND:                -1.242
REMARK SMILES CCCCCCCCCCC(=O)[O-]
REMARK SMILES IDX 7 1 8 2 9 3 10 4 11 5 12 6 13 7 6 8 5 9 4 10 3 11 2 12 1 13
REMARK H PARENT
REMARK Flexibility Score: inf
ROOT
ATOM      1  C   UNL     1       9.672   5.891  52.139  1.00  0.00     0.000 C 
ENDROOT
BRANCH   1   2
ATOM      2  C   UNL     1      11.040   6.119  51.474  1.00  0.00     0.000 C 
BRANCH   2   3
ATOM      3  C   UNL     1      11.946   4.881  51.545  1.00  0.00     0.006 C 
BRANCH   3   4
ATOM      4  C   UNL     1      11.451   3.787  50.592  1.00  0.00     0.053 C 
BRANCH   4   5
ATOM      5  C   UNL     1      11.054   2.566  51.358  1.00  0.00     0.041 C 
ATOM      6  O   UNL     1       9.981   1.966  51.083  1.00  0.00    -0.550 OA
ATOM      7  O   UNL     1      11.892   2.061  52.344  1.00  0.00    -0.550 OA
ENDBRANCH   4   5
ENDBRANCH   3   4
ENDBRANCH   2   3
ENDBRANCH   1   2
BRANCH   1   8
ATOM      8  C   UNL     1       8.530   5.777  51.118  1.00  0.00     0.000 C 
BRANCH   8   9
ATOM      9  C   UNL     1       7.641   4.565  51.422  1.00  0.00    -0.000 C 
BRANCH   9  10
ATOM     10  C   UNL     1       7.862   4.068  52.858  1.00  0.00    -0.000 C 
BRANCH  10  11
ATOM     11  C   UNL     1       6.587   4.133  53.718  1.00  0.00    -0.000 C 
BRANCH  11  12
ATOM     12  C   UNL     1       6.789   4.712  55.130  1.00  0.00    -0.003 C 
ATOM     13  C   UNL     1       8.199   5.254  55.359  1.00  0.00     0.004 C 
ENDBRANCH  11  12
ENDBRANCH  10  11
ENDBRANCH   9  10
ENDBRANCH   8   9
ENDBRANCH   1   8
TORSDOF 9
ENDMDL
MODEL 6
REMARK VINA RESULT:    -3.497      2.632      4.886
REMARK INTER + INTRA:          -6.580
REMARK INTER:                  -5.670
REMARK INTRA:                  -0.909
REMARK UNBOUND:                -1.242
REMARK SMILES CCCCCCCCCCC(=O)[O-]
REMARK SMILES IDX 7 1 8 2 9 3 10 4 11 5 12 6 13 7 6 8 5 9 4 10 3 11 2 12 1 13
REMARK H PARENT
REMARK Flexibility Score: inf
ROOT
ATOM      1  C   UNL     1      10.345   6.403  51.207  1.00  0.00     0.000 C 
ENDROOT
BRANCH   1   2
ATOM      2  C   UNL     1      11.626   6.264  50.369  1.00  0.00     0.000 C 
BRANCH   2   3
ATOM      3  C   UNL     1      12.378   4.954  50.650  1.00  0.00     0.006 C 
BRANCH   3   4
ATOM      4  C   UNL     1      11.894   4.316  51.956  1.00  0.00     0.053 C 
BRANCH   4   5
ATOM      5  C   UNL     1      11.463   2.903  51.720  1.00  0.00     0.041 C 
ATOM      6  O   UNL     1      11.897   1.977  52.455  1.00  0.00    -0.550 OA
ATOM      7  O   UNL     1      10.544   2.615  50.719  1.00  0.00    -0.550 OA
ENDBRANCH   4   5
ENDBRANCH   3   4
ENDBRANCH   2   3
ENDBRANCH   1   2
BRANCH   1   8
ATOM      8  C   UNL     1       9.070   6.380  50.349  1.00  0.00     0.000 C 
BRANCH   8   9
ATOM      9  C   UNL     1       8.020   5.440  50.952  1.00  0.00    -0.000 C 
BRANCH   9  10
ATOM     10  C   UNL     1       8.422   5.001  52.367  1.00  0.00    -0.000 C 
BRANCH  10  11
ATOM     11  C   UNL     1       7.657   3.754  52.848  1.00  0.00    -0.000 C 
BRANCH  11  12
ATOM     12  C   UNL     1       6.573   3.248  51.880  1.00  0.00    -0.003 C 
ATOM     13  C   UNL     1       7.002   2.009  51.094  1.00  0.00     0.004 C 
ENDBRANCH  11  12
ENDBRANCH  10  11
ENDBRANCH   9  10
ENDBRANCH   8   9
ENDBRANCH   1   8
TORSDOF 9
ENDMDL
MODEL 7
REMARK VINA RESULT:    -3.391      2.843      4.822
REMARK INTER + INTRA:          -6.417
REMARK INTER:                  -5.249
REMARK INTRA:                  -1.168
REMARK UNBOUND:                -1.242
REMARK SMILES CCCCCCCCCCC(=O)[O-]
REMARK SMILES IDX 7 1 8 2 9 3 10 4 11 5 12 6 13 7 6 8 5 9 4 10 3 11 2 12 1 13
REMARK H PARENT
REMARK Flexibility Score: inf
ROOT
ATOM      1  C   UNL     1       8.287   4.490  53.089  1.00  0.00     0.000 C 
ENDROOT
BRANCH   1   2
ATOM      2  C   UNL     1       9.008   3.590  52.072  1.00  0.00     0.000 C 
BRANCH   2   3
ATOM      3  C   UNL     1       9.521   4.369  50.852  1.00  0.00     0.006 C 
BRANCH   3   4
ATOM      4  C   UNL     1       9.479   5.879  51.111  1.00  0.00     0.053 C 
BRANCH   4   5
ATOM      5  C   UNL     1      10.848   6.395  51.421  1.00  0.00     0.041 C 
ATOM      6  O   UNL     1      11.135   6.767  52.590  1.00  0.00    -0.550 OA
ATOM      7  O   UNL     1      11.821   6.422  50.431  1.00  0.00    -0.550 OA
ENDBRANCH   4   5
ENDBRANCH   3   4
ENDBRANCH   2   3
ENDBRANCH   1   2
BRANCH   1   8
ATOM      8  C   UNL     1       6.812   4.103  53.282  1.00  0.00     0.000 C 
BRANCH   8   9
ATOM      9  C   UNL     1       6.363   3.102  52.211  1.00  0.00    -0.000 C 
BRANCH   9  10
ATOM     10  C   UNL     1       5.294   3.717  51.296  1.00  0.00    -0.000 C 
BRANCH  10  11
ATOM     11  C   UNL     1       5.892   4.591  50.178  1.00  0.00    -0.000 C 
BRANCH  11  12
ATOM     12  C   UNL     1       5.629   6.100  50.328  1.00  0.00    -0.003 C 
ATOM     13  C   UNL     1       4.317   6.411  51.045  1.00  0.00     0.004 C 
ENDBRANCH  11  12
ENDBRANCH  10  11
ENDBRANCH   9  10
ENDBRANCH   8   9
ENDBRANCH   1   8
TORSDOF 9
ENDMDL
MODEL 8
REMARK VINA RESULT:    -3.387      2.739      4.470
REMARK INTER + INTRA:          -6.411
REMARK INTER:                  -5.483
REMARK INTRA:                  -0.928
REMARK UNBOUND:                -1.242
REMARK SMILES CCCCCCCCCCC(=O)[O-]
REMARK SMILES IDX 7 1 8 2 9 3 10 4 11 5 12 6 13 7 6 8 5 9 4 10 3 11 2 12 1 13
REMARK H PARENT
REMARK Flexibility Score: inf
ROOT
ATOM      1  C   UNL     1       7.346   3.397  49.887  1.00  0.00     0.000 C 
ENDROOT
BRANCH   1   2
ATOM      2  C   UNL     1       8.055   2.180  50.504  1.00  0.00     0.000 C 
BRANCH   2   3
ATOM      3  C   UNL     1       9.537   2.096  50.110  1.00  0.00     0.006 C 
BRANCH   3   4
ATOM      4  C   UNL     1      10.440   2.378  51.316  1.00  0.00     0.053 C 
BRANCH   4   5
ATOM      5  C   UNL     1      11.147   3.685  51.145  1.00  0.00     0.041 C 
ATOM      6  O   UNL     1      12.158   3.955  51.847  1.00  0.00    -0.550 OA
ATOM      7  O   UNL     1      10.720   4.586  50.179  1.00  0.00    -0.550 OA
ENDBRANCH   4   5
ENDBRANCH   3   4
ENDBRANCH   2   3
ENDBRANCH   1   2
BRANCH   1   8
ATOM      8  C   UNL     1       6.814   4.373  50.948  1.00  0.00     0.000 C 
BRANCH   8   9
ATOM      9  C   UNL     1       6.243   3.616  52.153  1.00  0.00    -0.000 C 
BRANCH   9  10
ATOM     10  C   UNL     1       6.939   4.044  53.453  1.00  0.00    -0.000 C 
BRANCH  10  11
ATOM     11  C   UNL     1       8.312   4.698  53.210  1.00  0.00    -0.000 C 
BRANCH  11  12
ATOM     12  C   UNL     1       8.917   5.405  54.437  1.00  0.00    -0.003 C 
ATOM     13  C   UNL     1       8.076   5.233  55.701  1.00  0.00     0.004 C 
ENDBRANCH  11  12
ENDBRANCH  10  11
ENDBRANCH   9  10
ENDBRANCH   8   9
ENDBRANCH   1   8
TORSDOF 9
ENDMDL
MODEL 9
REMARK VINA RESULT:    -3.256      2.625      3.431
REMARK INTER + INTRA:          -6.212
REMARK INTER:                  -5.565
REMARK INTRA:                  -0.647
REMARK UNBOUND:                -1.242
REMARK SMILES CCCCCCCCCCC(=O)[O-]
REMARK SMILES IDX 7 1 8 2 9 3 10 4 11 5 12 6 13 7 6 8 5 9 4 10 3 11 2 12 1 13
REMARK H PARENT
REMARK Flexibility Score: inf
ROOT
ATOM      1  C   UNL     1       7.407   4.122  53.120  1.00  0.00     0.000 C 
ENDROOT
BRANCH   1   2
ATOM      2  C   UNL     1       6.770   3.134  52.129  1.00  0.00     0.000 C 
BRANCH   2   3
ATOM      3  C   UNL     1       5.468   3.669  51.515  1.00  0.00     0.006 C 
BRANCH   3   4
ATOM      4  C   UNL     1       5.609   5.146  51.135  1.00  0.00     0.053 C 
BRANCH   4   5
ATOM      5  C   UNL     1       4.269   5.810  51.107  1.00  0.00     0.041 C 
ATOM      6  O   UNL     1       4.184   7.064  51.025  1.00  0.00    -0.550 OA
ATOM      7  O   UNL     1       3.112   5.042  51.125  1.00  0.00    -0.550 OA
ENDBRANCH   4   5
ENDBRANCH   3   4
ENDBRANCH   2   3
ENDBRANCH   1   2
BRANCH   1   8
ATOM      8  C   UNL     1       8.910   4.324  52.871  1.00  0.00     0.000 C 
BRANCH   8   9
ATOM      9  C   UNL     1       9.364   3.570  51.616  1.00  0.00    -0.000 C 
BRANCH   9  10
ATOM     10  C   UNL     1      10.759   2.961  51.815  1.00  0.00    -0.000 C 
BRANCH  10  11
ATOM     11  C   UNL     1      11.846   4.022  52.070  1.00  0.00    -0.000 C 
BRANCH  11  12
ATOM     12  C   UNL     1      12.172   4.916  50.861  1.00  0.00    -0.003 C 
ATOM     13  C   UNL     1      11.668   6.350  51.023  1.00  0.00     0.004 C 
ENDBRANCH  11  12
ENDBRANCH  10  11
ENDBRANCH   9  10
ENDBRANCH   8   9
ENDBRANCH   1   8
TORSDOF 9
ENDMDL
