MODEL 1
REMARK VINA RESULT:    -0.757      0.000      0.000
REMARK INTER + INTRA:          -1.034
REMARK INTER:                  -0.934
REMARK INTRA:                  -0.100
REMARK UNBOUND:                -0.100
REMARK SMILES Oc1cc(O)c2cc(O)c(-c3cc(O)c(O)c(O)c3)[o+]c2c1
REMARK SMILES IDX 10 1 20 2 21 3 22 4 2 5 3 6 4 7 6 8 7 9 8 10 11 11 12 12
REMARK SMILES IDX 13 13 19 14 15 15 17 16 14 17 16 19 18 21 9 23 1 25 5 27
REMARK H PARENT 14 18 16 20 18 22 9 24 1 26 5 28
REMARK Flexibility Score: inf
ROOT
ATOM      1  C   UNL     1     -12.065 -15.867  31.146  1.00  0.00     0.402 A 
ATOM      2  O   UNL     1     -12.896 -15.123  31.870  1.00  0.00    -0.202 OA
ATOM      3  C   UNL     1     -12.602 -14.675  33.087  1.00  0.00     0.368 A 
ATOM      4  C   UNL     1     -13.543 -13.902  33.773  1.00  0.00     0.162 A 
ATOM      5  C   UNL     1     -13.264 -13.421  35.052  1.00  0.00     0.128 A 
ATOM      6  C   UNL     1     -12.035 -13.715  35.654  1.00  0.00     0.093 A 
ATOM      7  C   UNL     1     -11.075 -14.488  34.988  1.00  0.00     0.136 A 
ATOM      8  C   UNL     1     -11.355 -14.977  33.685  1.00  0.00     0.125 A 
ATOM      9  C   UNL     1     -10.449 -15.748  32.938  1.00  0.00     0.078 A 
ATOM     10  C   UNL     1     -10.794 -16.189  31.658  1.00  0.00     0.223 A 
ENDROOT
BRANCH   1  11
ATOM     11  C   UNL     1     -12.511 -16.313  29.806  1.00  0.00     0.091 A 
ATOM     12  C   UNL     1     -13.084 -15.386  28.926  1.00  0.00     0.068 A 
ATOM     13  C   UNL     1     -13.531 -15.786  27.661  1.00  0.00     0.162 A 
ATOM     14  C   UNL     1     -12.426 -17.661  29.419  1.00  0.00     0.068 A 
ATOM     15  C   UNL     1     -13.426 -17.128  27.265  1.00  0.00     0.200 A 
ATOM     16  C   UNL     1     -12.872 -18.076  28.159  1.00  0.00     0.162 A 
BRANCH  13  17
ATOM     17  O   UNL     1     -14.085 -14.853  26.785  1.00  0.00    -0.504 OA
ATOM     18  H   UNL     1     -15.070 -14.866  26.550  1.00  0.00     0.293 HD
ENDBRANCH  13  17
BRANCH  15  19
ATOM     19  O   UNL     1     -13.879 -17.473  25.989  1.00  0.00    -0.502 OA
ATOM     20  H   UNL     1     -13.289 -17.517  25.172  1.00  0.00     0.293 HD
ENDBRANCH  15  19
BRANCH  16  21
ATOM     21  O   UNL     1     -12.756 -19.431  27.842  1.00  0.00    -0.504 OA
ATOM     22  H   UNL     1     -12.911 -19.813  26.920  1.00  0.00     0.293 HD
ENDBRANCH  16  21
ENDBRANCH   1  11
BRANCH  10  23
ATOM     23  O   UNL     1      -9.876 -16.913  30.896  1.00  0.00    -0.500 OA
ATOM     24  H   UNL     1     -10.166 -17.673  30.292  1.00  0.00     0.294 HD
ENDBRANCH  10  23
BRANCH   5  25
ATOM     25  O   UNL     1     -14.214 -12.652  35.718  1.00  0.00    -0.507 OA
ATOM     26  H   UNL     1     -14.700 -13.001  36.536  1.00  0.00     0.293 HD
ENDBRANCH   5  25
BRANCH   7  27
ATOM     27  O   UNL     1      -9.875 -14.740  35.658  1.00  0.00    -0.507 OA
ATOM     28  H   UNL     1      -9.067 -14.135  35.630  1.00  0.00     0.293 HD
ENDBRANCH   7  27
TORSDOF 7
ENDMDL
MODEL 2
REMARK VINA RESULT:    -0.743      2.239      7.317
REMARK INTER + INTRA:          -1.017
REMARK INTER:                  -1.060
REMARK INTRA:                   0.044
REMARK UNBOUND:                -0.100
REMARK SMILES Oc1cc(O)c2cc(O)c(-c3cc(O)c(O)c(O)c3)[o+]c2c1
REMARK SMILES IDX 10 1 20 2 21 3 22 4 2 5 3 6 4 7 6 8 7 9 8 10 11 11 12 12
REMARK SMILES IDX 13 13 19 14 15 15 17 16 14 17 16 19 18 21 9 23 1 25 5 27
REMARK H PARENT 14 18 16 20 18 22 9 24 1 26 5 28
REMARK Flexibility Score: inf
ROOT
ATOM      1  C   UNL     1     -10.617 -15.321  33.381  1.00  0.00     0.402 A 
ATOM      2  O   UNL     1     -10.955 -15.051  32.123  1.00  0.00    -0.202 OA
ATOM      3  C   UNL     1     -10.872 -15.940  31.138  1.00  0.00     0.368 A 
ATOM      4  C   UNL     1     -11.247 -15.561  29.846  1.00  0.00     0.162 A 
ATOM      5  C   UNL     1     -11.167 -16.471  28.793  1.00  0.00     0.128 A 
ATOM      6  C   UNL     1     -10.709 -17.773  29.030  1.00  0.00     0.093 A 
ATOM      7  C   UNL     1     -10.328 -18.178  30.315  1.00  0.00     0.136 A 
ATOM      8  C   UNL     1     -10.409 -17.254  31.390  1.00  0.00     0.125 A 
ATOM      9  C   UNL     1     -10.061 -17.575  32.712  1.00  0.00     0.078 A 
ATOM     10  C   UNL     1     -10.173 -16.612  33.719  1.00  0.00     0.223 A 
ENDROOT
BRANCH   1  11
ATOM     11  C   UNL     1     -10.746 -14.242  34.387  1.00  0.00     0.091 A 
ATOM     12  C   UNL     1     -10.261 -12.962  34.092  1.00  0.00     0.068 A 
ATOM     13  C   UNL     1     -10.352 -11.930  35.033  1.00  0.00     0.162 A 
ATOM     14  C   UNL     1     -11.290 -14.490  35.658  1.00  0.00     0.068 A 
ATOM     15  C   UNL     1     -10.917 -12.171  36.295  1.00  0.00     0.200 A 
ATOM     16  C   UNL     1     -11.384 -13.469  36.611  1.00  0.00     0.162 A 
BRANCH  13  17
ATOM     17  O   UNL     1      -9.883 -10.654  34.724  1.00  0.00    -0.504 OA
ATOM     18  H   UNL     1     -10.174  -9.839  35.251  1.00  0.00     0.293 HD
ENDBRANCH  13  17
BRANCH  15  19
ATOM     19  O   UNL     1     -10.992 -11.105  37.195  1.00  0.00    -0.502 OA
ATOM     20  H   UNL     1     -11.745 -10.433  37.214  1.00  0.00     0.293 HD
ENDBRANCH  15  19
BRANCH  16  21
ATOM     21  O   UNL     1     -11.938 -13.789  37.853  1.00  0.00    -0.504 OA
ATOM     22  H   UNL     1     -12.782 -14.330  37.974  1.00  0.00     0.293 HD
ENDBRANCH  16  21
ENDBRANCH   1  11
BRANCH  10  23
ATOM     23  O   UNL     1      -9.875 -16.945  35.041  1.00  0.00    -0.500 OA
ATOM     24  H   UNL     1      -9.513 -17.858  35.292  1.00  0.00     0.294 HD
ENDBRANCH  10  23
BRANCH   5  25
ATOM     25  O   UNL     1     -11.546 -16.075  27.512  1.00  0.00    -0.507 OA
ATOM     26  H   UNL     1     -11.041 -16.386  26.690  1.00  0.00     0.293 HD
ENDBRANCH   5  25
BRANCH   7  27
ATOM     27  O   UNL     1      -9.878 -19.492  30.468  1.00  0.00    -0.507 OA
ATOM     28  H   UNL     1      -9.360 -19.828  31.268  1.00  0.00     0.293 HD
ENDBRANCH   7  27
TORSDOF 7
ENDMDL
MODEL 3
REMARK VINA RESULT:    -0.639      1.367      2.730
REMARK INTER + INTRA:          -0.889
REMARK INTER:                  -0.820
REMARK INTRA:                  -0.069
REMARK UNBOUND:                -0.100
REMARK SMILES Oc1cc(O)c2cc(O)c(-c3cc(O)c(O)c(O)c3)[o+]c2c1
REMARK SMILES IDX 10 1 20 2 21 3 22 4 2 5 3 6 4 7 6 8 7 9 8 10 11 11 12 12
REMARK SMILES IDX 13 13 19 14 15 15 17 16 14 17 16 19 18 21 9 23 1 25 5 27
REMARK H PARENT 14 18 16 20 18 22 9 24 1 26 5 28
REMARK Flexibility Score: inf
ROOT
ATOM      1  C   UNL     1     -12.970 -15.365  31.911  1.00  0.00     0.402 A 
ATOM      2  O   UNL     1     -11.977 -15.313  32.795  1.00  0.00    -0.202 OA
ATOM      3  C   UNL     1     -12.041 -14.616  33.924  1.00  0.00     0.368 A 
ATOM      4  C   UNL     1     -10.942 -14.619  34.789  1.00  0.00     0.162 A 
ATOM      5  C   UNL     1     -10.979 -13.894  35.979  1.00  0.00     0.128 A 
ATOM      6  C   UNL     1     -12.122 -13.157  36.311  1.00  0.00     0.093 A 
ATOM      7  C   UNL     1     -13.236 -13.137  35.463  1.00  0.00     0.136 A 
ATOM      8  C   UNL     1     -13.202 -13.876  34.251  1.00  0.00     0.125 A 
ATOM      9  C   UNL     1     -14.276 -13.924  33.346  1.00  0.00     0.078 A 
ATOM     10  C   UNL     1     -14.170 -14.679  32.174  1.00  0.00     0.223 A 
ENDROOT
BRANCH   1  11
ATOM     11  C   UNL     1     -12.776 -16.171  30.684  1.00  0.00     0.091 A 
ATOM     12  C   UNL     1     -13.044 -15.599  29.434  1.00  0.00     0.068 A 
ATOM     13  C   UNL     1     -12.886 -16.345  28.260  1.00  0.00     0.162 A 
ATOM     14  C   UNL     1     -12.384 -17.518  30.749  1.00  0.00     0.068 A 
ATOM     15  C   UNL     1     -12.473 -17.684  28.323  1.00  0.00     0.200 A 
ATOM     16  C   UNL     1     -12.226 -18.278  29.584  1.00  0.00     0.162 A 
BRANCH  13  17
ATOM     17  O   UNL     1     -13.140 -15.762  27.019  1.00  0.00    -0.504 OA
ATOM     18  H   UNL     1     -12.961 -14.779  26.848  1.00  0.00     0.293 HD
ENDBRANCH  13  17
BRANCH  15  19
ATOM     19  O   UNL     1     -12.324 -18.382  27.122  1.00  0.00    -0.502 OA
ATOM     20  H   UNL     1     -11.905 -17.992  26.290  1.00  0.00     0.293 HD
ENDBRANCH  15  19
BRANCH  16  21
ATOM     21  O   UNL     1     -11.834 -19.610  29.726  1.00  0.00    -0.504 OA
ATOM     22  H   UNL     1     -12.301 -20.389  29.283  1.00  0.00     0.293 HD
ENDBRANCH  16  21
ENDBRANCH   1  11
BRANCH  10  23
ATOM     23  O   UNL     1     -15.254 -14.768  31.299  1.00  0.00    -0.500 OA
ATOM     24  H   UNL     1     -16.210 -14.786  31.636  1.00  0.00     0.294 HD
ENDBRANCH  10  23
BRANCH   5  25
ATOM     25  O   UNL     1      -9.875 -13.911  36.828  1.00  0.00    -0.507 OA
ATOM     26  H   UNL     1      -8.932 -14.005  36.469  1.00  0.00     0.293 HD
ENDBRANCH   5  25
BRANCH   7  27
ATOM     27  O   UNL     1     -14.336 -12.374  35.863  1.00  0.00    -0.507 OA
ATOM     28  H   UNL     1     -14.690 -12.334  36.808  1.00  0.00     0.293 HD
ENDBRANCH   7  27
TORSDOF 7
ENDMDL
MODEL 4
REMARK VINA RESULT:    -0.459      1.273      6.900
REMARK INTER + INTRA:          -0.666
REMARK INTER:                  -0.798
REMARK INTRA:                   0.132
REMARK UNBOUND:                -0.100
REMARK SMILES Oc1cc(O)c2cc(O)c(-c3cc(O)c(O)c(O)c3)[o+]c2c1
REMARK SMILES IDX 10 1 20 2 21 3 22 4 2 5 3 6 4 7 6 8 7 9 8 10 11 11 12 12
REMARK SMILES IDX 13 13 19 14 15 15 17 16 14 17 16 19 18 21 9 23 1 25 5 27
REMARK H PARENT 14 18 16 20 18 22 9 24 1 26 5 28
REMARK Flexibility Score: inf
ROOT
ATOM      1  C   UNL     1     -11.760 -15.821  31.187  1.00  0.00     0.402 A 
ATOM      2  O   UNL     1     -12.610 -15.500  30.216  1.00  0.00    -0.202 OA
ATOM      3  C   UNL     1     -12.539 -16.004  28.988  1.00  0.00     0.368 A 
ATOM      4  C   UNL     1     -13.478 -15.602  28.033  1.00  0.00     0.162 A 
ATOM      5  C   UNL     1     -13.426 -16.112  26.736  1.00  0.00     0.128 A 
ATOM      6  C   UNL     1     -12.429 -17.030  26.387  1.00  0.00     0.093 A 
ATOM      7  C   UNL     1     -11.478 -17.449  27.325  1.00  0.00     0.136 A 
ATOM      8  C   UNL     1     -11.528 -16.934  28.647  1.00  0.00     0.125 A 
ATOM      9  C   UNL     1     -10.624 -17.306  29.656  1.00  0.00     0.078 A 
ATOM     10  C   UNL     1     -10.741 -16.759  30.937  1.00  0.00     0.223 A 
ENDROOT
BRANCH   1  11
ATOM     11  C   UNL     1     -11.937 -15.184  32.512  1.00  0.00     0.091 A 
ATOM     12  C   UNL     1     -13.219 -14.801  32.928  1.00  0.00     0.068 A 
ATOM     13  C   UNL     1     -13.411 -14.180  34.168  1.00  0.00     0.162 A 
ATOM     14  C   UNL     1     -10.838 -14.901  33.340  1.00  0.00     0.068 A 
ATOM     15  C   UNL     1     -12.316 -13.918  35.004  1.00  0.00     0.200 A 
ATOM     16  C   UNL     1     -11.014 -14.278  34.581  1.00  0.00     0.162 A 
BRANCH  13  17
ATOM     17  O   UNL     1     -14.692 -13.818  34.580  1.00  0.00    -0.504 OA
ATOM     18  H   UNL     1     -15.363 -14.508  34.898  1.00  0.00     0.293 HD
ENDBRANCH  13  17
BRANCH  15  19
ATOM     19  O   UNL     1     -12.563 -13.304  36.235  1.00  0.00    -0.502 OA
ATOM     20  H   UNL     1     -11.839 -12.992  36.866  1.00  0.00     0.293 HD
ENDBRANCH  15  19
BRANCH  16  21
ATOM     21  O   UNL     1      -9.875 -14.029  35.350  1.00  0.00    -0.504 OA
ATOM     22  H   UNL     1      -9.109 -14.678  35.453  1.00  0.00     0.293 HD
ENDBRANCH  16  21
ENDBRANCH   1  11
BRANCH  10  23
ATOM     23  O   UNL     1      -9.875 -17.165  31.953  1.00  0.00    -0.500 OA
ATOM     24  H   UNL     1     -10.202 -17.330  32.898  1.00  0.00     0.294 HD
ENDBRANCH  10  23
BRANCH   5  25
ATOM     25  O   UNL     1     -14.370 -15.700  25.799  1.00  0.00    -0.507 OA
ATOM     26  H   UNL     1     -14.283 -14.816  25.311  1.00  0.00     0.293 HD
ENDBRANCH   5  25
BRANCH   7  27
ATOM     27  O   UNL     1     -10.512 -18.365  26.898  1.00  0.00    -0.507 OA
ATOM     28  H   UNL     1     -10.582 -18.916  26.055  1.00  0.00     0.293 HD
ENDBRANCH   7  27
TORSDOF 7
ENDMDL
MODEL 5
REMARK VINA RESULT:    -0.149      1.274      6.992
REMARK INTER + INTRA:          -0.284
REMARK INTER:                  -0.520
REMARK INTRA:                   0.236
REMARK UNBOUND:                -0.100
REMARK SMILES Oc1cc(O)c2cc(O)c(-c3cc(O)c(O)c(O)c3)[o+]c2c1
REMARK SMILES IDX 10 1 20 2 21 3 22 4 2 5 3 6 4 7 6 8 7 9 8 10 11 11 12 12
REMARK SMILES IDX 13 13 19 14 15 15 17 16 14 17 16 19 18 21 9 23 1 25 5 27
REMARK H PARENT 14 18 16 20 18 22 9 24 1 26 5 28
REMARK Flexibility Score: inf
ROOT
ATOM      1  C   UNL     1     -11.755 -15.746  31.231  1.00  0.00     0.402 A 
ATOM      2  O   UNL     1     -12.598 -15.445  30.247  1.00  0.00    -0.202 OA
ATOM      3  C   UNL     1     -12.517 -15.973  29.030  1.00  0.00     0.368 A 
ATOM      4  C   UNL     1     -13.449 -15.591  28.059  1.00  0.00     0.162 A 
ATOM      5  C   UNL     1     -13.387 -16.126  26.773  1.00  0.00     0.128 A 
ATOM      6  C   UNL     1     -12.387 -17.052  26.450  1.00  0.00     0.093 A 
ATOM      7  C   UNL     1     -11.443 -17.451  27.404  1.00  0.00     0.136 A 
ATOM      8  C   UNL     1     -11.504 -16.910  28.715  1.00  0.00     0.125 A 
ATOM      9  C   UNL     1     -10.608 -17.261  29.738  1.00  0.00     0.078 A 
ATOM     10  C   UNL     1     -10.734 -16.689  31.007  1.00  0.00     0.223 A 
ENDROOT
BRANCH   1  11
ATOM     11  C   UNL     1     -11.942 -15.083  32.541  1.00  0.00     0.091 A 
ATOM     12  C   UNL     1     -10.833 -14.870  33.371  1.00  0.00     0.068 A 
ATOM     13  C   UNL     1     -10.986 -14.263  34.623  1.00  0.00     0.162 A 
ATOM     14  C   UNL     1     -13.218 -14.716  32.998  1.00  0.00     0.068 A 
ATOM     15  C   UNL     1     -12.258 -13.875  35.070  1.00  0.00     0.200 A 
ATOM     16  C   UNL     1     -13.387 -14.111  34.250  1.00  0.00     0.162 A 
BRANCH  13  17
ATOM     17  O   UNL     1      -9.875 -14.040  35.435  1.00  0.00    -0.504 OA
ATOM     18  H   UNL     1      -9.953 -13.546  36.316  1.00  0.00     0.293 HD
ENDBRANCH  13  17
BRANCH  15  19
ATOM     19  O   UNL     1     -12.355 -13.266  36.325  1.00  0.00    -0.502 OA
ATOM     20  H   UNL     1     -12.600 -12.297  36.465  1.00  0.00     0.293 HD
ENDBRANCH  15  19
BRANCH  16  21
ATOM     21  O   UNL     1     -14.685 -13.772  34.638  1.00  0.00    -0.504 OA
ATOM     22  H   UNL     1     -14.921 -13.364  35.531  1.00  0.00     0.293 HD
ENDBRANCH  16  21
ENDBRANCH   1  11
BRANCH  10  23
ATOM     23  O   UNL     1      -9.876 -17.075  32.037  1.00  0.00    -0.500 OA
ATOM     24  H   UNL     1      -9.136 -16.467  32.370  1.00  0.00     0.294 HD
ENDBRANCH  10  23
BRANCH   5  25
ATOM     25  O   UNL     1     -14.324 -15.733  25.821  1.00  0.00    -0.507 OA
ATOM     26  H   UNL     1     -15.311 -15.935  25.933  1.00  0.00     0.293 HD
ENDBRANCH   5  25
BRANCH   7  27
ATOM     27  O   UNL     1     -10.475 -18.375  27.003  1.00  0.00    -0.507 OA
ATOM     28  H   UNL     1      -9.756 -18.189  26.318  1.00  0.00     0.293 HD
ENDBRANCH   7  27
TORSDOF 7
ENDMDL
MODEL 6
REMARK VINA RESULT:     0.280      2.937      5.691
REMARK INTER + INTRA:           0.245
REMARK INTER:                   0.535
REMARK INTRA:                  -0.290
REMARK UNBOUND:                -0.100
REMARK SMILES Oc1cc(O)c2cc(O)c(-c3cc(O)c(O)c(O)c3)[o+]c2c1
REMARK SMILES IDX 10 1 20 2 21 3 22 4 2 5 3 6 4 7 6 8 7 9 8 10 11 11 12 12
REMARK SMILES IDX 13 13 19 14 15 15 17 16 14 17 16 19 18 21 9 23 1 25 5 27
REMARK H PARENT 14 18 16 20 18 22 9 24 1 26 5 28
REMARK Flexibility Score: inf
ROOT
ATOM      1  C   UNL     1     -12.829 -15.900  30.165  1.00  0.00     0.402 A 
ATOM      2  O   UNL     1     -13.944 -15.443  30.727  1.00  0.00    -0.202 OA
ATOM      3  C   UNL     1     -14.726 -14.530  30.161  1.00  0.00     0.368 A 
ATOM      4  C   UNL     1     -15.877 -14.108  30.833  1.00  0.00     0.162 A 
ATOM      5  C   UNL     1     -16.715 -13.150  30.264  1.00  0.00     0.128 A 
ATOM      6  C   UNL     1     -16.402 -12.604  29.013  1.00  0.00     0.093 A 
ATOM      7  C   UNL     1     -15.256 -13.010  28.319  1.00  0.00     0.136 A 
ATOM      8  C   UNL     1     -14.402 -13.987  28.894  1.00  0.00     0.125 A 
ATOM      9  C   UNL     1     -13.239 -14.463  28.266  1.00  0.00     0.078 A 
ATOM     10  C   UNL     1     -12.450 -15.431  28.893  1.00  0.00     0.223 A 
ENDROOT
BRANCH   1  11
ATOM     11  C   UNL     1     -12.037 -16.912  30.900  1.00  0.00     0.091 A 
ATOM     12  C   UNL     1     -12.061 -18.247  30.478  1.00  0.00     0.068 A 
ATOM     13  C   UNL     1     -11.336 -19.226  31.168  1.00  0.00     0.162 A 
ATOM     14  C   UNL     1     -11.306 -16.572  32.050  1.00  0.00     0.068 A 
ATOM     15  C   UNL     1     -10.587 -18.883  32.303  1.00  0.00     0.200 A 
ATOM     16  C   UNL     1     -10.579 -17.541  32.752  1.00  0.00     0.162 A 
BRANCH  13  17
ATOM     17  O   UNL     1     -11.353 -20.550  30.730  1.00  0.00    -0.504 OA
ATOM     18  H   UNL     1     -11.149 -21.319  31.359  1.00  0.00     0.293 HD
ENDBRANCH  13  17
BRANCH  15  19
ATOM     19  O   UNL     1      -9.875 -19.896  32.950  1.00  0.00    -0.502 OA
ATOM     20  H   UNL     1      -9.997 -20.881  32.764  1.00  0.00     0.293 HD
ENDBRANCH  15  19
BRANCH  16  21
ATOM     21  O   UNL     1      -9.875 -17.130  33.886  1.00  0.00    -0.504 OA
ATOM     22  H   UNL     1      -9.292 -17.739  34.443  1.00  0.00     0.293 HD
ENDBRANCH  16  21
ENDBRANCH   1  11
BRANCH  10  23
ATOM     23  O   UNL     1     -11.322 -15.940  28.248  1.00  0.00    -0.500 OA
ATOM     24  H   UNL     1     -10.624 -16.482  28.744  1.00  0.00     0.294 HD
ENDBRANCH  10  23
BRANCH   5  25
ATOM     25  O   UNL     1     -17.858 -12.743  30.950  1.00  0.00    -0.507 OA
ATOM     26  H   UNL     1     -18.786 -12.927  30.588  1.00  0.00     0.293 HD
ENDBRANCH   5  25
BRANCH   7  27
ATOM     27  O   UNL     1     -15.011 -12.416  27.078  1.00  0.00    -0.507 OA
ATOM     28  H   UNL     1     -15.732 -12.100  26.445  1.00  0.00     0.293 HD
ENDBRANCH   7  27
TORSDOF 7
ENDMDL
