MODEL 1
REMARK VINA RESULT:    -7.832      0.000      0.000
REMARK INTER + INTRA:          -7.832
REMARK INTER:                  -7.832
REMARK INTRA:                   0.000
REMARK UNBOUND:                 0.000
REMARK SMILES C=C1CCC[C@@]2(C)CC(=O)C(=C(C)C)C[C@H]12
REMARK SMILES IDX 13 1 12 2 11 3 15 4 16 5 2 6 1 7 3 8 4 9 5 10 6 11 8 12 9 13
REMARK SMILES IDX 10 14 7 15 14 16
REMARK H PARENT
REMARK Flexibility Score: inf
ROOT
ATOM      1  C   UNL     1      -7.474  35.001  24.515  1.00  0.00     0.039 C 
ATOM      2  C   UNL     1      -7.703  34.254  23.220  1.00  0.00    -0.070 C 
ATOM      3  C   UNL     1      -7.858  32.897  23.203  1.00  0.00    -0.006 C 
ATOM      4  C   UNL     1      -7.829  32.084  24.490  1.00  0.00     0.047 C 
ATOM      5  C   UNL     1      -8.709  30.811  24.417  1.00  0.00     0.025 C 
ATOM      6  C   UNL     1      -8.687  29.933  25.667  1.00  0.00    -0.073 C 
ATOM      7  C   UNL     1      -7.959  30.205  26.768  1.00  0.00     0.008 C 
ATOM      8  C   UNL     1      -9.582  28.717  25.645  1.00  0.00     0.031 C 
ATOM      9  C   UNL     1      -9.308  27.875  24.396  1.00  0.00     0.005 C 
ATOM     10  C   UNL     1      -9.368  28.726  23.115  1.00  0.00     0.008 C 
ATOM     11  C   UNL     1      -8.405  29.952  23.150  1.00  0.00    -0.018 C 
ATOM     12  C   UNL     1      -8.676  30.812  21.891  1.00  0.00     0.088 C 
ATOM     13  C   UNL     1      -7.941  32.121  21.931  1.00  0.00     0.159 C 
ATOM     14  O   UNL     1      -7.388  32.534  20.876  1.00  0.00    -0.295 OA
ATOM     15  C   UNL     1      -6.932  29.456  23.126  1.00  0.00     0.012 C 
ATOM     16  C   UNL     1      -7.790  35.082  21.959  1.00  0.00     0.039 C 
ENDROOT
TORSDOF 0
ENDMDL
MODEL 2
REMARK VINA RESULT:    -7.610      1.821      4.880
REMARK INTER + INTRA:          -7.610
REMARK INTER:                  -7.610
REMARK INTRA:                   0.000
REMARK UNBOUND:                 0.000
REMARK SMILES C=C1CCC[C@@]2(C)CC(=O)C(=C(C)C)C[C@H]12
REMARK SMILES IDX 13 1 12 2 11 3 15 4 16 5 2 6 1 7 3 8 4 9 5 10 6 11 8 12 9 13
REMARK SMILES IDX 10 14 7 15 14 16
REMARK H PARENT
REMARK Flexibility Score: inf
ROOT
ATOM      1  C   UNL     1      -8.576  31.389  28.066  1.00  0.00     0.039 C 
ATOM      2  C   UNL     1      -8.586  30.508  26.837  1.00  0.00    -0.070 C 
ATOM      3  C   UNL     1      -8.630  31.043  25.581  1.00  0.00    -0.006 C 
ATOM      4  C   UNL     1      -8.648  32.551  25.368  1.00  0.00     0.047 C 
ATOM      5  C   UNL     1      -7.972  32.978  24.041  1.00  0.00     0.025 C 
ATOM      6  C   UNL     1      -7.996  34.479  23.753  1.00  0.00    -0.073 C 
ATOM      7  C   UNL     1      -8.564  35.394  24.562  1.00  0.00     0.008 C 
ATOM      8  C   UNL     1      -7.292  34.928  22.494  1.00  0.00     0.031 C 
ATOM      9  C   UNL     1      -7.807  34.143  21.285  1.00  0.00     0.005 C 
ATOM     10  C   UNL     1      -7.753  32.624  21.530  1.00  0.00     0.008 C 
ATOM     11  C   UNL     1      -8.521  32.185  22.813  1.00  0.00    -0.018 C 
ATOM     12  C   UNL     1      -8.256  30.676  23.040  1.00  0.00     0.088 C 
ATOM     13  C   UNL     1      -8.787  30.200  24.361  1.00  0.00     0.159 C 
ATOM     14  O   UNL     1      -9.377  29.086  24.407  1.00  0.00    -0.295 OA
ATOM     15  C   UNL     1     -10.045  32.414  22.611  1.00  0.00     0.012 C 
ATOM     16  C   UNL     1      -8.507  29.016  27.065  1.00  0.00     0.039 C 
ENDROOT
TORSDOF 0
ENDMDL
MODEL 3
REMARK VINA RESULT:    -7.082      1.599      2.269
REMARK INTER + INTRA:          -7.082
REMARK INTER:                  -7.082
REMARK INTRA:                   0.000
REMARK UNBOUND:                 0.000
REMARK SMILES C=C1CCC[C@@]2(C)CC(=O)C(=C(C)C)C[C@H]12
REMARK SMILES IDX 13 1 12 2 11 3 15 4 16 5 2 6 1 7 3 8 4 9 5 10 6 11 8 12 9 13
REMARK SMILES IDX 10 14 7 15 14 16
REMARK H PARENT
REMARK Flexibility Score: inf
ROOT
ATOM      1  C   UNL     1      -7.631  34.998  22.421  1.00  0.00     0.039 C 
ATOM      2  C   UNL     1      -7.808  33.544  22.046  1.00  0.00    -0.070 C 
ATOM      3  C   UNL     1      -7.977  32.581  23.000  1.00  0.00    -0.006 C 
ATOM      4  C   UNL     1      -8.018  32.938  24.480  1.00  0.00     0.047 C 
ATOM      5  C   UNL     1      -8.908  31.975  25.305  1.00  0.00     0.025 C 
ATOM      6  C   UNL     1      -8.955  32.259  26.806  1.00  0.00    -0.073 C 
ATOM      7  C   UNL     1      -8.277  33.256  27.407  1.00  0.00     0.008 C 
ATOM      8  C   UNL     1      -9.863  31.373  27.626  1.00  0.00     0.031 C 
ATOM      9  C   UNL     1      -9.540  29.898  27.371  1.00  0.00     0.005 C 
ATOM     10  C   UNL     1      -9.529  29.572  25.866  1.00  0.00     0.008 C 
ATOM     11  C   UNL     1      -8.555  30.476  25.052  1.00  0.00    -0.018 C 
ATOM     12  C   UNL     1      -8.756  30.167  23.548  1.00  0.00     0.088 C 
ATOM     13  C   UNL     1      -8.009  31.127  22.668  1.00  0.00     0.159 C 
ATOM     14  O   UNL     1      -7.403  30.674  21.660  1.00  0.00    -0.295 OA
ATOM     15  C   UNL     1      -7.088  30.152  25.451  1.00  0.00     0.012 C 
ATOM     16  C   UNL     1      -7.825  33.216  20.571  1.00  0.00     0.039 C 
ENDROOT
TORSDOF 0
ENDMDL
MODEL 4
REMARK VINA RESULT:    -6.967      1.709      3.350
REMARK INTER + INTRA:          -6.967
REMARK INTER:                  -6.967
REMARK INTRA:                   0.000
REMARK UNBOUND:                 0.000
REMARK SMILES C=C1CCC[C@@]2(C)CC(=O)C(=C(C)C)C[C@H]12
REMARK SMILES IDX 13 1 12 2 11 3 15 4 16 5 2 6 1 7 3 8 4 9 5 10 6 11 8 12 9 13
REMARK SMILES IDX 10 14 7 15 14 16
REMARK H PARENT
REMARK Flexibility Score: inf
ROOT
ATOM      1  C   UNL     1      -7.952  32.734  20.718  1.00  0.00     0.039 C 
ATOM      2  C   UNL     1      -7.858  33.677  21.896  1.00  0.00    -0.070 C 
ATOM      3  C   UNL     1      -8.074  33.241  23.172  1.00  0.00    -0.006 C 
ATOM      4  C   UNL     1      -8.395  31.781  23.462  1.00  0.00     0.047 C 
ATOM      5  C   UNL     1      -7.888  31.319  24.851  1.00  0.00     0.025 C 
ATOM      6  C   UNL     1      -8.218  29.872  25.215  1.00  0.00    -0.073 C 
ATOM      7  C   UNL     1      -8.906  29.031  24.419  1.00  0.00     0.008 C 
ATOM      8  C   UNL     1      -7.683  29.378  26.538  1.00  0.00     0.031 C 
ATOM      9  C   UNL     1      -8.103  30.322  27.669  1.00  0.00     0.005 C 
ATOM     10  C   UNL     1      -7.743  31.784  27.349  1.00  0.00     0.008 C 
ATOM     11  C   UNL     1      -8.340  32.279  25.997  1.00  0.00    -0.018 C 
ATOM     12  C   UNL     1      -7.775  33.692  25.710  1.00  0.00     0.088 C 
ATOM     13  C   UNL     1      -8.131  34.176  24.334  1.00  0.00     0.159 C 
ATOM     14  O   UNL     1      -8.491  35.376  24.191  1.00  0.00    -0.295 OA
ATOM     15  C   UNL     1      -9.888  32.356  26.110  1.00  0.00     0.012 C 
ATOM     16  C   UNL     1      -7.480  35.109  21.596  1.00  0.00     0.039 C 
ENDROOT
TORSDOF 0
ENDMDL
MODEL 5
REMARK VINA RESULT:    -6.883      1.754      3.178
REMARK INTER + INTRA:          -6.883
REMARK INTER:                  -6.883
REMARK INTRA:                   0.000
REMARK UNBOUND:                 0.000
REMARK SMILES C=C1CCC[C@@]2(C)CC(=O)C(=C(C)C)C[C@H]12
REMARK SMILES IDX 13 1 12 2 11 3 15 4 16 5 2 6 1 7 3 8 4 9 5 10 6 11 8 12 9 13
REMARK SMILES IDX 10 14 7 15 14 16
REMARK H PARENT
REMARK Flexibility Score: inf
ROOT
ATOM      1  C   UNL     1      -7.547  35.228  22.198  1.00  0.00     0.039 C 
ATOM      2  C   UNL     1      -7.380  34.597  23.562  1.00  0.00    -0.070 C 
ATOM      3  C   UNL     1      -7.833  33.334  23.819  1.00  0.00    -0.006 C 
ATOM      4  C   UNL     1      -8.505  32.503  22.734  1.00  0.00     0.047 C 
ATOM      5  C   UNL     1      -8.278  30.981  22.917  1.00  0.00     0.025 C 
ATOM      6  C   UNL     1      -8.964  30.093  21.881  1.00  0.00    -0.073 C 
ATOM      7  C   UNL     1      -9.728  30.559  20.874  1.00  0.00     0.008 C 
ATOM      8  C   UNL     1      -8.710  28.608  22.000  1.00  0.00     0.031 C 
ATOM      9  C   UNL     1      -9.033  28.125  23.417  1.00  0.00     0.005 C 
ATOM     10  C   UNL     1      -8.320  28.975  24.483  1.00  0.00     0.008 C 
ATOM     11  C   UNL     1      -8.631  30.498  24.359  1.00  0.00    -0.018 C 
ATOM     12  C   UNL     1      -7.734  31.255  25.369  1.00  0.00     0.088 C 
ATOM     13  C   UNL     1      -7.812  32.744  25.189  1.00  0.00     0.159 C 
ATOM     14  O   UNL     1      -7.874  33.473  26.216  1.00  0.00    -0.295 OA
ATOM     15  C   UNL     1     -10.124  30.752  24.706  1.00  0.00     0.012 C 
ATOM     16  C   UNL     1      -6.657  35.413  24.609  1.00  0.00     0.039 C 
ENDROOT
TORSDOF 0
ENDMDL
MODEL 6
REMARK VINA RESULT:    -6.730      2.235      4.658
REMARK INTER + INTRA:          -6.730
REMARK INTER:                  -6.730
REMARK INTRA:                   0.000
REMARK UNBOUND:                 0.000
REMARK SMILES C=C1CCC[C@@]2(C)CC(=O)C(=C(C)C)C[C@H]12
REMARK SMILES IDX 13 1 12 2 11 3 15 4 16 5 2 6 1 7 3 8 4 9 5 10 6 11 8 12 9 13
REMARK SMILES IDX 10 14 7 15 14 16
REMARK H PARENT
REMARK Flexibility Score: inf
ROOT
ATOM      1  C   UNL     1      -8.662  29.000  27.655  1.00  0.00     0.039 C 
ATOM      2  C   UNL     1      -8.851  30.488  27.458  1.00  0.00    -0.070 C 
ATOM      3  C   UNL     1      -8.743  31.059  26.222  1.00  0.00    -0.006 C 
ATOM      4  C   UNL     1      -8.450  30.216  24.988  1.00  0.00     0.047 C 
ATOM      5  C   UNL     1      -9.071  30.806  23.697  1.00  0.00     0.025 C 
ATOM      6  C   UNL     1      -8.776  30.023  22.418  1.00  0.00    -0.073 C 
ATOM      7  C   UNL     1      -8.025  28.906  22.373  1.00  0.00     0.008 C 
ATOM      8  C   UNL     1      -9.419  30.543  21.154  1.00  0.00     0.031 C 
ATOM      9  C   UNL     1      -9.093  32.027  20.961  1.00  0.00     0.005 C 
ATOM     10  C   UNL     1      -9.422  32.848  22.220  1.00  0.00     0.008 C 
ATOM     11  C   UNL     1      -8.714  32.313  23.501  1.00  0.00    -0.018 C 
ATOM     12  C   UNL     1      -9.250  33.110  24.716  1.00  0.00     0.088 C 
ATOM     13  C   UNL     1      -8.780  32.537  26.021  1.00  0.00     0.159 C 
ATOM     14  O   UNL     1      -8.407  33.329  26.929  1.00  0.00    -0.295 OA
ATOM     15  C   UNL     1      -7.180  32.533  23.378  1.00  0.00     0.012 C 
ATOM     16  C   UNL     1      -9.200  31.300  28.684  1.00  0.00     0.039 C 
ENDROOT
TORSDOF 0
ENDMDL
MODEL 7
REMARK VINA RESULT:    -6.614      2.268      4.100
REMARK INTER + INTRA:          -6.614
REMARK INTER:                  -6.614
REMARK INTRA:                   0.000
REMARK UNBOUND:                 0.000
REMARK SMILES C=C1CCC[C@@]2(C)CC(=O)C(=C(C)C)C[C@H]12
REMARK SMILES IDX 13 1 12 2 11 3 15 4 16 5 2 6 1 7 3 8 4 9 5 10 6 11 8 12 9 13
REMARK SMILES IDX 10 14 7 15 14 16
REMARK H PARENT
REMARK Flexibility Score: inf
ROOT
ATOM      1  C   UNL     1      -8.783  31.621  20.449  1.00  0.00     0.039 C 
ATOM      2  C   UNL     1      -8.044  32.868  20.878  1.00  0.00    -0.070 C 
ATOM      3  C   UNL     1      -8.083  33.306  22.171  1.00  0.00    -0.006 C 
ATOM      4  C   UNL     1      -8.855  32.541  23.238  1.00  0.00     0.047 C 
ATOM      5  C   UNL     1      -8.234  32.688  24.650  1.00  0.00     0.025 C 
ATOM      6  C   UNL     1      -8.991  31.975  25.770  1.00  0.00    -0.073 C 
ATOM      7  C   UNL     1     -10.125  31.271  25.586  1.00  0.00     0.008 C 
ATOM      8  C   UNL     1      -8.374  32.051  27.147  1.00  0.00     0.031 C 
ATOM      9  C   UNL     1      -8.101  33.509  27.529  1.00  0.00     0.005 C 
ATOM     10  C   UNL     1      -7.301  34.241  26.437  1.00  0.00     0.008 C 
ATOM     11  C   UNL     1      -7.980  34.179  25.035  1.00  0.00    -0.018 C 
ATOM     12  C   UNL     1      -7.009  34.799  24.002  1.00  0.00     0.088 C 
ATOM     13  C   UNL     1      -7.485  34.607  22.590  1.00  0.00     0.159 C 
ATOM     14  O   UNL     1      -7.380  35.569  21.782  1.00  0.00    -0.295 OA
ATOM     15  C   UNL     1      -9.299  35.002  25.060  1.00  0.00     0.012 C 
ATOM     16  C   UNL     1      -7.233  33.580  19.820  1.00  0.00     0.039 C 
ENDROOT
TORSDOF 0
ENDMDL
MODEL 8
REMARK VINA RESULT:    -6.450      2.109      3.529
REMARK INTER + INTRA:          -6.450
REMARK INTER:                  -6.450
REMARK INTRA:                   0.000
REMARK UNBOUND:                 0.000
REMARK SMILES C=C1CCC[C@@]2(C)CC(=O)C(=C(C)C)C[C@H]12
REMARK SMILES IDX 13 1 12 2 11 3 15 4 16 5 2 6 1 7 3 8 4 9 5 10 6 11 8 12 9 13
REMARK SMILES IDX 10 14 7 15 14 16
REMARK H PARENT
REMARK Flexibility Score: inf
ROOT
ATOM      1  C   UNL     1      -7.192  32.241  27.497  1.00  0.00     0.039 C 
ATOM      2  C   UNL     1      -7.954  33.215  26.627  1.00  0.00    -0.070 C 
ATOM      3  C   UNL     1      -8.195  32.950  25.309  1.00  0.00    -0.006 C 
ATOM      4  C   UNL     1      -7.726  31.651  24.668  1.00  0.00     0.047 C 
ATOM      5  C   UNL     1      -8.650  31.181  23.517  1.00  0.00     0.025 C 
ATOM      6  C   UNL     1      -8.206  29.902  22.808  1.00  0.00    -0.073 C 
ATOM      7  C   UNL     1      -7.093  29.211  23.123  1.00  0.00     0.008 C 
ATOM      8  C   UNL     1      -9.121  29.389  21.721  1.00  0.00     0.031 C 
ATOM      9  C   UNL     1      -9.408  30.494  20.700  1.00  0.00     0.005 C 
ATOM     10  C   UNL     1      -9.900  31.782  21.383  1.00  0.00     0.008 C 
ATOM     11  C   UNL     1      -8.918  32.310  22.473  1.00  0.00    -0.018 C 
ATOM     12  C   UNL     1      -9.595  33.501  23.195  1.00  0.00     0.088 C 
ATOM     13  C   UNL     1      -8.815  33.953  24.395  1.00  0.00     0.159 C 
ATOM     14  O   UNL     1      -8.686  35.191  24.599  1.00  0.00    -0.295 OA
ATOM     15  C   UNL     1      -7.606  32.797  21.797  1.00  0.00     0.012 C 
ATOM     16  C   UNL     1      -8.464  34.472  27.294  1.00  0.00     0.039 C 
ENDROOT
TORSDOF 0
ENDMDL
MODEL 9
REMARK VINA RESULT:    -6.017      1.596      2.096
REMARK INTER + INTRA:          -6.017
REMARK INTER:                  -6.017
REMARK INTRA:                   0.000
REMARK UNBOUND:                 0.000
REMARK SMILES C=C1CCC[C@@]2(C)CC(=O)C(=C(C)C)C[C@H]12
REMARK SMILES IDX 13 1 12 2 11 3 15 4 16 5 2 6 1 7 3 8 4 9 5 10 6 11 8 12 9 13
REMARK SMILES IDX 10 14 7 15 14 16
REMARK H PARENT
REMARK Flexibility Score: inf
ROOT
ATOM      1  C   UNL     1      -8.628  35.394  26.668  1.00  0.00     0.039 C 
ATOM      2  C   UNL     1      -8.520  34.678  25.341  1.00  0.00    -0.070 C 
ATOM      3  C   UNL     1      -8.502  33.315  25.270  1.00  0.00    -0.006 C 
ATOM      4  C   UNL     1      -8.613  32.459  26.525  1.00  0.00     0.047 C 
ATOM      5  C   UNL     1      -9.301  31.096  26.263  1.00  0.00     0.025 C 
ATOM      6  C   UNL     1      -9.405  30.176  27.479  1.00  0.00    -0.073 C 
ATOM      7  C   UNL     1      -8.934  30.486  28.702  1.00  0.00     0.008 C 
ATOM      8  C   UNL     1     -10.125  28.866  27.266  1.00  0.00     0.031 C 
ATOM      9  C   UNL     1      -9.522  28.113  26.076  1.00  0.00     0.005 C 
ATOM     10  C   UNL     1      -9.446  29.003  24.822  1.00  0.00     0.008 C 
ATOM     11  C   UNL     1      -8.664  30.330  25.061  1.00  0.00    -0.018 C 
ATOM     12  C   UNL     1      -8.799  31.204  23.790  1.00  0.00     0.088 C 
ATOM     13  C   UNL     1      -8.250  32.587  23.992  1.00  0.00     0.159 C 
ATOM     14  O   UNL     1      -7.566  33.104  23.068  1.00  0.00    -0.295 OA
ATOM     15  C   UNL     1      -7.163  30.012  25.308  1.00  0.00     0.012 C 
ATOM     16  C   UNL     1      -8.471  35.542  24.101  1.00  0.00     0.039 C 
ENDROOT
TORSDOF 0
ENDMDL
