MODEL 1
REMARK VINA RESULT:    -4.691      0.000      0.000
REMARK INTER + INTRA:          -6.470
REMARK INTER:                  -6.199
REMARK INTRA:                  -0.271
REMARK UNBOUND:                -0.271
REMARK SMILES C=CCC[C@@H](O)CCC
REMARK SMILES IDX 4 1 5 2 7 3 8 4 9 5 6 6 3 8 2 9 1 10
REMARK H PARENT 6 7
REMARK Flexibility Score: inf
ROOT
ATOM      1  C   UNL     1     135.708 134.230 137.779  1.00  0.00     0.036 C 
ENDROOT
BRANCH   1   2
ATOM      2  C   UNL     1     134.619 133.532 136.933  1.00  0.00     0.114 C 
BRANCH   2   3
ATOM      3  C   UNL     1     133.914 132.384 137.688  1.00  0.00     0.031 C 
BRANCH   3   4
ATOM      4  C   UNL     1     132.379 132.482 137.695  1.00  0.00    -0.001 C 
ATOM      5  C   UNL     1     131.745 131.139 137.342  1.00  0.00     0.004 C 
ENDBRANCH   3   4
ENDBRANCH   2   3
BRANCH   2   6
ATOM      6  O   UNL     1     135.118 133.090 135.693  1.00  0.00    -0.393 OA
ATOM      7  H   UNL     1     135.423 132.152 135.801  1.00  0.00     0.210 HD
ENDBRANCH   2   6
ENDBRANCH   1   2
BRANCH   1   8
ATOM      8  C   UNL     1     135.193 134.570 139.185  1.00  0.00     0.029 C 
BRANCH   8   9
ATOM      9  C   UNL     1     134.488 135.899 139.200  1.00  0.00    -0.035 C 
ATOM     10  C   UNL     1     133.217 136.025 138.810  1.00  0.00     0.004 C 
ENDBRANCH   8   9
ENDBRANCH   1   8
TORSDOF 6
ENDMDL
MODEL 2
REMARK VINA RESULT:    -4.660      2.048      4.399
REMARK INTER + INTRA:          -6.429
REMARK INTER:                  -6.252
REMARK INTRA:                  -0.177
REMARK UNBOUND:                -0.271
REMARK SMILES C=CCC[C@@H](O)CCC
REMARK SMILES IDX 4 1 5 2 7 3 8 4 9 5 6 6 3 8 2 9 1 10
REMARK H PARENT 6 7
REMARK Flexibility Score: inf
ROOT
ATOM      1  C   UNL     1     133.705 133.871 138.887  1.00  0.00     0.036 C 
ENDROOT
BRANCH   1   2
ATOM      2  C   UNL     1     134.808 134.787 138.309  1.00  0.00     0.114 C 
BRANCH   2   3
ATOM      3  C   UNL     1     136.234 134.275 138.609  1.00  0.00     0.031 C 
BRANCH   3   4
ATOM      4  C   UNL     1     136.493 133.962 140.092  1.00  0.00    -0.001 C 
ATOM      5  C   UNL     1     137.971 133.667 140.337  1.00  0.00     0.004 C 
ENDBRANCH   3   4
ENDBRANCH   2   3
BRANCH   2   6
ATOM      6  O   UNL     1     134.653 136.123 138.723  1.00  0.00    -0.393 OA
ATOM      7  H   UNL     1     135.554 136.493 138.912  1.00  0.00     0.210 HD
ENDBRANCH   2   6
ENDBRANCH   1   2
BRANCH   1   8
ATOM      8  C   UNL     1     132.711 133.434 137.800  1.00  0.00     0.029 C 
BRANCH   8   9
ATOM      9  C   UNL     1     132.899 131.985 137.443  1.00  0.00    -0.035 C 
ATOM     10  C   UNL     1     131.904 131.100 137.550  1.00  0.00     0.004 C 
ENDBRANCH   8   9
ENDBRANCH   1   8
TORSDOF 6
ENDMDL
MODEL 3
REMARK VINA RESULT:    -4.643      2.293      3.014
REMARK INTER + INTRA:          -6.406
REMARK INTER:                  -6.219
REMARK INTRA:                  -0.188
REMARK UNBOUND:                -0.271
REMARK SMILES C=CCC[C@@H](O)CCC
REMARK SMILES IDX 4 1 5 2 7 3 8 4 9 5 6 6 3 8 2 9 1 10
REMARK H PARENT 6 7
REMARK Flexibility Score: inf
ROOT
ATOM      1  C   UNL     1     135.221 134.868 138.422  1.00  0.00     0.036 C 
ENDROOT
BRANCH   1   2
ATOM      2  C   UNL     1     134.141 134.063 139.180  1.00  0.00     0.114 C 
BRANCH   2   3
ATOM      3  C   UNL     1     132.995 133.583 138.263  1.00  0.00     0.031 C 
BRANCH   3   4
ATOM      4  C   UNL     1     133.254 132.225 137.588  1.00  0.00    -0.001 C 
ATOM      5  C   UNL     1     131.952 131.452 137.401  1.00  0.00     0.004 C 
ENDBRANCH   3   4
ENDBRANCH   2   3
BRANCH   2   6
ATOM      6  O   UNL     1     133.638 134.770 140.289  1.00  0.00    -0.393 OA
ATOM      7  H   UNL     1     134.106 135.644 140.334  1.00  0.00     0.210 HD
ENDBRANCH   2   6
ENDBRANCH   1   2
BRANCH   1   8
ATOM      8  C   UNL     1     136.611 134.236 138.589  1.00  0.00     0.029 C 
BRANCH   8   9
ATOM      9  C   UNL     1     136.896 133.921 140.033  1.00  0.00    -0.035 C 
ATOM     10  C   UNL     1     138.128 133.636 140.460  1.00  0.00     0.004 C 
ENDBRANCH   8   9
ENDBRANCH   1   8
TORSDOF 6
ENDMDL
MODEL 4
REMARK VINA RESULT:    -4.534      1.206      4.361
REMARK INTER + INTRA:          -6.263
REMARK INTER:                  -6.011
REMARK INTRA:                  -0.252
REMARK UNBOUND:                -0.271
REMARK SMILES C=CCC[C@@H](O)CCC
REMARK SMILES IDX 4 1 5 2 7 3 8 4 9 5 6 6 3 8 2 9 1 10
REMARK H PARENT 6 7
REMARK Flexibility Score: inf
ROOT
ATOM      1  C   UNL     1     133.292 131.651 136.987  1.00  0.00     0.036 C 
ENDROOT
BRANCH   1   2
ATOM      2  C   UNL     1     134.039 132.886 137.540  1.00  0.00     0.114 C 
BRANCH   2   3
ATOM      3  C   UNL     1     133.087 133.955 138.121  1.00  0.00     0.031 C 
BRANCH   3   4
ATOM      4  C   UNL     1     133.667 134.735 139.313  1.00  0.00    -0.001 C 
ATOM      5  C   UNL     1     134.136 136.122 138.880  1.00  0.00     0.004 C 
ENDBRANCH   3   4
ENDBRANCH   2   3
BRANCH   2   6
ATOM      6  O   UNL     1     134.907 133.449 136.585  1.00  0.00    -0.393 OA
ATOM      7  H   UNL     1     134.353 133.857 135.869  1.00  0.00     0.210 HD
ENDBRANCH   2   6
ENDBRANCH   1   2
BRANCH   1   8
ATOM      8  C   UNL     1     131.791 131.714 137.305  1.00  0.00     0.029 C 
BRANCH   8   9
ATOM      9  C   UNL     1     131.390 130.616 138.252  1.00  0.00    -0.035 C 
ATOM     10  C   UNL     1     131.494 129.327 137.919  1.00  0.00     0.004 C 
ENDBRANCH   8   9
ENDBRANCH   1   8
TORSDOF 6
ENDMDL
MODEL 5
REMARK VINA RESULT:    -4.506      2.574      4.437
REMARK INTER + INTRA:          -6.226
REMARK INTER:                  -6.026
REMARK INTRA:                  -0.201
REMARK UNBOUND:                -0.271
REMARK SMILES C=CCC[C@@H](O)CCC
REMARK SMILES IDX 4 1 5 2 7 3 8 4 9 5 6 6 3 8 2 9 1 10
REMARK H PARENT 6 7
REMARK Flexibility Score: inf
ROOT
ATOM      1  C   UNL     1     134.966 135.064 139.591  1.00  0.00     0.036 C 
ENDROOT
BRANCH   1   2
ATOM      2  C   UNL     1     136.086 134.062 139.229  1.00  0.00     0.114 C 
BRANCH   2   3
ATOM      3  C   UNL     1     136.893 133.592 140.459  1.00  0.00     0.031 C 
BRANCH   3   4
ATOM      4  C   UNL     1     138.405 133.858 140.361  1.00  0.00    -0.001 C 
ATOM      5  C   UNL     1     139.203 132.605 140.715  1.00  0.00     0.004 C 
ENDBRANCH   3   4
ENDBRANCH   2   3
BRANCH   2   6
ATOM      6  O   UNL     1     136.938 134.563 138.227  1.00  0.00    -0.393 OA
ATOM      7  H   UNL     1     136.659 135.494 138.024  1.00  0.00     0.210 HD
ENDBRANCH   2   6
ENDBRANCH   1   2
BRANCH   1   8
ATOM      8  C   UNL     1     133.589 134.384 139.606  1.00  0.00     0.029 C 
BRANCH   8   9
ATOM      9  C   UNL     1     133.146 134.021 138.214  1.00  0.00    -0.035 C 
ATOM     10  C   UNL     1     132.671 132.808 137.922  1.00  0.00     0.004 C 
ENDBRANCH   8   9
ENDBRANCH   1   8
TORSDOF 6
ENDMDL
MODEL 6
REMARK VINA RESULT:    -4.473      1.666      4.964
REMARK INTER + INTRA:          -6.182
REMARK INTER:                  -6.095
REMARK INTRA:                  -0.088
REMARK UNBOUND:                -0.271
REMARK SMILES C=CCC[C@@H](O)CCC
REMARK SMILES IDX 4 1 5 2 7 3 8 4 9 5 6 6 3 8 2 9 1 10
REMARK H PARENT 6 7
REMARK Flexibility Score: inf
ROOT
ATOM      1  C   UNL     1     131.822 131.637 137.419  1.00  0.00     0.036 C 
ENDROOT
BRANCH   1   2
ATOM      2  C   UNL     1     133.114 132.431 137.720  1.00  0.00     0.114 C 
BRANCH   2   3
ATOM      3  C   UNL     1     132.841 133.904 138.098  1.00  0.00     0.031 C 
BRANCH   3   4
ATOM      4  C   UNL     1     133.807 134.474 139.151  1.00  0.00    -0.001 C 
ATOM      5  C   UNL     1     134.028 135.969 138.935  1.00  0.00     0.004 C 
ENDBRANCH   3   4
ENDBRANCH   2   3
BRANCH   2   6
ATOM      6  O   UNL     1     134.044 132.344 136.668  1.00  0.00    -0.393 OA
ATOM      7  H   UNL     1     134.847 131.868 137.005  1.00  0.00     0.210 HD
ENDBRANCH   2   6
ENDBRANCH   1   2
BRANCH   1   8
ATOM      8  C   UNL     1     132.025 130.131 137.638  1.00  0.00     0.029 C 
BRANCH   8   9
ATOM      9  C   UNL     1     131.008 129.579 138.599  1.00  0.00    -0.035 C 
ATOM     10  C   UNL     1     130.872 128.266 138.803  1.00  0.00     0.004 C 
ENDBRANCH   8   9
ENDBRANCH   1   8
TORSDOF 6
ENDMDL
MODEL 7
REMARK VINA RESULT:    -4.393      3.029      4.132
REMARK INTER + INTRA:          -6.076
REMARK INTER:                  -5.934
REMARK INTRA:                  -0.142
REMARK UNBOUND:                -0.271
REMARK SMILES C=CCC[C@@H](O)CCC
REMARK SMILES IDX 4 1 5 2 7 3 8 4 9 5 6 6 3 8 2 9 1 10
REMARK H PARENT 6 7
REMARK Flexibility Score: inf
ROOT
ATOM      1  C   UNL     1     136.727 133.509 140.254  1.00  0.00     0.036 C 
ENDROOT
BRANCH   1   2
ATOM      2  C   UNL     1     135.966 134.518 139.364  1.00  0.00     0.114 C 
BRANCH   2   3
ATOM      3  C   UNL     1     134.434 134.322 139.407  1.00  0.00     0.031 C 
BRANCH   3   4
ATOM      4  C   UNL     1     133.791 134.070 138.033  1.00  0.00    -0.001 C 
ATOM      5  C   UNL     1     133.589 132.576 137.792  1.00  0.00     0.004 C 
ENDBRANCH   3   4
ENDBRANCH   2   3
BRANCH   2   6
ATOM      6  O   UNL     1     136.438 134.513 138.038  1.00  0.00    -0.393 OA
ATOM      7  H   UNL     1     136.050 135.297 137.570  1.00  0.00     0.210 HD
ENDBRANCH   2   6
ENDBRANCH   1   2
BRANCH   1   8
ATOM      8  C   UNL     1     138.218 133.867 140.357  1.00  0.00     0.029 C 
BRANCH   8   9
ATOM      9  C   UNL     1     139.040 132.664 140.733  1.00  0.00    -0.035 C 
ATOM     10  C   UNL     1     140.287 132.782 141.197  1.00  0.00     0.004 C 
ENDBRANCH   8   9
ENDBRANCH   1   8
TORSDOF 6
ENDMDL
MODEL 8
REMARK VINA RESULT:    -4.356      1.710      2.448
REMARK INTER + INTRA:          -6.028
REMARK INTER:                  -5.782
REMARK INTRA:                  -0.246
REMARK UNBOUND:                -0.271
REMARK SMILES C=CCC[C@@H](O)CCC
REMARK SMILES IDX 4 1 5 2 7 3 8 4 9 5 6 6 3 8 2 9 1 10
REMARK H PARENT 6 7
REMARK Flexibility Score: inf
ROOT
ATOM      1  C   UNL     1     133.894 134.598 138.693  1.00  0.00     0.036 C 
ENDROOT
BRANCH   1   2
ATOM      2  C   UNL     1     132.674 133.714 138.350  1.00  0.00     0.114 C 
BRANCH   2   3
ATOM      3  C   UNL     1     133.070 132.352 137.737  1.00  0.00     0.031 C 
BRANCH   3   4
ATOM      4  C   UNL     1     131.888 131.544 137.178  1.00  0.00    -0.001 C 
ATOM      5  C   UNL     1     131.868 130.133 137.761  1.00  0.00     0.004 C 
ENDBRANCH   3   4
ENDBRANCH   2   3
BRANCH   2   6
ATOM      6  O   UNL     1     131.749 134.386 137.530  1.00  0.00    -0.393 OA
ATOM      7  H   UNL     1     132.162 134.507 136.635  1.00  0.00     0.210 HD
ENDBRANCH   2   6
ENDBRANCH   1   2
BRANCH   1   8
ATOM      8  C   UNL     1     135.117 134.222 137.842  1.00  0.00     0.029 C 
BRANCH   8   9
ATOM      9  C   UNL     1     136.382 134.277 138.655  1.00  0.00    -0.035 C 
ATOM     10  C   UNL     1     136.399 133.962 139.952  1.00  0.00     0.004 C 
ENDBRANCH   8   9
ENDBRANCH   1   8
TORSDOF 6
ENDMDL
MODEL 9
REMARK VINA RESULT:    -4.300      1.298      2.165
REMARK INTER + INTRA:          -5.954
REMARK INTER:                  -5.736
REMARK INTRA:                  -0.218
REMARK UNBOUND:                -0.271
REMARK SMILES C=CCC[C@@H](O)CCC
REMARK SMILES IDX 4 1 5 2 7 3 8 4 9 5 6 6 3 8 2 9 1 10
REMARK H PARENT 6 7
REMARK Flexibility Score: inf
ROOT
ATOM      1  C   UNL     1     135.921 134.312 138.050  1.00  0.00     0.036 C 
ENDROOT
BRANCH   1   2
ATOM      2  C   UNL     1     134.686 133.797 137.276  1.00  0.00     0.114 C 
BRANCH   2   3
ATOM      3  C   UNL     1     133.817 132.826 138.107  1.00  0.00     0.031 C 
BRANCH   3   4
ATOM      4  C   UNL     1     132.319 132.865 137.760  1.00  0.00    -0.001 C 
ATOM      5  C   UNL     1     131.810 131.477 137.383  1.00  0.00     0.004 C 
ENDBRANCH   3   4
ENDBRANCH   2   3
BRANCH   2   6
ATOM      6  O   UNL     1     135.039 133.226 136.040  1.00  0.00    -0.393 OA
ATOM      7  H   UNL     1     135.763 133.777 135.642  1.00  0.00     0.210 HD
ENDBRANCH   2   6
ENDBRANCH   1   2
BRANCH   1   8
ATOM      8  C   UNL     1     135.641 134.403 139.557  1.00  0.00     0.029 C 
BRANCH   8   9
ATOM      9  C   UNL     1     136.627 133.582 140.344  1.00  0.00    -0.035 C 
ATOM     10  C   UNL     1     137.944 133.774 140.238  1.00  0.00     0.004 C 
ENDBRANCH   8   9
ENDBRANCH   1   8
TORSDOF 6
ENDMDL
