MODEL 1
REMARK VINA RESULT:    -2.896      0.000      0.000
REMARK INTER + INTRA:          -4.828
REMARK INTER:                  -4.081
REMARK INTRA:                  -0.747
REMARK UNBOUND:                -0.747
REMARK SMILES CCCCCCCCC=O
REMARK SMILES IDX 5 1 4 2 3 3 2 4 1 5 6 6 7 7 8 8 9 9 10 10
REMARK H PARENT
REMARK Flexibility Score: inf
ROOT
ATOM      1  C   UNL     1     116.214 119.302 115.603  1.00  0.00     0.000 C 
ENDROOT
BRANCH   1   2
ATOM      2  C   UNL     1     115.063 118.907 114.653  1.00  0.00    -0.000 C 
BRANCH   2   3
ATOM      3  C   UNL     1     114.722 120.022 113.653  1.00  0.00    -0.000 C 
BRANCH   3   4
ATOM      4  C   UNL     1     115.204 119.663 112.243  1.00  0.00    -0.003 C 
ATOM      5  C   UNL     1     114.864 118.217 111.894  1.00  0.00     0.004 C 
ENDBRANCH   3   4
ENDBRANCH   2   3
ENDBRANCH   1   2
BRANCH   1   6
ATOM      6  C   UNL     1     117.491 118.464 115.413  1.00  0.00     0.000 C 
BRANCH   6   7
ATOM      7  C   UNL     1     117.328 117.228 114.506  1.00  0.00     0.008 C 
BRANCH   7   8
ATOM      8  C   UNL     1     118.286 117.199 113.304  1.00  0.00     0.072 C 
BRANCH   8   9
ATOM      9  C   UNL     1     118.958 118.523 113.082  1.00  0.00     0.224 C 
ATOM     10  O   UNL     1     120.169 118.628 113.189  1.00  0.00    -0.303 OA
ENDBRANCH   8   9
ENDBRANCH   7   8
ENDBRANCH   6   7
ENDBRANCH   1   6
TORSDOF 7
ENDMDL
MODEL 2
REMARK VINA RESULT:    -2.890      3.084      4.822
REMARK INTER + INTRA:          -4.820
REMARK INTER:                  -4.316
REMARK INTRA:                  -0.504
REMARK UNBOUND:                -0.747
REMARK SMILES CCCCCCCCC=O
REMARK SMILES IDX 5 1 4 2 3 3 2 4 1 5 6 6 7 7 8 8 9 9 10 10
REMARK H PARENT
REMARK Flexibility Score: inf
ROOT
ATOM      1  C   UNL     1     113.970 116.595 111.912  1.00  0.00     0.000 C 
ENDROOT
BRANCH   1   2
ATOM      2  C   UNL     1     114.276 115.091 112.076  1.00  0.00    -0.000 C 
BRANCH   2   3
ATOM      3  C   UNL     1     113.432 114.440 113.182  1.00  0.00    -0.000 C 
BRANCH   3   4
ATOM      4  C   UNL     1     113.646 115.145 114.526  1.00  0.00    -0.003 C 
ATOM      5  C   UNL     1     115.040 114.868 115.079  1.00  0.00     0.004 C 
ENDBRANCH   3   4
ENDBRANCH   2   3
ENDBRANCH   1   2
BRANCH   1   6
ATOM      6  C   UNL     1     115.200 117.503 112.096  1.00  0.00     0.000 C 
BRANCH   6   7
ATOM      7  C   UNL     1     114.909 119.014 112.024  1.00  0.00     0.008 C 
BRANCH   7   8
ATOM      8  C   UNL     1     114.594 119.660 113.384  1.00  0.00     0.072 C 
BRANCH   8   9
ATOM      9  C   UNL     1     115.331 118.997 114.511  1.00  0.00     0.224 C 
ATOM     10  O   UNL     1     114.720 118.468 115.425  1.00  0.00    -0.303 OA
ENDBRANCH   8   9
ENDBRANCH   7   8
ENDBRANCH   6   7
ENDBRANCH   1   6
TORSDOF 7
ENDMDL
MODEL 3
REMARK VINA RESULT:    -2.889      3.179      4.596
REMARK INTER + INTRA:          -4.818
REMARK INTER:                  -4.017
REMARK INTRA:                  -0.801
REMARK UNBOUND:                -0.747
REMARK SMILES CCCCCCCCC=O
REMARK SMILES IDX 5 1 4 2 3 3 2 4 1 5 6 6 7 7 8 8 9 9 10 10
REMARK H PARENT
REMARK Flexibility Score: inf
ROOT
ATOM      1  C   UNL     1     119.233 117.001 111.875  1.00  0.00     0.000 C 
ENDROOT
BRANCH   1   2
ATOM      2  C   UNL     1     117.723 116.681 111.887  1.00  0.00    -0.000 C 
BRANCH   2   3
ATOM      3  C   UNL     1     117.445 115.173 111.966  1.00  0.00    -0.000 C 
BRANCH   3   4
ATOM      4  C   UNL     1     118.728 114.391 112.269  1.00  0.00    -0.003 C 
ATOM      5  C   UNL     1     118.500 113.358 113.368  1.00  0.00     0.004 C 
ENDBRANCH   3   4
ENDBRANCH   2   3
ENDBRANCH   1   2
BRANCH   1   6
ATOM      6  C   UNL     1     119.621 118.197 112.763  1.00  0.00     0.000 C 
BRANCH   6   7
ATOM      7  C   UNL     1     118.933 118.233 114.141  1.00  0.00     0.008 C 
BRANCH   7   8
ATOM      8  C   UNL     1     119.625 117.374 115.213  1.00  0.00     0.072 C 
BRANCH   8   9
ATOM      9  C   UNL     1     118.731 116.283 115.728  1.00  0.00     0.224 C 
ATOM     10  O   UNL     1     117.570 116.210 115.363  1.00  0.00    -0.303 OA
ENDBRANCH   8   9
ENDBRANCH   7   8
ENDBRANCH   6   7
ENDBRANCH   1   6
TORSDOF 7
ENDMDL
MODEL 4
REMARK VINA RESULT:    -2.831      2.119      4.302
REMARK INTER + INTRA:          -4.736
REMARK INTER:                  -4.048
REMARK INTRA:                  -0.688
REMARK UNBOUND:                -0.747
REMARK SMILES CCCCCCCCC=O
REMARK SMILES IDX 5 1 4 2 3 3 2 4 1 5 6 6 7 7 8 8 9 9 10 10
REMARK H PARENT
REMARK Flexibility Score: inf
ROOT
ATOM      1  C   UNL     1     116.846 116.702 112.246  1.00  0.00     0.000 C 
ENDROOT
BRANCH   1   2
ATOM      2  C   UNL     1     118.353 117.003 112.100  1.00  0.00    -0.000 C 
BRANCH   2   3
ATOM      3  C   UNL     1     118.688 118.471 112.403  1.00  0.00    -0.000 C 
BRANCH   3   4
ATOM      4  C   UNL     1     119.914 118.578 113.317  1.00  0.00    -0.003 C 
ATOM      5  C   UNL     1     119.572 118.177 114.748  1.00  0.00     0.004 C 
ENDBRANCH   3   4
ENDBRANCH   2   3
ENDBRANCH   1   2
BRANCH   1   6
ATOM      6  C   UNL     1     116.368 116.624 113.708  1.00  0.00     0.000 C 
BRANCH   6   7
ATOM      7  C   UNL     1     115.152 117.511 114.042  1.00  0.00     0.008 C 
BRANCH   7   8
ATOM      8  C   UNL     1     115.483 119.006 114.181  1.00  0.00     0.072 C 
BRANCH   8   9
ATOM      9  C   UNL     1     114.778 119.841 113.152  1.00  0.00     0.224 C 
ATOM     10  O   UNL     1     115.230 119.946 112.024  1.00  0.00    -0.303 OA
ENDBRANCH   8   9
ENDBRANCH   7   8
ENDBRANCH   6   7
ENDBRANCH   1   6
TORSDOF 7
ENDMDL
MODEL 5
REMARK VINA RESULT:    -2.829      3.114      4.927
REMARK INTER + INTRA:          -4.733
REMARK INTER:                  -4.377
REMARK INTRA:                  -0.357
REMARK UNBOUND:                -0.747
REMARK SMILES CCCCCCCCC=O
REMARK SMILES IDX 5 1 4 2 3 3 2 4 1 5 6 6 7 7 8 8 9 9 10 10
REMARK H PARENT
REMARK Flexibility Score: inf
ROOT
ATOM      1  C   UNL     1     116.176 118.795 113.173  1.00  0.00     0.000 C 
ENDROOT
BRANCH   1   2
ATOM      2  C   UNL     1     117.235 118.836 112.051  1.00  0.00    -0.000 C 
BRANCH   2   3
ATOM      3  C   UNL     1     118.202 117.645 112.115  1.00  0.00    -0.000 C 
BRANCH   3   4
ATOM      4  C   UNL     1     119.656 118.121 112.212  1.00  0.00    -0.003 C 
ATOM      5  C   UNL     1     120.005 118.540 113.636  1.00  0.00     0.004 C 
ENDBRANCH   3   4
ENDBRANCH   2   3
ENDBRANCH   1   2
BRANCH   1   6
ATOM      6  C   UNL     1     114.728 118.703 112.658  1.00  0.00     0.000 C 
BRANCH   6   7
ATOM      7  C   UNL     1     114.379 117.389 111.933  1.00  0.00     0.008 C 
BRANCH   7   8
ATOM      8  C   UNL     1     114.645 116.122 112.763  1.00  0.00     0.072 C 
BRANCH   8   9
ATOM      9  C   UNL     1     113.605 115.064 112.532  1.00  0.00     0.224 C 
ATOM     10  O   UNL     1     113.158 114.420 113.467  1.00  0.00    -0.303 OA
ENDBRANCH   8   9
ENDBRANCH   7   8
ENDBRANCH   6   7
ENDBRANCH   1   6
TORSDOF 7
ENDMDL
MODEL 6
REMARK VINA RESULT:    -2.791      1.647      2.547
REMARK INTER + INTRA:          -4.679
REMARK INTER:                  -4.082
REMARK INTRA:                  -0.598
REMARK UNBOUND:                -0.747
REMARK SMILES CCCCCCCCC=O
REMARK SMILES IDX 5 1 4 2 3 3 2 4 1 5 6 6 7 7 8 8 9 9 10 10
REMARK H PARENT
REMARK Flexibility Score: inf
ROOT
ATOM      1  C   UNL     1     117.089 116.442 113.329  1.00  0.00     0.000 C 
ENDROOT
BRANCH   1   2
ATOM      2  C   UNL     1     116.004 117.350 113.945  1.00  0.00    -0.000 C 
BRANCH   2   3
ATOM      3  C   UNL     1     114.751 117.446 113.062  1.00  0.00    -0.000 C 
BRANCH   3   4
ATOM      4  C   UNL     1     114.639 118.831 112.414  1.00  0.00    -0.003 C 
ATOM      5  C   UNL     1     114.673 119.937 113.464  1.00  0.00     0.004 C 
ENDBRANCH   3   4
ENDBRANCH   2   3
ENDBRANCH   1   2
BRANCH   1   6
ATOM      6  C   UNL     1     118.031 117.173 112.355  1.00  0.00     0.000 C 
BRANCH   6   7
ATOM      7  C   UNL     1     118.531 118.546 112.844  1.00  0.00     0.008 C 
BRANCH   7   8
ATOM      8  C   UNL     1     119.949 118.524 113.440  1.00  0.00     0.072 C 
BRANCH   8   9
ATOM      9  C   UNL     1     119.944 118.180 114.901  1.00  0.00     0.224 C 
ATOM     10  O   UNL     1     118.989 118.470 115.603  1.00  0.00    -0.303 OA
ENDBRANCH   8   9
ENDBRANCH   7   8
ENDBRANCH   6   7
ENDBRANCH   1   6
TORSDOF 7
ENDMDL
MODEL 7
REMARK VINA RESULT:    -2.780      2.902      4.327
REMARK INTER + INTRA:          -4.664
REMARK INTER:                  -4.063
REMARK INTRA:                  -0.601
REMARK UNBOUND:                -0.747
REMARK SMILES CCCCCCCCC=O
REMARK SMILES IDX 5 1 4 2 3 3 2 4 1 5 6 6 7 7 8 8 9 9 10 10
REMARK H PARENT
REMARK Flexibility Score: inf
ROOT
ATOM      1  C   UNL     1     116.300 117.504 112.270  1.00  0.00     0.000 C 
ENDROOT
BRANCH   1   2
ATOM      2  C   UNL     1     117.352 118.607 112.517  1.00  0.00    -0.000 C 
BRANCH   2   3
ATOM      3  C   UNL     1     118.722 118.253 111.920  1.00  0.00    -0.000 C 
BRANCH   3   4
ATOM      4  C   UNL     1     119.845 118.503 112.932  1.00  0.00    -0.003 C 
ATOM      5  C   UNL     1     119.402 118.145 114.347  1.00  0.00     0.004 C 
ENDBRANCH   3   4
ENDBRANCH   2   3
ENDBRANCH   1   2
BRANCH   1   6
ATOM      6  C   UNL     1     116.597 116.186 113.010  1.00  0.00     0.000 C 
BRANCH   6   7
ATOM      7  C   UNL     1     116.962 114.998 112.098  1.00  0.00     0.008 C 
BRANCH   7   8
ATOM      8  C   UNL     1     118.418 114.522 112.238  1.00  0.00     0.072 C 
BRANCH   8   9
ATOM      9  C   UNL     1     118.531 113.283 113.078  1.00  0.00     0.224 C 
ATOM     10  O   UNL     1     118.409 113.344 114.290  1.00  0.00    -0.303 OA
ENDBRANCH   8   9
ENDBRANCH   7   8
ENDBRANCH   6   7
ENDBRANCH   1   6
TORSDOF 7
ENDMDL
MODEL 8
REMARK VINA RESULT:    -2.728      2.415      3.748
REMARK INTER + INTRA:          -4.591
REMARK INTER:                  -3.977
REMARK INTRA:                  -0.614
REMARK UNBOUND:                -0.747
REMARK SMILES CCCCCCCCC=O
REMARK SMILES IDX 5 1 4 2 3 3 2 4 1 5 6 6 7 7 8 8 9 9 10 10
REMARK H PARENT
REMARK Flexibility Score: inf
ROOT
ATOM      1  C   UNL     1     117.002 114.010 113.072  1.00  0.00     0.000 C 
ENDROOT
BRANCH   1   2
ATOM      2  C   UNL     1     115.988 114.392 111.972  1.00  0.00    -0.000 C 
BRANCH   2   3
ATOM      3  C   UNL     1     114.648 114.869 112.551  1.00  0.00    -0.000 C 
BRANCH   3   4
ATOM      4  C   UNL     1     114.811 116.200 113.293  1.00  0.00    -0.003 C 
ATOM      5  C   UNL     1     114.747 117.381 112.330  1.00  0.00     0.004 C 
ENDBRANCH   3   4
ENDBRANCH   2   3
ENDBRANCH   1   2
BRANCH   1   6
ATOM      6  C   UNL     1     118.446 114.447 112.764  1.00  0.00     0.000 C 
BRANCH   6   7
ATOM      7  C   UNL     1     118.574 115.796 112.031  1.00  0.00     0.008 C 
BRANCH   7   8
ATOM      8  C   UNL     1     118.605 117.019 112.963  1.00  0.00     0.072 C 
BRANCH   8   9
ATOM      9  C   UNL     1     119.642 118.022 112.549  1.00  0.00     0.224 C 
ATOM     10  O   UNL     1     120.084 118.825 113.353  1.00  0.00    -0.303 OA
ENDBRANCH   8   9
ENDBRANCH   7   8
ENDBRANCH   6   7
ENDBRANCH   1   6
TORSDOF 7
ENDMDL
