MODEL 1
REMARK VINA RESULT:    93.262      0.000      0.000
REMARK INTER + INTRA:         152.558
REMARK INTER:                 153.236
REMARK INTRA:                  -0.678
REMARK UNBOUND:                -0.678
REMARK SMILES COc1ccc([C@@H]2CC(=O)c3c(O)cc(O[C@H]4O[C@@H](CO[C@H]5O[C@@H](C)[C@@H](O)[C@H](O)[C@H]5O)[C@H](O)[C@@H](O)[C@H]4O)cc3O2)cc1O
REMARK SMILES IDX 19 1 32 2 34 3 36 4 17 5 18 6 20 7 21 8 22 9 25 10 24 11
REMARK SMILES IDX 26 12 23 13 28 14 30 15 27 16 29 18 31 20 33 22 35 24 16 26
REMARK SMILES IDX 15 27 14 28 38 29 12 30 39 31 11 32 40 33 9 34 7 35 10 36
REMARK SMILES IDX 8 37 13 38 6 40 41 41 5 42 42 43 4 44 3 45 43 46 2 48 1 49
REMARK SMILES IDX 37 50
REMARK H PARENT 27 17 29 19 31 21 33 23 35 25 13 39 43 47 37 51
REMARK Flexibility Score: inf
ROOT
ATOM      1  C   UNL     1      16.063   9.711  24.773  1.00  0.00     0.180 C 
ATOM      2  C   UNL     1      16.656  11.114  25.414  1.00  0.00     0.177 C 
ATOM      3  C   UNL     1      15.516  12.175  25.312  1.00  0.00     0.180 C 
ATOM      4  C   UNL     1      14.047  11.638  25.738  1.00  0.00     0.214 C 
ATOM      5  C   UNL     1      14.159  10.213  26.197  1.00  0.00     0.339 C 
ATOM      6  O   UNL     1      14.707   9.346  25.212  1.00  0.00    -0.332 OA
ENDROOT
BRANCH   1   7
ATOM      7  C   UNL     1      16.191   9.741  23.210  1.00  0.00     0.198 C 
BRANCH   7   8
ATOM      8  O   UNL     1      17.012  10.753  22.583  1.00  0.00    -0.347 OA
BRANCH   8   9
ATOM      9  C   UNL     1      17.450  10.424  21.301  1.00  0.00     0.281 C 
ATOM     10  C   UNL     1      16.276  11.311  17.875  1.00  0.00     0.041 C 
ATOM     11  C   UNL     1      17.222  10.716  18.957  1.00  0.00     0.150 C 
ATOM     12  C   UNL     1      18.675  11.123  18.621  1.00  0.00     0.174 C 
ATOM     13  O   UNL     1      16.801  11.198  20.261  1.00  0.00    -0.344 OA
ATOM     14  C   UNL     1      19.625  10.741  19.810  1.00  0.00     0.179 C 
ATOM     15  C   UNL     1      18.985  10.847  21.253  1.00  0.00     0.202 C 
BRANCH  12  16
ATOM     16  O   UNL     1      18.674  12.498  18.357  1.00  0.00    -0.388 OA
ATOM     17  H   UNL     1      17.748  12.703  18.197  1.00  0.00     0.211 HD
ENDBRANCH  12  16
BRANCH  14  18
ATOM     18  O   UNL     1      20.250   9.449  19.496  1.00  0.00    -0.387 OA
ATOM     19  H   UNL     1      19.722   8.688  19.912  1.00  0.00     0.211 HD
ENDBRANCH  14  18
BRANCH  15  20
ATOM     20  O   UNL     1      19.165  12.159  21.757  1.00  0.00    -0.385 OA
ATOM     21  H   UNL     1      18.589  12.187  22.588  1.00  0.00     0.211 HD
ENDBRANCH  15  20
ENDBRANCH   8   9
ENDBRANCH   7   8
ENDBRANCH   1   7
BRANCH   2  22
ATOM     22  O   UNL     1      17.112  10.899  26.715  1.00  0.00    -0.387 OA
ATOM     23  H   UNL     1      17.564  10.011  26.802  1.00  0.00     0.211 HD
ENDBRANCH   2  22
BRANCH   3  24
ATOM     24  O   UNL     1      15.415  12.769  24.033  1.00  0.00    -0.387 OA
ATOM     25  H   UNL     1      15.401  13.763  24.199  1.00  0.00     0.211 HD
ENDBRANCH   3  24
BRANCH   5  26
ATOM     26  O   UNL     1      12.927   9.781  26.681  1.00  0.00    -0.462 OA
BRANCH  26  27
ATOM     27  C   UNL     1      12.854   8.644  27.548  1.00  0.00     0.130 A 
ATOM     28  C   UNL     1      12.986   8.809  28.891  1.00  0.00     0.093 A 
ATOM     29  C   UNL     1      12.486   7.382  27.016  1.00  0.00     0.094 A 
ATOM     30  C   UNL     1      12.545   7.743  29.764  1.00  0.00     0.133 A 
ATOM     31  C   UNL     1      12.346   6.285  27.930  1.00  0.00     0.138 A 
ATOM     32  C   UNL     1      12.178   6.513  29.276  1.00  0.00     0.102 A 
ATOM     33  O   UNL     1      12.225   4.939  27.410  1.00  0.00    -0.484 OA
ATOM     34  C   UNL     1      11.790   5.387  30.051  1.00  0.00     0.174 C 
ATOM     35  C   UNL     1      12.622   3.760  28.243  1.00  0.00     0.211 C 
ATOM     36  O   UNL     1      10.552   5.268  30.151  1.00  0.00    -0.294 OA
ATOM     37  C   UNL     1      12.664   4.207  29.785  1.00  0.00     0.131 C 
BRANCH  30  38
ATOM     38  O   UNL     1      12.752   7.908  31.133  1.00  0.00    -0.507 OA
ATOM     39  H   UNL     1      13.678   8.173  31.540  1.00  0.00     0.293 HD
ENDBRANCH  30  38
BRANCH  35  40
ATOM     40  C   UNL     1      11.622   2.639  27.964  1.00  0.00    -0.003 A 
ATOM     41  C   UNL     1      11.571   1.467  28.915  1.00  0.00     0.057 A 
ATOM     42  C   UNL     1      10.346   3.126  27.653  1.00  0.00     0.011 A 
ATOM     43  C   UNL     1      10.385   1.255  29.619  1.00  0.00     0.158 A 
ATOM     44  C   UNL     1       9.493   3.303  28.718  1.00  0.00     0.051 A 
ATOM     45  C   UNL     1       9.310   2.090  29.418  1.00  0.00     0.160 A 
BRANCH  43  46
ATOM     46  O   UNL     1      10.427   0.400  30.775  1.00  0.00    -0.504 OA
ATOM     47  H   UNL     1      11.180  -0.281  30.808  1.00  0.00     0.293 HD
ENDBRANCH  43  46
BRANCH  45  48
ATOM     48  O   UNL     1       8.053   1.726  28.795  1.00  0.00    -0.493 OA
ATOM     49  C   UNL     1       6.817   1.361  29.508  1.00  0.00     0.278 C 
ENDBRANCH  45  48
ENDBRANCH  35  40
ENDBRANCH  26  27
ENDBRANCH   5  26
BRANCH   4  50
ATOM     50  O   UNL     1      13.014  11.756  24.793  1.00  0.00    -0.384 OA
ATOM     51  H   UNL     1      13.478  11.959  23.948  1.00  0.00     0.211 HD
ENDBRANCH   4  50
TORSDOF 15
ENDMDL
MODEL 2
REMARK VINA RESULT:    93.429      6.015     10.652
REMARK INTER + INTRA:         152.831
REMARK INTER:                 152.469
REMARK INTRA:                   0.362
REMARK UNBOUND:                -0.678
REMARK SMILES COc1ccc([C@@H]2CC(=O)c3c(O)cc(O[C@H]4O[C@@H](CO[C@H]5O[C@@H](C)[C@@H](O)[C@H](O)[C@H]5O)[C@H](O)[C@@H](O)[C@H]4O)cc3O2)cc1O
REMARK SMILES IDX 19 1 32 2 34 3 36 4 17 5 18 6 20 7 21 8 22 9 25 10 24 11
REMARK SMILES IDX 26 12 23 13 28 14 30 15 27 16 29 18 31 20 33 22 35 24 16 26
REMARK SMILES IDX 15 27 14 28 38 29 12 30 39 31 11 32 40 33 9 34 7 35 10 36
REMARK SMILES IDX 8 37 13 38 6 40 41 41 5 42 42 43 4 44 3 45 43 46 2 48 1 49
REMARK SMILES IDX 37 50
REMARK H PARENT 27 17 29 19 31 21 33 23 35 25 13 39 43 47 37 51
REMARK Flexibility Score: inf
ROOT
ATOM      1  C   UNL     1      13.045   3.608  27.855  1.00  0.00     0.180 C 
ATOM      2  C   UNL     1      12.746   1.983  27.798  1.00  0.00     0.177 C 
ATOM      3  C   UNL     1      11.198   1.811  27.697  1.00  0.00     0.180 C 
ATOM      4  C   UNL     1      10.469   2.814  26.654  1.00  0.00     0.214 C 
ATOM      5  C   UNL     1      11.509   3.656  25.973  1.00  0.00     0.339 C 
ATOM      6  O   UNL     1      12.298   4.416  26.879  1.00  0.00    -0.332 OA
ENDROOT
BRANCH   1   7
ATOM      7  C   UNL     1      12.862   4.133  29.322  1.00  0.00     0.198 C 
BRANCH   7   8
ATOM      8  O   UNL     1      11.596   4.709  29.718  1.00  0.00    -0.347 OA
BRANCH   8   9
ATOM      9  C   UNL     1      11.612   6.097  29.847  1.00  0.00     0.281 C 
ATOM     10  C   UNL     1      14.337   8.638  29.982  1.00  0.00     0.041 C 
ATOM     11  C   UNL     1      12.880   8.103  29.891  1.00  0.00     0.150 C 
ATOM     12  C   UNL     1      12.134   8.886  28.786  1.00  0.00     0.174 C 
ATOM     13  O   UNL     1      12.923   6.676  29.624  1.00  0.00    -0.344 OA
ATOM     14  C   UNL     1      10.742   8.219  28.507  1.00  0.00     0.179 C 
ATOM     15  C   UNL     1      10.697   6.646  28.663  1.00  0.00     0.202 C 
BRANCH  12  16
ATOM     16  O   UNL     1      12.958   8.899  27.654  1.00  0.00    -0.388 OA
ATOM     17  H   UNL     1      12.581   9.588  27.099  1.00  0.00     0.211 HD
ENDBRANCH  12  16
BRANCH  14  18
ATOM     18  O   UNL     1       9.724   8.953  29.271  1.00  0.00    -0.387 OA
ATOM     19  H   UNL     1       9.966   8.974  30.257  1.00  0.00     0.211 HD
ENDBRANCH  14  18
BRANCH  15  20
ATOM     20  O   UNL     1      11.042   6.036  27.431  1.00  0.00    -0.385 OA
ATOM     21  H   UNL     1      11.574   6.744  26.943  1.00  0.00     0.211 HD
ENDBRANCH  15  20
ENDBRANCH   8   9
ENDBRANCH   7   8
ENDBRANCH   1   7
BRANCH   2  22
ATOM     22  O   UNL     1      13.449   1.398  26.744  1.00  0.00    -0.387 OA
ATOM     23  H   UNL     1      13.546   0.410  26.873  1.00  0.00     0.211 HD
ENDBRANCH   2  22
BRANCH   3  24
ATOM     24  O   UNL     1      10.540   1.916  28.944  1.00  0.00    -0.387 OA
ATOM     25  H   UNL     1       9.669   1.422  28.830  1.00  0.00     0.211 HD
ENDBRANCH   3  24
BRANCH   5  26
ATOM     26  O   UNL     1      10.907   4.433  24.986  1.00  0.00    -0.462 OA
BRANCH  26  27
ATOM     27  C   UNL     1      10.742   3.914  23.663  1.00  0.00     0.130 A 
ATOM     28  C   UNL     1      10.928   2.587  23.429  1.00  0.00     0.093 A 
ATOM     29  C   UNL     1      10.233   4.755  22.640  1.00  0.00     0.094 A 
ATOM     30  C   UNL     1      10.403   2.022  22.206  1.00  0.00     0.133 A 
ATOM     31  C   UNL     1      10.007   4.175  21.347  1.00  0.00     0.138 A 
ATOM     32  C   UNL     1       9.899   2.812  21.201  1.00  0.00     0.102 A 
ATOM     33  O   UNL     1       9.735   5.041  20.220  1.00  0.00    -0.484 OA
ATOM     34  C   UNL     1       9.420   2.360  19.942  1.00  0.00     0.174 C 
ATOM     35  C   UNL     1      10.032   4.591  18.822  1.00  0.00     0.211 C 
ATOM     36  O   UNL     1       8.180   2.229  19.913  1.00  0.00    -0.294 OA
ATOM     37  C   UNL     1      10.161   2.991  18.811  1.00  0.00     0.131 C 
BRANCH  30  38
ATOM     38  O   UNL     1      10.663   0.675  21.959  1.00  0.00    -0.507 OA
ATOM     39  H   UNL     1      10.864  -0.015  22.720  1.00  0.00     0.293 HD
ENDBRANCH  30  38
BRANCH  35  40
ATOM     40  C   UNL     1       8.915   5.115  17.921  1.00  0.00    -0.003 A 
ATOM     41  C   UNL     1       7.572   4.426  17.965  1.00  0.00     0.057 A 
ATOM     42  C   UNL     1       8.798   6.510  17.969  1.00  0.00     0.011 A 
ATOM     43  C   UNL     1       6.475   5.173  18.395  1.00  0.00     0.158 A 
ATOM     44  C   UNL     1       7.942   7.010  18.923  1.00  0.00     0.051 A 
ATOM     45  C   UNL     1       6.640   6.494  18.743  1.00  0.00     0.160 A 
BRANCH  43  46
ATOM     46  O   UNL     1       5.289   4.465  18.796  1.00  0.00    -0.504 OA
ATOM     47  H   UNL     1       5.045   3.645  18.249  1.00  0.00     0.293 HD
ENDBRANCH  43  46
BRANCH  45  48
ATOM     48  O   UNL     1       6.106   7.637  18.027  1.00  0.00    -0.493 OA
ATOM     49  C   UNL     1       6.771   8.942  17.876  1.00  0.00     0.278 C 
ENDBRANCH  45  48
ENDBRANCH  35  40
ENDBRANCH  26  27
ENDBRANCH   5  26
BRANCH   4  50
ATOM     50  O   UNL     1       9.442   3.633  27.151  1.00  0.00    -0.384 OA
ATOM     51  H   UNL     1       9.776   3.940  28.025  1.00  0.00     0.211 HD
ENDBRANCH   4  50
TORSDOF 15
ENDMDL
MODEL 3
REMARK VINA RESULT:    93.441      1.949      3.249
REMARK INTER + INTRA:         152.851
REMARK INTER:                 151.509
REMARK INTRA:                   1.343
REMARK UNBOUND:                -0.678
REMARK SMILES COc1ccc([C@@H]2CC(=O)c3c(O)cc(O[C@H]4O[C@@H](CO[C@H]5O[C@@H](C)[C@@H](O)[C@H](O)[C@H]5O)[C@H](O)[C@@H](O)[C@H]4O)cc3O2)cc1O
REMARK SMILES IDX 19 1 32 2 34 3 36 4 17 5 18 6 20 7 21 8 22 9 25 10 24 11
REMARK SMILES IDX 26 12 23 13 28 14 30 15 27 16 29 18 31 20 33 22 35 24 16 26
REMARK SMILES IDX 15 27 14 28 38 29 12 30 39 31 11 32 40 33 9 34 7 35 10 36
REMARK SMILES IDX 8 37 13 38 6 40 41 41 5 42 42 43 4 44 3 45 43 46 2 48 1 49
REMARK SMILES IDX 37 50
REMARK H PARENT 27 17 29 19 31 21 33 23 35 25 13 39 43 47 37 51
REMARK Flexibility Score: inf
ROOT
ATOM      1  C   UNL     1      16.570  11.137  23.145  1.00  0.00     0.180 C 
ATOM      2  C   UNL     1      16.131   9.618  22.662  1.00  0.00     0.177 C 
ATOM      3  C   UNL     1      16.236   8.696  23.917  1.00  0.00     0.180 C 
ATOM      4  C   UNL     1      15.628   9.329  25.279  1.00  0.00     0.214 C 
ATOM      5  C   UNL     1      15.039  10.676  24.975  1.00  0.00     0.339 C 
ATOM      6  O   UNL     1      15.977  11.586  24.413  1.00  0.00    -0.332 OA
ENDROOT
BRANCH   1   7
ATOM      7  C   UNL     1      18.134  11.266  23.144  1.00  0.00     0.198 C 
BRANCH   7   8
ATOM      8  O   UNL     1      18.800  11.833  21.994  1.00  0.00    -0.347 OA
BRANCH   8   9
ATOM      9  C   UNL     1      19.955  11.156  21.607  1.00  0.00     0.281 C 
ATOM     10  C   UNL     1      21.917   8.356  23.095  1.00  0.00     0.041 C 
ATOM     11  C   UNL     1      21.494   9.396  22.019  1.00  0.00     0.150 C 
ATOM     12  C   UNL     1      21.425   8.688  20.646  1.00  0.00     0.174 C 
ATOM     13  O   UNL     1      20.218   9.975  22.406  1.00  0.00    -0.344 OA
ATOM     14  C   UNL     1      20.779   9.644  19.584  1.00  0.00     0.179 C 
ATOM     15  C   UNL     1      19.661  10.618  20.136  1.00  0.00     0.202 C 
BRANCH  12  16
ATOM     16  O   UNL     1      20.693   7.507  20.821  1.00  0.00    -0.388 OA
ATOM     17  H   UNL     1      21.295   6.928  21.297  1.00  0.00     0.211 HD
ENDBRANCH  12  16
BRANCH  14  18
ATOM     18  O   UNL     1      21.864  10.296  18.838  1.00  0.00    -0.387 OA
ATOM     19  H   UNL     1      21.599  11.241  18.577  1.00  0.00     0.211 HD
ENDBRANCH  14  18
BRANCH  15  20
ATOM     20  O   UNL     1      18.399   9.977  20.073  1.00  0.00    -0.385 OA
ATOM     21  H   UNL     1      18.590   9.024  20.351  1.00  0.00     0.211 HD
ENDBRANCH  15  20
ENDBRANCH   8   9
ENDBRANCH   7   8
ENDBRANCH   1   7
BRANCH   2  22
ATOM     22  O   UNL     1      14.861   9.641  22.084  1.00  0.00    -0.387 OA
ATOM     23  H   UNL     1      14.879  10.065  21.178  1.00  0.00     0.211 HD
ENDBRANCH   2  22
BRANCH   3  24
ATOM     24  O   UNL     1      17.555   8.260  24.183  1.00  0.00    -0.387 OA
ATOM     25  H   UNL     1      17.454   7.407  24.709  1.00  0.00     0.211 HD
ENDBRANCH   3  24
BRANCH   5  26
ATOM     26  O   UNL     1      14.404  11.176  26.109  1.00  0.00    -0.462 OA
BRANCH  26  27
ATOM     27  C   UNL     1      13.683  10.294  26.976  1.00  0.00     0.130 A 
ATOM     28  C   UNL     1      12.918  10.806  27.977  1.00  0.00     0.093 A 
ATOM     29  C   UNL     1      13.644   8.906  26.686  1.00  0.00     0.094 A 
ATOM     30  C   UNL     1      11.922   9.955  28.588  1.00  0.00     0.133 A 
ATOM     31  C   UNL     1      12.845   8.067  27.532  1.00  0.00     0.138 A 
ATOM     32  C   UNL     1      11.858   8.608  28.322  1.00  0.00     0.102 A 
ATOM     33  O   UNL     1      12.976   6.629  27.434  1.00  0.00    -0.484 OA
ATOM     34  C   UNL     1      10.961   7.680  28.916  1.00  0.00     0.174 C 
ATOM     35  C   UNL     1      12.626   5.749  28.594  1.00  0.00     0.211 C 
ATOM     36  O   UNL     1       9.955   7.458  28.212  1.00  0.00    -0.294 OA
ATOM     37  C   UNL     1      11.688   6.573  29.603  1.00  0.00     0.131 C 
BRANCH  30  38
ATOM     38  O   UNL     1      11.196  10.482  29.656  1.00  0.00    -0.507 OA
ATOM     39  H   UNL     1      11.190  10.048  30.608  1.00  0.00     0.293 HD
ENDBRANCH  30  38
BRANCH  35  40
ATOM     40  C   UNL     1      11.959   4.493  28.036  1.00  0.00    -0.003 A 
ATOM     41  C   UNL     1      12.832   3.316  27.671  1.00  0.00     0.057 A 
ATOM     42  C   UNL     1      10.834   4.109  28.778  1.00  0.00     0.011 A 
ATOM     43  C   UNL     1      12.643   2.126  28.374  1.00  0.00     0.158 A 
ATOM     44  C   UNL     1      11.067   3.239  29.818  1.00  0.00     0.051 A 
ATOM     45  C   UNL     1      11.674   2.053  29.349  1.00  0.00     0.160 A 
BRANCH  43  46
ATOM     46  O   UNL     1      13.679   1.130  28.313  1.00  0.00    -0.504 OA
ATOM     47  H   UNL     1      14.572   1.429  27.933  1.00  0.00     0.293 HD
ENDBRANCH  43  46
BRANCH  45  48
ATOM     48  O   UNL     1      10.462   1.259  29.288  1.00  0.00    -0.493 OA
ATOM     49  C   UNL     1       9.107   1.736  29.612  1.00  0.00     0.278 C 
ENDBRANCH  45  48
ENDBRANCH  35  40
ENDBRANCH  26  27
ENDBRANCH   5  26
BRANCH   4  50
ATOM     50  O   UNL     1      16.483   9.422  26.390  1.00  0.00    -0.384 OA
ATOM     51  H   UNL     1      16.204   8.681  26.975  1.00  0.00     0.211 HD
ENDBRANCH   4  50
TORSDOF 15
ENDMDL
MODEL 4
REMARK VINA RESULT:    94.262      1.826      2.771
REMARK INTER + INTRA:         154.201
REMARK INTER:                 155.313
REMARK INTRA:                  -1.112
REMARK UNBOUND:                -0.678
REMARK SMILES COc1ccc([C@@H]2CC(=O)c3c(O)cc(O[C@H]4O[C@@H](CO[C@H]5O[C@@H](C)[C@@H](O)[C@H](O)[C@H]5O)[C@H](O)[C@@H](O)[C@H]4O)cc3O2)cc1O
REMARK SMILES IDX 19 1 32 2 34 3 36 4 17 5 18 6 20 7 21 8 22 9 25 10 24 11
REMARK SMILES IDX 26 12 23 13 28 14 30 15 27 16 29 18 31 20 33 22 35 24 16 26
REMARK SMILES IDX 15 27 14 28 38 29 12 30 39 31 11 32 40 33 9 34 7 35 10 36
REMARK SMILES IDX 8 37 13 38 6 40 41 41 5 42 42 43 4 44 3 45 43 46 2 48 1 49
REMARK SMILES IDX 37 50
REMARK H PARENT 27 17 29 19 31 21 33 23 35 25 13 39 43 47 37 51
REMARK Flexibility Score: inf
ROOT
ATOM      1  C   UNL     1      16.072   9.530  24.725  1.00  0.00     0.180 C 
ATOM      2  C   UNL     1      16.872  10.798  25.419  1.00  0.00     0.177 C 
ATOM      3  C   UNL     1      15.946  12.047  25.281  1.00  0.00     0.180 C 
ATOM      4  C   UNL     1      14.385  11.778  25.623  1.00  0.00     0.214 C 
ATOM      5  C   UNL     1      14.217  10.352  26.061  1.00  0.00     0.339 C 
ATOM      6  O   UNL     1      14.652   9.410  25.088  1.00  0.00    -0.332 OA
ENDROOT
BRANCH   1   7
ATOM      7  C   UNL     1      16.285   9.551  23.170  1.00  0.00     0.198 C 
BRANCH   7   8
ATOM      8  O   UNL     1      17.037  10.630  22.571  1.00  0.00    -0.347 OA
BRANCH   8   9
ATOM      9  C   UNL     1      17.500  10.362  21.283  1.00  0.00     0.281 C 
ATOM     10  C   UNL     1      16.346  11.341  17.876  1.00  0.00     0.041 C 
ATOM     11  C   UNL     1      17.295  10.733  18.948  1.00  0.00     0.150 C 
ATOM     12  C   UNL     1      18.740  11.193  18.648  1.00  0.00     0.174 C 
ATOM     13  O   UNL     1      16.843  11.155  20.263  1.00  0.00    -0.344 OA
ATOM     14  C   UNL     1      19.684  10.795  19.836  1.00  0.00     0.179 C 
ATOM     15  C   UNL     1      19.023  10.830  21.272  1.00  0.00     0.202 C 
BRANCH  12  16
ATOM     16  O   UNL     1      18.703  12.576  18.434  1.00  0.00    -0.388 OA
ATOM     17  H   UNL     1      18.364  12.664  17.538  1.00  0.00     0.211 HD
ENDBRANCH  12  16
BRANCH  14  18
ATOM     18  O   UNL     1      20.351   9.534  19.484  1.00  0.00    -0.387 OA
ATOM     19  H   UNL     1      21.360   9.632  19.558  1.00  0.00     0.211 HD
ENDBRANCH  14  18
BRANCH  15  20
ATOM     20  O   UNL     1      19.159  12.127  21.826  1.00  0.00    -0.385 OA
ATOM     21  H   UNL     1      19.822  12.006  22.581  1.00  0.00     0.211 HD
ENDBRANCH  15  20
ENDBRANCH   8   9
ENDBRANCH   7   8
ENDBRANCH   1   7
BRANCH   2  22
ATOM     22  O   UNL     1      17.213  10.493  26.738  1.00  0.00    -0.387 OA
ATOM     23  H   UNL     1      18.195  10.321  26.832  1.00  0.00     0.211 HD
ENDBRANCH   2  22
BRANCH   3  24
ATOM     24  O   UNL     1      16.020  12.662  24.010  1.00  0.00    -0.387 OA
ATOM     25  H   UNL     1      16.997  12.864  23.866  1.00  0.00     0.211 HD
ENDBRANCH   3  24
BRANCH   5  26
ATOM     26  O   UNL     1      12.904  10.143  26.475  1.00  0.00    -0.462 OA
BRANCH  26  27
ATOM     27  C   UNL     1      12.604   9.112  27.422  1.00  0.00     0.130 A 
ATOM     28  C   UNL     1      11.710   9.349  28.419  1.00  0.00     0.093 A 
ATOM     29  C   UNL     1      13.118   7.806  27.219  1.00  0.00     0.094 A 
ATOM     30  C   UNL     1      11.144   8.219  29.121  1.00  0.00     0.133 A 
ATOM     31  C   UNL     1      12.731   6.782  28.146  1.00  0.00     0.138 A 
ATOM     32  C   UNL     1      11.619   6.942  28.940  1.00  0.00     0.102 A 
ATOM     33  O   UNL     1      13.423   5.511  28.131  1.00  0.00    -0.484 OA
ATOM     34  C   UNL     1      11.173   5.779  29.624  1.00  0.00     0.174 C 
ATOM     35  C   UNL     1      13.467   4.650  29.355  1.00  0.00     0.211 C 
ATOM     36  O   UNL     1      10.331   5.126  28.976  1.00  0.00    -0.294 OA
ATOM     37  C   UNL     1      12.290   5.104  30.348  1.00  0.00     0.131 C 
BRANCH  30  38
ATOM     38  O   UNL     1      10.281   8.489  30.182  1.00  0.00    -0.507 OA
ATOM     39  H   UNL     1      10.587   8.472  31.182  1.00  0.00     0.293 HD
ENDBRANCH  30  38
BRANCH  35  40
ATOM     40  C   UNL     1      13.349   3.196  28.902  1.00  0.00    -0.003 A 
ATOM     41  C   UNL     1      12.431   2.874  27.747  1.00  0.00     0.057 A 
ATOM     42  C   UNL     1      14.597   2.571  28.779  1.00  0.00     0.011 A 
ATOM     43  C   UNL     1      13.006   2.343  26.592  1.00  0.00     0.158 A 
ATOM     44  C   UNL     1      15.196   2.662  27.543  1.00  0.00     0.051 A 
ATOM     45  C   UNL     1      14.362   2.114  26.544  1.00  0.00     0.160 A 
BRANCH  43  46
ATOM     46  O   UNL     1      12.237   2.376  25.377  1.00  0.00    -0.504 OA
ATOM     47  H   UNL     1      11.567   3.133  25.285  1.00  0.00     0.293 HD
ENDBRANCH  43  46
BRANCH  45  48
ATOM     48  O   UNL     1      15.006   0.817  26.481  1.00  0.00    -0.493 OA
ATOM     49  C   UNL     1      16.453   0.571  26.601  1.00  0.00     0.278 C 
ENDBRANCH  45  48
ENDBRANCH  35  40
ENDBRANCH  26  27
ENDBRANCH   5  26
BRANCH   4  50
ATOM     50  O   UNL     1      13.441  12.088  24.630  1.00  0.00    -0.384 OA
ATOM     51  H   UNL     1      13.516  13.064  24.517  1.00  0.00     0.211 HD
ENDBRANCH   4  50
TORSDOF 15
ENDMDL
MODEL 5
REMARK VINA RESULT:    94.362      2.404      3.874
REMARK INTER + INTRA:         154.365
REMARK INTER:                 153.757
REMARK INTRA:                   0.607
REMARK UNBOUND:                -0.678
REMARK SMILES COc1ccc([C@@H]2CC(=O)c3c(O)cc(O[C@H]4O[C@@H](CO[C@H]5O[C@@H](C)[C@@H](O)[C@H](O)[C@H]5O)[C@H](O)[C@@H](O)[C@H]4O)cc3O2)cc1O
REMARK SMILES IDX 19 1 32 2 34 3 36 4 17 5 18 6 20 7 21 8 22 9 25 10 24 11
REMARK SMILES IDX 26 12 23 13 28 14 30 15 27 16 29 18 31 20 33 22 35 24 16 26
REMARK SMILES IDX 15 27 14 28 38 29 12 30 39 31 11 32 40 33 9 34 7 35 10 36
REMARK SMILES IDX 8 37 13 38 6 40 41 41 5 42 42 43 4 44 3 45 43 46 2 48 1 49
REMARK SMILES IDX 37 50
REMARK H PARENT 27 17 29 19 31 21 33 23 35 25 13 39 43 47 37 51
REMARK Flexibility Score: inf
ROOT
ATOM      1  C   UNL     1      16.182  10.697  23.599  1.00  0.00     0.180 C 
ATOM      2  C   UNL     1      15.888   9.180  23.011  1.00  0.00     0.177 C 
ATOM      3  C   UNL     1      16.260   8.175  24.146  1.00  0.00     0.180 C 
ATOM      4  C   UNL     1      15.741   8.594  25.622  1.00  0.00     0.214 C 
ATOM      5  C   UNL     1      14.951   9.867  25.523  1.00  0.00     0.339 C 
ATOM      6  O   UNL     1      15.690  10.945  24.963  1.00  0.00    -0.332 OA
ENDROOT
BRANCH   1   7
ATOM      7  C   UNL     1      17.705  11.043  23.447  1.00  0.00     0.198 C 
BRANCH   7   8
ATOM      8  O   UNL     1      18.184  11.613  22.207  1.00  0.00    -0.347 OA
BRANCH   8   9
ATOM      9  C   UNL     1      19.412  11.110  21.781  1.00  0.00     0.281 C 
ATOM     10  C   UNL     1      21.714   8.486  23.092  1.00  0.00     0.041 C 
ATOM     11  C   UNL     1      21.159   9.532  22.084  1.00  0.00     0.150 C 
ATOM     12  C   UNL     1      21.172   8.911  20.668  1.00  0.00     0.174 C 
ATOM     13  O   UNL     1      19.824   9.922  22.503  1.00  0.00    -0.344 OA
ATOM     14  C   UNL     1      20.407   9.846  19.668  1.00  0.00     0.179 C 
ATOM     15  C   UNL     1      19.180  10.635  20.278  1.00  0.00     0.202 C 
BRANCH  12  16
ATOM     16  O   UNL     1      20.593   7.640  20.764  1.00  0.00    -0.388 OA
ATOM     17  H   UNL     1      19.977   7.719  21.499  1.00  0.00     0.211 HD
ENDBRANCH  12  16
BRANCH  14  18
ATOM     18  O   UNL     1      21.399  10.673  18.968  1.00  0.00    -0.387 OA
ATOM     19  H   UNL     1      21.151  10.773  17.988  1.00  0.00     0.211 HD
ENDBRANCH  14  18
BRANCH  15  20
ATOM     20  O   UNL     1      18.007   9.849  20.170  1.00  0.00    -0.385 OA
ATOM     21  H   UNL     1      18.349   8.919  19.966  1.00  0.00     0.211 HD
ENDBRANCH  15  20
ENDBRANCH   8   9
ENDBRANCH   7   8
ENDBRANCH   1   7
BRANCH   2  22
ATOM     22  O   UNL     1      14.566   9.076  22.576  1.00  0.00    -0.387 OA
ATOM     23  H   UNL     1      14.468   9.380  21.628  1.00  0.00     0.211 HD
ENDBRANCH   2  22
BRANCH   3  24
ATOM     24  O   UNL     1      17.646   7.906  24.225  1.00  0.00    -0.387 OA
ATOM     25  H   UNL     1      17.962   8.370  25.061  1.00  0.00     0.211 HD
ENDBRANCH   3  24
BRANCH   5  26
ATOM     26  O   UNL     1      14.397  10.171  26.764  1.00  0.00    -0.462 OA
BRANCH  26  27
ATOM     27  C   UNL     1      13.630   9.189  27.468  1.00  0.00     0.130 A 
ATOM     28  C   UNL     1      12.418   9.522  27.988  1.00  0.00     0.093 A 
ATOM     29  C   UNL     1      14.064   7.839  27.479  1.00  0.00     0.094 A 
ATOM     30  C   UNL     1      11.508   8.460  28.354  1.00  0.00     0.133 A 
ATOM     31  C   UNL     1      13.227   6.871  28.128  1.00  0.00     0.138 A 
ATOM     32  C   UNL     1      11.901   7.143  28.369  1.00  0.00     0.102 A 
ATOM     33  O   UNL     1      13.744   5.544  28.385  1.00  0.00    -0.484 OA
ATOM     34  C   UNL     1      11.104   6.037  28.771  1.00  0.00     0.174 C 
ATOM     35  C   UNL     1      13.182   4.706  29.491  1.00  0.00     0.211 C 
ATOM     36  O   UNL     1      10.569   5.448  27.810  1.00  0.00    -0.294 OA
ATOM     37  C   UNL     1      11.737   5.280  29.891  1.00  0.00     0.131 C 
BRANCH  30  38
ATOM     38  O   UNL     1      10.300   8.826  28.947  1.00  0.00    -0.507 OA
ATOM     39  H   UNL     1       9.566   9.378  28.446  1.00  0.00     0.293 HD
ENDBRANCH  30  38
BRANCH  35  40
ATOM     40  C   UNL     1      13.143   3.259  29.001  1.00  0.00    -0.003 A 
ATOM     41  C   UNL     1      12.255   2.919  27.828  1.00  0.00     0.057 A 
ATOM     42  C   UNL     1      14.423   2.701  28.878  1.00  0.00     0.011 A 
ATOM     43  C   UNL     1      12.869   2.447  26.667  1.00  0.00     0.158 A 
ATOM     44  C   UNL     1      15.029   2.853  27.652  1.00  0.00     0.051 A 
ATOM     45  C   UNL     1      14.235   2.289  26.630  1.00  0.00     0.160 A 
BRANCH  43  46
ATOM     46  O   UNL     1      12.112   2.471  25.444  1.00  0.00    -0.504 OA
ATOM     47  H   UNL     1      11.202   2.020  25.465  1.00  0.00     0.293 HD
ENDBRANCH  43  46
BRANCH  45  48
ATOM     48  O   UNL     1      14.945   1.028  26.543  1.00  0.00    -0.493 OA
ATOM     49  C   UNL     1      16.354   0.810  26.911  1.00  0.00     0.278 C 
ENDBRANCH  45  48
ENDBRANCH  35  40
ENDBRANCH  26  27
ENDBRANCH   5  26
BRANCH   4  50
ATOM     50  O   UNL     1      16.703   8.708  26.640  1.00  0.00    -0.384 OA
ATOM     51  H   UNL     1      16.282   8.280  27.422  1.00  0.00     0.211 HD
ENDBRANCH   4  50
TORSDOF 15
ENDMDL
MODEL 6
REMARK VINA RESULT:    95.031      1.990     11.350
REMARK INTER + INTRA:         155.464
REMARK INTER:                 152.297
REMARK INTRA:                   3.167
REMARK UNBOUND:                -0.678
REMARK SMILES COc1ccc([C@@H]2CC(=O)c3c(O)cc(O[C@H]4O[C@@H](CO[C@H]5O[C@@H](C)[C@@H](O)[C@H](O)[C@H]5O)[C@H](O)[C@@H](O)[C@H]4O)cc3O2)cc1O
REMARK SMILES IDX 19 1 32 2 34 3 36 4 17 5 18 6 20 7 21 8 22 9 25 10 24 11
REMARK SMILES IDX 26 12 23 13 28 14 30 15 27 16 29 18 31 20 33 22 35 24 16 26
REMARK SMILES IDX 15 27 14 28 38 29 12 30 39 31 11 32 40 33 9 34 7 35 10 36
REMARK SMILES IDX 8 37 13 38 6 40 41 41 5 42 42 43 4 44 3 45 43 46 2 48 1 49
REMARK SMILES IDX 37 50
REMARK H PARENT 27 17 29 19 31 21 33 23 35 25 13 39 43 47 37 51
REMARK Flexibility Score: inf
ROOT
ATOM      1  C   UNL     1      11.202   7.241  27.240  1.00  0.00     0.180 C 
ATOM      2  C   UNL     1      10.980   7.866  28.754  1.00  0.00     0.177 C 
ATOM      3  C   UNL     1      12.107   7.273  29.657  1.00  0.00     0.180 C 
ATOM      4  C   UNL     1      13.581   7.260  28.985  1.00  0.00     0.214 C 
ATOM      5  C   UNL     1      13.509   7.899  27.628  1.00  0.00     0.339 C 
ATOM      6  O   UNL     1      12.590   7.256  26.753  1.00  0.00    -0.332 OA
ENDROOT
BRANCH   1   7
ATOM      7  C   UNL     1      10.560   5.812  27.152  1.00  0.00     0.198 C 
BRANCH   7   8
ATOM      8  O   UNL     1      11.146   4.822  26.278  1.00  0.00    -0.347 OA
BRANCH   8   9
ATOM      9  C   UNL     1      11.492   3.629  26.912  1.00  0.00     0.281 C 
ATOM     10  C   UNL     1      14.736   2.111  27.946  1.00  0.00     0.041 C 
ATOM     11  C   UNL     1      13.192   2.264  27.850  1.00  0.00     0.150 C 
ATOM     12  C   UNL     1      12.585   2.054  29.256  1.00  0.00     0.174 C 
ATOM     13  O   UNL     1      12.886   3.577  27.307  1.00  0.00    -0.344 OA
ATOM     14  C   UNL     1      11.062   2.430  29.242  1.00  0.00     0.179 C 
ATOM     15  C   UNL     1      10.662   3.613  28.272  1.00  0.00     0.202 C 
BRANCH  12  16
ATOM     16  O   UNL     1      13.323   2.839  30.151  1.00  0.00    -0.388 OA
ATOM     17  H   UNL     1      13.718   3.517  29.595  1.00  0.00     0.211 HD
ENDBRANCH  12  16
BRANCH  14  18
ATOM     18  O   UNL     1      10.289   1.193  29.072  1.00  0.00    -0.387 OA
ATOM     19  H   UNL     1       9.295   1.377  29.171  1.00  0.00     0.211 HD
ENDBRANCH  14  18
BRANCH  15  20
ATOM     20  O   UNL     1      10.784   4.849  28.954  1.00  0.00    -0.385 OA
ATOM     21  H   UNL     1      10.292   5.508  28.365  1.00  0.00     0.211 HD
ENDBRANCH  15  20
ENDBRANCH   8   9
ENDBRANCH   7   8
ENDBRANCH   1   7
BRANCH   2  22
ATOM     22  O   UNL     1      10.971   9.261  28.707  1.00  0.00    -0.387 OA
ATOM     23  H   UNL     1      11.689   9.611  28.106  1.00  0.00     0.211 HD
ENDBRANCH   2  22
BRANCH   3  24
ATOM     24  O   UNL     1      11.823   5.969  30.124  1.00  0.00    -0.387 OA
ATOM     25  H   UNL     1      11.647   5.420  29.297  1.00  0.00     0.211 HD
ENDBRANCH   3  24
BRANCH   5  26
ATOM     26  O   UNL     1      14.790   8.005  27.093  1.00  0.00    -0.462 OA
BRANCH  26  27
ATOM     27  C   UNL     1      15.064   8.969  26.072  1.00  0.00     0.130 A 
ATOM     28  C   UNL     1      14.283  10.077  25.960  1.00  0.00     0.093 A 
ATOM     29  C   UNL     1      16.240   8.843  25.289  1.00  0.00     0.094 A 
ATOM     30  C   UNL     1      14.782  11.198  25.195  1.00  0.00     0.133 A 
ATOM     31  C   UNL     1      16.521   9.872  24.330  1.00  0.00     0.138 A 
ATOM     32  C   UNL     1      15.921  11.106  24.432  1.00  0.00     0.102 A 
ATOM     33  O   UNL     1      17.558   9.660  23.343  1.00  0.00    -0.484 OA
ATOM     34  C   UNL     1      16.456  12.126  23.601  1.00  0.00     0.174 C 
ATOM     35  C   UNL     1      17.533  10.393  22.038  1.00  0.00     0.211 C 
ATOM     36  O   UNL     1      17.364  12.778  24.155  1.00  0.00    -0.294 OA
ATOM     37  C   UNL     1      16.578  11.675  22.183  1.00  0.00     0.131 C 
BRANCH  30  38
ATOM     38  O   UNL     1      13.936  12.296  25.040  1.00  0.00    -0.507 OA
ATOM     39  H   UNL     1      13.869  12.840  24.149  1.00  0.00     0.293 HD
ENDBRANCH  30  38
BRANCH  35  40
ATOM     40  C   UNL     1      18.975  10.749  21.679  1.00  0.00    -0.003 A 
ATOM     41  C   UNL     1      20.093  10.038  22.403  1.00  0.00     0.057 A 
ATOM     42  C   UNL     1      19.185  10.800  20.295  1.00  0.00     0.011 A 
ATOM     43  C   UNL     1      20.953   9.243  21.644  1.00  0.00     0.158 A 
ATOM     44  C   UNL     1      19.578   9.622  19.702  1.00  0.00     0.051 A 
ATOM     45  C   UNL     1      20.774   9.146  20.283  1.00  0.00     0.160 A 
BRANCH  43  46
ATOM     46  O   UNL     1      21.773   8.284  22.334  1.00  0.00    -0.504 OA
ATOM     47  H   UNL     1      22.667   8.061  21.906  1.00  0.00     0.293 HD
ENDBRANCH  43  46
BRANCH  45  48
ATOM     48  O   UNL     1      21.669   9.662  19.267  1.00  0.00    -0.493 OA
ATOM     49  C   UNL     1      21.442  10.871  18.457  1.00  0.00     0.278 C 
ENDBRANCH  45  48
ENDBRANCH  35  40
ENDBRANCH  26  27
ENDBRANCH   5  26
BRANCH   4  50
ATOM     50  O   UNL     1      14.243   6.024  28.896  1.00  0.00    -0.384 OA
ATOM     51  H   UNL     1      15.048   6.217  28.362  1.00  0.00     0.211 HD
ENDBRANCH   4  50
TORSDOF 15
ENDMDL
