MODEL 1
REMARK VINA RESULT:    -4.760      0.000      0.000
REMARK INTER + INTRA:          -5.708
REMARK INTER:                  -5.595
REMARK INTRA:                  -0.113
REMARK UNBOUND:                -0.113
REMARK SMILES O=C([O-])CCC(=O)[O-]
REMARK SMILES IDX 4 1 2 2 1 3 3 4 5 5 6 6 7 7 8 8
REMARK H PARENT
REMARK Flexibility Score: inf
ROOT
ATOM      1  C   UNL     1      -7.192   6.869  -1.071  1.00  0.00     0.059 C 
ENDROOT
BRANCH   1   2
ATOM      2  C   UNL     1      -8.326   5.971  -0.680  1.00  0.00     0.042 C 
ATOM      3  O   UNL     1      -8.917   5.281  -1.552  1.00  0.00    -0.550 OA
ATOM      4  O   UNL     1      -8.756   5.929   0.640  1.00  0.00    -0.550 OA
ENDBRANCH   1   2
BRANCH   1   5
ATOM      5  C   UNL     1      -5.838   6.165  -0.925  1.00  0.00     0.059 C 
BRANCH   5   6
ATOM      6  C   UNL     1      -5.350   5.628  -2.237  1.00  0.00     0.042 C 
ATOM      7  O   UNL     1      -5.836   4.566  -2.707  1.00  0.00    -0.550 OA
ATOM      8  O   UNL     1      -4.329   6.279  -2.918  1.00  0.00    -0.550 OA
ENDBRANCH   5   6
ENDBRANCH   1   5
TORSDOF 3
ENDMDL
MODEL 2
REMARK VINA RESULT:    -4.735      0.155      3.798
REMARK INTER + INTRA:          -5.679
REMARK INTER:                  -5.559
REMARK INTRA:                  -0.119
REMARK UNBOUND:                -0.113
REMARK SMILES O=C([O-])CCC(=O)[O-]
REMARK SMILES IDX 4 1 2 2 1 3 3 4 5 5 6 6 7 7 8 8
REMARK H PARENT
REMARK Flexibility Score: inf
ROOT
ATOM      1  C   UNL     1      -5.731   6.217  -0.995  1.00  0.00     0.059 C 
ENDROOT
BRANCH   1   2
ATOM      2  C   UNL     1      -5.218   5.676  -2.295  1.00  0.00     0.042 C 
ATOM      3  O   UNL     1      -4.395   6.341  -2.976  1.00  0.00    -0.550 OA
ATOM      4  O   UNL     1      -5.682   4.457  -2.773  1.00  0.00    -0.550 OA
ENDBRANCH   1   2
BRANCH   1   5
ATOM      5  C   UNL     1      -7.109   6.868  -1.158  1.00  0.00     0.059 C 
BRANCH   5   6
ATOM      6  C   UNL     1      -8.213   5.933  -0.769  1.00  0.00     0.042 C 
ATOM      7  O   UNL     1      -8.740   5.182  -1.632  1.00  0.00    -0.550 OA
ATOM      8  O   UNL     1      -8.687   5.921   0.536  1.00  0.00    -0.550 OA
ENDBRANCH   5   6
ENDBRANCH   1   5
TORSDOF 3
ENDMDL
MODEL 3
REMARK VINA RESULT:    -4.731      0.093      3.785
REMARK INTER + INTRA:          -5.674
REMARK INTER:                  -5.570
REMARK INTRA:                  -0.104
REMARK UNBOUND:                -0.113
REMARK SMILES O=C([O-])CCC(=O)[O-]
REMARK SMILES IDX 4 1 2 2 1 3 3 4 5 5 6 6 7 7 8 8
REMARK H PARENT
REMARK Flexibility Score: inf
ROOT
ATOM      1  C   UNL     1      -5.843   6.284  -1.005  1.00  0.00     0.059 C 
ENDROOT
BRANCH   1   2
ATOM      2  C   UNL     1      -5.335   5.696  -2.286  1.00  0.00     0.042 C 
ATOM      3  O   UNL     1      -5.795   4.603  -2.708  1.00  0.00    -0.550 OA
ATOM      4  O   UNL     1      -4.324   6.336  -2.991  1.00  0.00    -0.550 OA
ENDBRANCH   1   2
BRANCH   1   5
ATOM      5  C   UNL     1      -7.237   6.898  -1.178  1.00  0.00     0.059 C 
BRANCH   5   6
ATOM      6  C   UNL     1      -8.315   5.952  -0.744  1.00  0.00     0.042 C 
ATOM      7  O   UNL     1      -8.889   5.216  -1.589  1.00  0.00    -0.550 OA
ATOM      8  O   UNL     1      -8.713   5.915   0.586  1.00  0.00    -0.550 OA
ENDBRANCH   5   6
ENDBRANCH   1   5
TORSDOF 3
ENDMDL
MODEL 4
REMARK VINA RESULT:    -4.673      1.326      1.728
REMARK INTER + INTRA:          -5.605
REMARK INTER:                  -5.563
REMARK INTRA:                  -0.042
REMARK UNBOUND:                -0.113
REMARK SMILES O=C([O-])CCC(=O)[O-]
REMARK SMILES IDX 4 1 2 2 1 3 3 4 5 5 6 6 7 7 8 8
REMARK H PARENT
REMARK Flexibility Score: inf
ROOT
ATOM      1  C   UNL     1      -6.611   6.296  -1.925  1.00  0.00     0.059 C 
ENDROOT
BRANCH   1   2
ATOM      2  C   UNL     1      -7.371   6.133  -0.644  1.00  0.00     0.042 C 
ATOM      3  O   UNL     1      -8.518   5.616  -0.649  1.00  0.00    -0.550 OA
ATOM      4  O   UNL     1      -6.828   6.591   0.550  1.00  0.00    -0.550 OA
ENDBRANCH   1   2
BRANCH   1   5
ATOM      5  C   UNL     1      -6.014   4.967  -2.400  1.00  0.00     0.059 C 
BRANCH   5   6
ATOM      6  C   UNL     1      -4.628   5.145  -2.941  1.00  0.00     0.042 C 
ATOM      7  O   UNL     1      -4.129   6.297  -3.035  1.00  0.00    -0.550 OA
ATOM      8  O   UNL     1      -3.905   4.043  -3.378  1.00  0.00    -0.550 OA
ENDBRANCH   5   6
ENDBRANCH   1   5
TORSDOF 3
ENDMDL
MODEL 5
REMARK VINA RESULT:    -4.373      1.030      1.598
REMARK INTER + INTRA:          -5.253
REMARK INTER:                  -5.222
REMARK INTRA:                  -0.031
REMARK UNBOUND:                -0.113
REMARK SMILES O=C([O-])CCC(=O)[O-]
REMARK SMILES IDX 4 1 2 2 1 3 3 4 5 5 6 6 7 7 8 8
REMARK H PARENT
REMARK Flexibility Score: inf
ROOT
ATOM      1  C   UNL     1      -6.262   6.308  -1.189  1.00  0.00     0.059 C 
ENDROOT
BRANCH   1   2
ATOM      2  C   UNL     1      -7.650   6.453  -0.644  1.00  0.00     0.042 C 
ATOM      3  O   UNL     1      -7.860   6.337   0.592  1.00  0.00    -0.550 OA
ATOM      4  O   UNL     1      -8.716   6.674  -1.506  1.00  0.00    -0.550 OA
ENDBRANCH   1   2
BRANCH   1   5
ATOM      5  C   UNL     1      -6.172   5.171  -2.212  1.00  0.00     0.059 C 
BRANCH   5   6
ATOM      6  C   UNL     1      -4.815   5.100  -2.844  1.00  0.00     0.042 C 
ATOM      7  O   UNL     1      -4.361   3.997  -3.247  1.00  0.00    -0.550 OA
ATOM      8  O   UNL     1      -4.037   6.246  -2.950  1.00  0.00    -0.550 OA
ENDBRANCH   5   6
ENDBRANCH   1   5
TORSDOF 3
ENDMDL
MODEL 6
REMARK VINA RESULT:    -4.291      1.841      3.896
REMARK INTER + INTRA:          -5.157
REMARK INTER:                  -5.075
REMARK INTRA:                  -0.082
REMARK UNBOUND:                -0.113
REMARK SMILES O=C([O-])CCC(=O)[O-]
REMARK SMILES IDX 4 1 2 2 1 3 3 4 5 5 6 6 7 7 8 8
REMARK H PARENT
REMARK Flexibility Score: inf
ROOT
ATOM      1  C   UNL     1      -6.184   5.027  -2.318  1.00  0.00     0.059 C 
ENDROOT
BRANCH   1   2
ATOM      2  C   UNL     1      -4.788   5.007  -2.864  1.00  0.00     0.042 C 
ATOM      3  O   UNL     1      -4.237   3.913  -3.153  1.00  0.00    -0.550 OA
ATOM      4  O   UNL     1      -4.083   6.194  -3.013  1.00  0.00    -0.550 OA
ENDBRANCH   1   2
BRANCH   1   5
ATOM      5  C   UNL     1      -6.730   6.455  -2.217  1.00  0.00     0.059 C 
BRANCH   5   6
ATOM      6  C   UNL     1      -6.629   6.988  -0.820  1.00  0.00     0.042 C 
ATOM      7  O   UNL     1      -6.281   6.230   0.123  1.00  0.00    -0.550 OA
ATOM      8  O   UNL     1      -6.958   8.311  -0.555  1.00  0.00    -0.550 OA
ENDBRANCH   5   6
ENDBRANCH   1   5
TORSDOF 3
ENDMDL
MODEL 7
REMARK VINA RESULT:    -4.251      1.202      4.153
REMARK INTER + INTRA:          -5.110
REMARK INTER:                  -5.076
REMARK INTRA:                  -0.035
REMARK UNBOUND:                -0.113
REMARK SMILES O=C([O-])CCC(=O)[O-]
REMARK SMILES IDX 4 1 2 2 1 3 3 4 5 5 6 6 7 7 8 8
REMARK H PARENT
REMARK Flexibility Score: inf
ROOT
ATOM      1  C   UNL     1      -5.960   5.378  -1.799  1.00  0.00     0.059 C 
ENDROOT
BRANCH   1   2
ATOM      2  C   UNL     1      -4.805   5.259  -2.746  1.00  0.00     0.042 C 
ATOM      3  O   UNL     1      -4.177   6.287  -3.113  1.00  0.00    -0.550 OA
ATOM      4  O   UNL     1      -4.448   4.017  -3.254  1.00  0.00    -0.550 OA
ENDBRANCH   1   2
BRANCH   1   5
ATOM      5  C   UNL     1      -6.750   6.671  -2.032  1.00  0.00     0.059 C 
BRANCH   5   6
ATOM      6  C   UNL     1      -8.187   6.520  -1.637  1.00  0.00     0.042 C 
ATOM      7  O   UNL     1      -9.038   7.371  -2.008  1.00  0.00    -0.550 OA
ATOM      8  O   UNL     1      -8.578   5.462  -0.827  1.00  0.00    -0.550 OA
ENDBRANCH   5   6
ENDBRANCH   1   5
TORSDOF 3
ENDMDL
MODEL 8
REMARK VINA RESULT:    -4.002      1.464      3.972
REMARK INTER + INTRA:          -4.817
REMARK INTER:                  -4.698
REMARK INTRA:                  -0.118
REMARK UNBOUND:                -0.113
REMARK SMILES O=C([O-])CCC(=O)[O-]
REMARK SMILES IDX 4 1 2 2 1 3 3 4 5 5 6 6 7 7 8 8
REMARK H PARENT
REMARK Flexibility Score: inf
ROOT
ATOM      1  C   UNL     1      -7.252   5.580  -2.137  1.00  0.00     0.059 C 
ENDROOT
BRANCH   1   2
ATOM      2  C   UNL     1      -5.874   5.972  -1.700  1.00  0.00     0.042 C 
ATOM      3  O   UNL     1      -4.923   5.973  -2.526  1.00  0.00    -0.550 OA
ATOM      4  O   UNL     1      -5.631   6.297  -0.372  1.00  0.00    -0.550 OA
ENDBRANCH   1   2
BRANCH   1   5
ATOM      5  C   UNL     1      -8.305   6.581  -1.652  1.00  0.00     0.059 C 
BRANCH   5   6
ATOM      6  C   UNL     1      -9.261   5.953  -0.683  1.00  0.00     0.042 C 
ATOM      7  O   UNL     1      -8.939   5.821   0.527  1.00  0.00    -0.550 OA
ATOM      8  O   UNL     1     -10.488   5.478  -1.125  1.00  0.00    -0.550 OA
ENDBRANCH   5   6
ENDBRANCH   1   5
TORSDOF 3
ENDMDL
MODEL 9
REMARK VINA RESULT:    -3.928      2.362      3.729
REMARK INTER + INTRA:          -4.730
REMARK INTER:                  -4.652
REMARK INTRA:                  -0.078
REMARK UNBOUND:                -0.113
REMARK SMILES O=C([O-])CCC(=O)[O-]
REMARK SMILES IDX 4 1 2 2 1 3 3 4 5 5 6 6 7 7 8 8
REMARK H PARENT
REMARK Flexibility Score: inf
ROOT
ATOM      1  C   UNL     1      -7.300   7.607  -2.184  1.00  0.00     0.059 C 
ENDROOT
BRANCH   1   2
ATOM      2  C   UNL     1      -8.294   8.685  -2.487  1.00  0.00     0.042 C 
ATOM      3  O   UNL     1      -9.518   8.408  -2.589  1.00  0.00    -0.550 OA
ATOM      4  O   UNL     1      -7.864   9.989  -2.698  1.00  0.00    -0.550 OA
ENDBRANCH   1   2
BRANCH   1   5
ATOM      5  C   UNL     1      -7.374   7.166  -0.718  1.00  0.00     0.059 C 
BRANCH   5   6
ATOM      6  C   UNL     1      -8.316   6.015  -0.534  1.00  0.00     0.042 C 
ATOM      7  O   UNL     1      -8.515   5.203  -1.475  1.00  0.00    -0.550 OA
ATOM      8  O   UNL     1      -9.003   5.864   0.663  1.00  0.00    -0.550 OA
ENDBRANCH   5   6
ENDBRANCH   1   5
TORSDOF 3
ENDMDL
