MODEL 1
REMARK VINA RESULT:    -4.424      0.000      0.000
REMARK INTER + INTRA:          -9.731
REMARK INTER:                  -8.044
REMARK INTRA:                  -1.687
REMARK UNBOUND:                -1.687
REMARK SMILES CCCCCCCCCCCCCCCC(=O)[O-]
REMARK SMILES IDX 9 1 10 2 11 3 12 4 13 5 14 6 15 7 16 8 17 9 18 10 8 11 7 12
REMARK SMILES IDX 6 13 5 14 4 15 3 16 2 17 1 18
REMARK H PARENT
REMARK Flexibility Score: inf
ROOT
ATOM      1  C   UNL     1      -8.000  26.031  22.549  1.00  0.00     0.000 C 
ENDROOT
BRANCH   1   2
ATOM      2  C   UNL     1      -7.289  26.025  23.913  1.00  0.00     0.000 C 
BRANCH   2   3
ATOM      3  C   UNL     1      -8.108  26.735  25.006  1.00  0.00     0.000 C 
BRANCH   3   4
ATOM      4  C   UNL     1      -9.464  26.057  25.263  1.00  0.00     0.000 C 
BRANCH   4   5
ATOM      5  C   UNL     1     -10.570  27.059  25.625  1.00  0.00     0.000 C 
BRANCH   5   6
ATOM      6  C   UNL     1     -10.398  28.372  24.844  1.00  0.00     0.006 C 
BRANCH   6   7
ATOM      7  C   UNL     1     -10.984  28.288  23.429  1.00  0.00     0.053 C 
BRANCH   7   8
ATOM      8  C   UNL     1     -10.168  29.069  22.444  1.00  0.00     0.041 C 
ATOM      9  O   UNL     1      -9.003  29.441  22.740  1.00  0.00    -0.550 OA
ATOM     10  O   UNL     1     -10.710  29.414  21.212  1.00  0.00    -0.550 OA
ENDBRANCH   7   8
ENDBRANCH   6   7
ENDBRANCH   5   6
ENDBRANCH   4   5
ENDBRANCH   3   4
ENDBRANCH   2   3
ENDBRANCH   1   2
BRANCH   1  11
ATOM     11  C   UNL     1      -8.016  24.642  21.888  1.00  0.00     0.000 C 
BRANCH  11  12
ATOM     12  C   UNL     1      -9.110  23.721  22.460  1.00  0.00    -0.000 C 
BRANCH  12  13
ATOM     13  C   UNL     1      -8.912  22.217  22.182  1.00  0.00    -0.000 C 
BRANCH  13  14
ATOM     14  C   UNL     1      -9.998  21.567  21.303  1.00  0.00    -0.000 C 
BRANCH  14  15
ATOM     15  C   UNL     1     -11.070  22.537  20.770  1.00  0.00    -0.000 C 
BRANCH  15  16
ATOM     16  C   UNL     1     -10.832  23.049  19.335  1.00  0.00    -0.000 C 
BRANCH  16  17
ATOM     17  C   UNL     1     -10.686  24.575  19.209  1.00  0.00    -0.003 C 
ATOM     18  C   UNL     1      -9.713  24.991  18.107  1.00  0.00     0.004 C 
ENDBRANCH  16  17
ENDBRANCH  15  16
ENDBRANCH  14  15
ENDBRANCH  13  14
ENDBRANCH  12  13
ENDBRANCH  11  12
ENDBRANCH   1  11
TORSDOF 14
ENDMDL
MODEL 2
REMARK VINA RESULT:    -4.093      1.835      2.692
REMARK INTER + INTRA:          -9.129
REMARK INTER:                  -7.098
REMARK INTRA:                  -2.032
REMARK UNBOUND:                -1.687
REMARK SMILES CCCCCCCCCCCCCCCC(=O)[O-]
REMARK SMILES IDX 9 1 10 2 11 3 12 4 13 5 14 6 15 7 16 8 17 9 18 10 8 11 7 12
REMARK SMILES IDX 6 13 5 14 4 15 3 16 2 17 1 18
REMARK H PARENT
REMARK Flexibility Score: inf
ROOT
ATOM      1  C   UNL     1      -7.854  25.575  21.792  1.00  0.00     0.000 C 
ENDROOT
BRANCH   1   2
ATOM      2  C   UNL     1      -8.495  26.941  21.500  1.00  0.00     0.000 C 
BRANCH   2   3
ATOM      3  C   UNL     1     -10.027  26.913  21.632  1.00  0.00     0.000 C 
BRANCH   3   4
ATOM      4  C   UNL     1     -10.657  28.311  21.508  1.00  0.00     0.000 C 
BRANCH   4   5
ATOM      5  C   UNL     1     -10.743  29.045  22.853  1.00  0.00     0.000 C 
BRANCH   5   6
ATOM      6  C   UNL     1     -10.804  28.047  24.020  1.00  0.00     0.006 C 
BRANCH   6   7
ATOM      7  C   UNL     1      -9.655  28.246  25.017  1.00  0.00     0.053 C 
BRANCH   7   8
ATOM      8  C   UNL     1      -8.914  26.968  25.272  1.00  0.00     0.041 C 
ATOM      9  O   UNL     1      -7.686  26.885  25.013  1.00  0.00    -0.550 OA
ATOM     10  O   UNL     1      -9.591  25.860  25.766  1.00  0.00    -0.550 OA
ENDBRANCH   7   8
ENDBRANCH   6   7
ENDBRANCH   5   6
ENDBRANCH   4   5
ENDBRANCH   3   4
ENDBRANCH   2   3
ENDBRANCH   1   2
BRANCH   1  11
ATOM     11  C   UNL     1      -8.886  24.523  22.235  1.00  0.00     0.000 C 
BRANCH  11  12
ATOM     12  C   UNL     1      -8.416  23.080  21.980  1.00  0.00    -0.000 C 
BRANCH  12  13
ATOM     13  C   UNL     1      -9.491  21.994  22.184  1.00  0.00    -0.000 C 
BRANCH  13  14
ATOM     14  C   UNL     1     -10.794  22.207  21.388  1.00  0.00    -0.000 C 
BRANCH  14  15
ATOM     15  C   UNL     1     -10.859  21.467  20.038  1.00  0.00    -0.000 C 
BRANCH  15  16
ATOM     16  C   UNL     1     -10.667  22.358  18.795  1.00  0.00    -0.000 C 
BRANCH  16  17
ATOM     17  C   UNL     1     -10.717  23.871  19.071  1.00  0.00    -0.003 C 
ATOM     18  C   UNL     1      -9.496  24.615  18.531  1.00  0.00     0.004 C 
ENDBRANCH  16  17
ENDBRANCH  15  16
ENDBRANCH  14  15
ENDBRANCH  13  14
ENDBRANCH  12  13
ENDBRANCH  11  12
ENDBRANCH   1  11
TORSDOF 14
ENDMDL
MODEL 3
REMARK VINA RESULT:    -4.067      2.930      5.882
REMARK INTER + INTRA:          -9.082
REMARK INTER:                  -7.001
REMARK INTRA:                  -2.081
REMARK UNBOUND:                -1.687
REMARK SMILES CCCCCCCCCCCCCCCC(=O)[O-]
REMARK SMILES IDX 9 1 10 2 11 3 12 4 13 5 14 6 15 7 16 8 17 9 18 10 8 11 7 12
REMARK SMILES IDX 6 13 5 14 4 15 3 16 2 17 1 18
REMARK H PARENT
REMARK Flexibility Score: inf
ROOT
ATOM      1  C   UNL     1      -7.379  26.221  22.713  1.00  0.00     0.000 C 
ENDROOT
BRANCH   1   2
ATOM      2  C   UNL     1      -8.546  26.947  22.023  1.00  0.00     0.000 C 
BRANCH   2   3
ATOM      3  C   UNL     1      -9.060  26.190  20.786  1.00  0.00     0.000 C 
BRANCH   3   4
ATOM      4  C   UNL     1     -10.578  25.946  20.831  1.00  0.00     0.000 C 
BRANCH   4   5
ATOM      5  C   UNL     1     -11.108  25.764  22.261  1.00  0.00     0.000 C 
BRANCH   5   6
ATOM      6  C   UNL     1     -10.984  24.299  22.710  1.00  0.00     0.006 C 
BRANCH   6   7
ATOM      7  C   UNL     1     -11.051  23.321  21.530  1.00  0.00     0.053 C 
BRANCH   7   8
ATOM      8  C   UNL     1      -9.956  22.299  21.594  1.00  0.00     0.041 C 
ATOM      9  O   UNL     1      -8.893  22.548  22.220  1.00  0.00    -0.550 OA
ATOM     10  O   UNL     1     -10.099  21.086  20.934  1.00  0.00    -0.550 OA
ENDBRANCH   7   8
ENDBRANCH   6   7
ENDBRANCH   5   6
ENDBRANCH   4   5
ENDBRANCH   3   4
ENDBRANCH   2   3
ENDBRANCH   1   2
BRANCH   1  11
ATOM     11  C   UNL     1      -7.798  25.560  24.038  1.00  0.00     0.000 C 
BRANCH  11  12
ATOM     12  C   UNL     1      -8.450  26.551  25.020  1.00  0.00    -0.000 C 
BRANCH  12  13
ATOM     13  C   UNL     1      -9.439  25.924  26.022  1.00  0.00    -0.000 C 
BRANCH  13  14
ATOM     14  C   UNL     1     -10.702  26.761  26.305  1.00  0.00    -0.000 C 
BRANCH  14  15
ATOM     15  C   UNL     1     -11.069  27.775  25.204  1.00  0.00    -0.000 C 
BRANCH  15  16
ATOM     16  C   UNL     1     -11.025  29.255  25.637  1.00  0.00    -0.000 C 
BRANCH  16  17
ATOM     17  C   UNL     1     -10.498  30.226  24.567  1.00  0.00    -0.003 C 
ATOM     18  C   UNL     1      -9.059  29.927  24.148  1.00  0.00     0.004 C 
ENDBRANCH  16  17
ENDBRANCH  15  16
ENDBRANCH  14  15
ENDBRANCH  13  14
ENDBRANCH  12  13
ENDBRANCH  11  12
ENDBRANCH   1  11
TORSDOF 14
ENDMDL
MODEL 4
REMARK VINA RESULT:    -4.045      1.269      2.418
REMARK INTER + INTRA:          -9.042
REMARK INTER:                  -7.340
REMARK INTRA:                  -1.701
REMARK UNBOUND:                -1.687
REMARK SMILES CCCCCCCCCCCCCCCC(=O)[O-]
REMARK SMILES IDX 9 1 10 2 11 3 12 4 13 5 14 6 15 7 16 8 17 9 18 10 8 11 7 12
REMARK SMILES IDX 6 13 5 14 4 15 3 16 2 17 1 18
REMARK H PARENT
REMARK Flexibility Score: inf
ROOT
ATOM      1  C   UNL     1      -8.128  26.891  21.920  1.00  0.00     0.000 C 
ENDROOT
BRANCH   1   2
ATOM      2  C   UNL     1      -7.492  25.785  22.778  1.00  0.00     0.000 C 
BRANCH   2   3
ATOM      3  C   UNL     1      -7.706  26.014  24.285  1.00  0.00     0.000 C 
BRANCH   3   4
ATOM      4  C   UNL     1      -9.070  25.498  24.773  1.00  0.00     0.000 C 
BRANCH   4   5
ATOM      5  C   UNL     1      -9.532  26.177  26.070  1.00  0.00     0.000 C 
BRANCH   5   6
ATOM      6  C   UNL     1      -9.876  27.655  25.823  1.00  0.00     0.006 C 
BRANCH   6   7
ATOM      7  C   UNL     1     -10.764  27.848  24.587  1.00  0.00     0.053 C 
BRANCH   7   8
ATOM      8  C   UNL     1     -10.568  29.199  23.969  1.00  0.00     0.041 C 
ATOM      9  O   UNL     1     -10.188  30.169  24.674  1.00  0.00    -0.550 OA
ATOM     10  O   UNL     1     -10.839  29.392  22.621  1.00  0.00    -0.550 OA
ENDBRANCH   7   8
ENDBRANCH   6   7
ENDBRANCH   5   6
ENDBRANCH   4   5
ENDBRANCH   3   4
ENDBRANCH   2   3
ENDBRANCH   1   2
BRANCH   1  11
ATOM     11  C   UNL     1      -9.506  26.489  21.367  1.00  0.00     0.000 C 
BRANCH  11  12
ATOM     12  C   UNL     1      -9.498  26.271  19.843  1.00  0.00    -0.000 C 
BRANCH  12  13
ATOM     13  C   UNL     1      -8.918  24.920  19.378  1.00  0.00    -0.000 C 
BRANCH  13  14
ATOM     14  C   UNL     1      -9.904  24.013  18.616  1.00  0.00    -0.000 C 
BRANCH  14  15
ATOM     15  C   UNL     1     -11.075  23.474  19.460  1.00  0.00    -0.000 C 
BRANCH  15  16
ATOM     16  C   UNL     1     -10.904  22.026  19.964  1.00  0.00    -0.000 C 
BRANCH  16  17
ATOM     17  C   UNL     1     -10.080  21.885  21.256  1.00  0.00    -0.003 C 
ATOM     18  C   UNL     1     -10.352  23.004  22.260  1.00  0.00     0.004 C 
ENDBRANCH  16  17
ENDBRANCH  15  16
ENDBRANCH  14  15
ENDBRANCH  13  14
ENDBRANCH  12  13
ENDBRANCH  11  12
ENDBRANCH   1  11
TORSDOF 14
ENDMDL
MODEL 5
REMARK VINA RESULT:    -3.962      1.197      2.242
REMARK INTER + INTRA:          -8.892
REMARK INTER:                  -7.279
REMARK INTRA:                  -1.612
REMARK UNBOUND:                -1.687
REMARK SMILES CCCCCCCCCCCCCCCC(=O)[O-]
REMARK SMILES IDX 9 1 10 2 11 3 12 4 13 5 14 6 15 7 16 8 17 9 18 10 8 11 7 12
REMARK SMILES IDX 6 13 5 14 4 15 3 16 2 17 1 18
REMARK H PARENT
REMARK Flexibility Score: inf
ROOT
ATOM      1  C   UNL     1      -9.792  23.478  22.378  1.00  0.00     0.000 C 
ENDROOT
BRANCH   1   2
ATOM      2  C   UNL     1      -8.651  24.485  22.603  1.00  0.00     0.000 C 
BRANCH   2   3
ATOM      3  C   UNL     1      -8.705  25.133  23.997  1.00  0.00     0.000 C 
BRANCH   3   4
ATOM      4  C   UNL     1      -8.057  26.526  24.027  1.00  0.00     0.000 C 
BRANCH   4   5
ATOM      5  C   UNL     1      -8.728  27.473  25.032  1.00  0.00     0.000 C 
BRANCH   5   6
ATOM      6  C   UNL     1     -10.255  27.464  24.860  1.00  0.00     0.006 C 
BRANCH   6   7
ATOM      7  C   UNL     1     -10.678  27.695  23.403  1.00  0.00     0.053 C 
BRANCH   7   8
ATOM      8  C   UNL     1     -10.607  29.144  23.029  1.00  0.00     0.041 C 
ATOM      9  O   UNL     1     -10.846  30.033  23.887  1.00  0.00    -0.550 OA
ATOM     10  O   UNL     1     -10.310  29.510  21.722  1.00  0.00    -0.550 OA
ENDBRANCH   7   8
ENDBRANCH   6   7
ENDBRANCH   5   6
ENDBRANCH   4   5
ENDBRANCH   3   4
ENDBRANCH   2   3
ENDBRANCH   1   2
BRANCH   1  11
ATOM     11  C   UNL     1      -9.275  22.062  22.069  1.00  0.00     0.000 C 
BRANCH  11  12
ATOM     12  C   UNL     1     -10.111  21.342  20.995  1.00  0.00    -0.000 C 
BRANCH  12  13
ATOM     13  C   UNL     1     -11.120  22.235  20.244  1.00  0.00    -0.000 C 
BRANCH  13  14
ATOM     14  C   UNL     1     -10.688  22.660  18.827  1.00  0.00    -0.000 C 
BRANCH  14  15
ATOM     15  C   UNL     1     -10.025  24.048  18.740  1.00  0.00    -0.000 C 
BRANCH  15  16
ATOM     16  C   UNL     1     -10.996  25.243  18.828  1.00  0.00    -0.000 C 
BRANCH  16  17
ATOM     17  C   UNL     1     -10.653  26.276  19.916  1.00  0.00    -0.003 C 
ATOM     18  C   UNL     1      -9.188  26.710  19.884  1.00  0.00     0.004 C 
ENDBRANCH  16  17
ENDBRANCH  15  16
ENDBRANCH  14  15
ENDBRANCH  13  14
ENDBRANCH  12  13
ENDBRANCH  11  12
ENDBRANCH   1  11
TORSDOF 14
ENDMDL
MODEL 6
REMARK VINA RESULT:    -3.910      2.440      4.921
REMARK INTER + INTRA:          -8.798
REMARK INTER:                  -7.143
REMARK INTRA:                  -1.655
REMARK UNBOUND:                -1.687
REMARK SMILES CCCCCCCCCCCCCCCC(=O)[O-]
REMARK SMILES IDX 9 1 10 2 11 3 12 4 13 5 14 6 15 7 16 8 17 9 18 10 8 11 7 12
REMARK SMILES IDX 6 13 5 14 4 15 3 16 2 17 1 18
REMARK H PARENT
REMARK Flexibility Score: inf
ROOT
ATOM      1  C   UNL     1      -9.099  29.134  24.379  1.00  0.00     0.000 C 
ENDROOT
BRANCH   1   2
ATOM      2  C   UNL     1      -9.274  29.080  22.852  1.00  0.00     0.000 C 
BRANCH   2   3
ATOM      3  C   UNL     1     -10.738  28.851  22.435  1.00  0.00     0.000 C 
BRANCH   3   4
ATOM      4  C   UNL     1     -10.878  28.476  20.951  1.00  0.00     0.000 C 
BRANCH   4   5
ATOM      5  C   UNL     1     -10.592  26.991  20.684  1.00  0.00     0.000 C 
BRANCH   5   6
ATOM      6  C   UNL     1      -9.299  26.818  19.873  1.00  0.00     0.006 C 
BRANCH   6   7
ATOM      7  C   UNL     1      -8.964  25.342  19.620  1.00  0.00     0.053 C 
BRANCH   7   8
ATOM      8  C   UNL     1      -9.743  24.786  18.466  1.00  0.00     0.041 C 
ATOM      9  O   UNL     1      -9.977  25.500  17.457  1.00  0.00    -0.550 OA
ATOM     10  O   UNL     1     -10.238  23.489  18.523  1.00  0.00    -0.550 OA
ENDBRANCH   7   8
ENDBRANCH   6   7
ENDBRANCH   5   6
ENDBRANCH   4   5
ENDBRANCH   3   4
ENDBRANCH   2   3
ENDBRANCH   1   2
BRANCH   1  11
ATOM     11  C   UNL     1      -8.464  27.852  24.945  1.00  0.00     0.000 C 
BRANCH  11  12
ATOM     12  C   UNL     1      -9.290  27.230  26.085  1.00  0.00    -0.000 C 
BRANCH  12  13
ATOM     13  C   UNL     1     -10.014  25.916  25.727  1.00  0.00    -0.000 C 
BRANCH  13  14
ATOM     14  C   UNL     1     -10.287  25.709  24.225  1.00  0.00    -0.000 C 
BRANCH  14  15
ATOM     15  C   UNL     1      -9.368  24.682  23.534  1.00  0.00    -0.000 C 
BRANCH  15  16
ATOM     16  C   UNL     1     -10.059  23.791  22.481  1.00  0.00    -0.000 C 
BRANCH  16  17
ATOM     17  C   UNL     1      -9.247  22.560  22.044  1.00  0.00    -0.003 C 
ATOM     18  C   UNL     1     -10.093  21.515  21.318  1.00  0.00     0.004 C 
ENDBRANCH  16  17
ENDBRANCH  15  16
ENDBRANCH  14  15
ENDBRANCH  13  14
ENDBRANCH  12  13
ENDBRANCH  11  12
ENDBRANCH   1  11
TORSDOF 14
ENDMDL
MODEL 7
REMARK VINA RESULT:    -3.884      2.177      6.167
REMARK INTER + INTRA:          -8.750
REMARK INTER:                  -6.995
REMARK INTRA:                  -1.755
REMARK UNBOUND:                -1.687
REMARK SMILES CCCCCCCCCCCCCCCC(=O)[O-]
REMARK SMILES IDX 9 1 10 2 11 3 12 4 13 5 14 6 15 7 16 8 17 9 18 10 8 11 7 12
REMARK SMILES IDX 6 13 5 14 4 15 3 16 2 17 1 18
REMARK H PARENT
REMARK Flexibility Score: inf
ROOT
ATOM      1  C   UNL     1      -8.137  26.751  22.035  1.00  0.00     0.000 C 
ENDROOT
BRANCH   1   2
ATOM      2  C   UNL     1      -8.026  25.455  22.855  1.00  0.00     0.000 C 
BRANCH   2   3
ATOM      3  C   UNL     1      -9.287  24.581  22.746  1.00  0.00     0.000 C 
BRANCH   3   4
ATOM      4  C   UNL     1      -8.961  23.105  22.464  1.00  0.00     0.000 C 
BRANCH   4   5
ATOM      5  C   UNL     1      -9.935  22.460  21.468  1.00  0.00     0.000 C 
BRANCH   5   6
ATOM      6  C   UNL     1     -10.715  23.532  20.691  1.00  0.00     0.006 C 
BRANCH   6   7
ATOM      7  C   UNL     1     -10.482  23.439  19.177  1.00  0.00     0.053 C 
BRANCH   7   8
ATOM      8  C   UNL     1      -9.566  24.519  18.689  1.00  0.00     0.041 C 
ATOM      9  O   UNL     1      -9.906  25.251  17.723  1.00  0.00    -0.550 OA
ATOM     10  O   UNL     1      -8.322  24.695  19.281  1.00  0.00    -0.550 OA
ENDBRANCH   7   8
ENDBRANCH   6   7
ENDBRANCH   5   6
ENDBRANCH   4   5
ENDBRANCH   3   4
ENDBRANCH   2   3
ENDBRANCH   1   2
BRANCH   1  11
ATOM     11  C   UNL     1      -9.580  27.045  21.588  1.00  0.00     0.000 C 
BRANCH  11  12
ATOM     12  C   UNL     1     -10.094  28.407  22.089  1.00  0.00    -0.000 C 
BRANCH  12  13
ATOM     13  C   UNL     1      -9.345  28.982  23.308  1.00  0.00    -0.000 C 
BRANCH  13  14
ATOM     14  C   UNL     1     -10.245  29.605  24.393  1.00  0.00    -0.000 C 
BRANCH  14  15
ATOM     15  C   UNL     1     -10.824  28.603  25.411  1.00  0.00    -0.000 C 
BRANCH  15  16
ATOM     16  C   UNL     1     -10.270  27.168  25.304  1.00  0.00    -0.000 C 
BRANCH  16  17
ATOM     17  C   UNL     1     -10.052  26.457  26.651  1.00  0.00    -0.003 C 
ATOM     18  C   UNL     1     -10.965  26.984  27.757  1.00  0.00     0.004 C 
ENDBRANCH  16  17
ENDBRANCH  15  16
ENDBRANCH  14  15
ENDBRANCH  13  14
ENDBRANCH  12  13
ENDBRANCH  11  12
ENDBRANCH   1  11
TORSDOF 14
ENDMDL
MODEL 8
REMARK VINA RESULT:    -3.724      2.824      6.333
REMARK INTER + INTRA:          -8.459
REMARK INTER:                  -6.862
REMARK INTRA:                  -1.597
REMARK UNBOUND:                -1.687
REMARK SMILES CCCCCCCCCCCCCCCC(=O)[O-]
REMARK SMILES IDX 9 1 10 2 11 3 12 4 13 5 14 6 15 7 16 8 17 9 18 10 8 11 7 12
REMARK SMILES IDX 6 13 5 14 4 15 3 16 2 17 1 18
REMARK H PARENT
REMARK Flexibility Score: inf
ROOT
ATOM      1  C   UNL     1      -9.662  27.897  22.063  1.00  0.00     0.000 C 
ENDROOT
BRANCH   1   2
ATOM      2  C   UNL     1     -10.855  27.152  21.441  1.00  0.00     0.000 C 
BRANCH   2   3
ATOM      3  C   UNL     1     -10.728  27.010  19.914  1.00  0.00     0.000 C 
BRANCH   3   4
ATOM      4  C   UNL     1      -9.736  25.909  19.503  1.00  0.00     0.000 C 
BRANCH   4   5
ATOM      5  C   UNL     1     -10.391  24.800  18.668  1.00  0.00     0.000 C 
BRANCH   5   6
ATOM      6  C   UNL     1     -10.382  23.464  19.426  1.00  0.00     0.006 C 
BRANCH   6   7
ATOM      7  C   UNL     1      -9.910  23.621  20.878  1.00  0.00     0.053 C 
BRANCH   7   8
ATOM      8  C   UNL     1      -9.607  22.296  21.509  1.00  0.00     0.041 C 
ATOM      9  O   UNL     1     -10.105  21.241  21.037  1.00  0.00    -0.550 OA
ATOM     10  O   UNL     1      -8.800  22.233  22.638  1.00  0.00    -0.550 OA
ENDBRANCH   7   8
ENDBRANCH   6   7
ENDBRANCH   5   6
ENDBRANCH   4   5
ENDBRANCH   3   4
ENDBRANCH   2   3
ENDBRANCH   1   2
BRANCH   1  11
ATOM     11  C   UNL     1     -10.084  29.199  22.767  1.00  0.00     0.000 C 
BRANCH  11  12
ATOM     12  C   UNL     1     -11.106  28.965  23.894  1.00  0.00    -0.000 C 
BRANCH  12  13
ATOM     13  C   UNL     1     -10.498  28.691  25.284  1.00  0.00    -0.000 C 
BRANCH  13  14
ATOM     14  C   UNL     1     -10.418  27.204  25.681  1.00  0.00    -0.000 C 
BRANCH  14  15
ATOM     15  C   UNL     1      -8.990  26.653  25.855  1.00  0.00    -0.000 C 
BRANCH  15  16
ATOM     16  C   UNL     1      -8.542  25.646  24.776  1.00  0.00    -0.000 C 
BRANCH  16  17
ATOM     17  C   UNL     1      -7.233  26.013  24.054  1.00  0.00    -0.003 C 
ATOM     18  C   UNL     1      -7.240  25.627  22.576  1.00  0.00     0.004 C 
ENDBRANCH  16  17
ENDBRANCH  15  16
ENDBRANCH  14  15
ENDBRANCH  13  14
ENDBRANCH  12  13
ENDBRANCH  11  12
ENDBRANCH   1  11
TORSDOF 14
ENDMDL
