MODEL 1
REMARK VINA RESULT:    -4.513      0.000      0.000
REMARK INTER + INTRA:          -5.220
REMARK INTER:                  -5.173
REMARK INTRA:                  -0.047
REMARK UNBOUND:                -0.047
REMARK SMILES O=C([O-])c1cc(O)c(O)c(O)c1
REMARK SMILES IDX 4 1 5 2 12 3 6 4 10 5 8 6 2 7 1 8 3 9 7 10 11 12 9 14
REMARK H PARENT 7 11 11 13 9 15
REMARK Flexibility Score: inf
ROOT
ATOM      1  C   UNL     1       1.480 -36.975 -22.947  1.00  0.00     0.005 A 
ATOM      2  C   UNL     1       1.492 -37.411 -24.283  1.00  0.00     0.060 A 
ATOM      3  C   UNL     1       2.622 -36.342 -22.427  1.00  0.00     0.060 A 
ATOM      4  C   UNL     1       2.624 -37.218 -25.086  1.00  0.00     0.162 A 
ATOM      5  C   UNL     1       3.757 -36.147 -23.226  1.00  0.00     0.162 A 
ATOM      6  C   UNL     1       3.758 -36.587 -24.560  1.00  0.00     0.200 A 
ENDROOT
BRANCH   1   7
ATOM      7  C   UNL     1       0.282 -37.181 -22.104  1.00  0.00     0.072 C 
ATOM      8  O   UNL     1      -0.256 -36.211 -21.507  1.00  0.00    -0.545 OA
ATOM      9  O   UNL     1      -0.267 -38.450 -21.958  1.00  0.00    -0.545 OA
ENDBRANCH   1   7
BRANCH   4  10
ATOM     10  O   UNL     1       2.630 -37.654 -26.410  1.00  0.00    -0.504 OA
ATOM     11  H   UNL     1       2.846 -38.614 -26.651  1.00  0.00     0.293 HD
ENDBRANCH   4  10
BRANCH   5  12
ATOM     12  O   UNL     1       4.885 -35.517 -22.699  1.00  0.00    -0.504 OA
ATOM     13  H   UNL     1       5.621 -36.042 -22.240  1.00  0.00     0.293 HD
ENDBRANCH   5  12
BRANCH   6  14
ATOM     14  O   UNL     1       4.876 -36.404 -25.376  1.00  0.00    -0.502 OA
ATOM     15  H   UNL     1       4.824 -35.911 -26.258  1.00  0.00     0.293 HD
ENDBRANCH   6  14
TORSDOF 4
ENDMDL
MODEL 2
REMARK VINA RESULT:    -4.509      0.044      2.422
REMARK INTER + INTRA:          -5.215
REMARK INTER:                  -5.168
REMARK INTRA:                  -0.047
REMARK UNBOUND:                -0.047
REMARK SMILES O=C([O-])c1cc(O)c(O)c(O)c1
REMARK SMILES IDX 4 1 5 2 12 3 6 4 10 5 8 6 2 7 1 8 3 9 7 10 11 12 9 14
REMARK H PARENT 7 11 11 13 9 15
REMARK Flexibility Score: inf
ROOT
ATOM      1  C   UNL     1       1.473 -36.998 -22.933  1.00  0.00     0.005 A 
ATOM      2  C   UNL     1       2.602 -36.349 -22.405  1.00  0.00     0.060 A 
ATOM      3  C   UNL     1       1.502 -37.441 -24.267  1.00  0.00     0.060 A 
ATOM      4  C   UNL     1       3.741 -36.146 -23.195  1.00  0.00     0.162 A 
ATOM      5  C   UNL     1       2.639 -37.239 -25.061  1.00  0.00     0.162 A 
ATOM      6  C   UNL     1       3.763 -36.589 -24.523  1.00  0.00     0.200 A 
ENDROOT
BRANCH   1   7
ATOM      7  C   UNL     1       0.273 -37.211 -22.094  1.00  0.00     0.072 C 
ATOM      8  O   UNL     1      -0.274 -36.244 -21.499  1.00  0.00    -0.545 OA
ATOM      9  O   UNL     1      -0.269 -38.483 -21.949  1.00  0.00    -0.545 OA
ENDBRANCH   1   7
BRANCH   4  10
ATOM     10  O   UNL     1       4.859 -35.501 -22.667  1.00  0.00    -0.504 OA
ATOM     11  H   UNL     1       5.476 -35.963 -22.009  1.00  0.00     0.293 HD
ENDBRANCH   4  10
BRANCH   5  12
ATOM     12  O   UNL     1       2.657 -37.683 -26.383  1.00  0.00    -0.504 OA
ATOM     13  H   UNL     1       2.724 -38.668 -26.612  1.00  0.00     0.293 HD
ENDBRANCH   5  12
BRANCH   6  14
ATOM     14  O   UNL     1       4.907 -36.377 -25.295  1.00  0.00    -0.502 OA
ATOM     15  H   UNL     1       5.488 -37.141 -25.617  1.00  0.00     0.293 HD
ENDBRANCH   6  14
TORSDOF 4
ENDMDL
MODEL 3
REMARK VINA RESULT:    -4.446     12.830     14.013
REMARK INTER + INTRA:          -5.143
REMARK INTER:                  -5.097
REMARK INTRA:                  -0.046
REMARK UNBOUND:                -0.047
REMARK SMILES O=C([O-])c1cc(O)c(O)c(O)c1
REMARK SMILES IDX 4 1 5 2 12 3 6 4 10 5 8 6 2 7 1 8 3 9 7 10 11 12 9 14
REMARK H PARENT 7 11 11 13 9 15
REMARK Flexibility Score: inf
ROOT
ATOM      1  C   UNL     1       6.455 -44.129 -33.925  1.00  0.00     0.005 A 
ATOM      2  C   UNL     1       5.973 -44.782 -32.779  1.00  0.00     0.060 A 
ATOM      3  C   UNL     1       7.715 -44.486 -34.436  1.00  0.00     0.060 A 
ATOM      4  C   UNL     1       6.737 -45.776 -32.151  1.00  0.00     0.162 A 
ATOM      5  C   UNL     1       8.483 -45.480 -33.811  1.00  0.00     0.162 A 
ATOM      6  C   UNL     1       7.991 -46.127 -32.665  1.00  0.00     0.200 A 
ENDROOT
BRANCH   1   7
ATOM      7  C   UNL     1       5.645 -43.081 -34.584  1.00  0.00     0.072 C 
ATOM      8  O   UNL     1       4.543 -43.366 -35.125  1.00  0.00    -0.545 OA
ATOM      9  O   UNL     1       6.090 -41.763 -34.617  1.00  0.00    -0.545 OA
ENDBRANCH   1   7
BRANCH   4  10
ATOM     10  O   UNL     1       6.254 -46.421 -31.013  1.00  0.00    -0.504 OA
ATOM     11  H   UNL     1       5.845 -45.903 -30.244  1.00  0.00     0.293 HD
ENDBRANCH   4  10
BRANCH   5  12
ATOM     12  O   UNL     1       9.731 -45.827 -34.326  1.00  0.00    -0.504 OA
ATOM     13  H   UNL     1      10.577 -45.735 -33.775  1.00  0.00     0.293 HD
ENDBRANCH   5  12
BRANCH   6  14
ATOM     14  O   UNL     1       8.737 -47.119 -32.026  1.00  0.00    -0.502 OA
ATOM     15  H   UNL     1       9.451 -47.651 -32.508  1.00  0.00     0.293 HD
ENDBRANCH   6  14
TORSDOF 4
ENDMDL
MODEL 4
REMARK VINA RESULT:    -4.421     12.842     13.998
REMARK INTER + INTRA:          -5.114
REMARK INTER:                  -5.068
REMARK INTRA:                  -0.046
REMARK UNBOUND:                -0.047
REMARK SMILES O=C([O-])c1cc(O)c(O)c(O)c1
REMARK SMILES IDX 4 1 5 2 12 3 6 4 10 5 8 6 2 7 1 8 3 9 7 10 11 12 9 14
REMARK H PARENT 7 11 11 13 9 15
REMARK Flexibility Score: inf
ROOT
ATOM      1  C   UNL     1       6.461 -44.126 -33.948  1.00  0.00     0.005 A 
ATOM      2  C   UNL     1       7.713 -44.488 -34.474  1.00  0.00     0.060 A 
ATOM      3  C   UNL     1       5.999 -44.764 -32.784  1.00  0.00     0.060 A 
ATOM      4  C   UNL     1       8.491 -45.470 -33.848  1.00  0.00     0.162 A 
ATOM      5  C   UNL     1       6.774 -45.748 -32.154  1.00  0.00     0.162 A 
ATOM      6  C   UNL     1       8.025 -46.102 -32.688  1.00  0.00     0.200 A 
ENDROOT
BRANCH   1   7
ATOM      7  C   UNL     1       5.643 -43.087 -34.613  1.00  0.00     0.072 C 
ATOM      8  O   UNL     1       4.529 -43.377 -35.125  1.00  0.00    -0.545 OA
ATOM      9  O   UNL     1       6.094 -41.773 -34.683  1.00  0.00    -0.545 OA
ENDBRANCH   1   7
BRANCH   4  10
ATOM     10  O   UNL     1       9.732 -45.826 -34.374  1.00  0.00    -0.504 OA
ATOM     11  H   UNL     1      10.218 -46.661 -34.066  1.00  0.00     0.293 HD
ENDBRANCH   4  10
BRANCH   5  12
ATOM     12  O   UNL     1       6.307 -46.374 -30.999  1.00  0.00    -0.504 OA
ATOM     13  H   UNL     1       6.919 -46.931 -30.413  1.00  0.00     0.293 HD
ENDBRANCH   5  12
BRANCH   6  14
ATOM     14  O   UNL     1       8.814 -47.079 -32.079  1.00  0.00    -0.502 OA
ATOM     15  H   UNL     1       8.478 -48.020 -31.917  1.00  0.00     0.293 HD
ENDBRANCH   6  14
TORSDOF 4
ENDMDL
MODEL 5
REMARK VINA RESULT:    -4.307      1.496      4.795
REMARK INTER + INTRA:          -4.984
REMARK INTER:                  -4.931
REMARK INTRA:                  -0.053
REMARK UNBOUND:                -0.047
REMARK SMILES O=C([O-])c1cc(O)c(O)c(O)c1
REMARK SMILES IDX 4 1 5 2 12 3 6 4 10 5 8 6 2 7 1 8 3 9 7 10 11 12 9 14
REMARK H PARENT 7 11 11 13 9 15
REMARK Flexibility Score: inf
ROOT
ATOM      1  C   UNL     1       4.668 -36.286 -23.405  1.00  0.00     0.005 A 
ATOM      2  C   UNL     1       3.965 -36.278 -22.189  1.00  0.00     0.060 A 
ATOM      3  C   UNL     1       3.985 -36.627 -24.586  1.00  0.00     0.060 A 
ATOM      4  C   UNL     1       2.603 -36.604 -22.151  1.00  0.00     0.162 A 
ATOM      5  C   UNL     1       2.622 -36.954 -24.553  1.00  0.00     0.162 A 
ATOM      6  C   UNL     1       1.929 -36.942 -23.331  1.00  0.00     0.200 A 
ENDROOT
BRANCH   1   7
ATOM      7  C   UNL     1       6.106 -35.941 -23.440  1.00  0.00     0.072 C 
ATOM      8  O   UNL     1       6.723 -35.867 -24.537  1.00  0.00    -0.545 OA
ATOM      9  O   UNL     1       6.800 -35.691 -22.260  1.00  0.00    -0.545 OA
ENDBRANCH   1   7
BRANCH   4  10
ATOM     10  O   UNL     1       1.910 -36.595 -20.941  1.00  0.00    -0.504 OA
ATOM     11  H   UNL     1       0.908 -36.448 -20.906  1.00  0.00     0.293 HD
ENDBRANCH   4  10
BRANCH   5  12
ATOM     12  O   UNL     1       1.954 -37.290 -25.730  1.00  0.00    -0.504 OA
ATOM     13  H   UNL     1       2.306 -38.007 -26.355  1.00  0.00     0.293 HD
ENDBRANCH   5  12
BRANCH   6  14
ATOM     14  O   UNL     1       0.572 -37.264 -23.273  1.00  0.00    -0.502 OA
ATOM     15  H   UNL     1       0.117 -37.812 -23.993  1.00  0.00     0.293 HD
ENDBRANCH   6  14
TORSDOF 4
ENDMDL
MODEL 6
REMARK VINA RESULT:    -4.283      1.458      4.222
REMARK INTER + INTRA:          -4.957
REMARK INTER:                  -4.904
REMARK INTRA:                  -0.053
REMARK UNBOUND:                -0.047
REMARK SMILES O=C([O-])c1cc(O)c(O)c(O)c1
REMARK SMILES IDX 4 1 5 2 12 3 6 4 10 5 8 6 2 7 1 8 3 9 7 10 11 12 9 14
REMARK H PARENT 7 11 11 13 9 15
REMARK Flexibility Score: inf
ROOT
ATOM      1  C   UNL     1       4.612 -36.282 -23.400  1.00  0.00     0.005 A 
ATOM      2  C   UNL     1       3.949 -36.625 -24.589  1.00  0.00     0.060 A 
ATOM      3  C   UNL     1       3.891 -36.278 -22.193  1.00  0.00     0.060 A 
ATOM      4  C   UNL     1       2.588 -36.959 -24.576  1.00  0.00     0.162 A 
ATOM      5  C   UNL     1       2.529 -36.611 -22.174  1.00  0.00     0.162 A 
ATOM      6  C   UNL     1       1.876 -36.953 -23.370  1.00  0.00     0.200 A 
ENDROOT
BRANCH   1   7
ATOM      7  C   UNL     1       6.049 -35.930 -23.420  1.00  0.00     0.072 C 
ATOM      8  O   UNL     1       6.665 -35.686 -22.348  1.00  0.00    -0.545 OA
ATOM      9  O   UNL     1       6.742 -35.864 -24.624  1.00  0.00    -0.545 OA
ENDBRANCH   1   7
BRANCH   4  10
ATOM     10  O   UNL     1       1.934 -37.299 -25.759  1.00  0.00    -0.504 OA
ATOM     11  H   UNL     1       2.413 -37.784 -26.509  1.00  0.00     0.293 HD
ENDBRANCH   4  10
BRANCH   5  12
ATOM     12  O   UNL     1       1.823 -36.604 -20.972  1.00  0.00    -0.504 OA
ATOM     13  H   UNL     1       1.184 -37.352 -20.727  1.00  0.00     0.293 HD
ENDBRANCH   5  12
BRANCH   6  14
ATOM     14  O   UNL     1       0.521 -37.289 -23.376  1.00  0.00    -0.502 OA
ATOM     15  H   UNL     1       0.092 -37.811 -22.622  1.00  0.00     0.293 HD
ENDBRANCH   6  14
TORSDOF 4
ENDMDL
MODEL 7
REMARK VINA RESULT:    -4.195     12.029     13.309
REMARK INTER + INTRA:          -4.855
REMARK INTER:                  -4.804
REMARK INTRA:                  -0.051
REMARK UNBOUND:                -0.047
REMARK SMILES O=C([O-])c1cc(O)c(O)c(O)c1
REMARK SMILES IDX 4 1 5 2 12 3 6 4 10 5 8 6 2 7 1 8 3 9 7 10 11 12 9 14
REMARK H PARENT 7 11 11 13 9 15
REMARK Flexibility Score: inf
ROOT
ATOM      1  C   UNL     1      -0.038 -29.961 -33.470  1.00  0.00     0.005 A 
ATOM      2  C   UNL     1      -1.116 -29.860 -34.365  1.00  0.00     0.060 A 
ATOM      3  C   UNL     1       0.082 -29.014 -32.438  1.00  0.00     0.060 A 
ATOM      4  C   UNL     1      -2.059 -28.832 -34.233  1.00  0.00     0.162 A 
ATOM      5  C   UNL     1      -0.859 -27.983 -32.302  1.00  0.00     0.162 A 
ATOM      6  C   UNL     1      -1.933 -27.892 -33.203  1.00  0.00     0.200 A 
ENDROOT
BRANCH   1   7
ATOM      7  C   UNL     1       0.954 -31.049 -33.614  1.00  0.00     0.072 C 
ATOM      8  O   UNL     1       1.121 -31.624 -34.722  1.00  0.00    -0.545 OA
ATOM      9  O   UNL     1       1.719 -31.453 -32.524  1.00  0.00    -0.545 OA
ENDBRANCH   1   7
BRANCH   4  10
ATOM     10  O   UNL     1      -3.126 -28.737 -35.125  1.00  0.00    -0.504 OA
ATOM     11  H   UNL     1      -3.965 -28.217 -34.894  1.00  0.00     0.293 HD
ENDBRANCH   4  10
BRANCH   5  12
ATOM     12  O   UNL     1      -0.730 -27.049 -31.274  1.00  0.00    -0.504 OA
ATOM     13  H   UNL     1      -1.193 -27.176 -30.381  1.00  0.00     0.293 HD
ENDBRANCH   5  12
BRANCH   6  14
ATOM     14  O   UNL     1      -2.882 -26.875 -33.087  1.00  0.00    -0.502 OA
ATOM     15  H   UNL     1      -2.645 -25.954 -32.741  1.00  0.00     0.293 HD
ENDBRANCH   6  14
TORSDOF 4
ENDMDL
MODEL 8
REMARK VINA RESULT:    -4.168     12.517     13.834
REMARK INTER + INTRA:          -4.824
REMARK INTER:                  -4.777
REMARK INTRA:                  -0.048
REMARK UNBOUND:                -0.047
REMARK SMILES O=C([O-])c1cc(O)c(O)c(O)c1
REMARK SMILES IDX 4 1 5 2 12 3 6 4 10 5 8 6 2 7 1 8 3 9 7 10 11 12 9 14
REMARK H PARENT 7 11 11 13 9 15
REMARK Flexibility Score: inf
ROOT
ATOM      1  C   UNL     1      -0.333 -30.029 -34.206  1.00  0.00     0.005 A 
ATOM      2  C   UNL     1       0.160 -29.304 -33.109  1.00  0.00     0.060 A 
ATOM      3  C   UNL     1      -1.592 -29.695 -34.735  1.00  0.00     0.060 A 
ATOM      4  C   UNL     1      -0.590 -28.261 -32.548  1.00  0.00     0.162 A 
ATOM      5  C   UNL     1      -2.347 -28.653 -34.177  1.00  0.00     0.162 A 
ATOM      6  C   UNL     1      -1.844 -27.934 -33.080  1.00  0.00     0.200 A 
ENDROOT
BRANCH   1   7
ATOM      7  C   UNL     1       0.463 -31.128 -34.794  1.00  0.00     0.072 C 
ATOM      8  O   UNL     1       1.665 -30.945 -35.124  1.00  0.00    -0.545 OA
ATOM      9  O   UNL     1      -0.105 -32.383 -34.992  1.00  0.00    -0.545 OA
ENDBRANCH   1   7
BRANCH   4  10
ATOM     10  O   UNL     1      -0.097 -27.545 -31.459  1.00  0.00    -0.504 OA
ATOM     11  H   UNL     1       0.307 -28.013 -30.656  1.00  0.00     0.293 HD
ENDBRANCH   4  10
BRANCH   5  12
ATOM     12  O   UNL     1      -3.594 -28.329 -34.710  1.00  0.00    -0.504 OA
ATOM     13  H   UNL     1      -3.879 -27.366 -34.849  1.00  0.00     0.293 HD
ENDBRANCH   5  12
BRANCH   6  14
ATOM     14  O   UNL     1      -2.577 -26.893 -32.508  1.00  0.00    -0.502 OA
ATOM     15  H   UNL     1      -2.507 -26.662 -31.524  1.00  0.00     0.293 HD
ENDBRANCH   6  14
TORSDOF 4
ENDMDL
MODEL 9
REMARK VINA RESULT:    -4.110      7.890     10.066
REMARK INTER + INTRA:          -4.758
REMARK INTER:                  -4.711
REMARK INTRA:                  -0.047
REMARK UNBOUND:                -0.047
REMARK SMILES O=C([O-])c1cc(O)c(O)c(O)c1
REMARK SMILES IDX 4 1 5 2 12 3 6 4 10 5 8 6 2 7 1 8 3 9 7 10 11 12 9 14
REMARK H PARENT 7 11 11 13 9 15
REMARK Flexibility Score: inf
ROOT
ATOM      1  C   UNL     1       6.457 -31.435 -18.494  1.00  0.00     0.005 A 
ATOM      2  C   UNL     1       7.211 -30.278 -18.236  1.00  0.00     0.060 A 
ATOM      3  C   UNL     1       5.162 -31.539 -17.958  1.00  0.00     0.060 A 
ATOM      4  C   UNL     1       6.681 -29.241 -17.455  1.00  0.00     0.162 A 
ATOM      5  C   UNL     1       4.628 -30.505 -17.176  1.00  0.00     0.162 A 
ATOM      6  C   UNL     1       5.390 -29.352 -16.924  1.00  0.00     0.200 A 
ENDROOT
BRANCH   1   7
ATOM      7  C   UNL     1       7.021 -32.526 -19.319  1.00  0.00     0.072 C 
ATOM      8  O   UNL     1       8.115 -33.067 -19.006  1.00  0.00    -0.545 OA
ATOM      9  O   UNL     1       6.351 -32.970 -20.453  1.00  0.00    -0.545 OA
ENDBRANCH   1   7
BRANCH   4  10
ATOM     10  O   UNL     1       7.434 -28.096 -17.201  1.00  0.00    -0.504 OA
ATOM     11  H   UNL     1       7.270 -27.232 -17.705  1.00  0.00     0.293 HD
ENDBRANCH   4  10
BRANCH   5  12
ATOM     12  O   UNL     1       3.341 -30.618 -16.649  1.00  0.00    -0.504 OA
ATOM     13  H   UNL     1       3.173 -31.051 -15.748  1.00  0.00     0.293 HD
ENDBRANCH   5  12
BRANCH   6  14
ATOM     14  O   UNL     1       4.880 -28.309 -16.149  1.00  0.00    -0.502 OA
ATOM     15  H   UNL     1       3.986 -28.375 -15.679  1.00  0.00     0.293 HD
ENDBRANCH   6  14
TORSDOF 4
ENDMDL
