MODEL 1
REMARK VINA RESULT:    -4.496      0.000      0.000
REMARK INTER + INTRA:          -6.067
REMARK INTER:                  -5.679
REMARK INTRA:                  -0.388
REMARK UNBOUND:                -0.388
REMARK SMILES CC(C)=CCCC(C)=CCO
REMARK SMILES IDX 7 1 9 2 8 3 6 4 5 5 4 6 1 7 2 8 3 9 10 10 11 11
REMARK H PARENT 11 12
REMARK Flexibility Score: inf
ROOT
ATOM      1  C   UNL     1       8.259  17.495  19.912  1.00  0.00    -0.075 C 
ATOM      2  C   UNL     1       8.394  16.712  18.818  1.00  0.00    -0.000 C 
ATOM      3  C   UNL     1       6.900  17.821  20.487  1.00  0.00     0.039 C 
ENDROOT
BRANCH   1   4
ATOM      4  C   UNL     1       9.500  18.040  20.587  1.00  0.00     0.034 C 
BRANCH   4   5
ATOM      5  C   UNL     1       9.823  17.246  21.859  1.00  0.00     0.032 C 
BRANCH   5   6
ATOM      6  C   UNL     1      11.310  17.020  22.001  1.00  0.00    -0.028 C 
ATOM      7  C   UNL     1      11.056  14.559  21.659  1.00  0.00     0.039 C 
ATOM      8  C   UNL     1      11.878  15.798  21.911  1.00  0.00    -0.080 C 
ATOM      9  C   UNL     1      13.369  15.646  22.063  1.00  0.00     0.039 C 
ENDBRANCH   5   6
ENDBRANCH   4   5
ENDBRANCH   1   4
BRANCH   2  10
ATOM     10  C   UNL     1       7.237  16.110  18.069  1.00  0.00     0.183 C 
BRANCH  10  11
ATOM     11  O   UNL     1       6.942  14.845  18.589  1.00  0.00    -0.392 OA
ATOM     12  H   UNL     1       7.807  14.362  18.648  1.00  0.00     0.210 HD
ENDBRANCH  10  11
ENDBRANCH   2  10
TORSDOF 5
ENDMDL
MODEL 2
REMARK VINA RESULT:    -4.463      2.654      5.519
REMARK INTER + INTRA:          -6.025
REMARK INTER:                  -5.747
REMARK INTRA:                  -0.278
REMARK UNBOUND:                -0.388
REMARK SMILES CC(C)=CCCC(C)=CCO
REMARK SMILES IDX 7 1 9 2 8 3 6 4 5 5 4 6 1 7 2 8 3 9 10 10 11 11
REMARK H PARENT 11 12
REMARK Flexibility Score: inf
ROOT
ATOM      1  C   UNL     1      11.549  15.694  21.921  1.00  0.00    -0.075 C 
ATOM      2  C   UNL     1      12.228  14.564  21.624  1.00  0.00    -0.000 C 
ATOM      3  C   UNL     1      12.264  16.976  22.280  1.00  0.00     0.039 C 
ENDROOT
BRANCH   1   4
ATOM      4  C   UNL     1      10.035  15.679  21.874  1.00  0.00     0.034 C 
BRANCH   4   5
ATOM      5  C   UNL     1       9.502  16.863  21.058  1.00  0.00     0.032 C 
BRANCH   5   6
ATOM      6  C   UNL     1       8.859  16.399  19.773  1.00  0.00    -0.028 C 
ATOM      7  C   UNL     1       6.803  17.747  20.215  1.00  0.00     0.039 C 
ATOM      8  C   UNL     1       7.629  16.797  19.383  1.00  0.00    -0.080 C 
ATOM      9  C   UNL     1       7.047  16.293  18.087  1.00  0.00     0.039 C 
ENDBRANCH   5   6
ENDBRANCH   4   5
ENDBRANCH   1   4
BRANCH   2  10
ATOM     10  C   UNL     1      13.729  14.461  21.631  1.00  0.00     0.183 C 
BRANCH  10  11
ATOM     11  O   UNL     1      14.122  13.302  22.309  1.00  0.00    -0.392 OA
ATOM     12  H   UNL     1      15.093  13.193  22.130  1.00  0.00     0.210 HD
ENDBRANCH  10  11
ENDBRANCH   2  10
TORSDOF 5
ENDMDL
MODEL 3
REMARK VINA RESULT:    -4.085      2.675      5.870
REMARK INTER + INTRA:          -5.547
REMARK INTER:                  -5.241
REMARK INTRA:                  -0.305
REMARK UNBOUND:                -0.388
REMARK SMILES CC(C)=CCCC(C)=CCO
REMARK SMILES IDX 7 1 9 2 8 3 6 4 5 5 4 6 1 7 2 8 3 9 10 10 11 11
REMARK H PARENT 11 12
REMARK Flexibility Score: inf
ROOT
ATOM      1  C   UNL     1       7.638  17.542  20.221  1.00  0.00    -0.075 C 
ATOM      2  C   UNL     1       6.944  16.880  19.268  1.00  0.00    -0.000 C 
ATOM      3  C   UNL     1       9.134  17.732  20.122  1.00  0.00     0.039 C 
ENDROOT
BRANCH   1   4
ATOM      4  C   UNL     1       6.894  18.122  21.406  1.00  0.00     0.034 C 
BRANCH   4   5
ATOM      5  C   UNL     1       6.766  19.645  21.277  1.00  0.00     0.032 C 
BRANCH   5   6
ATOM      6  C   UNL     1       5.355  20.048  20.920  1.00  0.00    -0.028 C 
ATOM      7  C   UNL     1       6.066  22.379  20.375  1.00  0.00     0.039 C 
ATOM      8  C   UNL     1       5.028  21.292  20.508  1.00  0.00    -0.080 C 
ATOM      9  C   UNL     1       3.599  21.625  20.168  1.00  0.00     0.039 C 
ENDBRANCH   5   6
ENDBRANCH   4   5
ENDBRANCH   1   4
BRANCH   2  10
ATOM     10  C   UNL     1       7.572  16.268  18.046  1.00  0.00     0.183 C 
BRANCH  10  11
ATOM     11  O   UNL     1       7.624  14.877  18.186  1.00  0.00    -0.392 OA
ATOM     12  H   UNL     1       8.571  14.619  18.032  1.00  0.00     0.210 HD
ENDBRANCH  10  11
ENDBRANCH   2  10
TORSDOF 5
ENDMDL
MODEL 4
REMARK VINA RESULT:    -3.999      2.399      4.491
REMARK INTER + INTRA:          -5.439
REMARK INTER:                  -4.787
REMARK INTRA:                  -0.652
REMARK UNBOUND:                -0.388
REMARK SMILES CC(C)=CCCC(C)=CCO
REMARK SMILES IDX 7 1 9 2 8 3 6 4 5 5 4 6 1 7 2 8 3 9 10 10 11 11
REMARK H PARENT 11 12
REMARK Flexibility Score: inf
ROOT
ATOM      1  C   UNL     1       8.512  17.080  20.137  1.00  0.00    -0.075 C 
ATOM      2  C   UNL     1       7.840  16.941  18.972  1.00  0.00    -0.000 C 
ATOM      3  C   UNL     1       8.488  16.004  21.197  1.00  0.00     0.039 C 
ENDROOT
BRANCH   1   4
ATOM      4  C   UNL     1       9.322  18.337  20.375  1.00  0.00     0.034 C 
BRANCH   4   5
ATOM      5  C   UNL     1       8.763  19.131  21.562  1.00  0.00     0.032 C 
BRANCH   5   6
ATOM      6  C   UNL     1       7.711  20.118  21.114  1.00  0.00    -0.028 C 
ATOM      7  C   UNL     1       5.870  18.704  22.037  1.00  0.00     0.039 C 
ATOM      8  C   UNL     1       6.390  19.929  21.327  1.00  0.00    -0.080 C 
ATOM      9  C   UNL     1       5.395  20.955  20.853  1.00  0.00     0.039 C 
ENDBRANCH   5   6
ENDBRANCH   4   5
ENDBRANCH   1   4
BRANCH   2  10
ATOM     10  C   UNL     1       7.009  15.738  18.621  1.00  0.00     0.183 C 
BRANCH  10  11
ATOM     11  O   UNL     1       7.818  14.754  18.042  1.00  0.00    -0.392 OA
ATOM     12  H   UNL     1       7.262  13.932  17.995  1.00  0.00     0.210 HD
ENDBRANCH  10  11
ENDBRANCH   2  10
TORSDOF 5
ENDMDL
MODEL 5
REMARK VINA RESULT:    -3.983      2.304      4.235
REMARK INTER + INTRA:          -5.419
REMARK INTER:                  -4.911
REMARK INTRA:                  -0.508
REMARK UNBOUND:                -0.388
REMARK SMILES CC(C)=CCCC(C)=CCO
REMARK SMILES IDX 7 1 9 2 8 3 6 4 5 5 4 6 1 7 2 8 3 9 10 10 11 11
REMARK H PARENT 11 12
REMARK Flexibility Score: inf
ROOT
ATOM      1  C   UNL     1       8.261  17.472  19.915  1.00  0.00    -0.075 C 
ATOM      2  C   UNL     1       8.380  16.693  18.817  1.00  0.00    -0.000 C 
ATOM      3  C   UNL     1       6.908  17.852  20.471  1.00  0.00     0.039 C 
ENDROOT
BRANCH   1   4
ATOM      4  C   UNL     1       9.512  17.958  20.614  1.00  0.00     0.034 C 
BRANCH   4   5
ATOM      5  C   UNL     1       9.209  19.179  21.492  1.00  0.00     0.032 C 
BRANCH   5   6
ATOM      6  C   UNL     1       9.642  20.459  20.818  1.00  0.00    -0.028 C 
ATOM      7  C   UNL     1       7.433  21.538  21.256  1.00  0.00     0.039 C 
ATOM      8  C   UNL     1       8.838  21.538  20.706  1.00  0.00    -0.080 C 
ATOM      9  C   UNL     1       9.335  22.783  20.021  1.00  0.00     0.039 C 
ENDBRANCH   5   6
ENDBRANCH   4   5
ENDBRANCH   1   4
BRANCH   2  10
ATOM     10  C   UNL     1       7.211  16.147  18.043  1.00  0.00     0.183 C 
BRANCH  10  11
ATOM     11  O   UNL     1       6.902  14.860  18.496  1.00  0.00    -0.392 OA
ATOM     12  H   UNL     1       7.129  14.846  19.463  1.00  0.00     0.210 HD
ENDBRANCH  10  11
ENDBRANCH   2  10
TORSDOF 5
ENDMDL
MODEL 6
REMARK VINA RESULT:    -3.958      3.664      5.455
REMARK INTER + INTRA:          -5.387
REMARK INTER:                  -5.111
REMARK INTRA:                  -0.276
REMARK UNBOUND:                -0.388
REMARK SMILES CC(C)=CCCC(C)=CCO
REMARK SMILES IDX 7 1 9 2 8 3 6 4 5 5 4 6 1 7 2 8 3 9 10 10 11 11
REMARK H PARENT 11 12
REMARK Flexibility Score: inf
ROOT
ATOM      1  C   UNL     1       6.100  20.667  21.263  1.00  0.00    -0.075 C 
ATOM      2  C   UNL     1       5.369  21.537  20.532  1.00  0.00    -0.000 C 
ATOM      3  C   UNL     1       7.272  21.125  22.100  1.00  0.00     0.039 C 
ENDROOT
BRANCH   1   4
ATOM      4  C   UNL     1       5.722  19.201  21.259  1.00  0.00     0.034 C 
BRANCH   4   5
ATOM      5  C   UNL     1       6.958  18.318  21.046  1.00  0.00     0.032 C 
BRANCH   5   6
ATOM      6  C   UNL     1       6.846  17.516  19.772  1.00  0.00    -0.028 C 
ATOM      7  C   UNL     1       9.045  16.404  20.177  1.00  0.00     0.039 C 
ATOM      8  C   UNL     1       7.794  16.642  19.369  1.00  0.00    -0.080 C 
ATOM      9  C   UNL     1       7.618  15.875  18.085  1.00  0.00     0.039 C 
ENDBRANCH   5   6
ENDBRANCH   4   5
ENDBRANCH   1   4
BRANCH   2  10
ATOM     10  C   UNL     1       5.645  23.015  20.464  1.00  0.00     0.183 C 
BRANCH  10  11
ATOM     11  O   UNL     1       6.480  23.292  19.376  1.00  0.00    -0.392 OA
ATOM     12  H   UNL     1       5.921  23.781  18.717  1.00  0.00     0.210 HD
ENDBRANCH  10  11
ENDBRANCH   2  10
TORSDOF 5
ENDMDL
MODEL 7
REMARK VINA RESULT:    -3.949     13.231     15.264
REMARK INTER + INTRA:          -5.376
REMARK INTER:                  -4.732
REMARK INTRA:                  -0.644
REMARK UNBOUND:                -0.388
REMARK SMILES CC(C)=CCCC(C)=CCO
REMARK SMILES IDX 7 1 9 2 8 3 6 4 5 5 4 6 1 7 2 8 3 9 10 10 11 11
REMARK H PARENT 11 12
REMARK Flexibility Score: inf
ROOT
ATOM      1  C   UNL     1      -3.011  14.450  10.645  1.00  0.00    -0.075 C 
ATOM      2  C   UNL     1      -2.689  13.189  10.279  1.00  0.00    -0.000 C 
ATOM      3  C   UNL     1      -3.382  14.789  12.070  1.00  0.00     0.039 C 
ENDROOT
BRANCH   1   4
ATOM      4  C   UNL     1      -2.979  15.550   9.605  1.00  0.00     0.034 C 
BRANCH   4   5
ATOM      5  C   UNL     1      -1.550  16.071   9.405  1.00  0.00     0.032 C 
BRANCH   5   6
ATOM      6  C   UNL     1      -1.315  17.341  10.188  1.00  0.00    -0.028 C 
ATOM      7  C   UNL     1       0.103  16.148  11.861  1.00  0.00     0.039 C 
ATOM      8  C   UNL     1      -0.563  17.383  11.308  1.00  0.00    -0.080 C 
ATOM      9  C   UNL     1      -0.370  18.686  12.040  1.00  0.00     0.039 C 
ENDBRANCH   5   6
ENDBRANCH   4   5
ENDBRANCH   1   4
BRANCH   2  10
ATOM     10  C   UNL     1      -2.679  12.018  11.223  1.00  0.00     0.183 C 
BRANCH  10  11
ATOM     11  O   UNL     1      -1.364  11.588  11.432  1.00  0.00    -0.392 OA
ATOM     12  H   UNL     1      -1.142  10.997  10.665  1.00  0.00     0.210 HD
ENDBRANCH  10  11
ENDBRANCH   2  10
TORSDOF 5
ENDMDL
MODEL 8
REMARK VINA RESULT:    -3.882     12.804     16.250
REMARK INTER + INTRA:          -5.290
REMARK INTER:                  -4.840
REMARK INTRA:                  -0.450
REMARK UNBOUND:                -0.388
REMARK SMILES CC(C)=CCCC(C)=CCO
REMARK SMILES IDX 7 1 9 2 8 3 6 4 5 5 4 6 1 7 2 8 3 9 10 10 11 11
REMARK H PARENT 11 12
REMARK Flexibility Score: inf
ROOT
ATOM      1  C   UNL     1      -1.063  18.284  10.847  1.00  0.00    -0.075 C 
ATOM      2  C   UNL     1      -0.707  17.003  11.088  1.00  0.00    -0.000 C 
ATOM      3  C   UNL     1      -0.653  19.407  11.771  1.00  0.00     0.039 C 
ENDROOT
BRANCH   1   4
ATOM      4  C   UNL     1      -1.875  18.602   9.609  1.00  0.00     0.034 C 
BRANCH   4   5
ATOM      5  C   UNL     1      -1.486  17.679   8.448  1.00  0.00     0.032 C 
BRANCH   5   6
ATOM      6  C   UNL     1      -2.701  17.235   7.669  1.00  0.00    -0.028 C 
ATOM      7  C   UNL     1      -2.621  14.952   8.678  1.00  0.00     0.039 C 
ATOM      8  C   UNL     1      -3.224  15.994   7.769  1.00  0.00    -0.080 C 
ATOM      9  C   UNL     1      -4.439  15.619   6.962  1.00  0.00     0.039 C 
ENDBRANCH   5   6
ENDBRANCH   4   5
ENDBRANCH   1   4
BRANCH   2  10
ATOM     10  C   UNL     1       0.103  16.568  12.279  1.00  0.00     0.183 C 
BRANCH  10  11
ATOM     11  O   UNL     1       0.525  15.245  12.109  1.00  0.00    -0.392 OA
ATOM     12  H   UNL     1       0.281  14.767  12.944  1.00  0.00     0.210 HD
ENDBRANCH  10  11
ENDBRANCH   2  10
TORSDOF 5
ENDMDL
MODEL 9
REMARK VINA RESULT:    -3.729     15.837     18.241
REMARK INTER + INTRA:          -5.098
REMARK INTER:                  -4.792
REMARK INTRA:                  -0.306
REMARK UNBOUND:                -0.388
REMARK SMILES CC(C)=CCCC(C)=CCO
REMARK SMILES IDX 7 1 9 2 8 3 6 4 5 5 4 6 1 7 2 8 3 9 10 10 11 11
REMARK H PARENT 11 12
REMARK Flexibility Score: inf
ROOT
ATOM      1  C   UNL     1      -2.997  24.293   8.281  1.00  0.00    -0.075 C 
ATOM      2  C   UNL     1      -2.861  23.306   7.367  1.00  0.00    -0.000 C 
ATOM      3  C   UNL     1      -4.351  24.686   8.825  1.00  0.00     0.039 C 
ENDROOT
BRANCH   1   4
ATOM      4  C   UNL     1      -1.760  25.006   8.785  1.00  0.00     0.034 C 
BRANCH   4   5
ATOM      5  C   UNL     1      -0.496  24.434   8.133  1.00  0.00     0.032 C 
BRANCH   5   6
ATOM      6  C   UNL     1       0.677  25.372   8.295  1.00  0.00    -0.028 C 
ATOM      7  C   UNL     1       1.729  23.898  10.014  1.00  0.00     0.039 C 
ATOM      8  C   UNL     1       1.694  25.134   9.150  1.00  0.00    -0.080 C 
ATOM      9  C   UNL     1       2.833  26.114   9.261  1.00  0.00     0.039 C 
ENDBRANCH   5   6
ENDBRANCH   4   5
ENDBRANCH   1   4
BRANCH   2  10
ATOM     10  C   UNL     1      -4.014  22.524   6.799  1.00  0.00     0.183 C 
BRANCH  10  11
ATOM     11  O   UNL     1      -4.427  23.096   5.591  1.00  0.00    -0.392 OA
ATOM     12  H   UNL     1      -4.542  24.066   5.771  1.00  0.00     0.210 HD
ENDBRANCH  10  11
ENDBRANCH   2  10
TORSDOF 5
ENDMDL
