MODEL 1
REMARK VINA RESULT:    -1.697      0.000      0.000
REMARK INTER + INTRA:          -2.349
REMARK INTER:                  -2.094
REMARK INTRA:                  -0.254
REMARK UNBOUND:                -0.254
REMARK SMILES CCCCCC(=O)[O-]
REMARK SMILES IDX 4 1 5 2 6 3 7 4 8 5 3 6 2 7 1 8
REMARK H PARENT
REMARK Flexibility Score: inf
ROOT
ATOM      1  C   UNL     1      22.990  28.446  14.534  1.00  0.00     0.006 C 
ENDROOT
BRANCH   1   2
ATOM      2  C   UNL     1      23.841  29.684  14.217  1.00  0.00     0.053 C 
BRANCH   2   3
ATOM      3  C   UNL     1      24.632  29.507  12.958  1.00  0.00     0.041 C 
ATOM      4  O   UNL     1      24.218  30.000  11.875  1.00  0.00    -0.550 OA
ATOM      5  O   UNL     1      25.811  28.772  12.973  1.00  0.00    -0.550 OA
ENDBRANCH   2   3
ENDBRANCH   1   2
BRANCH   1   6
ATOM      6  C   UNL     1      23.646  27.543  15.590  1.00  0.00     0.000 C 
BRANCH   6   7
ATOM      7  C   UNL     1      24.235  26.284  14.946  1.00  0.00    -0.003 C 
ATOM      8  C   UNL     1      23.491  25.921  13.664  1.00  0.00     0.004 C 
ENDBRANCH   6   7
ENDBRANCH   1   6
TORSDOF 4
ENDMDL
MODEL 2
REMARK VINA RESULT:    -1.667     25.925     26.679
REMARK INTER + INTRA:          -2.312
REMARK INTER:                  -2.138
REMARK INTRA:                  -0.174
REMARK UNBOUND:                -0.254
REMARK SMILES CCCCCC(=O)[O-]
REMARK SMILES IDX 4 1 5 2 6 3 7 4 8 5 3 6 2 7 1 8
REMARK H PARENT
REMARK Flexibility Score: inf
ROOT
ATOM      1  C   UNL     1       6.016  12.464  27.234  1.00  0.00     0.006 C 
ENDROOT
BRANCH   1   2
ATOM      2  C   UNL     1       6.089  13.863  26.606  1.00  0.00     0.053 C 
BRANCH   2   3
ATOM      3  C   UNL     1       6.990  14.774  27.381  1.00  0.00     0.041 C 
ATOM      4  O   UNL     1       6.672  15.979  27.559  1.00  0.00    -0.550 OA
ATOM      5  O   UNL     1       8.197  14.301  27.880  1.00  0.00    -0.550 OA
ENDBRANCH   2   3
ENDBRANCH   1   2
BRANCH   1   6
ATOM      6  C   UNL     1       6.263  11.351  26.205  1.00  0.00     0.000 C 
BRANCH   6   7
ATOM      7  C   UNL     1       7.203  10.281  26.769  1.00  0.00    -0.003 C 
ATOM      8  C   UNL     1       7.910  10.774  28.028  1.00  0.00     0.004 C 
ENDBRANCH   6   7
ENDBRANCH   1   6
TORSDOF 4
ENDMDL
MODEL 3
REMARK VINA RESULT:    -1.659     26.178     26.978
REMARK INTER + INTRA:          -2.302
REMARK INTER:                  -2.098
REMARK INTRA:                  -0.204
REMARK UNBOUND:                -0.254
REMARK SMILES CCCCCC(=O)[O-]
REMARK SMILES IDX 4 1 5 2 6 3 7 4 8 5 3 6 2 7 1 8
REMARK H PARENT
REMARK Flexibility Score: inf
ROOT
ATOM      1  C   UNL     1       7.251  11.552  27.440  1.00  0.00     0.006 C 
ENDROOT
BRANCH   1   2
ATOM      2  C   UNL     1       6.042  12.470  27.210  1.00  0.00     0.053 C 
BRANCH   2   3
ATOM      3  C   UNL     1       6.439  13.762  26.566  1.00  0.00     0.041 C 
ATOM      4  O   UNL     1       6.623  13.819  25.321  1.00  0.00    -0.550 OA
ATOM      5  O   UNL     1       6.637  14.896  27.343  1.00  0.00    -0.550 OA
ENDBRANCH   2   3
ENDBRANCH   1   2
BRANCH   1   6
ATOM      6  C   UNL     1       7.055  10.163  26.815  1.00  0.00     0.000 C 
BRANCH   6   7
ATOM      7  C   UNL     1       5.977  10.198  25.727  1.00  0.00    -0.003 C 
ATOM      8  C   UNL     1       6.599  10.197  24.334  1.00  0.00     0.004 C 
ENDBRANCH   6   7
ENDBRANCH   1   6
TORSDOF 4
ENDMDL
MODEL 4
REMARK VINA RESULT:    -1.619      1.417      2.004
REMARK INTER + INTRA:          -2.252
REMARK INTER:                  -2.051
REMARK INTRA:                  -0.201
REMARK UNBOUND:                -0.254
REMARK SMILES CCCCCC(=O)[O-]
REMARK SMILES IDX 4 1 5 2 6 3 7 4 8 5 3 6 2 7 1 8
REMARK H PARENT
REMARK Flexibility Score: inf
ROOT
ATOM      1  C   UNL     1      23.817  28.571  15.339  1.00  0.00     0.006 C 
ENDROOT
BRANCH   1   2
ATOM      2  C   UNL     1      23.871  29.740  14.346  1.00  0.00     0.053 C 
BRANCH   2   3
ATOM      3  C   UNL     1      24.488  29.336  13.043  1.00  0.00     0.041 C 
ATOM      4  O   UNL     1      25.698  28.987  12.997  1.00  0.00    -0.550 OA
ATOM      5  O   UNL     1      23.738  29.374  11.875  1.00  0.00    -0.550 OA
ENDBRANCH   2   3
ENDBRANCH   1   2
BRANCH   1   6
ATOM      6  C   UNL     1      24.738  28.792  16.549  1.00  0.00     0.000 C 
BRANCH   6   7
ATOM      7  C   UNL     1      25.486  27.505  16.911  1.00  0.00    -0.003 C 
ATOM      8  C   UNL     1      25.771  26.664  15.671  1.00  0.00     0.004 C 
ENDBRANCH   6   7
ENDBRANCH   1   6
TORSDOF 4
ENDMDL
MODEL 5
REMARK VINA RESULT:    -1.567     26.195     27.108
REMARK INTER + INTRA:          -2.187
REMARK INTER:                  -2.050
REMARK INTRA:                  -0.138
REMARK UNBOUND:                -0.254
REMARK SMILES CCCCCC(=O)[O-]
REMARK SMILES IDX 4 1 5 2 6 3 7 4 8 5 3 6 2 7 1 8
REMARK H PARENT
REMARK Flexibility Score: inf
ROOT
ATOM      1  C   UNL     1       6.537  11.268  26.837  1.00  0.00     0.006 C 
ENDROOT
BRANCH   1   2
ATOM      2  C   UNL     1       7.514  11.049  28.000  1.00  0.00     0.053 C 
BRANCH   2   3
ATOM      3  C   UNL     1       8.766  10.359  27.552  1.00  0.00     0.041 C 
ATOM      4  O   UNL     1       9.562   9.877  28.401  1.00  0.00    -0.550 OA
ATOM      5  O   UNL     1       9.069  10.274  26.199  1.00  0.00    -0.550 OA
ENDBRANCH   2   3
ENDBRANCH   1   2
BRANCH   1   6
ATOM      6  C   UNL     1       5.875  12.654  26.886  1.00  0.00     0.000 C 
BRANCH   6   7
ATOM      7  C   UNL     1       6.806  13.727  26.312  1.00  0.00    -0.003 C 
ATOM      8  C   UNL     1       6.890  14.937  27.237  1.00  0.00     0.004 C 
ENDBRANCH   6   7
ENDBRANCH   1   6
TORSDOF 4
ENDMDL
MODEL 6
REMARK VINA RESULT:    -1.559      1.488      2.167
REMARK INTER + INTRA:          -2.178
REMARK INTER:                  -1.918
REMARK INTRA:                  -0.261
REMARK UNBOUND:                -0.254
REMARK SMILES CCCCCC(=O)[O-]
REMARK SMILES IDX 4 1 5 2 6 3 7 4 8 5 3 6 2 7 1 8
REMARK H PARENT
REMARK Flexibility Score: inf
ROOT
ATOM      1  C   UNL     1      22.372  28.193  12.281  1.00  0.00     0.006 C 
ENDROOT
BRANCH   1   2
ATOM      2  C   UNL     1      23.594  29.030  11.875  1.00  0.00     0.053 C 
BRANCH   2   3
ATOM      3  C   UNL     1      24.545  29.216  13.017  1.00  0.00     0.041 C 
ATOM      4  O   UNL     1      25.751  28.872  12.899  1.00  0.00    -0.550 OA
ATOM      5  O   UNL     1      24.093  29.738  14.222  1.00  0.00    -0.550 OA
ENDBRANCH   2   3
ENDBRANCH   1   2
BRANCH   1   6
ATOM      6  C   UNL     1      22.725  26.714  12.494  1.00  0.00     0.000 C 
BRANCH   6   7
ATOM      7  C   UNL     1      22.558  26.316  13.963  1.00  0.00    -0.003 C 
ATOM      8  C   UNL     1      23.881  25.850  14.563  1.00  0.00     0.004 C 
ENDBRANCH   6   7
ENDBRANCH   1   6
TORSDOF 4
ENDMDL
MODEL 7
REMARK VINA RESULT:    -1.510     26.058     26.945
REMARK INTER + INTRA:          -2.118
REMARK INTER:                  -1.923
REMARK INTRA:                  -0.194
REMARK UNBOUND:                -0.254
REMARK SMILES CCCCCC(=O)[O-]
REMARK SMILES IDX 4 1 5 2 6 3 7 4 8 5 3 6 2 7 1 8
REMARK H PARENT
REMARK Flexibility Score: inf
ROOT
ATOM      1  C   UNL     1       6.130  10.348  25.588  1.00  0.00     0.006 C 
ENDROOT
BRANCH   1   2
ATOM      2  C   UNL     1       6.926  10.146  24.291  1.00  0.00     0.053 C 
BRANCH   2   3
ATOM      3  C   UNL     1       6.848  11.345  23.398  1.00  0.00     0.041 C 
ATOM      4  O   UNL     1       7.681  11.496  22.465  1.00  0.00    -0.550 OA
ATOM      5  O   UNL     1       5.875  12.313  23.614  1.00  0.00    -0.550 OA
ENDBRANCH   2   3
ENDBRANCH   1   2
BRANCH   1   6
ATOM      6  C   UNL     1       7.023  10.281  26.836  1.00  0.00     0.000 C 
BRANCH   6   7
ATOM      7  C   UNL     1       7.073  11.635  27.550  1.00  0.00    -0.003 C 
ATOM      8  C   UNL     1       5.893  12.514  27.147  1.00  0.00     0.004 C 
ENDBRANCH   6   7
ENDBRANCH   1   6
TORSDOF 4
ENDMDL
MODEL 8
REMARK VINA RESULT:    -1.494      1.727      2.563
REMARK INTER + INTRA:          -2.097
REMARK INTER:                  -1.819
REMARK INTRA:                  -0.278
REMARK UNBOUND:                -0.254
REMARK SMILES CCCCCC(=O)[O-]
REMARK SMILES IDX 4 1 5 2 6 3 7 4 8 5 3 6 2 7 1 8
REMARK H PARENT
REMARK Flexibility Score: inf
ROOT
ATOM      1  C   UNL     1      24.180  28.473  15.224  1.00  0.00     0.006 C 
ENDROOT
BRANCH   1   2
ATOM      2  C   UNL     1      24.999  28.500  13.925  1.00  0.00     0.053 C 
BRANCH   2   3
ATOM      3  C   UNL     1      24.209  29.056  12.781  1.00  0.00     0.041 C 
ATOM      4  O   UNL     1      24.573  30.123  12.219  1.00  0.00    -0.550 OA
ATOM      5  O   UNL     1      23.054  28.414  12.355  1.00  0.00    -0.550 OA
ENDBRANCH   2   3
ENDBRANCH   1   2
BRANCH   1   6
ATOM      6  C   UNL     1      23.782  29.882  15.689  1.00  0.00     0.000 C 
BRANCH   6   7
ATOM      7  C   UNL     1      22.260  30.012  15.805  1.00  0.00    -0.003 C 
ATOM      8  C   UNL     1      21.575  28.663  15.617  1.00  0.00     0.004 C 
ENDBRANCH   6   7
ENDBRANCH   1   6
TORSDOF 4
ENDMDL
MODEL 9
REMARK VINA RESULT:    -0.285     26.035     26.908
REMARK INTER + INTRA:          -0.606
REMARK INTER:                  -0.440
REMARK INTRA:                  -0.165
REMARK UNBOUND:                -0.254
REMARK SMILES CCCCCC(=O)[O-]
REMARK SMILES IDX 4 1 5 2 6 3 7 4 8 5 3 6 2 7 1 8
REMARK H PARENT
REMARK Flexibility Score: inf
ROOT
ATOM      1  C   UNL     1       7.108  11.387  27.563  1.00  0.00     0.006 C 
ENDROOT
BRANCH   1   2
ATOM      2  C   UNL     1       7.010  10.210  26.583  1.00  0.00     0.053 C 
BRANCH   2   3
ATOM      3  C   UNL     1       7.465  10.591  25.208  1.00  0.00     0.041 C 
ATOM      4  O   UNL     1       6.781  10.266  24.201  1.00  0.00    -0.550 OA
ATOM      5  O   UNL     1       8.660  11.277  25.035  1.00  0.00    -0.550 OA
ENDBRANCH   2   3
ENDBRANCH   1   2
BRANCH   1   6
ATOM      6  C   UNL     1       6.103  12.503  27.235  1.00  0.00     0.000 C 
BRANCH   6   7
ATOM      7  C   UNL     1       6.815  13.847  27.053  1.00  0.00    -0.003 C 
ATOM      8  C   UNL     1       5.875  14.894  26.465  1.00  0.00     0.004 C 
ENDBRANCH   6   7
ENDBRANCH   1   6
TORSDOF 4
ENDMDL
