MODEL 1
REMARK VINA RESULT:    -8.144      0.000      0.000
REMARK INTER + INTRA:         -10.404
REMARK INTER:                 -10.049
REMARK INTRA:                  -0.355
REMARK UNBOUND:                -0.355
REMARK SMILES COc1cc(-c2oc3cc(O)cc(O)c3c(=O)c2O)ccc1O
REMARK SMILES IDX 6 1 18 2 16 3 17 4 15 5 13 6 12 7 10 8 9 9 8 10 7 11 5 12
REMARK SMILES IDX 3 13 22 14 4 15 21 16 20 17 2 18 1 19 23 20 19 22 14 24
REMARK SMILES IDX 11 26
REMARK H PARENT 23 21 19 23 14 25 11 27
REMARK Flexibility Score: inf
ROOT
ATOM      1  C   UNL     1      80.799 -26.672  84.732  1.00  0.00     0.180 A 
ATOM      2  C   UNL     1      82.090 -27.053  85.138  1.00  0.00     0.208 A 
ATOM      3  C   UNL     1      82.708 -26.355  86.187  1.00  0.00     0.238 A 
ATOM      4  O   UNL     1      83.841 -26.736  86.582  1.00  0.00    -0.285 OA
ATOM      5  C   UNL     1      82.035 -25.274  86.806  1.00  0.00     0.111 A 
ATOM      6  C   UNL     1      82.582 -24.470  87.851  1.00  0.00     0.134 A 
ATOM      7  C   UNL     1      81.778 -23.511  88.478  1.00  0.00     0.093 A 
ATOM      8  C   UNL     1      80.467 -23.282  88.054  1.00  0.00     0.123 A 
ATOM      9  C   UNL     1      79.944 -24.020  86.995  1.00  0.00     0.094 A 
ATOM     10  C   UNL     1      80.710 -25.009  86.373  1.00  0.00     0.146 A 
ATOM     11  O   UNL     1      80.169 -25.696  85.375  1.00  0.00    -0.452 OA
ENDROOT
BRANCH   1  12
ATOM     12  C   UNL     1      80.093 -27.344  83.617  1.00  0.00     0.025 A 
ATOM     13  C   UNL     1      78.742 -29.217  82.813  1.00  0.00     0.161 A 
ATOM     14  C   UNL     1      78.689 -28.624  81.543  1.00  0.00     0.157 A 
ATOM     15  C   UNL     1      79.441 -28.566  83.849  1.00  0.00     0.062 A 
ATOM     16  C   UNL     1      79.320 -27.396  81.313  1.00  0.00     0.051 A 
ATOM     17  C   UNL     1      80.012 -26.756  82.344  1.00  0.00     0.016 A 
BRANCH  13  18
ATOM     18  O   UNL     1      78.090 -30.445  83.006  1.00  0.00    -0.493 OA
ATOM     19  C   UNL     1      78.623 -31.533  83.755  1.00  0.00     0.278 C 
ENDBRANCH  13  18
BRANCH  14  20
ATOM     20  O   UNL     1      78.000 -29.264  80.513  1.00  0.00    -0.504 OA
ATOM     21  H   UNL     1      78.330 -29.233  79.555  1.00  0.00     0.293 HD
ENDBRANCH  14  20
ENDBRANCH   1  12
BRANCH   2  22
ATOM     22  O   UNL     1      82.727 -28.138  84.527  1.00  0.00    -0.502 OA
ATOM     23  H   UNL     1      82.431 -29.095  84.674  1.00  0.00     0.293 HD
ENDBRANCH   2  22
BRANCH   6  24
ATOM     24  O   UNL     1      83.908 -24.555  88.289  1.00  0.00    -0.507 OA
ATOM     25  H   UNL     1      84.560 -25.273  88.011  1.00  0.00     0.293 HD
ENDBRANCH   6  24
BRANCH   8  26
ATOM     26  O   UNL     1      79.678 -22.314  88.673  1.00  0.00    -0.508 OA
ATOM     27  H   UNL     1      79.217 -22.493  89.557  1.00  0.00     0.293 HD
ENDBRANCH   8  26
TORSDOF 6
ENDMDL
MODEL 2
REMARK VINA RESULT:    -8.038      3.254      5.344
REMARK INTER + INTRA:         -10.273
REMARK INTER:                  -9.920
REMARK INTRA:                  -0.353
REMARK UNBOUND:                -0.355
REMARK SMILES COc1cc(-c2oc3cc(O)cc(O)c3c(=O)c2O)ccc1O
REMARK SMILES IDX 6 1 18 2 16 3 17 4 15 5 13 6 12 7 10 8 9 9 8 10 7 11 5 12
REMARK SMILES IDX 3 13 22 14 4 15 21 16 20 17 2 18 1 19 23 20 19 22 14 24
REMARK SMILES IDX 11 26
REMARK H PARENT 23 21 19 23 14 25 11 27
REMARK Flexibility Score: inf
ROOT
ATOM      1  C   UNL     1      79.102 -25.434  86.530  1.00  0.00     0.180 A 
ATOM      2  C   UNL     1      79.751 -24.418  87.253  1.00  0.00     0.208 A 
ATOM      3  C   UNL     1      81.148 -24.462  87.385  1.00  0.00     0.238 A 
ATOM      4  O   UNL     1      81.728 -23.521  87.986  1.00  0.00    -0.285 OA
ATOM      5  C   UNL     1      81.877 -25.530  86.806  1.00  0.00     0.111 A 
ATOM      6  C   UNL     1      83.290 -25.697  86.911  1.00  0.00     0.134 A 
ATOM      7  C   UNL     1      83.921 -26.718  86.190  1.00  0.00     0.093 A 
ATOM      8  C   UNL     1      83.180 -27.618  85.419  1.00  0.00     0.123 A 
ATOM      9  C   UNL     1      81.795 -27.499  85.358  1.00  0.00     0.094 A 
ATOM     10  C   UNL     1      81.141 -26.469  86.038  1.00  0.00     0.146 A 
ATOM     11  O   UNL     1      79.819 -26.386  85.945  1.00  0.00    -0.452 OA
ENDROOT
BRANCH   1  12
ATOM     12  C   UNL     1      77.630 -25.469  86.368  1.00  0.00     0.025 A 
ATOM     13  C   UNL     1      75.626 -24.689  85.204  1.00  0.00     0.161 A 
ATOM     14  C   UNL     1      74.844 -25.550  85.988  1.00  0.00     0.157 A 
ATOM     15  C   UNL     1      77.022 -24.659  85.395  1.00  0.00     0.062 A 
ATOM     16  C   UNL     1      75.449 -26.374  86.945  1.00  0.00     0.051 A 
ATOM     17  C   UNL     1      76.832 -26.339  87.130  1.00  0.00     0.016 A 
BRANCH  13  18
ATOM     18  O   UNL     1      74.984 -23.885  84.251  1.00  0.00    -0.493 OA
ATOM     19  C   UNL     1      75.335 -22.534  83.966  1.00  0.00     0.278 C 
ENDBRANCH  13  18
BRANCH  14  20
ATOM     20  O   UNL     1      73.462 -25.583  85.805  1.00  0.00    -0.504 OA
ATOM     21  H   UNL     1      73.051 -25.910  84.938  1.00  0.00     0.293 HD
ENDBRANCH  14  20
ENDBRANCH   1  12
BRANCH   2  22
ATOM     22  O   UNL     1      79.014 -23.362  87.797  1.00  0.00    -0.502 OA
ATOM     23  H   UNL     1      78.024 -23.438  87.998  1.00  0.00     0.293 HD
ENDBRANCH   2  22
BRANCH   6  24
ATOM     24  O   UNL     1      84.111 -24.910  87.725  1.00  0.00    -0.507 OA
ATOM     25  H   UNL     1      84.486 -25.200  88.616  1.00  0.00     0.293 HD
ENDBRANCH   6  24
BRANCH   8  26
ATOM     26  O   UNL     1      83.815 -28.641  84.717  1.00  0.00    -0.508 OA
ATOM     27  H   UNL     1      84.247 -29.422  85.194  1.00  0.00     0.293 HD
ENDBRANCH   8  26
TORSDOF 6
ENDMDL
MODEL 3
REMARK VINA RESULT:    -7.812      1.174      2.794
REMARK INTER + INTRA:          -9.994
REMARK INTER:                  -9.625
REMARK INTRA:                  -0.369
REMARK UNBOUND:                -0.355
REMARK SMILES COc1cc(-c2oc3cc(O)cc(O)c3c(=O)c2O)ccc1O
REMARK SMILES IDX 6 1 18 2 16 3 17 4 15 5 13 6 12 7 10 8 9 9 8 10 7 11 5 12
REMARK SMILES IDX 3 13 22 14 4 15 21 16 20 17 2 18 1 19 23 20 19 22 14 24
REMARK SMILES IDX 11 26
REMARK H PARENT 23 21 19 23 14 25 11 27
REMARK Flexibility Score: inf
ROOT
ATOM      1  C   UNL     1      79.948 -26.119  84.540  1.00  0.00     0.180 A 
ATOM      2  C   UNL     1      79.022 -25.327  85.243  1.00  0.00     0.208 A 
ATOM      3  C   UNL     1      79.477 -24.523  86.300  1.00  0.00     0.238 A 
ATOM      4  O   UNL     1      78.652 -23.776  86.888  1.00  0.00    -0.285 OA
ATOM      5  C   UNL     1      80.848 -24.532  86.652  1.00  0.00     0.111 A 
ATOM      6  C   UNL     1      81.412 -23.788  87.731  1.00  0.00     0.134 A 
ATOM      7  C   UNL     1      82.801 -23.771  87.907  1.00  0.00     0.093 A 
ATOM      8  C   UNL     1      83.640 -24.524  87.083  1.00  0.00     0.123 A 
ATOM      9  C   UNL     1      83.094 -25.301  86.064  1.00  0.00     0.094 A 
ATOM     10  C   UNL     1      81.715 -25.310  85.842  1.00  0.00     0.146 A 
ATOM     11  O   UNL     1      81.237 -26.056  84.854  1.00  0.00    -0.452 OA
ENDROOT
BRANCH   1  12
ATOM     12  C   UNL     1      79.541 -27.011  83.431  1.00  0.00     0.025 A 
ATOM     13  C   UNL     1      78.534 -29.111  82.686  1.00  0.00     0.161 A 
ATOM     14  C   UNL     1      78.697 -28.709  81.353  1.00  0.00     0.157 A 
ATOM     15  C   UNL     1      78.953 -28.252  83.722  1.00  0.00     0.062 A 
ATOM     16  C   UNL     1      79.264 -27.463  81.059  1.00  0.00     0.051 A 
ATOM     17  C   UNL     1      79.677 -26.616  82.089  1.00  0.00     0.016 A 
BRANCH  13  18
ATOM     18  O   UNL     1      77.955 -30.363  82.941  1.00  0.00    -0.493 OA
ATOM     19  C   UNL     1      78.587 -31.413  83.667  1.00  0.00     0.278 C 
ENDBRANCH  13  18
BRANCH  14  20
ATOM     20  O   UNL     1      78.286 -29.555  80.324  1.00  0.00    -0.504 OA
ATOM     21  H   UNL     1      78.712 -29.517  79.405  1.00  0.00     0.293 HD
ENDBRANCH  14  20
ENDBRANCH   1  12
BRANCH   2  22
ATOM     22  O   UNL     1      77.676 -25.317  84.863  1.00  0.00    -0.502 OA
ATOM     23  H   UNL     1      77.268 -26.046  84.291  1.00  0.00     0.293 HD
ENDBRANCH   2  22
BRANCH   6  24
ATOM     24  O   UNL     1      80.656 -23.075  88.667  1.00  0.00    -0.507 OA
ATOM     25  H   UNL     1      80.862 -22.138  88.980  1.00  0.00     0.293 HD
ENDBRANCH   6  24
BRANCH   8  26
ATOM     26  O   UNL     1      85.021 -24.514  87.275  1.00  0.00    -0.508 OA
ATOM     27  H   UNL     1      85.627 -25.168  86.796  1.00  0.00     0.293 HD
ENDBRANCH   8  26
TORSDOF 6
ENDMDL
MODEL 4
REMARK VINA RESULT:    -7.782      3.370      4.835
REMARK INTER + INTRA:          -9.957
REMARK INTER:                  -9.590
REMARK INTRA:                  -0.367
REMARK UNBOUND:                -0.355
REMARK SMILES COc1cc(-c2oc3cc(O)cc(O)c3c(=O)c2O)ccc1O
REMARK SMILES IDX 6 1 18 2 16 3 17 4 15 5 13 6 12 7 10 8 9 9 8 10 7 11 5 12
REMARK SMILES IDX 3 13 22 14 4 15 21 16 20 17 2 18 1 19 23 20 19 22 14 24
REMARK SMILES IDX 11 26
REMARK H PARENT 23 21 19 23 14 25 11 27
REMARK Flexibility Score: inf
ROOT
ATOM      1  C   UNL     1      78.985 -26.288  86.132  1.00  0.00     0.180 A 
ATOM      2  C   UNL     1      79.551 -27.213  85.237  1.00  0.00     0.208 A 
ATOM      3  C   UNL     1      80.943 -27.402  85.243  1.00  0.00     0.238 A 
ATOM      4  O   UNL     1      81.438 -28.271  84.479  1.00  0.00    -0.285 OA
ATOM      5  C   UNL     1      81.751 -26.652  86.131  1.00  0.00     0.111 A 
ATOM      6  C   UNL     1      83.175 -26.732  86.195  1.00  0.00     0.134 A 
ATOM      7  C   UNL     1      83.861 -26.041  87.200  1.00  0.00     0.093 A 
ATOM      8  C   UNL     1      83.181 -25.221  88.103  1.00  0.00     0.123 A 
ATOM      9  C   UNL     1      81.798 -25.089  88.012  1.00  0.00     0.094 A 
ATOM     10  C   UNL     1      81.082 -25.794  87.041  1.00  0.00     0.146 A 
ATOM     11  O   UNL     1      79.763 -25.648  86.996  1.00  0.00    -0.452 OA
ENDROOT
BRANCH   1  12
ATOM     12  C   UNL     1      77.529 -26.017  86.167  1.00  0.00     0.025 A 
ATOM     13  C   UNL     1      75.570 -24.936  85.181  1.00  0.00     0.161 A 
ATOM     14  C   UNL     1      74.759 -25.525  86.163  1.00  0.00     0.157 A 
ATOM     15  C   UNL     1      76.956 -25.193  85.185  1.00  0.00     0.062 A 
ATOM     16  C   UNL     1      75.325 -26.363  87.131  1.00  0.00     0.051 A 
ATOM     17  C   UNL     1      76.699 -26.614  87.131  1.00  0.00     0.016 A 
BRANCH  13  18
ATOM     18  O   UNL     1      74.965 -24.108  84.223  1.00  0.00    -0.493 OA
ATOM     19  C   UNL     1      75.299 -22.739  84.013  1.00  0.00     0.278 C 
ENDBRANCH  13  18
BRANCH  14  20
ATOM     20  O   UNL     1      73.388 -25.273  86.164  1.00  0.00    -0.504 OA
ATOM     21  H   UNL     1      72.945 -24.757  86.916  1.00  0.00     0.293 HD
ENDBRANCH  14  20
ENDBRANCH   1  12
BRANCH   2  22
ATOM     22  O   UNL     1      78.732 -27.959  84.384  1.00  0.00    -0.502 OA
ATOM     23  H   UNL     1      78.877 -28.947  84.218  1.00  0.00     0.293 HD
ENDBRANCH   2  22
BRANCH   6  24
ATOM     24  O   UNL     1      83.957 -27.450  85.285  1.00  0.00    -0.507 OA
ATOM     25  H   UNL     1      84.301 -27.086  84.409  1.00  0.00     0.293 HD
ENDBRANCH   6  24
BRANCH   8  26
ATOM     26  O   UNL     1      83.874 -24.524  89.091  1.00  0.00    -0.508 OA
ATOM     27  H   UNL     1      84.459 -25.002  89.766  1.00  0.00     0.293 HD
ENDBRANCH   8  26
TORSDOF 6
ENDMDL
MODEL 5
REMARK VINA RESULT:    -7.510      3.465      5.094
REMARK INTER + INTRA:          -9.622
REMARK INTER:                  -9.284
REMARK INTRA:                  -0.338
REMARK UNBOUND:                -0.355
REMARK SMILES COc1cc(-c2oc3cc(O)cc(O)c3c(=O)c2O)ccc1O
REMARK SMILES IDX 6 1 18 2 16 3 17 4 15 5 13 6 12 7 10 8 9 9 8 10 7 11 5 12
REMARK SMILES IDX 3 13 22 14 4 15 21 16 20 17 2 18 1 19 23 20 19 22 14 24
REMARK SMILES IDX 11 26
REMARK H PARENT 23 21 19 23 14 25 11 27
REMARK Flexibility Score: inf
ROOT
ATOM      1  C   UNL     1      79.033 -25.763  86.368  1.00  0.00     0.180 A 
ATOM      2  C   UNL     1      79.647 -24.730  87.099  1.00  0.00     0.208 A 
ATOM      3  C   UNL     1      81.042 -24.741  87.253  1.00  0.00     0.238 A 
ATOM      4  O   UNL     1      81.591 -23.785  87.861  1.00  0.00    -0.285 OA
ATOM      5  C   UNL     1      81.804 -25.793  86.690  1.00  0.00     0.111 A 
ATOM      6  C   UNL     1      83.220 -25.928  86.818  1.00  0.00     0.134 A 
ATOM      7  C   UNL     1      83.885 -26.936  86.110  1.00  0.00     0.093 A 
ATOM      8  C   UNL     1      83.178 -27.854  85.331  1.00  0.00     0.123 A 
ATOM      9  C   UNL     1      81.791 -27.768  85.247  1.00  0.00     0.094 A 
ATOM     10  C   UNL     1      81.103 -26.751  85.913  1.00  0.00     0.146 A 
ATOM     11  O   UNL     1      79.781 -26.699  85.798  1.00  0.00    -0.452 OA
ENDROOT
BRANCH   1  12
ATOM     12  C   UNL     1      77.565 -25.832  86.184  1.00  0.00     0.025 A 
ATOM     13  C   UNL     1      75.352 -26.311  87.108  1.00  0.00     0.161 A 
ATOM     14  C   UNL     1      74.768 -25.920  85.894  1.00  0.00     0.157 A 
ATOM     15  C   UNL     1      76.754 -26.257  87.248  1.00  0.00     0.062 A 
ATOM     16  C   UNL     1      75.572 -25.476  84.838  1.00  0.00     0.051 A 
ATOM     17  C   UNL     1      76.960 -25.425  84.982  1.00  0.00     0.016 A 
BRANCH  13  18
ATOM     18  O   UNL     1      74.513 -26.743  88.146  1.00  0.00    -0.493 OA
ATOM     19  C   UNL     1      74.964 -27.145  89.435  1.00  0.00     0.278 C 
ENDBRANCH  13  18
BRANCH  14  20
ATOM     20  O   UNL     1      73.382 -25.972  85.749  1.00  0.00    -0.504 OA
ATOM     21  H   UNL     1      72.946 -25.982  84.835  1.00  0.00     0.293 HD
ENDBRANCH  14  20
ENDBRANCH   1  12
BRANCH   2  22
ATOM     22  O   UNL     1      78.877 -23.690  87.628  1.00  0.00    -0.502 OA
ATOM     23  H   UNL     1      78.590 -22.891  87.075  1.00  0.00     0.293 HD
ENDBRANCH   2  22
BRANCH   6  24
ATOM     24  O   UNL     1      84.008 -25.119  87.643  1.00  0.00    -0.507 OA
ATOM     25  H   UNL     1      84.051 -24.113  87.591  1.00  0.00     0.293 HD
ENDBRANCH   6  24
BRANCH   8  26
ATOM     26  O   UNL     1      83.847 -28.864  84.642  1.00  0.00    -0.508 OA
ATOM     27  H   UNL     1      84.801 -29.119  84.869  1.00  0.00     0.293 HD
ENDBRANCH   8  26
TORSDOF 6
ENDMDL
MODEL 6
REMARK VINA RESULT:    -7.499      1.032      2.023
REMARK INTER + INTRA:          -9.607
REMARK INTER:                  -9.334
REMARK INTRA:                  -0.273
REMARK UNBOUND:                -0.355
REMARK SMILES COc1cc(-c2oc3cc(O)cc(O)c3c(=O)c2O)ccc1O
REMARK SMILES IDX 6 1 18 2 16 3 17 4 15 5 13 6 12 7 10 8 9 9 8 10 7 11 5 12
REMARK SMILES IDX 3 13 22 14 4 15 21 16 20 17 2 18 1 19 23 20 19 22 14 24
REMARK SMILES IDX 11 26
REMARK H PARENT 23 21 19 23 14 25 11 27
REMARK Flexibility Score: inf
ROOT
ATOM      1  C   UNL     1      80.427 -26.482  84.677  1.00  0.00     0.180 A 
ATOM      2  C   UNL     1      81.714 -26.930  85.028  1.00  0.00     0.208 A 
ATOM      3  C   UNL     1      82.418 -26.255  86.038  1.00  0.00     0.238 A 
ATOM      4  O   UNL     1      83.546 -26.694  86.384  1.00  0.00    -0.285 OA
ATOM      5  C   UNL     1      81.835 -25.133  86.674  1.00  0.00     0.111 A 
ATOM      6  C   UNL     1      82.474 -24.350  87.682  1.00  0.00     0.134 A 
ATOM      7  C   UNL     1      81.753 -23.342  88.333  1.00  0.00     0.093 A 
ATOM      8  C   UNL     1      80.438 -23.045  87.968  1.00  0.00     0.123 A 
ATOM      9  C   UNL     1      79.826 -23.764  86.945  1.00  0.00     0.094 A 
ATOM     10  C   UNL     1      80.507 -24.800  86.300  1.00  0.00     0.146 A 
ATOM     11  O   UNL     1      79.883 -25.467  85.337  1.00  0.00    -0.452 OA
ENDROOT
BRANCH   1  12
ATOM     12  C   UNL     1      79.634 -27.126  83.606  1.00  0.00     0.025 A 
ATOM     13  C   UNL     1      79.329 -27.629  81.232  1.00  0.00     0.161 A 
ATOM     14  C   UNL     1      78.189 -28.385  81.546  1.00  0.00     0.157 A 
ATOM     15  C   UNL     1      80.051 -27.007  82.270  1.00  0.00     0.062 A 
ATOM     16  C   UNL     1      77.782 -28.522  82.879  1.00  0.00     0.051 A 
ATOM     17  C   UNL     1      78.502 -27.903  83.903  1.00  0.00     0.016 A 
BRANCH  13  18
ATOM     18  O   UNL     1      79.709 -27.521  79.886  1.00  0.00    -0.493 OA
ATOM     19  C   UNL     1      80.610 -26.542  79.378  1.00  0.00     0.278 C 
ENDBRANCH  13  18
BRANCH  14  20
ATOM     20  O   UNL     1      77.469 -29.001  80.523  1.00  0.00    -0.504 OA
ATOM     21  H   UNL     1      77.562 -29.992  80.333  1.00  0.00     0.293 HD
ENDBRANCH  14  20
ENDBRANCH   1  12
BRANCH   2  22
ATOM     22  O   UNL     1      82.261 -28.053  84.402  1.00  0.00    -0.502 OA
ATOM     23  H   UNL     1      81.911 -28.990  84.564  1.00  0.00     0.293 HD
ENDBRANCH   2  22
BRANCH   6  24
ATOM     24  O   UNL     1      83.812 -24.503  88.058  1.00  0.00    -0.507 OA
ATOM     25  H   UNL     1      84.548 -24.822  87.446  1.00  0.00     0.293 HD
ENDBRANCH   6  24
BRANCH   8  26
ATOM     26  O   UNL     1      79.733 -22.030  88.611  1.00  0.00    -0.508 OA
ATOM     27  H   UNL     1      78.800 -21.766  88.321  1.00  0.00     0.293 HD
ENDBRANCH   8  26
TORSDOF 6
ENDMDL
MODEL 7
REMARK VINA RESULT:    -7.447      1.617      3.499
REMARK INTER + INTRA:          -9.544
REMARK INTER:                  -9.511
REMARK INTRA:                  -0.032
REMARK UNBOUND:                -0.355
REMARK SMILES COc1cc(-c2oc3cc(O)cc(O)c3c(=O)c2O)ccc1O
REMARK SMILES IDX 6 1 18 2 16 3 17 4 15 5 13 6 12 7 10 8 9 9 8 10 7 11 5 12
REMARK SMILES IDX 3 13 22 14 4 15 21 16 20 17 2 18 1 19 23 20 19 22 14 24
REMARK SMILES IDX 11 26
REMARK H PARENT 23 21 19 23 14 25 11 27
REMARK Flexibility Score: inf
ROOT
ATOM      1  C   UNL     1      79.336 -26.052  84.628  1.00  0.00     0.180 A 
ATOM      2  C   UNL     1      78.545 -25.175  85.392  1.00  0.00     0.208 A 
ATOM      3  C   UNL     1      79.155 -24.407  86.397  1.00  0.00     0.238 A 
ATOM      4  O   UNL     1      78.452 -23.585  87.039  1.00  0.00    -0.285 OA
ATOM      5  C   UNL     1      80.544 -24.538  86.637  1.00  0.00     0.111 A 
ATOM      6  C   UNL     1      81.260 -23.840  87.656  1.00  0.00     0.134 A 
ATOM      7  C   UNL     1      82.654 -23.948  87.719  1.00  0.00     0.093 A 
ATOM      8  C   UNL     1      83.352 -24.780  86.840  1.00  0.00     0.123 A 
ATOM      9  C   UNL     1      82.657 -25.511  85.881  1.00  0.00     0.094 A 
ATOM     10  C   UNL     1      81.269 -25.397  85.771  1.00  0.00     0.146 A 
ATOM     11  O   UNL     1      80.646 -26.104  84.835  1.00  0.00    -0.452 OA
ENDROOT
BRANCH   1  12
ATOM     12  C   UNL     1      78.761 -26.911  83.568  1.00  0.00     0.025 A 
ATOM     13  C   UNL     1      78.921 -27.868  81.324  1.00  0.00     0.161 A 
ATOM     14  C   UNL     1      77.734 -28.581  81.550  1.00  0.00     0.157 A 
ATOM     15  C   UNL     1      79.433 -27.039  82.342  1.00  0.00     0.062 A 
ATOM     16  C   UNL     1      77.072 -28.471  82.779  1.00  0.00     0.051 A 
ATOM     17  C   UNL     1      77.584 -27.647  83.784  1.00  0.00     0.016 A 
BRANCH  13  18
ATOM     18  O   UNL     1      79.560 -28.011  80.082  1.00  0.00    -0.493 OA
ATOM     19  C   UNL     1      80.452 -27.054  79.520  1.00  0.00     0.278 C 
ENDBRANCH  13  18
BRANCH  14  20
ATOM     20  O   UNL     1      77.222 -29.401  80.546  1.00  0.00    -0.504 OA
ATOM     21  H   UNL     1      76.281 -29.775  80.596  1.00  0.00     0.293 HD
ENDBRANCH  14  20
ENDBRANCH   1  12
BRANCH   2  22
ATOM     22  O   UNL     1      77.179 -25.045  85.122  1.00  0.00    -0.502 OA
ATOM     23  H   UNL     1      76.781 -25.263  84.217  1.00  0.00     0.293 HD
ENDBRANCH   2  22
BRANCH   6  24
ATOM     24  O   UNL     1      80.649 -23.056  88.640  1.00  0.00    -0.507 OA
ATOM     25  H   UNL     1      79.916 -22.385  88.468  1.00  0.00     0.293 HD
ENDBRANCH   6  24
BRANCH   8  26
ATOM     26  O   UNL     1      84.738 -24.894  86.920  1.00  0.00    -0.508 OA
ATOM     27  H   UNL     1      85.263 -25.459  86.263  1.00  0.00     0.293 HD
ENDBRANCH   8  26
TORSDOF 6
ENDMDL
MODEL 8
REMARK VINA RESULT:    -7.389      1.978      2.278
REMARK INTER + INTRA:          -9.472
REMARK INTER:                  -9.600
REMARK INTRA:                   0.128
REMARK UNBOUND:                -0.355
REMARK SMILES COc1cc(-c2oc3cc(O)cc(O)c3c(=O)c2O)ccc1O
REMARK SMILES IDX 6 1 18 2 16 3 17 4 15 5 13 6 12 7 10 8 9 9 8 10 7 11 5 12
REMARK SMILES IDX 3 13 22 14 4 15 21 16 20 17 2 18 1 19 23 20 19 22 14 24
REMARK SMILES IDX 11 26
REMARK H PARENT 23 21 19 23 14 25 11 27
REMARK Flexibility Score: inf
ROOT
ATOM      1  C   UNL     1      79.923 -26.554  85.703  1.00  0.00     0.180 A 
ATOM      2  C   UNL     1      80.971 -27.236  86.346  1.00  0.00     0.208 A 
ATOM      3  C   UNL     1      81.770 -26.543  87.269  1.00  0.00     0.238 A 
ATOM      4  O   UNL     1      82.671 -27.173  87.882  1.00  0.00    -0.285 OA
ATOM      5  C   UNL     1      81.523 -25.172  87.525  1.00  0.00     0.111 A 
ATOM      6  C   UNL     1      82.295 -24.360  88.409  1.00  0.00     0.134 A 
ATOM      7  C   UNL     1      81.881 -23.052  88.684  1.00  0.00     0.093 A 
ATOM      8  C   UNL     1      80.759 -22.505  88.057  1.00  0.00     0.123 A 
ATOM      9  C   UNL     1      80.034 -23.269  87.147  1.00  0.00     0.094 A 
ATOM     10  C   UNL     1      80.402 -24.590  86.879  1.00  0.00     0.146 A 
ATOM     11  O   UNL     1      79.677 -25.287  86.012  1.00  0.00    -0.452 OA
ENDROOT
BRANCH   1  12
ATOM     12  C   UNL     1      79.054 -27.211  84.701  1.00  0.00     0.025 A 
ATOM     13  C   UNL     1      76.872 -27.393  83.610  1.00  0.00     0.161 A 
ATOM     14  C   UNL     1      77.385 -28.391  82.767  1.00  0.00     0.157 A 
ATOM     15  C   UNL     1      77.717 -26.802  84.571  1.00  0.00     0.062 A 
ATOM     16  C   UNL     1      78.723 -28.787  82.880  1.00  0.00     0.051 A 
ATOM     17  C   UNL     1      79.554 -28.198  83.835  1.00  0.00     0.016 A 
BRANCH  13  18
ATOM     18  O   UNL     1      75.529 -27.018  83.461  1.00  0.00    -0.493 OA
ATOM     19  C   UNL     1      74.996 -25.754  83.846  1.00  0.00     0.278 C 
ENDBRANCH  13  18
BRANCH  14  20
ATOM     20  O   UNL     1      76.554 -28.981  81.816  1.00  0.00    -0.504 OA
ATOM     21  H   UNL     1      76.933 -29.490  81.025  1.00  0.00     0.293 HD
ENDBRANCH  14  20
ENDBRANCH   1  12
BRANCH   2  22
ATOM     22  O   UNL     1      81.183 -28.595  86.095  1.00  0.00    -0.502 OA
ATOM     23  H   UNL     1      82.001 -29.088  86.431  1.00  0.00     0.293 HD
ENDBRANCH   2  22
BRANCH   6  24
ATOM     24  O   UNL     1      83.483 -24.780  89.016  1.00  0.00    -0.507 OA
ATOM     25  H   UNL     1      84.292 -24.196  89.162  1.00  0.00     0.293 HD
ENDBRANCH   6  24
BRANCH   8  26
ATOM     26  O   UNL     1      80.363 -21.196  88.325  1.00  0.00    -0.508 OA
ATOM     27  H   UNL     1      79.505 -20.813  87.946  1.00  0.00     0.293 HD
ENDBRANCH   8  26
TORSDOF 6
ENDMDL
MODEL 9
REMARK VINA RESULT:    -7.252      2.742      4.229
REMARK INTER + INTRA:          -9.303
REMARK INTER:                  -9.431
REMARK INTRA:                   0.129
REMARK UNBOUND:                -0.355
REMARK SMILES COc1cc(-c2oc3cc(O)cc(O)c3c(=O)c2O)ccc1O
REMARK SMILES IDX 6 1 18 2 16 3 17 4 15 5 13 6 12 7 10 8 9 9 8 10 7 11 5 12
REMARK SMILES IDX 3 13 22 14 4 15 21 16 20 17 2 18 1 19 23 20 19 22 14 24
REMARK SMILES IDX 11 26
REMARK H PARENT 23 21 19 23 14 25 11 27
REMARK Flexibility Score: inf
ROOT
ATOM      1  C   UNL     1      79.530 -25.663  85.294  1.00  0.00     0.180 A 
ATOM      2  C   UNL     1      80.120 -24.428  85.617  1.00  0.00     0.208 A 
ATOM      3  C   UNL     1      81.479 -24.393  85.969  1.00  0.00     0.238 A 
ATOM      4  O   UNL     1      82.014 -23.278  86.204  1.00  0.00    -0.285 OA
ATOM      5  C   UNL     1      82.227 -25.594  86.009  1.00  0.00     0.111 A 
ATOM      6  C   UNL     1      83.599 -25.682  86.391  1.00  0.00     0.134 A 
ATOM      7  C   UNL     1      84.274 -26.903  86.269  1.00  0.00     0.093 A 
ATOM      8  C   UNL     1      83.607 -28.054  85.841  1.00  0.00     0.123 A 
ATOM      9  C   UNL     1      82.253 -27.991  85.523  1.00  0.00     0.094 A 
ATOM     10  C   UNL     1      81.562 -26.779  85.601  1.00  0.00     0.146 A 
ATOM     11  O   UNL     1      80.275 -26.762  85.278  1.00  0.00    -0.452 OA
ENDROOT
BRANCH   1  12
ATOM     12  C   UNL     1      78.098 -25.783  84.937  1.00  0.00     0.025 A 
ATOM     13  C   UNL     1      76.332 -26.933  83.698  1.00  0.00     0.161 A 
ATOM     14  C   UNL     1      75.379 -26.084  84.280  1.00  0.00     0.157 A 
ATOM     15  C   UNL     1      77.691 -26.781  84.037  1.00  0.00     0.062 A 
ATOM     16  C   UNL     1      75.779 -25.101  85.193  1.00  0.00     0.051 A 
ATOM     17  C   UNL     1      77.127 -24.955  85.526  1.00  0.00     0.016 A 
BRANCH  13  18
ATOM     18  O   UNL     1      75.891 -27.911  82.793  1.00  0.00    -0.493 OA
ATOM     19  C   UNL     1      76.659 -29.041  82.388  1.00  0.00     0.278 C 
ENDBRANCH  13  18
BRANCH  14  20
ATOM     20  O   UNL     1      74.033 -26.229  83.947  1.00  0.00    -0.504 OA
ATOM     21  H   UNL     1      73.422 -25.426  83.852  1.00  0.00     0.293 HD
ENDBRANCH  14  20
ENDBRANCH   1  12
BRANCH   2  22
ATOM     22  O   UNL     1      79.368 -23.251  85.550  1.00  0.00    -0.502 OA
ATOM     23  H   UNL     1      78.357 -23.248  85.615  1.00  0.00     0.293 HD
ENDBRANCH   2  22
BRANCH   6  24
ATOM     24  O   UNL     1      84.332 -24.614  86.917  1.00  0.00    -0.507 OA
ATOM     25  H   UNL     1      84.911 -24.664  87.743  1.00  0.00     0.293 HD
ENDBRANCH   6  24
BRANCH   8  26
ATOM     26  O   UNL     1      84.283 -29.268  85.737  1.00  0.00    -0.508 OA
ATOM     27  H   UNL     1      85.117 -29.364  85.171  1.00  0.00     0.293 HD
ENDBRANCH   8  26
TORSDOF 6
ENDMDL
