MODEL 1
REMARK VINA RESULT:    -3.817      0.000      0.000
REMARK INTER + INTRA:          -4.755
REMARK INTER:                  -5.378
REMARK INTRA:                   0.623
REMARK UNBOUND:                 0.623
REMARK SMILES CC1=CCC(=C(C)C)C(=O)CC(C)=CCC1
REMARK SMILES IDX 12 1 14 2 13 3 15 4 16 5 2 6 1 7 3 8 11 10 9 11 10 12 5 13
REMARK SMILES IDX 6 14 7 15 8 16 4 17
REMARK H PARENT
REMARK Flexibility Score: 60.00
ROOT
ATOM      1  C   UNL     1      16.183  -6.675  16.524  1.00  0.00    -0.070 C 
ATOM      2  C   UNL     1      17.224  -7.521  16.709  1.00  0.00    -0.027 C 
ATOM      3  C   UNL     1      16.505  -5.231  16.231  1.00  0.00     0.039 C 
ENDROOT
BRANCH   2   4
ATOM      4  C   UNL     1      17.137  -9.016  16.906  1.00  0.00     0.032 C 
BRANCH   4   5
ATOM      5  C   UNL     1      16.483  -9.399  18.249  1.00  0.00     0.034 C 
BRANCH   5   6
ATOM      6  C   UNL     1      16.950  -8.510  19.385  1.00  0.00    -0.077 C 
ATOM      7  C   UNL     1      18.394  -8.592  19.811  1.00  0.00     0.039 C 
ATOM      8  C   UNL     1      16.139  -7.662  20.056  1.00  0.00    -0.023 CG0
ATOM      9  G   UNL     1      14.664  -7.465  19.802  1.00  0.00     0.000 G0
ENDBRANCH   5   6
ENDBRANCH   4   5
ENDBRANCH   2   4
BRANCH   1  10
ATOM     10  C   UNL     1      14.728  -7.113  16.528  1.00  0.00     0.111 C 
BRANCH  10  11
ATOM     11  C   UNL     1      13.931  -6.378  17.578  1.00  0.00     0.163 C 
ATOM     12  O   UNL     1      12.825  -5.876  17.239  1.00  0.00    -0.294 OA
BRANCH  11  13
ATOM     13  C   UNL     1      14.441  -6.189  18.971  1.00  0.00    -0.002 C 
ATOM     14  C   UNL     1      14.651  -4.944  19.498  1.00  0.00    -0.069 C 
ATOM     15  C   UNL     1      15.203  -4.762  20.895  1.00  0.00     0.039 C 
ATOM     16  C   UNL     1      14.307  -3.690  18.726  1.00  0.00     0.039 C 
BRANCH  13  17
ATOM     17  C   UNL     1      14.647  -7.440  19.806  1.00  0.00     0.066 CG0
ATOM     18  G   UNL     1      16.122  -7.661  20.043  1.00  0.00     0.000 G0
ENDBRANCH  13  17
ENDBRANCH  11  13
ENDBRANCH  10  11
ENDBRANCH   1  10
TORSDOF 0
ENDMDL
MODEL 2
REMARK VINA RESULT:    -3.716      2.197      3.044
REMARK INTER + INTRA:          -4.613
REMARK INTER:                  -4.996
REMARK INTRA:                   0.382
REMARK UNBOUND:                 0.623
REMARK SMILES CC1=CCC(=C(C)C)C(=O)CC(C)=CCC1
REMARK SMILES IDX 12 1 14 2 13 3 15 4 16 5 2 6 1 7 3 8 11 10 9 11 10 12 5 13
REMARK SMILES IDX 6 14 7 15 8 16 4 17
REMARK H PARENT
REMARK Flexibility Score: 60.00
ROOT
ATOM      1  C   UNL     1      14.185  -6.835  16.748  1.00  0.00    -0.070 C 
ATOM      2  C   UNL     1      13.631  -8.070  16.803  1.00  0.00    -0.027 C 
ATOM      3  C   UNL     1      14.983  -6.486  15.516  1.00  0.00     0.039 C 
ENDROOT
BRANCH   2   4
ATOM      4  C   UNL     1      12.713  -8.589  17.884  1.00  0.00     0.032 C 
BRANCH   4   5
ATOM      5  C   UNL     1      13.482  -9.184  19.079  1.00  0.00     0.034 C 
BRANCH   5   6
ATOM      6  C   UNL     1      12.948  -8.685  20.407  1.00  0.00    -0.077 C 
ATOM      7  C   UNL     1      11.576  -9.137  20.842  1.00  0.00     0.039 C 
ATOM      8  C   UNL     1      13.621  -7.837  21.216  1.00  0.00    -0.023 CG0
ATOM      9  G   UNL     1      14.984  -7.248  20.940  1.00  0.00     0.000 G0
ENDBRANCH   5   6
ENDBRANCH   4   5
ENDBRANCH   2   4
BRANCH   1  10
ATOM     10  C   UNL     1      13.992  -5.774  17.818  1.00  0.00     0.111 C 
BRANCH  10  11
ATOM     11  C   UNL     1      15.114  -5.793  18.827  1.00  0.00     0.163 C 
ATOM     12  O   UNL     1      16.299  -5.788  18.398  1.00  0.00    -0.294 OA
BRANCH  11  13
ATOM     13  C   UNL     1      14.854  -5.870  20.299  1.00  0.00    -0.002 C 
ATOM     14  C   UNL     1      14.451  -4.777  21.016  1.00  0.00    -0.069 C 
ATOM     15  C   UNL     1      14.227  -4.855  22.511  1.00  0.00     0.039 C 
ATOM     16  C   UNL     1      14.175  -3.449  20.348  1.00  0.00     0.039 C 
BRANCH  13  17
ATOM     17  C   UNL     1      14.984  -7.234  20.952  1.00  0.00     0.066 CG0
ATOM     18  G   UNL     1      13.613  -7.816  21.202  1.00  0.00     0.000 G0
ENDBRANCH  13  17
ENDBRANCH  11  13
ENDBRANCH  10  11
ENDBRANCH   1  10
TORSDOF 0
ENDMDL
MODEL 3
REMARK VINA RESULT:    -3.609      1.708      2.332
REMARK INTER + INTRA:          -4.463
REMARK INTER:                  -5.228
REMARK INTRA:                   0.765
REMARK UNBOUND:                 0.623
REMARK SMILES CC1=CCC(=C(C)C)C(=O)CC(C)=CCC1
REMARK SMILES IDX 12 1 14 2 13 3 15 4 16 5 2 6 1 7 3 8 11 10 9 11 10 12 5 13
REMARK SMILES IDX 6 14 7 15 8 16 4 17
REMARK H PARENT
REMARK Flexibility Score: 60.00
ROOT
ATOM      1  C   UNL     1      14.167  -8.155  17.653  1.00  0.00    -0.070 C 
ATOM      2  C   UNL     1      15.007  -9.204  17.824  1.00  0.00    -0.027 C 
ATOM      3  C   UNL     1      12.936  -8.101  18.523  1.00  0.00     0.039 C 
ENDROOT
BRANCH   2   4
ATOM      4  C   UNL     1      16.339  -9.403  17.143  1.00  0.00     0.032 C 
BRANCH   4   5
ATOM      5  C   UNL     1      17.521  -9.371  18.132  1.00  0.00     0.034 C 
BRANCH   5   6
ATOM      6  C   UNL     1      18.328  -8.093  18.015  1.00  0.00    -0.077 C 
ATOM      7  C   UNL     1      19.631  -8.136  17.256  1.00  0.00     0.039 C 
ATOM      8  C   UNL     1      17.960  -6.919  18.575  1.00  0.00    -0.023 CG0
ATOM      9  G   UNL     1      16.716  -6.685  19.398  1.00  0.00     0.000 G0
ENDBRANCH   5   6
ENDBRANCH   4   5
ENDBRANCH   2   4
BRANCH   1  10
ATOM     10  C   UNL     1      14.432  -7.011  16.689  1.00  0.00     0.111 C 
BRANCH  10  11
ATOM     11  C   UNL     1      15.543  -6.116  17.182  1.00  0.00     0.163 C 
ATOM     12  O   UNL     1      16.357  -5.659  16.335  1.00  0.00    -0.294 OA
BRANCH  11  13
ATOM     13  C   UNL     1      15.727  -5.810  18.635  1.00  0.00    -0.002 C 
ATOM     14  C   UNL     1      14.992  -4.844  19.265  1.00  0.00    -0.069 C 
ATOM     15  C   UNL     1      15.212  -4.515  20.726  1.00  0.00     0.039 C 
ATOM     16  C   UNL     1      13.901  -4.084  18.546  1.00  0.00     0.039 C 
BRANCH  13  17
ATOM     17  C   UNL     1      16.716  -6.671  19.401  1.00  0.00     0.066 CG0
ATOM     18  G   UNL     1      17.948  -6.908  18.562  1.00  0.00     0.000 G0
ENDBRANCH  13  17
ENDBRANCH  11  13
ENDBRANCH  10  11
ENDBRANCH   1  10
TORSDOF 0
ENDMDL
MODEL 4
REMARK VINA RESULT:    -3.557      2.113      3.807
REMARK INTER + INTRA:          -4.389
REMARK INTER:                  -4.862
REMARK INTRA:                   0.473
REMARK UNBOUND:                 0.623
REMARK SMILES CC1=CCC(=C(C)C)C(=O)CC(C)=CCC1
REMARK SMILES IDX 12 1 14 2 13 3 15 4 16 5 2 6 1 7 3 8 11 10 9 11 10 12 5 13
REMARK SMILES IDX 6 14 7 15 8 16 4 17
REMARK H PARENT
REMARK Flexibility Score: 60.00
ROOT
ATOM      1  C   UNL     1      14.956  -5.815  16.970  1.00  0.00    -0.070 C 
ATOM      2  C   UNL     1      15.610  -4.786  17.558  1.00  0.00    -0.027 C 
ATOM      3  C   UNL     1      15.456  -6.278  15.624  1.00  0.00     0.039 C 
ENDROOT
BRANCH   2   4
ATOM      4  C   UNL     1      15.350  -4.234  18.940  1.00  0.00     0.032 C 
BRANCH   4   5
ATOM      5  C   UNL     1      15.750  -5.219  20.055  1.00  0.00     0.034 C 
BRANCH   5   6
ATOM      6  C   UNL     1      14.621  -5.456  21.040  1.00  0.00    -0.077 C 
ATOM      7  C   UNL     1      14.039  -4.265  21.760  1.00  0.00     0.039 C 
ATOM      8  C   UNL     1      14.121  -6.677  21.330  1.00  0.00    -0.023 CG0
ATOM      9  G   UNL     1      14.593  -7.986  20.743  1.00  0.00     0.000 G0
ENDBRANCH   5   6
ENDBRANCH   4   5
ENDBRANCH   2   4
BRANCH   1  10
ATOM     10  C   UNL     1      13.802  -6.563  17.617  1.00  0.00     0.111 C 
BRANCH  10  11
ATOM     11  C   UNL     1      14.252  -7.879  18.202  1.00  0.00     0.163 C 
ATOM     12  O   UNL     1      15.026  -8.599  17.516  1.00  0.00    -0.294 OA
BRANCH  11  13
ATOM     13  C   UNL     1      13.764  -8.363  19.531  1.00  0.00    -0.002 C 
ATOM     14  C   UNL     1      12.657  -9.158  19.645  1.00  0.00    -0.069 C 
ATOM     15  C   UNL     1      12.149  -9.611  20.996  1.00  0.00     0.039 C 
ATOM     16  C   UNL     1      11.909  -9.653  18.428  1.00  0.00     0.039 C 
BRANCH  13  17
ATOM     17  C   UNL     1      14.596  -7.994  20.746  1.00  0.00     0.066 CG0
ATOM     18  G   UNL     1      14.107  -6.687  21.324  1.00  0.00     0.000 G0
ENDBRANCH  13  17
ENDBRANCH  11  13
ENDBRANCH  10  11
ENDBRANCH   1  10
TORSDOF 0
ENDMDL
MODEL 5
REMARK VINA RESULT:    -3.547      2.117      3.453
REMARK INTER + INTRA:          -4.375
REMARK INTER:                  -5.232
REMARK INTRA:                   0.857
REMARK UNBOUND:                 0.623
REMARK SMILES CC1=CCC(=C(C)C)C(=O)CC(C)=CCC1
REMARK SMILES IDX 12 1 14 2 13 3 15 4 16 5 2 6 1 7 3 8 11 10 9 11 10 12 5 13
REMARK SMILES IDX 6 14 7 15 8 16 4 17
REMARK H PARENT
REMARK Flexibility Score: 60.00
ROOT
ATOM      1  C   UNL     1      13.557  -7.974  17.481  1.00  0.00    -0.070 C 
ATOM      2  C   UNL     1      13.851  -6.864  16.764  1.00  0.00    -0.027 C 
ATOM      3  C   UNL     1      12.164  -8.084  18.051  1.00  0.00     0.039 C 
ENDROOT
BRANCH   2   4
ATOM      4  C   UNL     1      15.138  -6.596  16.020  1.00  0.00     0.032 C 
BRANCH   4   5
ATOM      5  C   UNL     1      16.122  -5.732  16.832  1.00  0.00     0.034 C 
BRANCH   5   6
ATOM      6  C   UNL     1      17.163  -6.571  17.547  1.00  0.00    -0.077 C 
ATOM      7  C   UNL     1      18.369  -7.033  16.766  1.00  0.00     0.039 C 
ATOM      8  C   UNL     1      17.063  -6.950  18.840  1.00  0.00    -0.023 CG0
ATOM      9  G   UNL     1      15.921  -6.619  19.770  1.00  0.00     0.000 G0
ENDBRANCH   5   6
ENDBRANCH   4   5
ENDBRANCH   2   4
BRANCH   1  10
ATOM     10  C   UNL     1      14.522  -9.130  17.684  1.00  0.00     0.111 C 
BRANCH  10  11
ATOM     11  C   UNL     1      15.269  -9.007  18.990  1.00  0.00     0.163 C 
ATOM     12  O   UNL     1      16.080  -9.921  19.298  1.00  0.00    -0.294 OA
BRANCH  11  13
ATOM     13  C   UNL     1      15.031  -7.870  19.933  1.00  0.00    -0.002 C 
ATOM     14  C   UNL     1      14.122  -7.959  20.951  1.00  0.00    -0.069 C 
ATOM     15  C   UNL     1      13.860  -6.792  21.878  1.00  0.00     0.039 C 
ATOM     16  C   UNL     1      13.360  -9.237  21.224  1.00  0.00     0.039 C 
BRANCH  13  17
ATOM     17  C   UNL     1      15.897  -6.636  19.760  1.00  0.00     0.066 CG0
ATOM     18  G   UNL     1      17.055  -6.948  18.841  1.00  0.00     0.000 G0
ENDBRANCH  13  17
ENDBRANCH  11  13
ENDBRANCH  10  11
ENDBRANCH   1  10
TORSDOF 0
ENDMDL
MODEL 6
REMARK VINA RESULT:    -3.524      2.007      4.212
REMARK INTER + INTRA:          -4.343
REMARK INTER:                  -5.291
REMARK INTRA:                   0.948
REMARK UNBOUND:                 0.623
REMARK SMILES CC1=CCC(=C(C)C)C(=O)CC(C)=CCC1
REMARK SMILES IDX 12 1 14 2 13 3 15 4 16 5 2 6 1 7 3 8 11 10 9 11 10 12 5 13
REMARK SMILES IDX 6 14 7 15 8 16 4 17
REMARK H PARENT
REMARK Flexibility Score: 60.00
ROOT
ATOM      1  C   UNL     1      14.972  -5.463  17.941  1.00  0.00    -0.070 C 
ATOM      2  C   UNL     1      13.818  -6.108  17.647  1.00  0.00    -0.027 C 
ATOM      3  C   UNL     1      14.897  -4.311  18.913  1.00  0.00     0.039 C 
ENDROOT
BRANCH   2   4
ATOM      4  C   UNL     1      13.678  -7.343  16.790  1.00  0.00     0.032 C 
BRANCH   4   5
ATOM      5  C   UNL     1      13.124  -8.548  17.574  1.00  0.00     0.034 C 
BRANCH   5   6
ATOM      6  C   UNL     1      13.956  -8.861  18.803  1.00  0.00    -0.077 C 
ATOM      7  C   UNL     1      13.316  -8.699  20.159  1.00  0.00     0.039 C 
ATOM      8  C   UNL     1      15.248  -9.253  18.755  1.00  0.00    -0.023 CG0
ATOM      9  G   UNL     1      16.069  -9.437  17.501  1.00  0.00     0.000 G0
ENDBRANCH   5   6
ENDBRANCH   4   5
ENDBRANCH   2   4
BRANCH   1  10
ATOM     10  C   UNL     1      16.331  -5.876  17.402  1.00  0.00     0.111 C 
BRANCH  10  11
ATOM     11  C   UNL     1      16.882  -7.070  18.141  1.00  0.00     0.163 C 
ATOM     12  O   UNL     1      17.150  -6.938  19.366  1.00  0.00    -0.294 OA
BRANCH  11  13
ATOM     13  C   UNL     1      17.162  -8.368  17.451  1.00  0.00    -0.002 C 
ATOM     14  C   UNL     1      18.365  -8.619  16.852  1.00  0.00    -0.069 C 
ATOM     15  C   UNL     1      18.626  -9.920  16.123  1.00  0.00     0.039 C 
ATOM     16  C   UNL     1      19.505  -7.627  16.917  1.00  0.00     0.039 C 
BRANCH  13  17
ATOM     17  C   UNL     1      16.076  -9.428  17.509  1.00  0.00     0.066 CG0
ATOM     18  G   UNL     1      15.249  -9.247  18.760  1.00  0.00     0.000 G0
ENDBRANCH  13  17
ENDBRANCH  11  13
ENDBRANCH  10  11
ENDBRANCH   1  10
TORSDOF 0
ENDMDL
MODEL 7
REMARK VINA RESULT:    -3.319      1.985      3.075
REMARK INTER + INTRA:          -4.055
REMARK INTER:                  -5.091
REMARK INTRA:                   1.036
REMARK UNBOUND:                 0.623
REMARK SMILES CC1=CCC(=C(C)C)C(=O)CC(C)=CCC1
REMARK SMILES IDX 12 1 14 2 13 3 15 4 16 5 2 6 1 7 3 8 11 10 9 11 10 12 5 13
REMARK SMILES IDX 6 14 7 15 8 16 4 17
REMARK H PARENT
REMARK Flexibility Score: 60.00
ROOT
ATOM      1  C   UNL     1      16.561  -6.247  16.984  1.00  0.00    -0.070 C 
ATOM      2  C   UNL     1      17.763  -6.868  17.031  1.00  0.00    -0.027 C 
ATOM      3  C   UNL     1      15.967  -5.985  15.622  1.00  0.00     0.039 C 
ENDROOT
BRANCH   2   4
ATOM      4  C   UNL     1      18.487  -7.321  18.277  1.00  0.00     0.032 C 
BRANCH   4   5
ATOM      5  C   UNL     1      18.314  -8.829  18.546  1.00  0.00     0.034 C 
BRANCH   5   6
ATOM      6  C   UNL     1      17.590  -9.532  17.415  1.00  0.00    -0.077 C 
ATOM      7  C   UNL     1      18.362  -9.850  16.159  1.00  0.00     0.039 C 
ATOM      8  C   UNL     1      16.282  -9.869  17.456  1.00  0.00    -0.023 CG0
ATOM      9  G   UNL     1      15.337  -9.604  18.604  1.00  0.00     0.000 G0
ENDBRANCH   5   6
ENDBRANCH   4   5
ENDBRANCH   2   4
BRANCH   1  10
ATOM     10  C   UNL     1      15.758  -5.867  18.216  1.00  0.00     0.111 C 
BRANCH  10  11
ATOM     11  C   UNL     1      15.407  -7.077  19.046  1.00  0.00     0.163 C 
ATOM     12  O   UNL     1      15.792  -7.106  20.246  1.00  0.00    -0.294 OA
BRANCH  11  13
ATOM     13  C   UNL     1      14.673  -8.246  18.469  1.00  0.00    -0.002 C 
ATOM     14  C   UNL     1      13.501  -8.091  17.782  1.00  0.00    -0.069 C 
ATOM     15  C   UNL     1      12.744  -9.282  17.234  1.00  0.00     0.039 C 
ATOM     16  C   UNL     1      12.921  -6.722  17.503  1.00  0.00     0.039 C 
BRANCH  13  17
ATOM     17  C   UNL     1      15.323  -9.610  18.615  1.00  0.00     0.066 CG0
ATOM     18  G   UNL     1      16.277  -9.848  17.469  1.00  0.00     0.000 G0
ENDBRANCH  13  17
ENDBRANCH  11  13
ENDBRANCH  10  11
ENDBRANCH   1  10
TORSDOF 0
ENDMDL
MODEL 8
REMARK VINA RESULT:    -3.303      1.929      3.962
REMARK INTER + INTRA:          -4.032
REMARK INTER:                  -4.923
REMARK INTRA:                   0.892
REMARK UNBOUND:                 0.623
REMARK SMILES CC1=CCC(=C(C)C)C(=O)CC(C)=CCC1
REMARK SMILES IDX 12 1 14 2 13 3 15 4 16 5 2 6 1 7 3 8 11 10 9 11 10 12 5 13
REMARK SMILES IDX 6 14 7 15 8 16 4 17
REMARK H PARENT
REMARK Flexibility Score: 60.00
ROOT
ATOM      1  C   UNL     1      15.169  -5.126  18.229  1.00  0.00    -0.070 C 
ATOM      2  C   UNL     1      13.852  -5.444  18.240  1.00  0.00    -0.027 C 
ATOM      3  C   UNL     1      15.699  -4.318  19.387  1.00  0.00     0.039 C 
ENDROOT
BRANCH   2   4
ATOM      4  C   UNL     1      13.138  -6.328  17.246  1.00  0.00     0.032 C 
BRANCH   4   5
ATOM      5  C   UNL     1      12.440  -7.528  17.915  1.00  0.00     0.034 C 
BRANCH   5   6
ATOM      6  C   UNL     1      13.117  -8.842  17.580  1.00  0.00    -0.077 C 
ATOM      7  C   UNL     1      12.404  -9.800  16.658  1.00  0.00     0.039 C 
ATOM      8  C   UNL     1      14.316  -9.218  18.079  1.00  0.00    -0.023 CG0
ATOM      9  G   UNL     1      15.162  -8.417  19.039  1.00  0.00     0.000 G0
ENDBRANCH   5   6
ENDBRANCH   4   5
ENDBRANCH   2   4
BRANCH   1  10
ATOM     10  C   UNL     1      16.141  -5.593  17.158  1.00  0.00     0.111 C 
BRANCH  10  11
ATOM     11  C   UNL     1      16.233  -7.098  17.110  1.00  0.00     0.163 C 
ATOM     12  O   UNL     1      16.099  -7.666  15.993  1.00  0.00    -0.294 OA
BRANCH  11  13
ATOM     13  C   UNL     1      16.423  -7.919  18.347  1.00  0.00    -0.002 C 
ATOM     14  C   UNL     1      17.665  -8.160  18.866  1.00  0.00    -0.069 C 
ATOM     15  C   UNL     1      17.851  -9.023  20.095  1.00  0.00     0.039 C 
ATOM     16  C   UNL     1      18.909  -7.547  18.263  1.00  0.00     0.039 C 
BRANCH  13  17
ATOM     17  C   UNL     1      15.170  -8.415  19.045  1.00  0.00     0.066 CG0
ATOM     18  G   UNL     1      14.330  -9.218  18.081  1.00  0.00     0.000 G0
ENDBRANCH  13  17
ENDBRANCH  11  13
ENDBRANCH  10  11
ENDBRANCH   1  10
TORSDOF 0
ENDMDL
MODEL 9
REMARK VINA RESULT:    -3.252      1.506      2.377
REMARK INTER + INTRA:          -3.960
REMARK INTER:                  -4.549
REMARK INTRA:                   0.590
REMARK UNBOUND:                 0.623
REMARK SMILES CC1=CCC(=C(C)C)C(=O)CC(C)=CCC1
REMARK SMILES IDX 12 1 14 2 13 3 15 4 16 5 2 6 1 7 3 8 11 10 9 11 10 12 5 13
REMARK SMILES IDX 6 14 7 15 8 16 4 17
REMARK H PARENT
REMARK Flexibility Score: 60.00
ROOT
ATOM      1  C   UNL     1      16.137  -6.195  16.255  1.00  0.00    -0.070 C 
ATOM      2  C   UNL     1      17.356  -6.434  16.795  1.00  0.00    -0.027 C 
ATOM      3  C   UNL     1      15.972  -4.935  15.441  1.00  0.00     0.039 C 
ENDROOT
BRANCH   2   4
ATOM      4  C   UNL     1      17.771  -7.674  17.550  1.00  0.00     0.032 C 
BRANCH   4   5
ATOM      5  C   UNL     1      17.739  -7.475  19.078  1.00  0.00     0.034 C 
BRANCH   5   6
ATOM      6  C   UNL     1      17.014  -8.604  19.786  1.00  0.00    -0.077 C 
ATOM      7  C   UNL     1      17.776  -9.874  20.073  1.00  0.00     0.039 C 
ATOM      8  C   UNL     1      15.715  -8.548  20.154  1.00  0.00    -0.023 CG0
ATOM      9  G   UNL     1      14.782  -7.383  19.922  1.00  0.00     0.000 G0
ENDBRANCH   5   6
ENDBRANCH   4   5
ENDBRANCH   2   4
BRANCH   1  10
ATOM     10  C   UNL     1      14.961  -7.150  16.368  1.00  0.00     0.111 C 
BRANCH  10  11
ATOM     11  C   UNL     1      14.057  -6.783  17.519  1.00  0.00     0.163 C 
ATOM     12  O   UNL     1      13.468  -5.669  17.478  1.00  0.00    -0.294 OA
BRANCH  11  13
ATOM     13  C   UNL     1      13.889  -7.673  18.710  1.00  0.00    -0.002 C 
ATOM     14  C   UNL     1      13.032  -8.739  18.696  1.00  0.00    -0.069 C 
ATOM     15  C   UNL     1      12.840  -9.611  19.917  1.00  0.00     0.039 C 
ATOM     16  C   UNL     1      12.262  -9.120  17.452  1.00  0.00     0.039 C 
BRANCH  13  17
ATOM     17  C   UNL     1      14.769  -7.388  19.913  1.00  0.00     0.066 CG0
ATOM     18  G   UNL     1      15.700  -8.552  20.156  1.00  0.00     0.000 G0
ENDBRANCH  13  17
ENDBRANCH  11  13
ENDBRANCH  10  11
ENDBRANCH   1  10
TORSDOF 0
ENDMDL
