MODEL 1
REMARK VINA RESULT:    -5.520      0.000      0.000
REMARK INTER + INTRA:         -10.387
REMARK INTER:                  -9.715
REMARK INTRA:                  -0.672
REMARK UNBOUND:                -0.672
REMARK SMILES CCCCCCC=CCCCCCCCC(=O)[O-]
REMARK SMILES IDX 10 1 11 2 12 3 13 4 14 5 15 6 16 7 17 8 18 9 9 10 8 11 7 12
REMARK SMILES IDX 6 13 5 14 4 15 3 16 2 17 1 18
REMARK H PARENT
REMARK Flexibility Score: inf
ROOT
ATOM      1  C   UNL     1       9.820 -21.736  20.752  1.00  0.00     0.004 C 
ENDROOT
BRANCH   1   2
ATOM      2  C   UNL     1      11.014 -22.702  20.840  1.00  0.00     0.000 C 
BRANCH   2   3
ATOM      3  C   UNL     1      10.809 -23.817  21.881  1.00  0.00     0.000 C 
BRANCH   3   4
ATOM      4  C   UNL     1      12.081 -24.252  22.631  1.00  0.00     0.000 C 
BRANCH   4   5
ATOM      5  C   UNL     1      11.853 -25.466  23.544  1.00  0.00     0.006 C 
BRANCH   5   6
ATOM      6  C   UNL     1      11.902 -25.060  25.020  1.00  0.00     0.053 C 
BRANCH   6   7
ATOM      7  C   UNL     1      12.885 -25.908  25.764  1.00  0.00     0.041 C 
ATOM      8  O   UNL     1      12.559 -26.448  26.853  1.00  0.00    -0.550 OA
ATOM      9  O   UNL     1      14.146 -26.142  25.230  1.00  0.00    -0.550 OA
ENDBRANCH   6   7
ENDBRANCH   5   6
ENDBRANCH   4   5
ENDBRANCH   3   4
ENDBRANCH   2   3
ENDBRANCH   1   2
BRANCH   1  10
ATOM     10  C   UNL     1       8.477 -22.477  20.762  1.00  0.00     0.027 C 
BRANCH  10  11
ATOM     11  C   UNL     1       7.317 -21.521  20.830  1.00  0.00    -0.031 C 
ATOM     12  C   UNL     1       7.489 -20.195  20.710  1.00  0.00    -0.031 C 
BRANCH  12  13
ATOM     13  C   UNL     1       6.328 -19.238  20.766  1.00  0.00     0.027 C 
BRANCH  13  14
ATOM     14  C   UNL     1       6.792 -17.785  20.611  1.00  0.00     0.004 C 
BRANCH  14  15
ATOM     15  C   UNL     1       6.849 -17.050  21.961  1.00  0.00     0.000 C 
BRANCH  15  16
ATOM     16  C   UNL     1       6.186 -15.664  21.909  1.00  0.00    -0.000 C 
BRANCH  16  17
ATOM     17  C   UNL     1       4.951 -15.634  20.997  1.00  0.00    -0.003 C 
ATOM     18  C   UNL     1       3.680 -15.940  21.785  1.00  0.00     0.004 C 
ENDBRANCH  16  17
ENDBRANCH  15  16
ENDBRANCH  14  15
ENDBRANCH  13  14
ENDBRANCH  12  13
ENDBRANCH  10  11
ENDBRANCH   1  10
TORSDOF 13
ENDMDL
MODEL 2
REMARK VINA RESULT:    -5.427      9.026     10.337
REMARK INTER + INTRA:         -10.223
REMARK INTER:                  -9.544
REMARK INTRA:                  -0.679
REMARK UNBOUND:                -0.672
REMARK SMILES CCCCCCC=CCCCCCCCC(=O)[O-]
REMARK SMILES IDX 10 1 11 2 12 3 13 4 14 5 15 6 16 7 17 8 18 9 9 10 8 11 7 12
REMARK SMILES IDX 6 13 5 14 4 15 3 16 2 17 1 18
REMARK H PARENT
REMARK Flexibility Score: inf
ROOT
ATOM      1  C   UNL     1      10.671 -15.906  32.093  1.00  0.00     0.004 C 
ENDROOT
BRANCH   1   2
ATOM      2  C   UNL     1      10.176 -17.216  32.728  1.00  0.00     0.000 C 
BRANCH   2   3
ATOM      3  C   UNL     1      10.919 -18.458  32.201  1.00  0.00     0.000 C 
BRANCH   3   4
ATOM      4  C   UNL     1      10.017 -19.557  31.612  1.00  0.00     0.000 C 
BRANCH   4   5
ATOM      5  C   UNL     1      10.163 -20.904  32.337  1.00  0.00     0.006 C 
BRANCH   5   6
ATOM      6  C   UNL     1       9.484 -22.028  31.549  1.00  0.00     0.053 C 
BRANCH   6   7
ATOM      7  C   UNL     1       9.510 -23.304  32.328  1.00  0.00     0.041 C 
ATOM      8  O   UNL     1      10.211 -24.273  31.936  1.00  0.00    -0.550 OA
ATOM      9  O   UNL     1       8.796 -23.408  33.516  1.00  0.00    -0.550 OA
ENDBRANCH   6   7
ENDBRANCH   5   6
ENDBRANCH   4   5
ENDBRANCH   3   4
ENDBRANCH   2   3
ENDBRANCH   1   2
BRANCH   1  10
ATOM     10  C   UNL     1      12.164 -15.960  31.748  1.00  0.00     0.027 C 
BRANCH  10  11
ATOM     11  C   UNL     1      12.412 -15.610  30.306  1.00  0.00    -0.031 C 
ATOM     12  C   UNL     1      11.636 -14.734  29.650  1.00  0.00    -0.031 C 
BRANCH  12  13
ATOM     13  C   UNL     1      11.891 -14.374  28.210  1.00  0.00     0.027 C 
BRANCH  13  14
ATOM     14  C   UNL     1      12.928 -13.250  28.088  1.00  0.00     0.004 C 
BRANCH  14  15
ATOM     15  C   UNL     1      12.664 -12.352  26.868  1.00  0.00     0.000 C 
BRANCH  15  16
ATOM     16  C   UNL     1      11.495 -12.854  26.006  1.00  0.00    -0.000 C 
BRANCH  16  17
ATOM     17  C   UNL     1      11.148 -11.892  24.861  1.00  0.00    -0.003 C 
ATOM     18  C   UNL     1      12.366 -11.069  24.448  1.00  0.00     0.004 C 
ENDBRANCH  16  17
ENDBRANCH  15  16
ENDBRANCH  14  15
ENDBRANCH  13  14
ENDBRANCH  12  13
ENDBRANCH  10  11
ENDBRANCH   1  10
TORSDOF 13
ENDMDL
MODEL 3
REMARK VINA RESULT:    -5.379      9.792     12.369
REMARK INTER + INTRA:         -10.140
REMARK INTER:                  -9.065
REMARK INTRA:                  -1.075
REMARK UNBOUND:                -0.672
REMARK SMILES CCCCCCC=CCCCCCCCC(=O)[O-]
REMARK SMILES IDX 10 1 11 2 12 3 13 4 14 5 15 6 16 7 17 8 18 9 9 10 8 11 7 12
REMARK SMILES IDX 6 13 5 14 4 15 3 16 2 17 1 18
REMARK H PARENT
REMARK Flexibility Score: inf
ROOT
ATOM      1  C   UNL     1      10.528 -15.630  32.108  1.00  0.00     0.004 C 
ENDROOT
BRANCH   1   2
ATOM      2  C   UNL     1      12.003 -16.026  31.926  1.00  0.00     0.000 C 
BRANCH   2   3
ATOM      3  C   UNL     1      12.633 -15.430  30.654  1.00  0.00     0.000 C 
BRANCH   3   4
ATOM      4  C   UNL     1      11.644 -14.745  29.695  1.00  0.00     0.000 C 
BRANCH   4   5
ATOM      5  C   UNL     1      12.205 -14.579  28.274  1.00  0.00     0.006 C 
BRANCH   5   6
ATOM      6  C   UNL     1      11.707 -13.278  27.637  1.00  0.00     0.053 C 
BRANCH   6   7
ATOM      7  C   UNL     1      11.701 -13.394  26.146  1.00  0.00     0.041 C 
ATOM      8  O   UNL     1      12.343 -14.317  25.578  1.00  0.00    -0.550 OA
ATOM      9  O   UNL     1      10.948 -12.510  25.383  1.00  0.00    -0.550 OA
ENDBRANCH   6   7
ENDBRANCH   5   6
ENDBRANCH   4   5
ENDBRANCH   3   4
ENDBRANCH   2   3
ENDBRANCH   1   2
BRANCH   1  10
ATOM     10  C   UNL     1       9.726 -16.714  32.838  1.00  0.00     0.027 C 
BRANCH  10  11
ATOM     11  C   UNL     1      10.297 -18.084  32.595  1.00  0.00    -0.031 C 
ATOM     12  C   UNL     1       9.952 -19.136  33.354  1.00  0.00    -0.031 C 
BRANCH  12  13
ATOM     13  C   UNL     1      10.514 -20.510  33.104  1.00  0.00     0.027 C 
BRANCH  13  14
ATOM     14  C   UNL     1       9.443 -21.594  33.285  1.00  0.00     0.004 C 
BRANCH  14  15
ATOM     15  C   UNL     1       8.713 -21.909  31.968  1.00  0.00     0.000 C 
BRANCH  15  16
ATOM     16  C   UNL     1       9.635 -21.809  30.742  1.00  0.00    -0.000 C 
BRANCH  16  17
ATOM     17  C   UNL     1       9.055 -20.914  29.638  1.00  0.00    -0.003 C 
ATOM     18  C   UNL     1       7.594 -20.574  29.917  1.00  0.00     0.004 C 
ENDBRANCH  16  17
ENDBRANCH  15  16
ENDBRANCH  14  15
ENDBRANCH  13  14
ENDBRANCH  12  13
ENDBRANCH  10  11
ENDBRANCH   1  10
TORSDOF 13
ENDMDL
MODEL 4
REMARK VINA RESULT:    -5.356      9.668     11.792
REMARK INTER + INTRA:         -10.098
REMARK INTER:                  -8.427
REMARK INTRA:                  -1.671
REMARK UNBOUND:                -0.672
REMARK SMILES CCCCCCC=CCCCCCCCC(=O)[O-]
REMARK SMILES IDX 10 1 11 2 12 3 13 4 14 5 15 6 16 7 17 8 18 9 9 10 8 11 7 12
REMARK SMILES IDX 6 13 5 14 4 15 3 16 2 17 1 18
REMARK H PARENT
REMARK Flexibility Score: inf
ROOT
ATOM      1  C   UNL     1      11.472 -13.233  26.800  1.00  0.00     0.004 C 
ENDROOT
BRANCH   1   2
ATOM      2  C   UNL     1      11.626 -12.372  25.535  1.00  0.00     0.000 C 
BRANCH   2   3
ATOM      3  C   UNL     1      13.064 -11.863  25.325  1.00  0.00     0.000 C 
BRANCH   3   4
ATOM      4  C   UNL     1      13.658 -12.140  23.933  1.00  0.00     0.000 C 
BRANCH   4   5
ATOM      5  C   UNL     1      14.797 -13.170  23.961  1.00  0.00     0.006 C 
BRANCH   5   6
ATOM      6  C   UNL     1      14.931 -13.801  25.350  1.00  0.00     0.053 C 
BRANCH   6   7
ATOM      7  C   UNL     1      14.516 -15.238  25.315  1.00  0.00     0.041 C 
ATOM      8  O   UNL     1      15.274 -16.129  25.782  1.00  0.00    -0.550 OA
ATOM      9  O   UNL     1      13.270 -15.589  24.810  1.00  0.00    -0.550 OA
ENDBRANCH   6   7
ENDBRANCH   5   6
ENDBRANCH   4   5
ENDBRANCH   3   4
ENDBRANCH   2   3
ENDBRANCH   1   2
BRANCH   1  10
ATOM     10  C   UNL     1      12.145 -12.592  28.019  1.00  0.00     0.027 C 
BRANCH  10  11
ATOM     11  C   UNL     1      12.995 -13.583  28.768  1.00  0.00    -0.031 C 
ATOM     12  C   UNL     1      12.861 -14.906  28.584  1.00  0.00    -0.031 C 
BRANCH  12  13
ATOM     13  C   UNL     1      13.719 -15.898  29.324  1.00  0.00     0.027 C 
BRANCH  13  14
ATOM     14  C   UNL     1      13.814 -15.554  30.816  1.00  0.00     0.004 C 
BRANCH  14  15
ATOM     15  C   UNL     1      13.351 -16.719  31.708  1.00  0.00     0.000 C 
BRANCH  15  16
ATOM     16  C   UNL     1      11.858 -17.039  31.534  1.00  0.00    -0.000 C 
BRANCH  16  17
ATOM     17  C   UNL     1      10.962 -15.807  31.731  1.00  0.00    -0.003 C 
ATOM     18  C   UNL     1       9.842 -16.096  32.727  1.00  0.00     0.004 C 
ENDBRANCH  16  17
ENDBRANCH  15  16
ENDBRANCH  14  15
ENDBRANCH  13  14
ENDBRANCH  12  13
ENDBRANCH  10  11
ENDBRANCH   1  10
TORSDOF 13
ENDMDL
MODEL 5
REMARK VINA RESULT:    -5.336     10.311     13.105
REMARK INTER + INTRA:         -10.064
REMARK INTER:                  -9.320
REMARK INTRA:                  -0.744
REMARK UNBOUND:                -0.672
REMARK SMILES CCCCCCC=CCCCCCCCC(=O)[O-]
REMARK SMILES IDX 10 1 11 2 12 3 13 4 14 5 15 6 16 7 17 8 18 9 9 10 8 11 7 12
REMARK SMILES IDX 6 13 5 14 4 15 3 16 2 17 1 18
REMARK H PARENT
REMARK Flexibility Score: inf
ROOT
ATOM      1  C   UNL     1      13.657 -15.251  30.711  1.00  0.00     0.004 C 
ENDROOT
BRANCH   1   2
ATOM      2  C   UNL     1      13.239 -14.998  29.252  1.00  0.00     0.000 C 
BRANCH   2   3
ATOM      3  C   UNL     1      11.991 -14.104  29.131  1.00  0.00     0.000 C 
BRANCH   3   4
ATOM      4  C   UNL     1      12.213 -12.767  28.404  1.00  0.00     0.000 C 
BRANCH   4   5
ATOM      5  C   UNL     1      12.780 -12.943  26.987  1.00  0.00     0.006 C 
BRANCH   5   6
ATOM      6  C   UNL     1      11.654 -13.011  25.950  1.00  0.00     0.053 C 
BRANCH   6   7
ATOM      7  C   UNL     1      11.734 -11.849  25.012  1.00  0.00     0.041 C 
ATOM      8  O   UNL     1      12.826 -11.246  24.841  1.00  0.00    -0.550 OA
ATOM      9  O   UNL     1      10.613 -11.460  24.290  1.00  0.00    -0.550 OA
ENDBRANCH   6   7
ENDBRANCH   5   6
ENDBRANCH   4   5
ENDBRANCH   3   4
ENDBRANCH   2   3
ENDBRANCH   1   2
BRANCH   1  10
ATOM     10  C   UNL     1      13.827 -16.746  31.010  1.00  0.00     0.027 C 
BRANCH  10  11
ATOM     11  C   UNL     1      12.593 -17.328  31.644  1.00  0.00    -0.031 C 
ATOM     12  C   UNL     1      11.552 -16.559  31.995  1.00  0.00    -0.031 C 
BRANCH  12  13
ATOM     13  C   UNL     1      10.312 -17.142  32.619  1.00  0.00     0.027 C 
BRANCH  13  14
ATOM     14  C   UNL     1      10.024 -18.550  32.083  1.00  0.00     0.004 C 
BRANCH  14  15
ATOM     15  C   UNL     1       9.692 -19.541  33.212  1.00  0.00     0.000 C 
BRANCH  15  16
ATOM     16  C   UNL     1      10.293 -20.935  32.970  1.00  0.00    -0.000 C 
BRANCH  16  17
ATOM     17  C   UNL     1       9.231 -22.044  32.962  1.00  0.00    -0.003 C 
ATOM     18  C   UNL     1       9.824 -23.368  32.487  1.00  0.00     0.004 C 
ENDBRANCH  16  17
ENDBRANCH  15  16
ENDBRANCH  14  15
ENDBRANCH  13  14
ENDBRANCH  12  13
ENDBRANCH  10  11
ENDBRANCH   1  10
TORSDOF 13
ENDMDL
MODEL 6
REMARK VINA RESULT:    -5.324      9.292     11.409
REMARK INTER + INTRA:         -10.043
REMARK INTER:                  -8.388
REMARK INTRA:                  -1.654
REMARK UNBOUND:                -0.672
REMARK SMILES CCCCCCC=CCCCCCCCC(=O)[O-]
REMARK SMILES IDX 10 1 11 2 12 3 13 4 14 5 15 6 16 7 17 8 18 9 9 10 8 11 7 12
REMARK SMILES IDX 6 13 5 14 4 15 3 16 2 17 1 18
REMARK H PARENT
REMARK Flexibility Score: inf
ROOT
ATOM      1  C   UNL     1      13.709 -12.575  27.962  1.00  0.00     0.004 C 
ENDROOT
BRANCH   1   2
ATOM      2  C   UNL     1      13.211 -12.683  26.511  1.00  0.00     0.000 C 
BRANCH   2   3
ATOM      3  C   UNL     1      11.724 -13.071  26.413  1.00  0.00     0.000 C 
BRANCH   3   4
ATOM      4  C   UNL     1      11.452 -14.571  26.206  1.00  0.00     0.000 C 
BRANCH   4   5
ATOM      5  C   UNL     1      12.551 -15.272  25.392  1.00  0.00     0.006 C 
BRANCH   5   6
ATOM      6  C   UNL     1      12.915 -16.624  26.013  1.00  0.00     0.053 C 
BRANCH   6   7
ATOM      7  C   UNL     1      14.309 -17.015  25.637  1.00  0.00     0.041 C 
ATOM      8  O   UNL     1      15.235 -16.162  25.660  1.00  0.00    -0.550 OA
ATOM      9  O   UNL     1      14.597 -18.334  25.307  1.00  0.00    -0.550 OA
ENDBRANCH   6   7
ENDBRANCH   5   6
ENDBRANCH   4   5
ENDBRANCH   3   4
ENDBRANCH   2   3
ENDBRANCH   1   2
BRANCH   1  10
ATOM     10  C   UNL     1      14.556 -13.786  28.373  1.00  0.00     0.027 C 
BRANCH  10  11
ATOM     11  C   UNL     1      13.762 -14.765  29.194  1.00  0.00    -0.031 C 
ATOM     12  C   UNL     1      12.539 -14.466  29.657  1.00  0.00    -0.031 C 
BRANCH  12  13
ATOM     13  C   UNL     1      11.738 -15.449  30.469  1.00  0.00     0.027 C 
BRANCH  13  14
ATOM     14  C   UNL     1      12.561 -16.015  31.634  1.00  0.00     0.004 C 
BRANCH  14  15
ATOM     15  C   UNL     1      12.458 -17.548  31.721  1.00  0.00     0.000 C 
BRANCH  15  16
ATOM     16  C   UNL     1      11.021 -18.056  31.523  1.00  0.00    -0.000 C 
BRANCH  16  17
ATOM     17  C   UNL     1      10.292 -18.303  32.852  1.00  0.00    -0.003 C 
ATOM     18  C   UNL     1      10.212 -19.795  33.165  1.00  0.00     0.004 C 
ENDBRANCH  16  17
ENDBRANCH  15  16
ENDBRANCH  14  15
ENDBRANCH  13  14
ENDBRANCH  12  13
ENDBRANCH  10  11
ENDBRANCH   1  10
TORSDOF 13
ENDMDL
MODEL 7
REMARK VINA RESULT:    -5.323      9.157     10.595
REMARK INTER + INTRA:         -10.041
REMARK INTER:                  -8.756
REMARK INTRA:                  -1.285
REMARK UNBOUND:                -0.672
REMARK SMILES CCCCCCC=CCCCCCCCC(=O)[O-]
REMARK SMILES IDX 10 1 11 2 12 3 13 4 14 5 15 6 16 7 17 8 18 9 9 10 8 11 7 12
REMARK SMILES IDX 6 13 5 14 4 15 3 16 2 17 1 18
REMARK H PARENT
REMARK Flexibility Score: inf
ROOT
ATOM      1  C   UNL     1      13.176 -16.761  31.453  1.00  0.00     0.004 C 
ENDROOT
BRANCH   1   2
ATOM      2  C   UNL     1      11.901 -16.010  31.875  1.00  0.00     0.000 C 
BRANCH   2   3
ATOM      3  C   UNL     1      10.748 -16.954  32.262  1.00  0.00     0.000 C 
BRANCH   3   4
ATOM      4  C   UNL     1      10.997 -18.444  31.967  1.00  0.00     0.000 C 
BRANCH   4   5
ATOM      5  C   UNL     1       9.794 -19.333  32.317  1.00  0.00     0.006 C 
BRANCH   5   6
ATOM      6  C   UNL     1      10.249 -20.638  32.978  1.00  0.00     0.053 C 
BRANCH   6   7
ATOM      7  C   UNL     1       9.749 -21.818  32.207  1.00  0.00     0.041 C 
ATOM      8  O   UNL     1       9.080 -21.651  31.153  1.00  0.00    -0.550 OA
ATOM      9  O   UNL     1      10.062 -23.105  32.626  1.00  0.00    -0.550 OA
ENDBRANCH   6   7
ENDBRANCH   5   6
ENDBRANCH   4   5
ENDBRANCH   3   4
ENDBRANCH   2   3
ENDBRANCH   1   2
BRANCH   1  10
ATOM     10  C   UNL     1      14.084 -15.901  30.565  1.00  0.00     0.027 C 
BRANCH  10  11
ATOM     11  C   UNL     1      13.285 -14.971  29.693  1.00  0.00    -0.031 C 
ATOM     12  C   UNL     1      13.842 -13.893  29.118  1.00  0.00    -0.031 C 
BRANCH  12  13
ATOM     13  C   UNL     1      13.047 -12.968  28.236  1.00  0.00     0.027 C 
BRANCH  13  14
ATOM     14  C   UNL     1      11.688 -13.576  27.866  1.00  0.00     0.004 C 
BRANCH  14  15
ATOM     15  C   UNL     1      11.527 -13.747  26.345  1.00  0.00     0.000 C 
BRANCH  15  16
ATOM     16  C   UNL     1      11.642 -15.213  25.899  1.00  0.00    -0.000 C 
BRANCH  16  17
ATOM     17  C   UNL     1      13.032 -15.555  25.342  1.00  0.00    -0.003 C 
ATOM     18  C   UNL     1      13.818 -16.422  26.322  1.00  0.00     0.004 C 
ENDBRANCH  16  17
ENDBRANCH  15  16
ENDBRANCH  14  15
ENDBRANCH  13  14
ENDBRANCH  12  13
ENDBRANCH  10  11
ENDBRANCH   1  10
TORSDOF 13
ENDMDL
MODEL 8
REMARK VINA RESULT:    -5.301      9.949     12.600
REMARK INTER + INTRA:         -10.002
REMARK INTER:                  -9.159
REMARK INTRA:                  -0.843
REMARK UNBOUND:                -0.672
REMARK SMILES CCCCCCC=CCCCCCCCC(=O)[O-]
REMARK SMILES IDX 10 1 11 2 12 3 13 4 14 5 15 6 16 7 17 8 18 9 9 10 8 11 7 12
REMARK SMILES IDX 6 13 5 14 4 15 3 16 2 17 1 18
REMARK H PARENT
REMARK Flexibility Score: inf
ROOT
ATOM      1  C   UNL     1      13.044 -16.179  31.689  1.00  0.00     0.004 C 
ENDROOT
BRANCH   1   2
ATOM      2  C   UNL     1      13.952 -15.244  30.873  1.00  0.00     0.000 C 
BRANCH   2   3
ATOM      3  C   UNL     1      13.933 -15.552  29.365  1.00  0.00     0.000 C 
BRANCH   3   4
ATOM      4  C   UNL     1      13.728 -14.330  28.451  1.00  0.00     0.000 C 
BRANCH   4   5
ATOM      5  C   UNL     1      12.302 -13.762  28.521  1.00  0.00     0.006 C 
BRANCH   5   6
ATOM      6  C   UNL     1      12.088 -12.686  27.452  1.00  0.00     0.053 C 
BRANCH   6   7
ATOM      7  C   UNL     1      11.404 -13.266  26.255  1.00  0.00     0.041 C 
ATOM      8  O   UNL     1      11.014 -12.516  25.322  1.00  0.00    -0.550 OA
ATOM      9  O   UNL     1      11.240 -14.641  26.146  1.00  0.00    -0.550 OA
ENDBRANCH   6   7
ENDBRANCH   5   6
ENDBRANCH   4   5
ENDBRANCH   3   4
ENDBRANCH   2   3
ENDBRANCH   1   2
BRANCH   1  10
ATOM     10  C   UNL     1      11.558 -15.867  31.479  1.00  0.00     0.027 C 
BRANCH  10  11
ATOM     11  C   UNL     1      10.680 -16.771  32.303  1.00  0.00    -0.031 C 
ATOM     12  C   UNL     1      10.860 -18.100  32.322  1.00  0.00    -0.031 C 
BRANCH  12  13
ATOM     13  C   UNL     1       9.990 -19.004  33.155  1.00  0.00     0.027 C 
BRANCH  13  14
ATOM     14  C   UNL     1       8.952 -19.734  32.292  1.00  0.00     0.004 C 
BRANCH  14  15
ATOM     15  C   UNL     1       9.567 -20.285  30.994  1.00  0.00     0.000 C 
BRANCH  15  16
ATOM     16  C   UNL     1       9.616 -21.821  30.970  1.00  0.00    -0.000 C 
BRANCH  16  17
ATOM     17  C   UNL     1       9.518 -22.438  32.373  1.00  0.00    -0.003 C 
ATOM     18  C   UNL     1      10.013 -23.883  32.373  1.00  0.00     0.004 C 
ENDBRANCH  16  17
ENDBRANCH  15  16
ENDBRANCH  14  15
ENDBRANCH  13  14
ENDBRANCH  12  13
ENDBRANCH  10  11
ENDBRANCH   1  10
TORSDOF 13
ENDMDL
MODEL 9
REMARK VINA RESULT:    -5.214      9.481     11.846
REMARK INTER + INTRA:          -9.849
REMARK INTER:                  -8.728
REMARK INTRA:                  -1.120
REMARK UNBOUND:                -0.672
REMARK SMILES CCCCCCC=CCCCCCCCC(=O)[O-]
REMARK SMILES IDX 10 1 11 2 12 3 13 4 14 5 15 6 16 7 17 8 18 9 9 10 8 11 7 12
REMARK SMILES IDX 6 13 5 14 4 15 3 16 2 17 1 18
REMARK H PARENT
REMARK Flexibility Score: inf
ROOT
ATOM      1  C   UNL     1      13.061 -15.667  29.493  1.00  0.00     0.004 C 
ENDROOT
BRANCH   1   2
ATOM      2  C   UNL     1      13.091 -14.209  29.003  1.00  0.00     0.000 C 
BRANCH   2   3
ATOM      3  C   UNL     1      11.748 -13.746  28.411  1.00  0.00     0.000 C 
BRANCH   3   4
ATOM      4  C   UNL     1      11.736 -13.559  26.884  1.00  0.00     0.000 C 
BRANCH   4   5
ATOM      5  C   UNL     1      11.632 -14.887  26.118  1.00  0.00     0.006 C 
BRANCH   5   6
ATOM      6  C   UNL     1      12.890 -15.140  25.283  1.00  0.00     0.053 C 
BRANCH   6   7
ATOM      7  C   UNL     1      13.661 -16.298  25.833  1.00  0.00     0.041 C 
ATOM      8  O   UNL     1      14.757 -16.109  26.421  1.00  0.00    -0.550 OA
ATOM      9  O   UNL     1      13.144 -17.584  25.739  1.00  0.00    -0.550 OA
ENDBRANCH   6   7
ENDBRANCH   5   6
ENDBRANCH   4   5
ENDBRANCH   3   4
ENDBRANCH   2   3
ENDBRANCH   1   2
BRANCH   1  10
ATOM     10  C   UNL     1      13.649 -15.814  30.901  1.00  0.00     0.027 C 
BRANCH  10  11
ATOM     11  C   UNL     1      12.571 -15.872  31.949  1.00  0.00    -0.031 C 
ATOM     12  C   UNL     1      11.332 -16.297  31.661  1.00  0.00    -0.031 C 
BRANCH  12  13
ATOM     13  C   UNL     1      10.255 -16.366  32.711  1.00  0.00     0.027 C 
BRANCH  13  14
ATOM     14  C   UNL     1       9.569 -17.738  32.721  1.00  0.00     0.004 C 
BRANCH  14  15
ATOM     15  C   UNL     1      10.579 -18.890  32.576  1.00  0.00     0.000 C 
BRANCH  15  16
ATOM     16  C   UNL     1      10.307 -20.042  33.556  1.00  0.00    -0.000 C 
BRANCH  16  17
ATOM     17  C   UNL     1      10.043 -21.376  32.843  1.00  0.00    -0.003 C 
ATOM     18  C   UNL     1       9.722 -21.154  31.367  1.00  0.00     0.004 C 
ENDBRANCH  16  17
ENDBRANCH  15  16
ENDBRANCH  14  15
ENDBRANCH  13  14
ENDBRANCH  12  13
ENDBRANCH  10  11
ENDBRANCH   1  10
TORSDOF 13
ENDMDL
