MODEL 1
REMARK VINA RESULT:    -7.305      0.000      0.000
REMARK INTER + INTRA:          -9.103
REMARK INTER:                  -9.013
REMARK INTRA:                  -0.089
REMARK UNBOUND:                -0.089
REMARK SMILES Oc1cc(O)c2cc(O)c(-c3cc(O)c(O)c(O)c3)[o+]c2c1
REMARK SMILES IDX 10 1 20 2 21 3 22 4 2 5 3 6 4 7 6 8 7 9 8 10 11 11 12 12
REMARK SMILES IDX 13 13 19 14 15 15 17 16 14 17 16 19 18 21 9 23 1 25 5 27
REMARK H PARENT 14 18 16 20 18 22 9 24 1 26 5 28
REMARK Flexibility Score: inf
ROOT
ATOM      1  C   UNL     1      48.416  11.631   8.635  1.00  0.00     0.402 A 
ATOM      2  O   UNL     1      47.920  12.809   9.003  1.00  0.00    -0.202 OA
ATOM      3  C   UNL     1      47.017  12.952   9.969  1.00  0.00     0.368 A 
ATOM      4  C   UNL     1      46.558  14.231  10.286  1.00  0.00     0.162 A 
ATOM      5  C   UNL     1      45.614  14.411  11.297  1.00  0.00     0.128 A 
ATOM      6  C   UNL     1      45.125  13.304  11.999  1.00  0.00     0.093 A 
ATOM      7  C   UNL     1      45.570  12.010  11.701  1.00  0.00     0.136 A 
ATOM      8  C   UNL     1      46.528  11.823  10.670  1.00  0.00     0.125 A 
ATOM      9  C   UNL     1      47.022  10.563  10.294  1.00  0.00     0.078 A 
ATOM     10  C   UNL     1      47.963  10.457   9.266  1.00  0.00     0.223 A 
ENDROOT
BRANCH   1  11
ATOM     11  C   UNL     1      49.424  11.603   7.551  1.00  0.00     0.091 A 
ATOM     12  C   UNL     1      49.189  10.822   6.409  1.00  0.00     0.068 A 
ATOM     13  C   UNL     1      50.114  10.792   5.361  1.00  0.00     0.162 A 
ATOM     14  C   UNL     1      50.589  12.387   7.614  1.00  0.00     0.068 A 
ATOM     15  C   UNL     1      51.288  11.561   5.438  1.00  0.00     0.200 A 
ATOM     16  C   UNL     1      51.522  12.363   6.568  1.00  0.00     0.162 A 
BRANCH  13  17
ATOM     17  O   UNL     1      49.849   9.991   4.250  1.00  0.00    -0.504 OA
ATOM     18  H   UNL     1      50.476   9.251   3.958  1.00  0.00     0.293 HD
ENDBRANCH  13  17
BRANCH  15  19
ATOM     19  O   UNL     1      52.208  11.522   4.389  1.00  0.00    -0.502 OA
ATOM     20  H   UNL     1      52.967  12.188   4.313  1.00  0.00     0.293 HD
ENDBRANCH  15  19
BRANCH  16  21
ATOM     21  O   UNL     1      52.677  13.141   6.645  1.00  0.00    -0.504 OA
ATOM     22  H   UNL     1      53.478  12.964   6.050  1.00  0.00     0.293 HD
ENDBRANCH  16  21
ENDBRANCH   1  11
BRANCH  10  23
ATOM     23  O   UNL     1      48.415   9.202   8.857  1.00  0.00    -0.500 OA
ATOM     24  H   UNL     1      47.819   8.561   8.347  1.00  0.00     0.294 HD
ENDBRANCH  10  23
BRANCH   5  25
ATOM     25  O   UNL     1      45.167  15.697  11.598  1.00  0.00    -0.507 OA
ATOM     26  H   UNL     1      45.758  16.363  12.083  1.00  0.00     0.293 HD
ENDBRANCH   5  25
BRANCH   7  27
ATOM     27  O   UNL     1      45.037  10.957  12.448  1.00  0.00    -0.507 OA
ATOM     28  H   UNL     1      45.582  10.207  12.847  1.00  0.00     0.293 HD
ENDBRANCH   7  27
TORSDOF 7
ENDMDL
MODEL 2
REMARK VINA RESULT:    -7.299      1.930      7.279
REMARK INTER + INTRA:          -9.095
REMARK INTER:                  -8.724
REMARK INTRA:                  -0.371
REMARK UNBOUND:                -0.089
REMARK SMILES Oc1cc(O)c2cc(O)c(-c3cc(O)c(O)c(O)c3)[o+]c2c1
REMARK SMILES IDX 10 1 20 2 21 3 22 4 2 5 3 6 4 7 6 8 7 9 8 10 11 11 12 12
REMARK SMILES IDX 13 13 19 14 15 15 17 16 14 17 16 19 18 21 9 23 1 25 5 27
REMARK H PARENT 14 18 16 20 18 22 9 24 1 26 5 28
REMARK Flexibility Score: inf
ROOT
ATOM      1  C   UNL     1      49.357  11.714   8.131  1.00  0.00     0.402 A 
ATOM      2  O   UNL     1      49.285  11.270   6.880  1.00  0.00    -0.202 OA
ATOM      3  C   UNL     1      50.205  11.534   5.957  1.00  0.00     0.368 A 
ATOM      4  C   UNL     1      50.044  11.020   4.668  1.00  0.00     0.162 A 
ATOM      5  C   UNL     1      50.995  11.279   3.682  1.00  0.00     0.128 A 
ATOM      6  C   UNL     1      52.119  12.055   3.983  1.00  0.00     0.093 A 
ATOM      7  C   UNL     1      52.306  12.581   5.268  1.00  0.00     0.136 A 
ATOM      8  C   UNL     1      51.338  12.323   6.273  1.00  0.00     0.125 A 
ATOM      9  C   UNL     1      51.434  12.819   7.584  1.00  0.00     0.078 A 
ATOM     10  C   UNL     1      50.439  12.526   8.520  1.00  0.00     0.223 A 
ENDROOT
BRANCH   1  11
ATOM     11  C   UNL     1      48.273  11.343   9.069  1.00  0.00     0.091 A 
ATOM     12  C   UNL     1      47.043  12.016   9.004  1.00  0.00     0.068 A 
ATOM     13  C   UNL     1      45.995  11.674   9.863  1.00  0.00     0.162 A 
ATOM     14  C   UNL     1      48.428  10.293   9.990  1.00  0.00     0.068 A 
ATOM     15  C   UNL     1      46.162  10.636  10.796  1.00  0.00     0.200 A 
ATOM     16  C   UNL     1      47.382   9.943  10.855  1.00  0.00     0.162 A 
BRANCH  13  17
ATOM     17  O   UNL     1      44.794  12.377   9.775  1.00  0.00    -0.504 OA
ATOM     18  H   UNL     1      44.746  13.381   9.906  1.00  0.00     0.293 HD
ENDBRANCH  13  17
BRANCH  15  19
ATOM     19  O   UNL     1      45.112  10.304  11.653  1.00  0.00    -0.502 OA
ATOM     20  H   UNL     1      45.072   9.417  12.139  1.00  0.00     0.293 HD
ENDBRANCH  15  19
BRANCH  16  21
ATOM     21  O   UNL     1      47.550   8.902  11.768  1.00  0.00    -0.504 OA
ATOM     22  H   UNL     1      46.781   8.558  12.330  1.00  0.00     0.293 HD
ENDBRANCH  16  21
ENDBRANCH   1  11
BRANCH  10  23
ATOM     23  O   UNL     1      50.509  13.061   9.807  1.00  0.00    -0.500 OA
ATOM     24  H   UNL     1      49.974  13.880  10.073  1.00  0.00     0.294 HD
ENDBRANCH  10  23
BRANCH   5  25
ATOM     25  O   UNL     1      50.815  10.758   2.401  1.00  0.00    -0.507 OA
ATOM     26  H   UNL     1      51.392  10.001   2.052  1.00  0.00     0.293 HD
ENDBRANCH   5  25
BRANCH   7  27
ATOM     27  O   UNL     1      53.455  13.344   5.491  1.00  0.00    -0.507 OA
ATOM     28  H   UNL     1      54.354  13.156   5.073  1.00  0.00     0.293 HD
ENDBRANCH   7  27
TORSDOF 7
ENDMDL
MODEL 3
REMARK VINA RESULT:    -7.292      1.927      7.280
REMARK INTER + INTRA:          -9.087
REMARK INTER:                  -8.757
REMARK INTRA:                  -0.330
REMARK UNBOUND:                -0.089
REMARK SMILES Oc1cc(O)c2cc(O)c(-c3cc(O)c(O)c(O)c3)[o+]c2c1
REMARK SMILES IDX 10 1 20 2 21 3 22 4 2 5 3 6 4 7 6 8 7 9 8 10 11 11 12 12
REMARK SMILES IDX 13 13 19 14 15 15 17 16 14 17 16 19 18 21 9 23 1 25 5 27
REMARK H PARENT 14 18 16 20 18 22 9 24 1 26 5 28
REMARK Flexibility Score: inf
ROOT
ATOM      1  C   UNL     1      49.370  11.774   8.001  1.00  0.00     0.402 A 
ATOM      2  O   UNL     1      49.266  11.432   6.720  1.00  0.00    -0.202 OA
ATOM      3  C   UNL     1      50.199  11.706   5.813  1.00  0.00     0.368 A 
ATOM      4  C   UNL     1      50.001  11.304   4.490  1.00  0.00     0.162 A 
ATOM      5  C   UNL     1      50.964  11.575   3.519  1.00  0.00     0.128 A 
ATOM      6  C   UNL     1      52.137  12.251   3.870  1.00  0.00     0.093 A 
ATOM      7  C   UNL     1      52.361  12.664   5.190  1.00  0.00     0.136 A 
ATOM      8  C   UNL     1      51.381  12.394   6.180  1.00  0.00     0.125 A 
ATOM      9  C   UNL     1      51.513  12.781   7.524  1.00  0.00     0.078 A 
ATOM     10  C   UNL     1      50.503  12.482   8.442  1.00  0.00     0.223 A 
ENDROOT
BRANCH   1  11
ATOM     11  C   UNL     1      48.267  11.403   8.916  1.00  0.00     0.091 A 
ATOM     12  C   UNL     1      48.444  10.342   9.818  1.00  0.00     0.068 A 
ATOM     13  C   UNL     1      47.427   9.983  10.707  1.00  0.00     0.162 A 
ATOM     14  C   UNL     1      47.062  12.127   8.942  1.00  0.00     0.068 A 
ATOM     15  C   UNL     1      46.217  10.697  10.715  1.00  0.00     0.200 A 
ATOM     16  C   UNL     1      46.037  11.774   9.831  1.00  0.00     0.162 A 
BRANCH  13  17
ATOM     17  O   UNL     1      47.639   8.913  11.577  1.00  0.00    -0.504 OA
ATOM     18  H   UNL     1      46.963   8.654  12.286  1.00  0.00     0.293 HD
ENDBRANCH  13  17
BRANCH  15  19
ATOM     19  O   UNL     1      45.205  10.328  11.604  1.00  0.00    -0.502 OA
ATOM     20  H   UNL     1      45.319   9.570  12.265  1.00  0.00     0.293 HD
ENDBRANCH  15  19
BRANCH  16  21
ATOM     21  O   UNL     1      44.845  12.496   9.843  1.00  0.00    -0.504 OA
ATOM     22  H   UNL     1      44.647  13.208   9.150  1.00  0.00     0.293 HD
ENDBRANCH  16  21
ENDBRANCH   1  11
BRANCH  10  23
ATOM     23  O   UNL     1      50.610  12.912   9.766  1.00  0.00    -0.500 OA
ATOM     24  H   UNL     1      49.817  12.897  10.396  1.00  0.00     0.294 HD
ENDBRANCH  10  23
BRANCH   5  25
ATOM     25  O   UNL     1      50.748  11.166   2.204  1.00  0.00    -0.507 OA
ATOM     26  H   UNL     1      50.561  10.196   1.975  1.00  0.00     0.293 HD
ENDBRANCH   5  25
BRANCH   7  27
ATOM     27  O   UNL     1      53.558  13.332   5.462  1.00  0.00    -0.507 OA
ATOM     28  H   UNL     1      54.395  13.253   4.903  1.00  0.00     0.293 HD
ENDBRANCH   7  27
TORSDOF 7
ENDMDL
MODEL 4
REMARK VINA RESULT:    -7.075      1.876      7.073
REMARK INTER + INTRA:          -8.818
REMARK INTER:                  -8.439
REMARK INTRA:                  -0.380
REMARK UNBOUND:                -0.089
REMARK SMILES Oc1cc(O)c2cc(O)c(-c3cc(O)c(O)c(O)c3)[o+]c2c1
REMARK SMILES IDX 10 1 20 2 21 3 22 4 2 5 3 6 4 7 6 8 7 9 8 10 11 11 12 12
REMARK SMILES IDX 13 13 19 14 15 15 17 16 14 17 16 19 18 21 9 23 1 25 5 27
REMARK H PARENT 14 18 16 20 18 22 9 24 1 26 5 28
REMARK Flexibility Score: inf
ROOT
ATOM      1  C   UNL     1      48.942  11.200   7.409  1.00  0.00     0.402 A 
ATOM      2  O   UNL     1      49.984  12.018   7.523  1.00  0.00    -0.202 OA
ATOM      3  C   UNL     1      50.852  12.235   6.539  1.00  0.00     0.368 A 
ATOM      4  C   UNL     1      51.915  13.116   6.752  1.00  0.00     0.162 A 
ATOM      5  C   UNL     1      52.839  13.365   5.737  1.00  0.00     0.128 A 
ATOM      6  C   UNL     1      52.700  12.732   4.498  1.00  0.00     0.093 A 
ATOM      7  C   UNL     1      51.643  11.845   4.258  1.00  0.00     0.136 A 
ATOM      8  C   UNL     1      50.703  11.586   5.289  1.00  0.00     0.125 A 
ATOM      9  C   UNL     1      49.620  10.704   5.144  1.00  0.00     0.078 A 
ATOM     10  C   UNL     1      48.736  10.497   6.207  1.00  0.00     0.223 A 
ENDROOT
BRANCH   1  11
ATOM     11  C   UNL     1      48.040  11.049   8.574  1.00  0.00     0.091 A 
ATOM     12  C   UNL     1      46.891  11.851   8.666  1.00  0.00     0.068 A 
ATOM     13  C   UNL     1      46.011  11.717   9.744  1.00  0.00     0.162 A 
ATOM     14  C   UNL     1      48.278  10.081   9.564  1.00  0.00     0.068 A 
ATOM     15  C   UNL     1      46.265  10.761  10.743  1.00  0.00     0.200 A 
ATOM     16  C   UNL     1      47.400   9.940  10.648  1.00  0.00     0.162 A 
BRANCH  13  17
ATOM     17  O   UNL     1      44.889  12.542   9.805  1.00  0.00    -0.504 OA
ATOM     18  H   UNL     1      44.511  12.875  10.684  1.00  0.00     0.293 HD
ENDBRANCH  13  17
BRANCH  15  19
ATOM     19  O   UNL     1      45.383  10.637  11.817  1.00  0.00    -0.502 OA
ATOM     20  H   UNL     1      45.117  11.429  12.390  1.00  0.00     0.293 HD
ENDBRANCH  15  19
BRANCH  16  21
ATOM     21  O   UNL     1      47.651   8.979  11.628  1.00  0.00    -0.504 OA
ATOM     22  H   UNL     1      48.592   8.679  11.850  1.00  0.00     0.293 HD
ENDBRANCH  16  21
ENDBRANCH   1  11
BRANCH  10  23
ATOM     23  O   UNL     1      47.690   9.582   6.081  1.00  0.00    -0.500 OA
ATOM     24  H   UNL     1      47.055   9.606   5.292  1.00  0.00     0.294 HD
ENDBRANCH  10  23
BRANCH   5  25
ATOM     25  O   UNL     1      53.893  14.247   5.970  1.00  0.00    -0.507 OA
ATOM     26  H   UNL     1      53.733  15.238   6.112  1.00  0.00     0.293 HD
ENDBRANCH   5  25
BRANCH   7  27
ATOM     27  O   UNL     1      51.571  11.255   2.993  1.00  0.00    -0.507 OA
ATOM     28  H   UNL     1      51.158  11.690   2.182  1.00  0.00     0.293 HD
ENDBRANCH   7  27
TORSDOF 7
ENDMDL
MODEL 5
REMARK VINA RESULT:    -7.046      1.835      7.067
REMARK INTER + INTRA:          -8.783
REMARK INTER:                  -8.403
REMARK INTRA:                  -0.380
REMARK UNBOUND:                -0.089
REMARK SMILES Oc1cc(O)c2cc(O)c(-c3cc(O)c(O)c(O)c3)[o+]c2c1
REMARK SMILES IDX 10 1 20 2 21 3 22 4 2 5 3 6 4 7 6 8 7 9 8 10 11 11 12 12
REMARK SMILES IDX 13 13 19 14 15 15 17 16 14 17 16 19 18 21 9 23 1 25 5 27
REMARK H PARENT 14 18 16 20 18 22 9 24 1 26 5 28
REMARK Flexibility Score: inf
ROOT
ATOM      1  C   UNL     1      48.880  11.157   7.413  1.00  0.00     0.402 A 
ATOM      2  O   UNL     1      49.899  12.005   7.522  1.00  0.00    -0.202 OA
ATOM      3  C   UNL     1      50.790  12.205   6.555  1.00  0.00     0.368 A 
ATOM      4  C   UNL     1      51.825  13.119   6.762  1.00  0.00     0.162 A 
ATOM      5  C   UNL     1      52.771  13.351   5.764  1.00  0.00     0.128 A 
ATOM      6  C   UNL     1      52.683  12.666   4.548  1.00  0.00     0.093 A 
ATOM      7  C   UNL     1      51.654  11.745   4.314  1.00  0.00     0.136 A 
ATOM      8  C   UNL     1      50.692  11.504   5.329  1.00  0.00     0.125 A 
ATOM      9  C   UNL     1      49.634  10.590   5.189  1.00  0.00     0.078 A 
ATOM     10  C   UNL     1      48.726  10.403   6.235  1.00  0.00     0.223 A 
ENDROOT
BRANCH   1  11
ATOM     11  C   UNL     1      47.949  11.030   8.557  1.00  0.00     0.091 A 
ATOM     12  C   UNL     1      48.209  10.079   9.556  1.00  0.00     0.068 A 
ATOM     13  C   UNL     1      47.358   9.949  10.658  1.00  0.00     0.162 A 
ATOM     14  C   UNL     1      46.839  11.881   8.696  1.00  0.00     0.068 A 
ATOM     15  C   UNL     1      46.238  10.788  10.782  1.00  0.00     0.200 A 
ATOM     16  C   UNL     1      45.981  11.758   9.799  1.00  0.00     0.162 A 
BRANCH  13  17
ATOM     17  O   UNL     1      47.644   8.982  11.621  1.00  0.00    -0.504 OA
ATOM     18  H   UNL     1      48.525   8.482  11.638  1.00  0.00     0.293 HD
ENDBRANCH  13  17
BRANCH  15  19
ATOM     19  O   UNL     1      45.392  10.650  11.884  1.00  0.00    -0.502 OA
ATOM     20  H   UNL     1      45.557  11.138  12.755  1.00  0.00     0.293 HD
ENDBRANCH  15  19
BRANCH  16  21
ATOM     21  O   UNL     1      44.880  12.604   9.923  1.00  0.00    -0.504 OA
ATOM     22  H   UNL     1      43.942  12.292   9.700  1.00  0.00     0.293 HD
ENDBRANCH  16  21
ENDBRANCH   1  11
BRANCH  10  23
ATOM     23  O   UNL     1      47.706   9.458   6.116  1.00  0.00    -0.500 OA
ATOM     24  H   UNL     1      46.842   9.539   6.640  1.00  0.00     0.294 HD
ENDBRANCH  10  23
BRANCH   5  25
ATOM     25  O   UNL     1      53.797  14.267   5.990  1.00  0.00    -0.507 OA
ATOM     26  H   UNL     1      53.906  14.730   6.886  1.00  0.00     0.293 HD
ENDBRANCH   5  25
BRANCH   7  27
ATOM     27  O   UNL     1      51.633  11.104   3.073  1.00  0.00    -0.507 OA
ATOM     28  H   UNL     1      51.657  10.102   2.948  1.00  0.00     0.293 HD
ENDBRANCH   7  27
TORSDOF 7
ENDMDL
MODEL 6
REMARK VINA RESULT:    -7.029      1.173      2.577
REMARK INTER + INTRA:          -8.762
REMARK INTER:                  -8.890
REMARK INTRA:                   0.128
REMARK UNBOUND:                -0.089
REMARK SMILES Oc1cc(O)c2cc(O)c(-c3cc(O)c(O)c(O)c3)[o+]c2c1
REMARK SMILES IDX 10 1 20 2 21 3 22 4 2 5 3 6 4 7 6 8 7 9 8 10 11 11 12 12
REMARK SMILES IDX 13 13 19 14 15 15 17 16 14 17 16 19 18 21 9 23 1 25 5 27
REMARK H PARENT 14 18 16 20 18 22 9 24 1 26 5 28
REMARK Flexibility Score: inf
ROOT
ATOM      1  C   UNL     1      48.086  12.359   8.977  1.00  0.00     0.402 A 
ATOM      2  O   UNL     1      47.315  11.421   9.521  1.00  0.00    -0.202 OA
ATOM      3  C   UNL     1      46.417  11.673  10.468  1.00  0.00     0.368 A 
ATOM      4  C   UNL     1      45.651  10.621  10.977  1.00  0.00     0.162 A 
ATOM      5  C   UNL     1      44.699  10.857  11.968  1.00  0.00     0.128 A 
ATOM      6  C   UNL     1      44.507  12.154  12.456  1.00  0.00     0.093 A 
ATOM      7  C   UNL     1      45.261  13.226  11.963  1.00  0.00     0.136 A 
ATOM      8  C   UNL     1      46.234  12.989  10.957  1.00  0.00     0.125 A 
ATOM      9  C   UNL     1      47.044  13.999  10.412  1.00  0.00     0.078 A 
ATOM     10  C   UNL     1      47.984  13.689   9.425  1.00  0.00     0.223 A 
ENDROOT
BRANCH   1  11
ATOM     11  C   UNL     1      49.043  11.954   7.923  1.00  0.00     0.091 A 
ATOM     12  C   UNL     1      48.655  11.000   6.968  1.00  0.00     0.068 A 
ATOM     13  C   UNL     1      49.530  10.613   5.948  1.00  0.00     0.162 A 
ATOM     14  C   UNL     1      50.314  12.543   7.821  1.00  0.00     0.068 A 
ATOM     15  C   UNL     1      50.808  11.191   5.864  1.00  0.00     0.200 A 
ATOM     16  C   UNL     1      51.198  12.161   6.802  1.00  0.00     0.162 A 
BRANCH  13  17
ATOM     17  O   UNL     1      49.111   9.653   5.028  1.00  0.00    -0.504 OA
ATOM     18  H   UNL     1      49.092   9.834   4.031  1.00  0.00     0.293 HD
ENDBRANCH  13  17
BRANCH  15  19
ATOM     19  O   UNL     1      51.677  10.796   4.845  1.00  0.00    -0.502 OA
ATOM     20  H   UNL     1      51.427  10.084   4.170  1.00  0.00     0.293 HD
ENDBRANCH  15  19
BRANCH  16  21
ATOM     21  O   UNL     1      52.459  12.750   6.715  1.00  0.00    -0.504 OA
ATOM     22  H   UNL     1      52.944  13.092   7.536  1.00  0.00     0.293 HD
ENDBRANCH  16  21
ENDBRANCH   1  11
BRANCH  10  23
ATOM     23  O   UNL     1      48.824  14.682   8.921  1.00  0.00    -0.500 OA
ATOM     24  H   UNL     1      49.222  15.397   9.519  1.00  0.00     0.294 HD
ENDBRANCH  10  23
BRANCH   5  25
ATOM     25  O   UNL     1      43.945   9.794  12.463  1.00  0.00    -0.507 OA
ATOM     26  H   UNL     1      43.142   9.948  13.062  1.00  0.00     0.293 HD
ENDBRANCH   5  25
BRANCH   7  27
ATOM     27  O   UNL     1      45.010  14.492  12.499  1.00  0.00    -0.507 OA
ATOM     28  H   UNL     1      45.002  14.702  13.486  1.00  0.00     0.293 HD
ENDBRANCH   7  27
TORSDOF 7
ENDMDL
MODEL 7
REMARK VINA RESULT:    -7.020      1.160      7.147
REMARK INTER + INTRA:          -8.751
REMARK INTER:                  -8.886
REMARK INTRA:                   0.135
REMARK UNBOUND:                -0.089
REMARK SMILES Oc1cc(O)c2cc(O)c(-c3cc(O)c(O)c(O)c3)[o+]c2c1
REMARK SMILES IDX 10 1 20 2 21 3 22 4 2 5 3 6 4 7 6 8 7 9 8 10 11 11 12 12
REMARK SMILES IDX 13 13 19 14 15 15 17 16 14 17 16 19 18 21 9 23 1 25 5 27
REMARK H PARENT 14 18 16 20 18 22 9 24 1 26 5 28
REMARK Flexibility Score: inf
ROOT
ATOM      1  C   UNL     1      47.504  11.354   8.771  1.00  0.00     0.402 A 
ATOM      2  O   UNL     1      48.676  11.979   8.698  1.00  0.00    -0.202 OA
ATOM      3  C   UNL     1      49.525  11.822   7.686  1.00  0.00     0.368 A 
ATOM      4  C   UNL     1      50.732  12.524   7.696  1.00  0.00     0.162 A 
ATOM      5  C   UNL     1      51.639  12.382   6.646  1.00  0.00     0.128 A 
ATOM      6  C   UNL     1      51.339  11.534   5.575  1.00  0.00     0.093 A 
ATOM      7  C   UNL     1      50.134  10.820   5.540  1.00  0.00     0.136 A 
ATOM      8  C   UNL     1      49.211  10.959   6.608  1.00  0.00     0.125 A 
ATOM      9  C   UNL     1      47.986  10.273   6.665  1.00  0.00     0.078 A 
ATOM     10  C   UNL     1      47.128  10.459   7.752  1.00  0.00     0.223 A 
ENDROOT
BRANCH   1  11
ATOM     11  C   UNL     1      46.642  11.618   9.945  1.00  0.00     0.091 A 
ATOM     12  C   UNL     1      46.563  12.920  10.464  1.00  0.00     0.068 A 
ATOM     13  C   UNL     1      45.742  13.204  11.560  1.00  0.00     0.162 A 
ATOM     14  C   UNL     1      45.856  10.605  10.520  1.00  0.00     0.068 A 
ATOM     15  C   UNL     1      44.974  12.183  12.145  1.00  0.00     0.200 A 
ATOM     16  C   UNL     1      45.030  10.881  11.619  1.00  0.00     0.162 A 
BRANCH  13  17
ATOM     17  O   UNL     1      45.703  14.507  12.054  1.00  0.00    -0.504 OA
ATOM     18  H   UNL     1      46.146  15.281  11.571  1.00  0.00     0.293 HD
ENDBRANCH  13  17
BRANCH  15  19
ATOM     19  O   UNL     1      44.161  12.474  13.241  1.00  0.00    -0.502 OA
ATOM     20  H   UNL     1      43.177  12.693  13.139  1.00  0.00     0.293 HD
ENDBRANCH  15  19
BRANCH  16  21
ATOM     21  O   UNL     1      44.259   9.866  12.184  1.00  0.00    -0.504 OA
ATOM     22  H   UNL     1      43.837   9.966  13.100  1.00  0.00     0.293 HD
ENDBRANCH  16  21
ENDBRANCH   1  11
BRANCH  10  23
ATOM     23  O   UNL     1      45.935   9.739   7.834  1.00  0.00    -0.500 OA
ATOM     24  H   UNL     1      45.389   9.518   7.009  1.00  0.00     0.294 HD
ENDBRANCH  10  23
BRANCH   5  25
ATOM     25  O   UNL     1      52.839  13.090   6.675  1.00  0.00    -0.507 OA
ATOM     26  H   UNL     1      53.520  12.949   7.414  1.00  0.00     0.293 HD
ENDBRANCH   5  25
BRANCH   7  27
ATOM     27  O   UNL     1      49.906   9.995   4.435  1.00  0.00    -0.507 OA
ATOM     28  H   UNL     1      49.050   9.486   4.270  1.00  0.00     0.293 HD
ENDBRANCH   7  27
TORSDOF 7
ENDMDL
MODEL 8
REMARK VINA RESULT:    -6.958      1.795      2.312
REMARK INTER + INTRA:          -8.674
REMARK INTER:                  -8.290
REMARK INTRA:                  -0.384
REMARK UNBOUND:                -0.089
REMARK SMILES Oc1cc(O)c2cc(O)c(-c3cc(O)c(O)c(O)c3)[o+]c2c1
REMARK SMILES IDX 10 1 20 2 21 3 22 4 2 5 3 6 4 7 6 8 7 9 8 10 11 11 12 12
REMARK SMILES IDX 13 13 19 14 15 15 17 16 14 17 16 19 18 21 9 23 1 25 5 27
REMARK H PARENT 14 18 16 20 18 22 9 24 1 26 5 28
REMARK Flexibility Score: inf
ROOT
ATOM      1  C   UNL     1      49.047  10.716   7.084  1.00  0.00     0.402 A 
ATOM      2  O   UNL     1      48.050  11.507   7.471  1.00  0.00    -0.202 OA
ATOM      3  C   UNL     1      47.390  11.343   8.614  1.00  0.00     0.368 A 
ATOM      4  C   UNL     1      46.358  12.227   8.935  1.00  0.00     0.162 A 
ATOM      5  C   UNL     1      45.651  12.082  10.129  1.00  0.00     0.128 A 
ATOM      6  C   UNL     1      45.977  11.046  11.010  1.00  0.00     0.093 A 
ATOM      7  C   UNL     1      47.009  10.147  10.712  1.00  0.00     0.136 A 
ATOM      8  C   UNL     1      47.728  10.289   9.497  1.00  0.00     0.125 A 
ATOM      9  C   UNL     1      48.767   9.428   9.109  1.00  0.00     0.078 A 
ATOM     10  C   UNL     1      49.428   9.629   7.894  1.00  0.00     0.223 A 
ENDROOT
BRANCH   1  11
ATOM     11  C   UNL     1      49.711  11.007   5.793  1.00  0.00     0.091 A 
ATOM     12  C   UNL     1      49.174  10.481   4.607  1.00  0.00     0.068 A 
ATOM     13  C   UNL     1      49.767  10.756   3.371  1.00  0.00     0.162 A 
ATOM     14  C   UNL     1      50.836  11.845   5.720  1.00  0.00     0.068 A 
ATOM     15  C   UNL     1      50.906  11.578   3.306  1.00  0.00     0.200 A 
ATOM     16  C   UNL     1      51.437  12.126   4.485  1.00  0.00     0.162 A 
BRANCH  13  17
ATOM     17  O   UNL     1      49.211  10.202   2.218  1.00  0.00    -0.504 OA
ATOM     18  H   UNL     1      48.426  10.629   1.741  1.00  0.00     0.293 HD
ENDBRANCH  13  17
BRANCH  15  19
ATOM     19  O   UNL     1      51.494  11.843   2.069  1.00  0.00    -0.502 OA
ATOM     20  H   UNL     1      51.950  11.122   1.523  1.00  0.00     0.293 HD
ENDBRANCH  15  19
BRANCH  16  21
ATOM     21  O   UNL     1      52.558  12.954   4.427  1.00  0.00    -0.504 OA
ATOM     22  H   UNL     1      53.413  12.661   3.971  1.00  0.00     0.293 HD
ENDBRANCH  16  21
ENDBRANCH   1  11
BRANCH  10  23
ATOM     23  O   UNL     1      50.426   8.744   7.484  1.00  0.00    -0.500 OA
ATOM     24  H   UNL     1      50.243   7.755   7.362  1.00  0.00     0.294 HD
ENDBRANCH  10  23
BRANCH   5  25
ATOM     25  O   UNL     1      44.623  12.974  10.431  1.00  0.00    -0.507 OA
ATOM     26  H   UNL     1      44.160  12.961  11.333  1.00  0.00     0.293 HD
ENDBRANCH   5  25
BRANCH   7  27
ATOM     27  O   UNL     1      47.277   9.141  11.645  1.00  0.00    -0.507 OA
ATOM     28  H   UNL     1      46.861   9.089  12.563  1.00  0.00     0.293 HD
ENDBRANCH   7  27
TORSDOF 7
ENDMDL
MODEL 9
REMARK VINA RESULT:    -6.774      2.945      5.192
REMARK INTER + INTRA:          -8.448
REMARK INTER:                  -8.223
REMARK INTRA:                  -0.225
REMARK UNBOUND:                -0.089
REMARK SMILES Oc1cc(O)c2cc(O)c(-c3cc(O)c(O)c(O)c3)[o+]c2c1
REMARK SMILES IDX 10 1 20 2 21 3 22 4 2 5 3 6 4 7 6 8 7 9 8 10 11 11 12 12
REMARK SMILES IDX 13 13 19 14 15 15 17 16 14 17 16 19 18 21 9 23 1 25 5 27
REMARK H PARENT 14 18 16 20 18 22 9 24 1 26 5 28
REMARK Flexibility Score: inf
ROOT
ATOM      1  C   UNL     1      51.381  12.121   5.213  1.00  0.00     0.402 A 
ATOM      2  O   UNL     1      50.242  11.442   5.315  1.00  0.00    -0.202 OA
ATOM      3  C   UNL     1      49.608  11.251   6.468  1.00  0.00     0.368 A 
ATOM      4  C   UNL     1      48.415  10.525   6.476  1.00  0.00     0.162 A 
ATOM      5  C   UNL     1      47.726  10.312   7.670  1.00  0.00     0.128 A 
ATOM      6  C   UNL     1      48.230  10.830   8.867  1.00  0.00     0.093 A 
ATOM      7  C   UNL     1      49.424  11.563   8.887  1.00  0.00     0.136 A 
ATOM      8  C   UNL     1      50.130  11.778   7.675  1.00  0.00     0.125 A 
ATOM      9  C   UNL     1      51.339  12.488   7.600  1.00  0.00     0.078 A 
ATOM     10  C   UNL     1      51.979  12.656   6.369  1.00  0.00     0.223 A 
ENDROOT
BRANCH   1  11
ATOM     11  C   UNL     1      51.987  12.273   3.870  1.00  0.00     0.091 A 
ATOM     12  C   UNL     1      52.330  11.128   3.134  1.00  0.00     0.068 A 
ATOM     13  C   UNL     1      52.885  11.240   1.856  1.00  0.00     0.162 A 
ATOM     14  C   UNL     1      52.175  13.539   3.290  1.00  0.00     0.068 A 
ATOM     15  C   UNL     1      53.091  12.510   1.289  1.00  0.00     0.200 A 
ATOM     16  C   UNL     1      52.730  13.661   2.009  1.00  0.00     0.162 A 
BRANCH  13  17
ATOM     17  O   UNL     1      53.225  10.079   1.164  1.00  0.00    -0.504 OA
ATOM     18  H   UNL     1      52.578   9.616   0.536  1.00  0.00     0.293 HD
ENDBRANCH  13  17
BRANCH  15  19
ATOM     19  O   UNL     1      53.649  12.613   0.014  1.00  0.00    -0.502 OA
ATOM     20  H   UNL     1      53.082  12.749  -0.814  1.00  0.00     0.293 HD
ENDBRANCH  15  19
BRANCH  16  21
ATOM     21  O   UNL     1      52.918  14.924   1.447  1.00  0.00    -0.504 OA
ATOM     22  H   UNL     1      52.296  15.696   1.654  1.00  0.00     0.293 HD
ENDBRANCH  16  21
ENDBRANCH   1  11
BRANCH  10  23
ATOM     23  O   UNL     1      53.206  13.318   6.302  1.00  0.00    -0.500 OA
ATOM     24  H   UNL     1      53.764  13.319   5.456  1.00  0.00     0.294 HD
ENDBRANCH  10  23
BRANCH   5  25
ATOM     25  O   UNL     1      46.537   9.584   7.657  1.00  0.00    -0.507 OA
ATOM     26  H   UNL     1      46.401   8.782   8.261  1.00  0.00     0.293 HD
ENDBRANCH   5  25
BRANCH   7  27
ATOM     27  O   UNL     1      49.861  12.050  10.122  1.00  0.00    -0.507 OA
ATOM     28  H   UNL     1      49.534  12.905  10.546  1.00  0.00     0.293 HD
ENDBRANCH   7  27
TORSDOF 7
ENDMDL
