MODEL 1
REMARK VINA RESULT:    -6.955      0.000      0.000
REMARK INTER + INTRA:          -8.450
REMARK INTER:                  -8.175
REMARK INTRA:                  -0.275
REMARK UNBOUND:                -0.275
REMARK SMILES O=c1c(O)c(-c2ccc(O)c(O)c2)oc2cc(O)ccc12
REMARK SMILES IDX 5 1 3 2 2 3 1 4 21 5 15 6 14 7 16 8 17 9 19 10 20 11 6 12
REMARK SMILES IDX 7 13 8 14 9 15 13 16 11 17 10 18 12 20 4 22 18 24
REMARK H PARENT 10 19 12 21 4 23 18 25
REMARK Flexibility Score: inf
ROOT
ATOM      1  C   UNL     1     -14.049   4.259 -28.583  1.00  0.00     0.180 A 
ATOM      2  C   UNL     1     -14.031   5.669 -28.625  1.00  0.00     0.208 A 
ATOM      3  C   UNL     1     -15.086   6.341 -29.261  1.00  0.00     0.235 A 
ATOM      4  O   UNL     1     -15.097   7.601 -29.303  1.00  0.00    -0.285 OA
ATOM      5  C   UNL     1     -16.119   5.598 -29.854  1.00  0.00     0.069 A 
ATOM      6  C   UNL     1     -16.053   4.189 -29.789  1.00  0.00     0.142 A 
ATOM      7  O   UNL     1     -15.041   3.593 -29.171  1.00  0.00    -0.452 OA
ATOM      8  C   UNL     1     -17.058   3.413 -30.378  1.00  0.00     0.094 A 
ATOM      9  C   UNL     1     -18.132   4.027 -31.030  1.00  0.00     0.119 A 
ATOM     10  C   UNL     1     -18.202   5.425 -31.095  1.00  0.00     0.047 A 
ATOM     11  C   UNL     1     -17.203   6.209 -30.511  1.00  0.00     0.020 A 
ENDROOT
BRANCH   1  12
ATOM     12  C   UNL     1     -12.983   3.479 -27.915  1.00  0.00     0.025 A 
ATOM     13  C   UNL     1     -13.186   2.887 -26.656  1.00  0.00     0.016 A 
ATOM     14  C   UNL     1     -12.173   2.135 -26.056  1.00  0.00     0.051 A 
ATOM     15  C   UNL     1     -10.948   1.952 -26.711  1.00  0.00     0.157 A 
ATOM     16  C   UNL     1     -11.760   3.274 -28.576  1.00  0.00     0.062 A 
ATOM     17  C   UNL     1     -10.743   2.520 -27.974  1.00  0.00     0.158 A 
BRANCH  15  18
ATOM     18  O   UNL     1      -9.935   1.204 -26.115  1.00  0.00    -0.504 OA
ATOM     19  H   UNL     1      -9.866   0.202 -26.250  1.00  0.00     0.293 HD
ENDBRANCH  15  18
BRANCH  17  20
ATOM     20  O   UNL     1      -9.525   2.331 -28.626  1.00  0.00    -0.504 OA
ATOM     21  H   UNL     1      -9.238   2.924 -29.396  1.00  0.00     0.293 HD
ENDBRANCH  17  20
ENDBRANCH   1  12
BRANCH   2  22
ATOM     22  O   UNL     1     -12.964   6.379 -28.068  1.00  0.00    -0.502 OA
ATOM     23  H   UNL     1     -12.029   6.342 -28.456  1.00  0.00     0.293 HD
ENDBRANCH   2  22
BRANCH   9  24
ATOM     24  O   UNL     1     -19.125   3.240 -31.608  1.00  0.00    -0.508 OA
ATOM     25  H   UNL     1     -20.026   3.113 -31.164  1.00  0.00     0.293 HD
ENDBRANCH   9  24
TORSDOF 5
ENDMDL
MODEL 2
REMARK VINA RESULT:    -6.889      1.639      6.893
REMARK INTER + INTRA:          -8.372
REMARK INTER:                  -8.116
REMARK INTRA:                  -0.257
REMARK UNBOUND:                -0.275
REMARK SMILES O=c1c(O)c(-c2ccc(O)c(O)c2)oc2cc(O)ccc12
REMARK SMILES IDX 5 1 3 2 2 3 1 4 21 5 15 6 14 7 16 8 17 9 19 10 20 11 6 12
REMARK SMILES IDX 7 13 8 14 9 15 13 16 11 17 10 18 12 20 4 22 18 24
REMARK H PARENT 10 19 12 21 4 23 18 25
REMARK Flexibility Score: inf
ROOT
ATOM      1  C   UNL     1     -14.202   3.940 -28.638  1.00  0.00     0.180 A 
ATOM      2  C   UNL     1     -14.127   3.108 -27.500  1.00  0.00     0.208 A 
ATOM      3  C   UNL     1     -12.870   2.648 -27.080  1.00  0.00     0.235 A 
ATOM      4  O   UNL     1     -12.776   1.911 -26.061  1.00  0.00    -0.285 OA
ATOM      5  C   UNL     1     -11.725   3.008 -27.808  1.00  0.00     0.069 A 
ATOM      6  C   UNL     1     -11.885   3.825 -28.948  1.00  0.00     0.142 A 
ATOM      7  O   UNL     1     -13.092   4.245 -29.307  1.00  0.00    -0.452 OA
ATOM      8  C   UNL     1     -10.769   4.196 -29.706  1.00  0.00     0.094 A 
ATOM      9  C   UNL     1      -9.491   3.763 -29.338  1.00  0.00     0.119 A 
ATOM     10  C   UNL     1      -9.327   2.954 -28.206  1.00  0.00     0.047 A 
ATOM     11  C   UNL     1     -10.436   2.577 -27.443  1.00  0.00     0.020 A 
ENDROOT
BRANCH   1  12
ATOM     12  C   UNL     1     -15.488   4.481 -29.132  1.00  0.00     0.025 A 
ATOM     13  C   UNL     1     -15.832   5.833 -28.954  1.00  0.00     0.016 A 
ATOM     14  C   UNL     1     -17.041   6.325 -29.451  1.00  0.00     0.051 A 
ATOM     15  C   UNL     1     -17.917   5.479 -30.145  1.00  0.00     0.157 A 
ATOM     16  C   UNL     1     -16.360   3.643 -29.847  1.00  0.00     0.062 A 
ATOM     17  C   UNL     1     -17.574   4.137 -30.346  1.00  0.00     0.158 A 
BRANCH  15  18
ATOM     18  O   UNL     1     -19.124   5.967 -30.640  1.00  0.00    -0.504 OA
ATOM     19  H   UNL     1     -19.280   6.087 -31.635  1.00  0.00     0.293 HD
ENDBRANCH  15  18
BRANCH  17  20
ATOM     20  O   UNL     1     -18.444   3.300 -31.042  1.00  0.00    -0.504 OA
ATOM     21  H   UNL     1     -19.253   3.665 -31.532  1.00  0.00     0.293 HD
ENDBRANCH  17  20
ENDBRANCH   1  12
BRANCH   2  22
ATOM     22  O   UNL     1     -15.290   2.728 -26.825  1.00  0.00    -0.502 OA
ATOM     23  H   UNL     1     -15.297   1.981 -26.140  1.00  0.00     0.293 HD
ENDBRANCH   2  22
BRANCH   9  24
ATOM     24  O   UNL     1      -8.391   4.144 -30.103  1.00  0.00    -0.508 OA
ATOM     25  H   UNL     1      -7.656   4.728 -29.720  1.00  0.00     0.293 HD
ENDBRANCH   9  24
TORSDOF 5
ENDMDL
MODEL 3
REMARK VINA RESULT:    -6.820      1.322      2.940
REMARK INTER + INTRA:          -8.291
REMARK INTER:                  -8.083
REMARK INTRA:                  -0.208
REMARK UNBOUND:                -0.275
REMARK SMILES O=c1c(O)c(-c2ccc(O)c(O)c2)oc2cc(O)ccc12
REMARK SMILES IDX 5 1 3 2 2 3 1 4 21 5 15 6 14 7 16 8 17 9 19 10 20 11 6 12
REMARK SMILES IDX 7 13 8 14 9 15 13 16 11 17 10 18 12 20 4 22 18 24
REMARK H PARENT 10 19 12 21 4 23 18 25
REMARK Flexibility Score: inf
ROOT
ATOM      1  C   UNL     1     -14.175   4.292 -28.489  1.00  0.00     0.180 A 
ATOM      2  C   UNL     1     -14.998   3.596 -29.400  1.00  0.00     0.208 A 
ATOM      3  C   UNL     1     -16.042   4.286 -30.033  1.00  0.00     0.235 A 
ATOM      4  O   UNL     1     -16.784   3.689 -30.859  1.00  0.00    -0.285 OA
ATOM      5  C   UNL     1     -16.255   5.641 -29.732  1.00  0.00     0.069 A 
ATOM      6  C   UNL     1     -15.403   6.261 -28.792  1.00  0.00     0.142 A 
ATOM      7  O   UNL     1     -14.421   5.573 -28.221  1.00  0.00    -0.452 OA
ATOM      8  C   UNL     1     -15.591   7.606 -28.458  1.00  0.00     0.094 A 
ATOM      9  C   UNL     1     -16.619   8.345 -29.053  1.00  0.00     0.119 A 
ATOM     10  C   UNL     1     -17.465   7.734 -29.988  1.00  0.00     0.047 A 
ATOM     11  C   UNL     1     -17.287   6.390 -30.328  1.00  0.00     0.020 A 
ENDROOT
BRANCH   1  12
ATOM     12  C   UNL     1     -13.042   3.639 -27.796  1.00  0.00     0.025 A 
ATOM     13  C   UNL     1     -13.252   2.658 -26.810  1.00  0.00     0.016 A 
ATOM     14  C   UNL     1     -12.166   2.037 -26.188  1.00  0.00     0.051 A 
ATOM     15  C   UNL     1     -10.856   2.378 -26.549  1.00  0.00     0.157 A 
ATOM     16  C   UNL     1     -11.726   3.960 -28.169  1.00  0.00     0.062 A 
ATOM     17  C   UNL     1     -10.636   3.339 -27.543  1.00  0.00     0.158 A 
BRANCH  15  18
ATOM     18  O   UNL     1      -9.771   1.763 -25.928  1.00  0.00    -0.504 OA
ATOM     19  H   UNL     1      -9.245   2.227 -25.197  1.00  0.00     0.293 HD
ENDBRANCH  15  18
BRANCH  17  20
ATOM     20  O   UNL     1      -9.332   3.670 -27.905  1.00  0.00    -0.504 OA
ATOM     21  H   UNL     1      -9.044   3.707 -28.876  1.00  0.00     0.293 HD
ENDBRANCH  17  20
ENDBRANCH   1  12
BRANCH   2  22
ATOM     22  O   UNL     1     -14.791   2.236 -29.642  1.00  0.00    -0.502 OA
ATOM     23  H   UNL     1     -15.420   1.686 -30.216  1.00  0.00     0.293 HD
ENDBRANCH   2  22
BRANCH   9  24
ATOM     24  O   UNL     1     -16.790   9.684 -28.710  1.00  0.00    -0.508 OA
ATOM     25  H   UNL     1     -16.893   9.974 -27.745  1.00  0.00     0.293 HD
ENDBRANCH   9  24
TORSDOF 5
ENDMDL
MODEL 4
REMARK VINA RESULT:    -6.794      2.278      3.114
REMARK INTER + INTRA:          -8.261
REMARK INTER:                  -8.280
REMARK INTRA:                   0.020
REMARK UNBOUND:                -0.275
REMARK SMILES O=c1c(O)c(-c2ccc(O)c(O)c2)oc2cc(O)ccc12
REMARK SMILES IDX 5 1 3 2 2 3 1 4 21 5 15 6 14 7 16 8 17 9 19 10 20 11 6 12
REMARK SMILES IDX 7 13 8 14 9 15 13 16 11 17 10 18 12 20 4 22 18 24
REMARK H PARENT 10 19 12 21 4 23 18 25
REMARK Flexibility Score: inf
ROOT
ATOM      1  C   UNL     1     -14.303   4.604 -29.464  1.00  0.00     0.180 A 
ATOM      2  C   UNL     1     -15.049   3.618 -28.782  1.00  0.00     0.208 A 
ATOM      3  C   UNL     1     -16.449   3.658 -28.856  1.00  0.00     0.235 A 
ATOM      4  O   UNL     1     -17.137   2.782 -28.264  1.00  0.00    -0.285 OA
ATOM      5  C   UNL     1     -17.073   4.683 -29.585  1.00  0.00     0.069 A 
ATOM      6  C   UNL     1     -16.257   5.645 -30.220  1.00  0.00     0.142 A 
ATOM      7  O   UNL     1     -14.935   5.566 -30.132  1.00  0.00    -0.452 OA
ATOM      8  C   UNL     1     -16.842   6.687 -30.947  1.00  0.00     0.094 A 
ATOM      9  C   UNL     1     -18.234   6.781 -31.052  1.00  0.00     0.119 A 
ATOM     10  C   UNL     1     -19.046   5.827 -30.425  1.00  0.00     0.047 A 
ATOM     11  C   UNL     1     -18.472   4.782 -29.695  1.00  0.00     0.020 A 
ENDROOT
BRANCH   1  12
ATOM     12  C   UNL     1     -12.823   4.618 -29.449  1.00  0.00     0.025 A 
ATOM     13  C   UNL     1     -12.104   5.765 -29.069  1.00  0.00     0.016 A 
ATOM     14  C   UNL     1     -10.708   5.747 -29.040  1.00  0.00     0.051 A 
ATOM     15  C   UNL     1     -10.010   4.580 -29.377  1.00  0.00     0.157 A 
ATOM     16  C   UNL     1     -12.118   3.445 -29.765  1.00  0.00     0.062 A 
ATOM     17  C   UNL     1     -10.716   3.426 -29.737  1.00  0.00     0.158 A 
BRANCH  15  18
ATOM     18  O   UNL     1      -8.617   4.559 -29.351  1.00  0.00    -0.504 OA
ATOM     19  H   UNL     1      -8.068   5.332 -29.708  1.00  0.00     0.293 HD
ENDBRANCH  15  18
BRANCH  17  20
ATOM     20  O   UNL     1     -10.019   2.265 -30.065  1.00  0.00    -0.504 OA
ATOM     21  H   UNL     1     -10.336   1.647 -30.804  1.00  0.00     0.293 HD
ENDBRANCH  17  20
ENDBRANCH   1  12
BRANCH   2  22
ATOM     22  O   UNL     1     -14.401   2.639 -28.024  1.00  0.00    -0.502 OA
ATOM     23  H   UNL     1     -13.436   2.734 -27.729  1.00  0.00     0.293 HD
ENDBRANCH   2  22
BRANCH   9  24
ATOM     24  O   UNL     1     -18.798   7.825 -31.782  1.00  0.00    -0.508 OA
ATOM     25  H   UNL     1     -19.694   8.225 -31.528  1.00  0.00     0.293 HD
ENDBRANCH   9  24
TORSDOF 5
ENDMDL
MODEL 5
REMARK VINA RESULT:    -6.697      1.296      1.873
REMARK INTER + INTRA:          -8.147
REMARK INTER:                  -7.931
REMARK INTRA:                  -0.216
REMARK UNBOUND:                -0.275
REMARK SMILES O=c1c(O)c(-c2ccc(O)c(O)c2)oc2cc(O)ccc12
REMARK SMILES IDX 5 1 3 2 2 3 1 4 21 5 15 6 14 7 16 8 17 9 19 10 20 11 6 12
REMARK SMILES IDX 7 13 8 14 9 15 13 16 11 17 10 18 12 20 4 22 18 24
REMARK H PARENT 10 19 12 21 4 23 18 25
REMARK Flexibility Score: inf
ROOT
ATOM      1  C   UNL     1     -14.122   4.042 -28.456  1.00  0.00     0.180 A 
ATOM      2  C   UNL     1     -14.502   5.009 -27.501  1.00  0.00     0.208 A 
ATOM      3  C   UNL     1     -15.788   5.566 -27.576  1.00  0.00     0.235 A 
ATOM      4  O   UNL     1     -16.154   6.425 -26.729  1.00  0.00    -0.285 OA
ATOM      5  C   UNL     1     -16.654   5.164 -28.606  1.00  0.00     0.069 A 
ATOM      6  C   UNL     1     -16.191   4.208 -29.536  1.00  0.00     0.142 A 
ATOM      7  O   UNL     1     -14.970   3.700 -29.424  1.00  0.00    -0.452 OA
ATOM      8  C   UNL     1     -17.021   3.791 -30.582  1.00  0.00     0.094 A 
ATOM      9  C   UNL     1     -18.312   4.314 -30.711  1.00  0.00     0.119 A 
ATOM     10  C   UNL     1     -18.775   5.262 -29.789  1.00  0.00     0.047 A 
ATOM     11  C   UNL     1     -17.953   5.687 -28.741  1.00  0.00     0.020 A 
ENDROOT
BRANCH   1  12
ATOM     12  C   UNL     1     -12.791   3.395 -28.431  1.00  0.00     0.025 A 
ATOM     13  C   UNL     1     -11.804   3.710 -29.382  1.00  0.00     0.016 A 
ATOM     14  C   UNL     1     -10.547   3.105 -29.323  1.00  0.00     0.051 A 
ATOM     15  C   UNL     1     -10.253   2.185 -28.308  1.00  0.00     0.157 A 
ATOM     16  C   UNL     1     -12.482   2.488 -27.403  1.00  0.00     0.062 A 
ATOM     17  C   UNL     1     -11.221   1.879 -27.344  1.00  0.00     0.158 A 
BRANCH  15  18
ATOM     18  O   UNL     1      -9.000   1.578 -28.248  1.00  0.00    -0.504 OA
ATOM     19  H   UNL     1      -8.162   2.059 -28.553  1.00  0.00     0.293 HD
ENDBRANCH  15  18
BRANCH  17  20
ATOM     20  O   UNL     1     -10.923   0.969 -26.332  1.00  0.00    -0.504 OA
ATOM     21  H   UNL     1     -11.638   0.382 -25.919  1.00  0.00     0.293 HD
ENDBRANCH  17  20
ENDBRANCH   1  12
BRANCH   2  22
ATOM     22  O   UNL     1     -13.600   5.424 -26.518  1.00  0.00    -0.502 OA
ATOM     23  H   UNL     1     -13.903   5.722 -25.598  1.00  0.00     0.293 HD
ENDBRANCH   2  22
BRANCH   9  24
ATOM     24  O   UNL     1     -19.125   3.886 -31.758  1.00  0.00    -0.508 OA
ATOM     25  H   UNL     1     -19.285   2.901 -31.935  1.00  0.00     0.293 HD
ENDBRANCH   9  24
TORSDOF 5
ENDMDL
MODEL 6
REMARK VINA RESULT:    -6.647      1.960      6.572
REMARK INTER + INTRA:          -8.088
REMARK INTER:                  -7.848
REMARK INTRA:                  -0.240
REMARK UNBOUND:                -0.275
REMARK SMILES O=c1c(O)c(-c2ccc(O)c(O)c2)oc2cc(O)ccc12
REMARK SMILES IDX 5 1 3 2 2 3 1 4 21 5 15 6 14 7 16 8 17 9 19 10 20 11 6 12
REMARK SMILES IDX 7 13 8 14 9 15 13 16 11 17 10 18 12 20 4 22 18 24
REMARK H PARENT 10 19 12 21 4 23 18 25
REMARK Flexibility Score: inf
ROOT
ATOM      1  C   UNL     1     -13.832   5.145 -28.264  1.00  0.00     0.180 A 
ATOM      2  C   UNL     1     -12.777   5.867 -28.861  1.00  0.00     0.208 A 
ATOM      3  C   UNL     1     -11.495   5.296 -28.888  1.00  0.00     0.235 A 
ATOM      4  O   UNL     1     -10.539   5.918 -29.426  1.00  0.00    -0.285 OA
ATOM      5  C   UNL     1     -11.290   4.036 -28.305  1.00  0.00     0.069 A 
ATOM      6  C   UNL     1     -12.391   3.387 -27.706  1.00  0.00     0.142 A 
ATOM      7  O   UNL     1     -13.590   3.959 -27.710  1.00  0.00    -0.452 OA
ATOM      8  C   UNL     1     -12.224   2.134 -27.105  1.00  0.00     0.094 A 
ATOM      9  C   UNL     1     -10.968   1.518 -27.097  1.00  0.00     0.119 A 
ATOM     10  C   UNL     1      -9.873   2.158 -27.692  1.00  0.00     0.047 A 
ATOM     11  C   UNL     1     -10.029   3.410 -28.294  1.00  0.00     0.020 A 
ENDROOT
BRANCH   1  12
ATOM     12  C   UNL     1     -15.214   5.671 -28.213  1.00  0.00     0.025 A 
ATOM     13  C   UNL     1     -15.760   6.188 -27.024  1.00  0.00     0.016 A 
ATOM     14  C   UNL     1     -17.059   6.702 -27.008  1.00  0.00     0.051 A 
ATOM     15  C   UNL     1     -17.826   6.718 -28.179  1.00  0.00     0.157 A 
ATOM     16  C   UNL     1     -15.982   5.711 -29.389  1.00  0.00     0.062 A 
ATOM     17  C   UNL     1     -17.286   6.225 -29.373  1.00  0.00     0.158 A 
BRANCH  15  18
ATOM     18  O   UNL     1     -19.123   7.228 -28.165  1.00  0.00    -0.504 OA
ATOM     19  H   UNL     1     -19.925   6.634 -27.989  1.00  0.00     0.293 HD
ENDBRANCH  15  18
BRANCH  17  20
ATOM     20  O   UNL     1     -18.050   6.249 -30.538  1.00  0.00    -0.504 OA
ATOM     21  H   UNL     1     -18.000   5.502 -31.221  1.00  0.00     0.293 HD
ENDBRANCH  17  20
ENDBRANCH   1  12
BRANCH   2  22
ATOM     22  O   UNL     1     -13.003   7.141 -29.390  1.00  0.00    -0.502 OA
ATOM     23  H   UNL     1     -12.364   7.912 -29.234  1.00  0.00     0.293 HD
ENDBRANCH   2  22
BRANCH   9  24
ATOM     24  O   UNL     1     -10.820   0.270 -26.496  1.00  0.00    -0.508 OA
ATOM     25  H   UNL     1     -10.596  -0.556 -27.039  1.00  0.00     0.293 HD
ENDBRANCH   9  24
TORSDOF 5
ENDMDL
MODEL 7
REMARK VINA RESULT:    -6.638      1.958      6.888
REMARK INTER + INTRA:          -8.077
REMARK INTER:                  -7.829
REMARK INTRA:                  -0.247
REMARK UNBOUND:                -0.275
REMARK SMILES O=c1c(O)c(-c2ccc(O)c(O)c2)oc2cc(O)ccc12
REMARK SMILES IDX 5 1 3 2 2 3 1 4 21 5 15 6 14 7 16 8 17 9 19 10 20 11 6 12
REMARK SMILES IDX 7 13 8 14 9 15 13 16 11 17 10 18 12 20 4 22 18 24
REMARK H PARENT 10 19 12 21 4 23 18 25
REMARK Flexibility Score: inf
ROOT
ATOM      1  C   UNL     1     -14.037   4.507 -28.284  1.00  0.00     0.180 A 
ATOM      2  C   UNL     1     -14.010   3.491 -27.306  1.00  0.00     0.208 A 
ATOM      3  C   UNL     1     -12.818   2.779 -27.101  1.00  0.00     0.235 A 
ATOM      4  O   UNL     1     -12.766   1.874 -26.226  1.00  0.00    -0.285 OA
ATOM      5  C   UNL     1     -11.692   3.081 -27.884  1.00  0.00     0.069 A 
ATOM      6  C   UNL     1     -11.806   4.096 -28.858  1.00  0.00     0.142 A 
ATOM      7  O   UNL     1     -12.950   4.751 -29.014  1.00  0.00    -0.452 OA
ATOM      8  C   UNL     1     -10.709   4.417 -29.665  1.00  0.00     0.094 A 
ATOM      9  C   UNL     1      -9.496   3.739 -29.510  1.00  0.00     0.119 A 
ATOM     10  C   UNL     1      -9.378   2.732 -28.543  1.00  0.00     0.047 A 
ATOM     11  C   UNL     1     -10.469   2.402 -27.732  1.00  0.00     0.020 A 
ENDROOT
BRANCH   1  12
ATOM     12  C   UNL     1     -15.250   5.314 -28.546  1.00  0.00     0.025 A 
ATOM     13  C   UNL     1     -16.357   4.776 -29.225  1.00  0.00     0.016 A 
ATOM     14  C   UNL     1     -17.500   5.549 -29.438  1.00  0.00     0.051 A 
ATOM     15  C   UNL     1     -17.559   6.867 -28.965  1.00  0.00     0.157 A 
ATOM     16  C   UNL     1     -15.324   6.629 -28.055  1.00  0.00     0.062 A 
ATOM     17  C   UNL     1     -16.471   7.406 -28.269  1.00  0.00     0.158 A 
BRANCH  15  18
ATOM     18  O   UNL     1     -18.697   7.642 -29.178  1.00  0.00    -0.504 OA
ATOM     19  H   UNL     1     -18.698   8.642 -29.010  1.00  0.00     0.293 HD
ENDBRANCH  15  18
BRANCH  17  20
ATOM     20  O   UNL     1     -16.536   8.715 -27.794  1.00  0.00    -0.504 OA
ATOM     21  H   UNL     1     -16.164   9.492 -28.329  1.00  0.00     0.293 HD
ENDBRANCH  17  20
ENDBRANCH   1  12
BRANCH   2  22
ATOM     22  O   UNL     1     -15.161   3.181 -26.577  1.00  0.00    -0.502 OA
ATOM     23  H   UNL     1     -15.580   3.834 -25.924  1.00  0.00     0.293 HD
ENDBRANCH   2  22
BRANCH   9  24
ATOM     24  O   UNL     1      -8.414   4.074 -30.321  1.00  0.00    -0.508 OA
ATOM     25  H   UNL     1      -7.491   4.230 -29.934  1.00  0.00     0.293 HD
ENDBRANCH   9  24
TORSDOF 5
ENDMDL
MODEL 8
REMARK VINA RESULT:    -6.611      2.566      6.143
REMARK INTER + INTRA:          -8.045
REMARK INTER:                  -7.765
REMARK INTRA:                  -0.280
REMARK UNBOUND:                -0.275
REMARK SMILES O=c1c(O)c(-c2ccc(O)c(O)c2)oc2cc(O)ccc12
REMARK SMILES IDX 5 1 3 2 2 3 1 4 21 5 15 6 14 7 16 8 17 9 19 10 20 11 6 12
REMARK SMILES IDX 7 13 8 14 9 15 13 16 11 17 10 18 12 20 4 22 18 24
REMARK H PARENT 10 19 12 21 4 23 18 25
REMARK Flexibility Score: inf
ROOT
ATOM      1  C   UNL     1     -13.056   3.913 -28.010  1.00  0.00     0.180 A 
ATOM      2  C   UNL     1     -12.584   5.190 -28.383  1.00  0.00     0.208 A 
ATOM      3  C   UNL     1     -11.332   5.293 -29.008  1.00  0.00     0.235 A 
ATOM      4  O   UNL     1     -10.893   6.422 -29.359  1.00  0.00    -0.285 OA
ATOM      5  C   UNL     1     -10.574   4.132 -29.229  1.00  0.00     0.069 A 
ATOM      6  C   UNL     1     -11.106   2.894 -28.807  1.00  0.00     0.142 A 
ATOM      7  O   UNL     1     -12.299   2.840 -28.226  1.00  0.00    -0.452 OA
ATOM      8  C   UNL     1     -10.376   1.716 -29.000  1.00  0.00     0.094 A 
ATOM      9  C   UNL     1      -9.120   1.757 -29.614  1.00  0.00     0.119 A 
ATOM     10  C   UNL     1      -8.590   2.984 -30.036  1.00  0.00     0.047 A 
ATOM     11  C   UNL     1      -9.310   4.167 -29.847  1.00  0.00     0.020 A 
ENDROOT
BRANCH   1  12
ATOM     12  C   UNL     1     -14.374   3.721 -27.364  1.00  0.00     0.025 A 
ATOM     13  C   UNL     1     -14.492   3.559 -25.972  1.00  0.00     0.016 A 
ATOM     14  C   UNL     1     -15.749   3.404 -25.383  1.00  0.00     0.051 A 
ATOM     15  C   UNL     1     -16.906   3.420 -26.173  1.00  0.00     0.157 A 
ATOM     16  C   UNL     1     -15.540   3.758 -28.148  1.00  0.00     0.062 A 
ATOM     17  C   UNL     1     -16.801   3.601 -27.557  1.00  0.00     0.158 A 
BRANCH  15  18
ATOM     18  O   UNL     1     -18.161   3.264 -25.588  1.00  0.00    -0.504 OA
ATOM     19  H   UNL     1     -18.287   2.728 -24.737  1.00  0.00     0.293 HD
ENDBRANCH  15  18
BRANCH  17  20
ATOM     20  O   UNL     1     -17.955   3.624 -28.339  1.00  0.00    -0.504 OA
ATOM     21  H   UNL     1     -18.520   2.793 -28.474  1.00  0.00     0.293 HD
ENDBRANCH  17  20
ENDBRANCH   1  12
BRANCH   2  22
ATOM     22  O   UNL     1     -13.340   6.332 -28.105  1.00  0.00    -0.502 OA
ATOM     23  H   UNL     1     -12.914   7.206 -27.821  1.00  0.00     0.293 HD
ENDBRANCH   2  22
BRANCH   9  24
ATOM     24  O   UNL     1      -8.408   0.575 -29.800  1.00  0.00    -0.508 OA
ATOM     25  H   UNL     1      -8.762  -0.314 -29.467  1.00  0.00     0.293 HD
ENDBRANCH   9  24
TORSDOF 5
ENDMDL
MODEL 9
REMARK VINA RESULT:    -6.266      2.405      2.879
REMARK INTER + INTRA:          -7.640
REMARK INTER:                  -7.883
REMARK INTRA:                   0.242
REMARK UNBOUND:                -0.275
REMARK SMILES O=c1c(O)c(-c2ccc(O)c(O)c2)oc2cc(O)ccc12
REMARK SMILES IDX 5 1 3 2 2 3 1 4 21 5 15 6 14 7 16 8 17 9 19 10 20 11 6 12
REMARK SMILES IDX 7 13 8 14 9 15 13 16 11 17 10 18 12 20 4 22 18 24
REMARK H PARENT 10 19 12 21 4 23 18 25
REMARK Flexibility Score: inf
ROOT
ATOM      1  C   UNL     1     -13.625   4.418 -28.156  1.00  0.00     0.180 A 
ATOM      2  C   UNL     1     -13.718   5.761 -28.577  1.00  0.00     0.208 A 
ATOM      3  C   UNL     1     -14.891   6.479 -28.295  1.00  0.00     0.235 A 
ATOM      4  O   UNL     1     -14.995   7.684 -28.652  1.00  0.00    -0.285 OA
ATOM      5  C   UNL     1     -15.945   5.840 -27.623  1.00  0.00     0.069 A 
ATOM      6  C   UNL     1     -15.783   4.486 -27.256  1.00  0.00     0.142 A 
ATOM      7  O   UNL     1     -14.654   3.847 -27.534  1.00  0.00    -0.452 OA
ATOM      8  C   UNL     1     -16.815   3.812 -26.594  1.00  0.00     0.094 A 
ATOM      9  C   UNL     1     -18.010   4.474 -26.290  1.00  0.00     0.119 A 
ATOM     10  C   UNL     1     -18.173   5.818 -26.651  1.00  0.00     0.047 A 
ATOM     11  C   UNL     1     -17.149   6.500 -27.314  1.00  0.00     0.020 A 
ENDROOT
BRANCH   1  12
ATOM     12  C   UNL     1     -12.414   3.601 -28.399  1.00  0.00     0.025 A 
ATOM     13  C   UNL     1     -11.625   3.783 -29.549  1.00  0.00     0.016 A 
ATOM     14  C   UNL     1     -10.473   3.017 -29.744  1.00  0.00     0.051 A 
ATOM     15  C   UNL     1     -10.086   2.069 -28.788  1.00  0.00     0.157 A 
ATOM     16  C   UNL     1     -12.008   2.664 -27.434  1.00  0.00     0.062 A 
ATOM     17  C   UNL     1     -10.853   1.895 -27.630  1.00  0.00     0.158 A 
BRANCH  15  18
ATOM     18  O   UNL     1      -8.938   1.302 -28.980  1.00  0.00    -0.504 OA
ATOM     19  H   UNL     1      -8.960   0.437 -29.509  1.00  0.00     0.293 HD
ENDBRANCH  15  18
BRANCH  17  20
ATOM     20  O   UNL     1     -10.460   0.955 -26.678  1.00  0.00    -0.504 OA
ATOM     21  H   UNL     1     -11.063   0.184 -26.414  1.00  0.00     0.293 HD
ENDBRANCH  17  20
ENDBRANCH   1  12
BRANCH   2  22
ATOM     22  O   UNL     1     -12.672   6.355 -29.287  1.00  0.00    -0.502 OA
ATOM     23  H   UNL     1     -11.815   5.858 -29.503  1.00  0.00     0.293 HD
ENDBRANCH   2  22
BRANCH   9  24
ATOM     24  O   UNL     1     -19.026   3.788 -25.629  1.00  0.00    -0.508 OA
ATOM     25  H   UNL     1     -19.967   3.749 -26.001  1.00  0.00     0.293 HD
ENDBRANCH   9  24
TORSDOF 5
ENDMDL
