MODEL 1
REMARK VINA RESULT:    -3.375      0.000      0.000
REMARK INTER + INTRA:          -7.609
REMARK INTER:                  -5.743
REMARK INTRA:                  -1.866
REMARK UNBOUND:                -1.866
REMARK SMILES CCCCCCCCCCCCCC(=O)[O-]
REMARK SMILES IDX 8 1 9 2 10 3 11 4 12 5 13 6 14 7 15 8 16 9 7 10 6 11 5 12
REMARK SMILES IDX 4 13 3 14 2 15 1 16
REMARK H PARENT
REMARK Flexibility Score: inf
ROOT
ATOM      1  C   UNL     1      10.644  -6.916  43.358  1.00  0.00     0.000 C 
ENDROOT
BRANCH   1   2
ATOM      2  C   UNL     1       9.359  -6.447  44.056  1.00  0.00     0.000 C 
BRANCH   2   3
ATOM      3  C   UNL     1       9.635  -5.504  45.238  1.00  0.00     0.000 C 
BRANCH   3   4
ATOM      4  C   UNL     1       9.402  -4.026  44.881  1.00  0.00     0.000 C 
BRANCH   4   5
ATOM      5  C   UNL     1      10.683  -3.178  44.991  1.00  0.00     0.006 C 
BRANCH   5   6
ATOM      6  C   UNL     1      11.582  -3.221  43.745  1.00  0.00     0.053 C 
BRANCH   6   7
ATOM      7  C   UNL     1      12.803  -4.059  43.962  1.00  0.00     0.041 C 
ATOM      8  O   UNL     1      13.189  -4.328  45.130  1.00  0.00    -0.550 OA
ATOM      9  O   UNL     1      13.498  -4.570  42.873  1.00  0.00    -0.550 OA
ENDBRANCH   6   7
ENDBRANCH   5   6
ENDBRANCH   4   5
ENDBRANCH   3   4
ENDBRANCH   2   3
ENDBRANCH   1   2
BRANCH   1  10
ATOM     10  C   UNL     1      10.537  -6.745  41.838  1.00  0.00     0.000 C 
BRANCH  10  11
ATOM     11  C   UNL     1       9.140  -6.260  41.434  1.00  0.00    -0.000 C 
BRANCH  11  12
ATOM     12  C   UNL     1       8.670  -6.950  40.143  1.00  0.00    -0.000 C 
BRANCH  12  13
ATOM     13  C   UNL     1       7.836  -8.212  40.414  1.00  0.00    -0.000 C 
BRANCH  13  14
ATOM     14  C   UNL     1       6.937  -8.071  41.655  1.00  0.00    -0.000 C 
BRANCH  14  15
ATOM     15  C   UNL     1       7.168  -9.194  42.679  1.00  0.00    -0.003 C 
ATOM     16  C   UNL     1       8.523  -9.882  42.509  1.00  0.00     0.004 C 
ENDBRANCH  14  15
ENDBRANCH  13  14
ENDBRANCH  12  13
ENDBRANCH  11  12
ENDBRANCH  10  11
ENDBRANCH   1  10
TORSDOF 12
ENDMDL
MODEL 2
REMARK VINA RESULT:    -3.278      3.186      6.398
REMARK INTER + INTRA:          -7.442
REMARK INTER:                  -5.930
REMARK INTRA:                  -1.513
REMARK UNBOUND:                -1.866
REMARK SMILES CCCCCCCCCCCCCC(=O)[O-]
REMARK SMILES IDX 8 1 9 2 10 3 11 4 12 5 13 6 14 7 15 8 16 9 7 10 6 11 5 12
REMARK SMILES IDX 4 13 3 14 2 15 1 16
REMARK H PARENT
REMARK Flexibility Score: inf
ROOT
ATOM      1  C   UNL     1       9.389  -6.658  44.084  1.00  0.00     0.000 C 
ENDROOT
BRANCH   1   2
ATOM      2  C   UNL     1       9.705  -6.100  42.688  1.00  0.00     0.000 C 
BRANCH   2   3
ATOM      3  C   UNL     1      10.485  -7.095  41.813  1.00  0.00     0.000 C 
BRANCH   3   4
ATOM      4  C   UNL     1      10.020  -7.081  40.347  1.00  0.00     0.000 C 
BRANCH   4   5
ATOM      5  C   UNL     1       8.486  -7.071  40.209  1.00  0.00     0.006 C 
BRANCH   5   6
ATOM      6  C   UNL     1       7.849  -8.465  40.095  1.00  0.00     0.053 C 
BRANCH   6   7
ATOM      7  C   UNL     1       6.676  -8.622  41.012  1.00  0.00     0.041 C 
ATOM      8  O   UNL     1       6.725  -8.177  42.189  1.00  0.00    -0.550 OA
ATOM      9  O   UNL     1       5.514  -9.233  40.556  1.00  0.00    -0.550 OA
ENDBRANCH   6   7
ENDBRANCH   5   6
ENDBRANCH   4   5
ENDBRANCH   3   4
ENDBRANCH   2   3
ENDBRANCH   1   2
BRANCH   1  10
ATOM     10  C   UNL     1       9.586  -5.585  45.161  1.00  0.00     0.000 C 
BRANCH  10  11
ATOM     11  C   UNL     1       9.439  -4.177  44.571  1.00  0.00    -0.000 C 
BRANCH  11  12
ATOM     12  C   UNL     1      10.483  -3.220  45.168  1.00  0.00    -0.000 C 
BRANCH  12  13
ATOM     13  C   UNL     1      11.651  -2.942  44.207  1.00  0.00    -0.000 C 
BRANCH  13  14
ATOM     14  C   UNL     1      12.811  -3.937  44.383  1.00  0.00    -0.000 C 
BRANCH  14  15
ATOM     15  C   UNL     1      13.162  -4.668  43.078  1.00  0.00    -0.003 C 
ATOM     16  C   UNL     1      13.736  -6.065  43.315  1.00  0.00     0.004 C 
ENDBRANCH  14  15
ENDBRANCH  13  14
ENDBRANCH  12  13
ENDBRANCH  11  12
ENDBRANCH  10  11
ENDBRANCH   1  10
TORSDOF 12
ENDMDL
MODEL 3
REMARK VINA RESULT:    -3.254      3.202      6.184
REMARK INTER + INTRA:          -7.402
REMARK INTER:                  -5.990
REMARK INTRA:                  -1.412
REMARK UNBOUND:                -1.866
REMARK SMILES CCCCCCCCCCCCCC(=O)[O-]
REMARK SMILES IDX 8 1 9 2 10 3 11 4 12 5 13 6 14 7 15 8 16 9 7 10 6 11 5 12
REMARK SMILES IDX 4 13 3 14 2 15 1 16
REMARK H PARENT
REMARK Flexibility Score: inf
ROOT
ATOM      1  C   UNL     1       9.817  -4.798  43.559  1.00  0.00     0.000 C 
ENDROOT
BRANCH   1   2
ATOM      2  C   UNL     1       9.445  -6.259  43.848  1.00  0.00     0.000 C 
BRANCH   2   3
ATOM      3  C   UNL     1       9.148  -7.060  42.570  1.00  0.00     0.000 C 
BRANCH   3   4
ATOM      4  C   UNL     1       9.010  -6.162  41.329  1.00  0.00     0.000 C 
BRANCH   4   5
ATOM      5  C   UNL     1       8.873  -6.967  40.023  1.00  0.00     0.006 C 
BRANCH   5   6
ATOM      6  C   UNL     1      10.171  -7.642  39.553  1.00  0.00     0.053 C 
BRANCH   6   7
ATOM      7  C   UNL     1       9.904  -8.888  38.766  1.00  0.00     0.041 C 
ATOM      8  O   UNL     1      10.742  -9.827  38.760  1.00  0.00    -0.550 OA
ATOM      9  O   UNL     1       8.712  -9.025  38.065  1.00  0.00    -0.550 OA
ENDBRANCH   6   7
ENDBRANCH   5   6
ENDBRANCH   4   5
ENDBRANCH   3   4
ENDBRANCH   2   3
ENDBRANCH   1   2
BRANCH   1  10
ATOM     10  C   UNL     1       9.617  -3.924  44.804  1.00  0.00     0.000 C 
BRANCH  10  11
ATOM     11  C   UNL     1      10.804  -2.975  45.009  1.00  0.00    -0.000 C 
BRANCH  11  12
ATOM     12  C   UNL     1      11.964  -3.336  44.068  1.00  0.00    -0.000 C 
BRANCH  12  13
ATOM     13  C   UNL     1      13.202  -3.849  44.821  1.00  0.00    -0.000 C 
BRANCH  13  14
ATOM     14  C   UNL     1      13.756  -5.155  44.226  1.00  0.00    -0.000 C 
BRANCH  14  15
ATOM     15  C   UNL     1      13.471  -5.283  42.721  1.00  0.00    -0.003 C 
ATOM     16  C   UNL     1      12.873  -6.638  42.342  1.00  0.00     0.004 C 
ENDBRANCH  14  15
ENDBRANCH  13  14
ENDBRANCH  12  13
ENDBRANCH  11  12
ENDBRANCH  10  11
ENDBRANCH   1  10
TORSDOF 12
ENDMDL
MODEL 4
REMARK VINA RESULT:    -3.145     15.375     17.312
REMARK INTER + INTRA:          -7.217
REMARK INTER:                  -6.584
REMARK INTRA:                  -0.634
REMARK UNBOUND:                -1.866
REMARK SMILES CCCCCCCCCCCCCC(=O)[O-]
REMARK SMILES IDX 8 1 9 2 10 3 11 4 12 5 13 6 14 7 15 8 16 9 7 10 6 11 5 12
REMARK SMILES IDX 4 13 3 14 2 15 1 16
REMARK H PARENT
REMARK Flexibility Score: inf
ROOT
ATOM      1  C   UNL     1      19.479 -17.013  43.041  1.00  0.00     0.000 C 
ENDROOT
BRANCH   1   2
ATOM      2  C   UNL     1      19.970 -18.227  42.239  1.00  0.00     0.000 C 
BRANCH   2   3
ATOM      3  C   UNL     1      19.454 -18.231  40.791  1.00  0.00     0.000 C 
BRANCH   3   4
ATOM      4  C   UNL     1      18.366 -19.292  40.554  1.00  0.00     0.000 C 
BRANCH   4   5
ATOM      5  C   UNL     1      18.357 -20.387  41.638  1.00  0.00     0.006 C 
BRANCH   5   6
ATOM      6  C   UNL     1      16.993 -20.602  42.312  1.00  0.00     0.053 C 
BRANCH   6   7
ATOM      7  C   UNL     1      16.835 -21.999  42.826  1.00  0.00     0.041 C 
ATOM      8  O   UNL     1      16.715 -22.961  42.023  1.00  0.00    -0.550 OA
ATOM      9  O   UNL     1      16.852 -22.243  44.194  1.00  0.00    -0.550 OA
ENDBRANCH   6   7
ENDBRANCH   5   6
ENDBRANCH   4   5
ENDBRANCH   3   4
ENDBRANCH   2   3
ENDBRANCH   1   2
BRANCH   1  10
ATOM     10  C   UNL     1      20.650 -16.295  43.722  1.00  0.00     0.000 C 
BRANCH  10  11
ATOM     11  C   UNL     1      21.987 -16.695  43.087  1.00  0.00    -0.000 C 
BRANCH  11  12
ATOM     12  C   UNL     1      23.162 -16.012  43.804  1.00  0.00    -0.000 C 
BRANCH  12  13
ATOM     13  C   UNL     1      22.712 -14.858  44.716  1.00  0.00    -0.000 C 
BRANCH  13  14
ATOM     14  C   UNL     1      23.608 -14.704  45.958  1.00  0.00    -0.000 C 
BRANCH  14  15
ATOM     15  C   UNL     1      24.789 -13.751  45.716  1.00  0.00    -0.003 C 
ATOM     16  C   UNL     1      24.629 -12.917  44.445  1.00  0.00     0.004 C 
ENDBRANCH  14  15
ENDBRANCH  13  14
ENDBRANCH  12  13
ENDBRANCH  11  12
ENDBRANCH  10  11
ENDBRANCH   1  10
TORSDOF 12
ENDMDL
MODEL 5
REMARK VINA RESULT:    -3.105     14.129     15.353
REMARK INTER + INTRA:          -7.149
REMARK INTER:                  -5.605
REMARK INTRA:                  -1.544
REMARK UNBOUND:                -1.866
REMARK SMILES CCCCCCCCCCCCCC(=O)[O-]
REMARK SMILES IDX 8 1 9 2 10 3 11 4 12 5 13 6 14 7 15 8 16 9 7 10 6 11 5 12
REMARK SMILES IDX 4 13 3 14 2 15 1 16
REMARK H PARENT
REMARK Flexibility Score: inf
ROOT
ATOM      1  C   UNL     1      22.202 -16.090  43.164  1.00  0.00     0.000 C 
ENDROOT
BRANCH   1   2
ATOM      2  C   UNL     1      21.321 -15.489  44.269  1.00  0.00     0.000 C 
BRANCH   2   3
ATOM      3  C   UNL     1      22.117 -15.123  45.532  1.00  0.00     0.000 C 
BRANCH   3   4
ATOM      4  C   UNL     1      23.637 -15.128  45.293  1.00  0.00     0.000 C 
BRANCH   4   5
ATOM      5  C   UNL     1      24.333 -13.877  45.861  1.00  0.00     0.006 C 
BRANCH   5   6
ATOM      6  C   UNL     1      25.080 -13.035  44.813  1.00  0.00     0.053 C 
BRANCH   6   7
ATOM      7  C   UNL     1      24.331 -12.956  43.519  1.00  0.00     0.041 C 
ATOM      8  O   UNL     1      23.290 -12.253  43.430  1.00  0.00    -0.550 OA
ATOM      9  O   UNL     1      24.801 -13.634  42.401  1.00  0.00    -0.550 OA
ENDBRANCH   6   7
ENDBRANCH   5   6
ENDBRANCH   4   5
ENDBRANCH   3   4
ENDBRANCH   2   3
ENDBRANCH   1   2
BRANCH   1  10
ATOM     10  C   UNL     1      21.753 -17.515  42.819  1.00  0.00     0.000 C 
BRANCH  10  11
ATOM     11  C   UNL     1      20.400 -17.839  43.464  1.00  0.00    -0.000 C 
BRANCH  11  12
ATOM     12  C   UNL     1      19.484 -18.581  42.477  1.00  0.00    -0.000 C 
BRANCH  12  13
ATOM     13  C   UNL     1      18.618 -17.627  41.639  1.00  0.00    -0.000 C 
BRANCH  13  14
ATOM     14  C   UNL     1      19.028 -17.606  40.156  1.00  0.00    -0.000 C 
BRANCH  14  15
ATOM     15  C   UNL     1      19.846 -16.357  39.790  1.00  0.00    -0.003 C 
ATOM     16  C   UNL     1      19.486 -15.141  40.644  1.00  0.00     0.004 C 
ENDBRANCH  14  15
ENDBRANCH  13  14
ENDBRANCH  12  13
ENDBRANCH  11  12
ENDBRANCH  10  11
ENDBRANCH   1  10
TORSDOF 12
ENDMDL
MODEL 6
REMARK VINA RESULT:    -3.096      2.906      5.954
REMARK INTER + INTRA:          -7.133
REMARK INTER:                  -5.173
REMARK INTRA:                  -1.960
REMARK UNBOUND:                -1.866
REMARK SMILES CCCCCCCCCCCCCC(=O)[O-]
REMARK SMILES IDX 8 1 9 2 10 3 11 4 12 5 13 6 14 7 15 8 16 9 7 10 6 11 5 12
REMARK SMILES IDX 4 13 3 14 2 15 1 16
REMARK H PARENT
REMARK Flexibility Score: inf
ROOT
ATOM      1  C   UNL     1       9.675  -4.808  43.772  1.00  0.00     0.000 C 
ENDROOT
BRANCH   1   2
ATOM      2  C   UNL     1       9.654  -6.193  44.434  1.00  0.00     0.000 C 
BRANCH   2   3
ATOM      3  C   UNL     1      10.407  -7.255  43.617  1.00  0.00     0.000 C 
BRANCH   3   4
ATOM      4  C   UNL     1      10.996  -6.688  42.314  1.00  0.00     0.000 C 
BRANCH   4   5
ATOM      5  C   UNL     1      10.521  -7.453  41.064  1.00  0.00     0.006 C 
BRANCH   5   6
ATOM      6  C   UNL     1       9.218  -6.917  40.449  1.00  0.00     0.053 C 
BRANCH   6   7
ATOM      7  C   UNL     1       8.056  -7.823  40.718  1.00  0.00     0.041 C 
ATOM      8  O   UNL     1       7.328  -7.637  41.728  1.00  0.00    -0.550 OA
ATOM      9  O   UNL     1       7.759  -8.853  39.835  1.00  0.00    -0.550 OA
ENDBRANCH   6   7
ENDBRANCH   5   6
ENDBRANCH   4   5
ENDBRANCH   3   4
ENDBRANCH   2   3
ENDBRANCH   1   2
BRANCH   1  10
ATOM     10  C   UNL     1       9.624  -3.695  44.826  1.00  0.00     0.000 C 
BRANCH  10  11
ATOM     11  C   UNL     1      11.007  -3.065  45.030  1.00  0.00    -0.000 C 
BRANCH  11  12
ATOM     12  C   UNL     1      11.925  -3.355  43.831  1.00  0.00    -0.000 C 
BRANCH  12  13
ATOM     13  C   UNL     1      13.203  -4.111  44.230  1.00  0.00    -0.000 C 
BRANCH  13  14
ATOM     14  C   UNL     1      13.171  -4.594  45.691  1.00  0.00    -0.000 C 
BRANCH  14  15
ATOM     15  C   UNL     1      13.258  -6.124  45.807  1.00  0.00    -0.003 C 
ATOM     16  C   UNL     1      13.971  -6.770  44.619  1.00  0.00     0.004 C 
ENDBRANCH  14  15
ENDBRANCH  13  14
ENDBRANCH  12  13
ENDBRANCH  11  12
ENDBRANCH  10  11
ENDBRANCH   1  10
TORSDOF 12
ENDMDL
MODEL 7
REMARK VINA RESULT:    -3.093      2.060      3.560
REMARK INTER + INTRA:          -7.129
REMARK INTER:                  -5.835
REMARK INTRA:                  -1.293
REMARK UNBOUND:                -1.866
REMARK SMILES CCCCCCCCCCCCCC(=O)[O-]
REMARK SMILES IDX 8 1 9 2 10 3 11 4 12 5 13 6 14 7 15 8 16 9 7 10 6 11 5 12
REMARK SMILES IDX 4 13 3 14 2 15 1 16
REMARK H PARENT
REMARK Flexibility Score: inf
ROOT
ATOM      1  C   UNL     1       9.804  -3.668  44.626  1.00  0.00     0.000 C 
ENDROOT
BRANCH   1   2
ATOM      2  C   UNL     1      11.087  -3.094  44.009  1.00  0.00     0.000 C 
BRANCH   2   3
ATOM      3  C   UNL     1      12.361  -3.618  44.692  1.00  0.00     0.000 C 
BRANCH   3   4
ATOM      4  C   UNL     1      13.375  -4.193  43.688  1.00  0.00     0.000 C 
BRANCH   4   5
ATOM      5  C   UNL     1      13.382  -5.733  43.665  1.00  0.00     0.006 C 
BRANCH   5   6
ATOM      6  C   UNL     1      13.188  -6.348  42.270  1.00  0.00     0.053 C 
BRANCH   6   7
ATOM      7  C   UNL     1      14.494  -6.639  41.599  1.00  0.00     0.041 C 
ATOM      8  O   UNL     1      15.153  -7.666  41.909  1.00  0.00    -0.550 OA
ATOM      9  O   UNL     1      14.970  -5.791  40.606  1.00  0.00    -0.550 OA
ENDBRANCH   6   7
ENDBRANCH   5   6
ENDBRANCH   4   5
ENDBRANCH   3   4
ENDBRANCH   2   3
ENDBRANCH   1   2
BRANCH   1  10
ATOM     10  C   UNL     1       9.720  -5.184  44.410  1.00  0.00     0.000 C 
BRANCH  10  11
ATOM     11  C   UNL     1       9.697  -5.527  42.915  1.00  0.00    -0.000 C 
BRANCH  11  12
ATOM     12  C   UNL     1       9.131  -6.938  42.685  1.00  0.00    -0.000 C 
BRANCH  12  13
ATOM     13  C   UNL     1       8.174  -7.004  41.483  1.00  0.00    -0.000 C 
BRANCH  13  14
ATOM     14  C   UNL     1       8.867  -6.654  40.155  1.00  0.00    -0.000 C 
BRANCH  14  15
ATOM     15  C   UNL     1       9.450  -7.890  39.452  1.00  0.00    -0.003 C 
ATOM     16  C   UNL     1      10.973  -7.838  39.325  1.00  0.00     0.004 C 
ENDBRANCH  14  15
ENDBRANCH  13  14
ENDBRANCH  12  13
ENDBRANCH  11  12
ENDBRANCH  10  11
ENDBRANCH   1  10
TORSDOF 12
ENDMDL
MODEL 8
REMARK VINA RESULT:    -3.067      2.807      6.298
REMARK INTER + INTRA:          -7.084
REMARK INTER:                  -5.732
REMARK INTRA:                  -1.352
REMARK UNBOUND:                -1.866
REMARK SMILES CCCCCCCCCCCCCC(=O)[O-]
REMARK SMILES IDX 8 1 9 2 10 3 11 4 12 5 13 6 14 7 15 8 16 9 7 10 6 11 5 12
REMARK SMILES IDX 4 13 3 14 2 15 1 16
REMARK H PARENT
REMARK Flexibility Score: inf
ROOT
ATOM      1  C   UNL     1      10.779  -6.997  42.308  1.00  0.00     0.000 C 
ENDROOT
BRANCH   1   2
ATOM      2  C   UNL     1      10.431  -7.599  40.939  1.00  0.00     0.000 C 
BRANCH   2   3
ATOM      3  C   UNL     1       9.361  -6.791  40.188  1.00  0.00     0.000 C 
BRANCH   3   4
ATOM      4  C   UNL     1       8.111  -7.625  39.864  1.00  0.00     0.000 C 
BRANCH   4   5
ATOM      5  C   UNL     1       7.931  -8.823  40.816  1.00  0.00     0.006 C 
BRANCH   5   6
ATOM      6  C   UNL     1       7.024  -8.543  42.025  1.00  0.00     0.053 C 
BRANCH   6   7
ATOM      7  C   UNL     1       7.551  -9.170  43.278  1.00  0.00     0.041 C 
ATOM      8  O   UNL     1       7.924 -10.372  43.278  1.00  0.00    -0.550 OA
ATOM      9  O   UNL     1       7.659  -8.416  44.441  1.00  0.00    -0.550 OA
ENDBRANCH   6   7
ENDBRANCH   5   6
ENDBRANCH   4   5
ENDBRANCH   3   4
ENDBRANCH   2   3
ENDBRANCH   1   2
BRANCH   1  10
ATOM     10  C   UNL     1       9.691  -6.020  42.770  1.00  0.00     0.000 C 
BRANCH  10  11
ATOM     11  C   UNL     1      10.069  -5.363  44.103  1.00  0.00    -0.000 C 
BRANCH  11  12
ATOM     12  C   UNL     1       9.935  -3.834  44.020  1.00  0.00    -0.000 C 
BRANCH  12  13
ATOM     13  C   UNL     1      11.289  -3.127  43.845  1.00  0.00    -0.000 C 
BRANCH  13  14
ATOM     14  C   UNL     1      12.232  -3.355  45.039  1.00  0.00    -0.000 C 
BRANCH  14  15
ATOM     15  C   UNL     1      13.499  -4.132  44.648  1.00  0.00    -0.003 C 
ATOM     16  C   UNL     1      13.522  -4.526  43.171  1.00  0.00     0.004 C 
ENDBRANCH  14  15
ENDBRANCH  13  14
ENDBRANCH  12  13
ENDBRANCH  11  12
ENDBRANCH  10  11
ENDBRANCH   1  10
TORSDOF 12
ENDMDL
MODEL 9
REMARK VINA RESULT:    -3.032      1.762      2.838
REMARK INTER + INTRA:          -7.025
REMARK INTER:                  -6.150
REMARK INTRA:                  -0.875
REMARK UNBOUND:                -1.866
REMARK SMILES CCCCCCCCCCCCCC(=O)[O-]
REMARK SMILES IDX 8 1 9 2 10 3 11 4 12 5 13 6 14 7 15 8 16 9 7 10 6 11 5 12
REMARK SMILES IDX 4 13 3 14 2 15 1 16
REMARK H PARENT
REMARK Flexibility Score: inf
ROOT
ATOM      1  C   UNL     1       9.940  -5.099  45.069  1.00  0.00     0.000 C 
ENDROOT
BRANCH   1   2
ATOM      2  C   UNL     1       9.835  -3.771  44.306  1.00  0.00     0.000 C 
BRANCH   2   3
ATOM      3  C   UNL     1      11.071  -2.877  44.496  1.00  0.00     0.000 C 
BRANCH   3   4
ATOM      4  C   UNL     1      11.593  -2.891  45.943  1.00  0.00     0.000 C 
BRANCH   4   5
ATOM      5  C   UNL     1      13.085  -3.261  46.034  1.00  0.00     0.006 C 
BRANCH   5   6
ATOM      6  C   UNL     1      13.635  -3.993  44.799  1.00  0.00     0.053 C 
BRANCH   6   7
ATOM      7  C   UNL     1      15.126  -4.121  44.840  1.00  0.00     0.041 C 
ATOM      8  O   UNL     1      15.710  -4.406  45.918  1.00  0.00    -0.550 OA
ATOM      9  O   UNL     1      15.870  -3.956  43.678  1.00  0.00    -0.550 OA
ENDBRANCH   6   7
ENDBRANCH   5   6
ENDBRANCH   4   5
ENDBRANCH   3   4
ENDBRANCH   2   3
ENDBRANCH   1   2
BRANCH   1  10
ATOM     10  C   UNL     1       9.593  -6.284  44.158  1.00  0.00     0.000 C 
BRANCH  10  11
ATOM     11  C   UNL     1       9.689  -5.889  42.679  1.00  0.00    -0.000 C 
BRANCH  11  12
ATOM     12  C   UNL     1       8.821  -6.810  41.808  1.00  0.00    -0.000 C 
BRANCH  12  13
ATOM     13  C   UNL     1       8.963  -6.514  40.306  1.00  0.00    -0.000 C 
BRANCH  13  14
ATOM     14  C   UNL     1       9.136  -7.792  39.466  1.00  0.00    -0.000 C 
BRANCH  14  15
ATOM     15  C   UNL     1      10.606  -8.062  39.104  1.00  0.00    -0.003 C 
ATOM     16  C   UNL     1      11.320  -8.935  40.137  1.00  0.00     0.004 C 
ENDBRANCH  14  15
ENDBRANCH  13  14
ENDBRANCH  12  13
ENDBRANCH  11  12
ENDBRANCH  10  11
ENDBRANCH   1  10
TORSDOF 12
ENDMDL
