MODEL 1
REMARK VINA RESULT:    -3.773      0.000      0.000
REMARK INTER + INTRA:         -14.898
REMARK INTER:                  -9.948
REMARK INTRA:                  -4.950
REMARK UNBOUND:                -4.950
REMARK SMILES CCCCCCCCCCCCCCCCCCCCCCCCCCCCCC(=O)[O-]
REMARK SMILES IDX 16 1 17 2 18 3 19 4 20 5 21 6 22 7 23 8 24 9 25 10 26 11
REMARK SMILES IDX 27 12 28 13 29 14 30 15 31 16 32 17 15 18 14 19 13 20 12 21
REMARK SMILES IDX 11 22 10 23 9 24 8 25 7 26 6 27 5 28 4 29 3 30 2 31 1 32
REMARK H PARENT
REMARK Flexibility Score: inf
ROOT
ATOM      1  C   UNL     1     -91.687 145.646 237.653  1.00  0.00     0.000 C 
ENDROOT
BRANCH   1   2
ATOM      2  C   UNL     1     -92.025 146.031 239.105  1.00  0.00     0.000 C 
BRANCH   2   3
ATOM      3  C   UNL     1     -93.545 146.063 239.388  1.00  0.00     0.000 C 
BRANCH   3   4
ATOM      4  C   UNL     1     -93.944 147.111 240.440  1.00  0.00     0.000 C 
BRANCH   4   5
ATOM      5  C   UNL     1     -94.819 148.230 239.853  1.00  0.00     0.000 C 
BRANCH   5   6
ATOM      6  C   UNL     1     -94.230 148.839 238.573  1.00  0.00     0.000 C 
BRANCH   6   7
ATOM      7  C   UNL     1     -95.196 148.745 237.378  1.00  0.00     0.000 C 
BRANCH   7   8
ATOM      8  C   UNL     1     -96.256 147.640 237.543  1.00  0.00     0.000 C 
BRANCH   8   9
ATOM      9  C   UNL     1     -97.715 148.099 237.366  1.00  0.00     0.000 C 
BRANCH   9  10
ATOM     10  C   UNL     1     -98.028 149.407 238.113  1.00  0.00     0.000 C 
BRANCH  10  11
ATOM     11  C   UNL     1     -98.980 149.202 239.303  1.00  0.00     0.000 C 
BRANCH  11  12
ATOM     12  C   UNL     1     -98.886 150.282 240.402  1.00  0.00     0.000 C 
BRANCH  12  13
ATOM     13  C   UNL     1     -97.660 150.172 241.333  1.00  0.00     0.006 C 
BRANCH  13  14
ATOM     14  C   UNL     1     -97.530 148.823 242.058  1.00  0.00     0.053 C 
BRANCH  14  15
ATOM     15  C   UNL     1     -97.977 148.909 243.485  1.00  0.00     0.041 C 
ATOM     16  O   UNL     1     -98.023 147.872 244.197  1.00  0.00    -0.550 OA
ATOM     17  O   UNL     1     -98.371 150.128 244.020  1.00  0.00    -0.550 OA
ENDBRANCH  14  15
ENDBRANCH  13  14
ENDBRANCH  12  13
ENDBRANCH  11  12
ENDBRANCH  10  11
ENDBRANCH   9  10
ENDBRANCH   8   9
ENDBRANCH   7   8
ENDBRANCH   6   7
ENDBRANCH   5   6
ENDBRANCH   4   5
ENDBRANCH   3   4
ENDBRANCH   2   3
ENDBRANCH   1   2
BRANCH   1  18
ATOM     18  C   UNL     1     -92.822 146.019 236.681  1.00  0.00     0.000 C 
BRANCH  18  19
ATOM     19  C   UNL     1     -92.525 145.592 235.231  1.00  0.00     0.000 C 
BRANCH  19  20
ATOM     20  C   UNL     1     -91.931 146.720 234.357  1.00  0.00     0.000 C 
BRANCH  20  21
ATOM     21  C   UNL     1     -92.926 147.310 233.336  1.00  0.00     0.000 C 
BRANCH  21  22
ATOM     22  C   UNL     1     -93.932 148.326 233.911  1.00  0.00     0.000 C 
BRANCH  22  23
ATOM     23  C   UNL     1     -95.406 147.877 233.858  1.00  0.00     0.000 C 
BRANCH  23  24
ATOM     24  C   UNL     1     -96.382 149.064 233.775  1.00  0.00    -0.000 C 
BRANCH  24  25
ATOM     25  C   UNL     1     -95.855 150.208 232.893  1.00  0.00    -0.000 C 
BRANCH  25  26
ATOM     26  C   UNL     1     -95.770 151.580 233.587  1.00  0.00    -0.000 C 
BRANCH  26  27
ATOM     27  C   UNL     1     -96.088 151.540 235.097  1.00  0.00    -0.000 C 
BRANCH  27  28
ATOM     28  C   UNL     1     -97.370 152.317 235.445  1.00  0.00    -0.000 C 
BRANCH  28  29
ATOM     29  C   UNL     1     -98.648 151.534 235.104  1.00  0.00    -0.000 C 
BRANCH  29  30
ATOM     30  C   UNL     1     -99.862 152.001 235.925  1.00  0.00    -0.000 C 
BRANCH  30  31
ATOM     31  C   UNL     1     -99.459 152.604 237.280  1.00  0.00    -0.003 C 
ATOM     32  C   UNL     1    -100.642 152.735 238.240  1.00  0.00     0.004 C 
ENDBRANCH  30  31
ENDBRANCH  29  30
ENDBRANCH  28  29
ENDBRANCH  27  28
ENDBRANCH  26  27
ENDBRANCH  25  26
ENDBRANCH  24  25
ENDBRANCH  23  24
ENDBRANCH  22  23
ENDBRANCH  21  22
ENDBRANCH  20  21
ENDBRANCH  19  20
ENDBRANCH  18  19
ENDBRANCH   1  18
TORSDOF 28
ENDMDL
MODEL 2
REMARK VINA RESULT:    -3.766      2.926      6.302
REMARK INTER + INTRA:         -14.881
REMARK INTER:                  -9.369
REMARK INTRA:                  -5.512
REMARK UNBOUND:                -4.950
REMARK SMILES CCCCCCCCCCCCCCCCCCCCCCCCCCCCCC(=O)[O-]
REMARK SMILES IDX 16 1 17 2 18 3 19 4 20 5 21 6 22 7 23 8 24 9 25 10 26 11
REMARK SMILES IDX 27 12 28 13 29 14 30 15 31 16 32 17 15 18 14 19 13 20 12 21
REMARK SMILES IDX 11 22 10 23 9 24 8 25 7 26 6 27 5 28 4 29 3 30 2 31 1 32
REMARK H PARENT
REMARK Flexibility Score: inf
ROOT
ATOM      1  C   UNL     1     -94.242 148.626 238.130  1.00  0.00     0.000 C 
ENDROOT
BRANCH   1   2
ATOM      2  C   UNL     1     -93.514 147.908 239.281  1.00  0.00     0.000 C 
BRANCH   2   3
ATOM      3  C   UNL     1     -93.284 146.403 239.009  1.00  0.00     0.000 C 
BRANCH   3   4
ATOM      4  C   UNL     1     -92.463 146.136 237.736  1.00  0.00     0.000 C 
BRANCH   4   5
ATOM      5  C   UNL     1     -93.348 145.801 236.525  1.00  0.00     0.000 C 
BRANCH   5   6
ATOM      6  C   UNL     1     -92.875 146.484 235.234  1.00  0.00     0.000 C 
BRANCH   6   7
ATOM      7  C   UNL     1     -94.046 147.003 234.380  1.00  0.00     0.000 C 
BRANCH   7   8
ATOM      8  C   UNL     1     -94.036 148.532 234.202  1.00  0.00     0.000 C 
BRANCH   8   9
ATOM      9  C   UNL     1     -95.407 149.218 234.341  1.00  0.00     0.000 C 
BRANCH   9  10
ATOM     10  C   UNL     1     -95.348 150.519 235.160  1.00  0.00     0.000 C 
BRANCH  10  11
ATOM     11  C   UNL     1     -96.689 151.271 235.185  1.00  0.00     0.000 C 
BRANCH  11  12
ATOM     12  C   UNL     1     -96.664 152.664 234.522  1.00  0.00     0.000 C 
BRANCH  12  13
ATOM     13  C   UNL     1     -96.885 153.855 235.480  1.00  0.00     0.006 C 
BRANCH  13  14
ATOM     14  C   UNL     1     -98.254 153.864 236.178  1.00  0.00     0.053 C 
BRANCH  14  15
ATOM     15  C   UNL     1     -99.011 155.128 235.911  1.00  0.00     0.041 C 
ATOM     16  O   UNL     1    -100.103 155.348 236.499  1.00  0.00    -0.550 OA
ATOM     17  O   UNL     1     -98.529 156.048 234.989  1.00  0.00    -0.550 OA
ENDBRANCH  14  15
ENDBRANCH  13  14
ENDBRANCH  12  13
ENDBRANCH  11  12
ENDBRANCH  10  11
ENDBRANCH   9  10
ENDBRANCH   8   9
ENDBRANCH   7   8
ENDBRANCH   6   7
ENDBRANCH   5   6
ENDBRANCH   4   5
ENDBRANCH   3   4
ENDBRANCH   2   3
ENDBRANCH   1   2
BRANCH   1  18
ATOM     18  C   UNL     1     -95.769 148.635 238.331  1.00  0.00     0.000 C 
BRANCH  18  19
ATOM     19  C   UNL     1     -96.494 147.632 237.414  1.00  0.00     0.000 C 
BRANCH  19  20
ATOM     20  C   UNL     1     -96.874 146.307 238.114  1.00  0.00     0.000 C 
BRANCH  20  21
ATOM     21  C   UNL     1     -98.158 146.394 238.965  1.00  0.00     0.000 C 
BRANCH  21  22
ATOM     22  C   UNL     1     -97.975 146.082 240.463  1.00  0.00     0.000 C 
BRANCH  22  23
ATOM     23  C   UNL     1     -96.532 145.734 240.879  1.00  0.00     0.000 C 
BRANCH  23  24
ATOM     24  C   UNL     1     -95.887 146.829 241.747  1.00  0.00    -0.000 C 
BRANCH  24  25
ATOM     25  C   UNL     1     -96.866 147.961 242.102  1.00  0.00    -0.000 C 
BRANCH  25  26
ATOM     26  C   UNL     1     -96.456 149.359 241.604  1.00  0.00    -0.000 C 
BRANCH  26  27
ATOM     27  C   UNL     1     -97.649 150.282 241.275  1.00  0.00    -0.000 C 
BRANCH  27  28
ATOM     28  C   UNL     1     -98.996 149.543 241.346  1.00  0.00    -0.000 C 
BRANCH  28  29
ATOM     29  C   UNL     1     -99.876 149.795 240.111  1.00  0.00    -0.000 C 
BRANCH  29  30
ATOM     30  C   UNL     1     -99.048 150.022 238.835  1.00  0.00    -0.000 C 
BRANCH  30  31
ATOM     31  C   UNL     1     -99.775 150.913 237.814  1.00  0.00    -0.003 C 
ATOM     32  C   UNL     1    -100.478 152.103 238.467  1.00  0.00     0.004 C 
ENDBRANCH  30  31
ENDBRANCH  29  30
ENDBRANCH  28  29
ENDBRANCH  27  28
ENDBRANCH  26  27
ENDBRANCH  25  26
ENDBRANCH  24  25
ENDBRANCH  23  24
ENDBRANCH  22  23
ENDBRANCH  21  22
ENDBRANCH  20  21
ENDBRANCH  19  20
ENDBRANCH  18  19
ENDBRANCH   1  18
TORSDOF 28
ENDMDL
MODEL 3
REMARK VINA RESULT:    -3.704      2.617      6.210
REMARK INTER + INTRA:         -14.716
REMARK INTER:                  -9.225
REMARK INTRA:                  -5.491
REMARK UNBOUND:                -4.950
REMARK SMILES CCCCCCCCCCCCCCCCCCCCCCCCCCCCCC(=O)[O-]
REMARK SMILES IDX 16 1 17 2 18 3 19 4 20 5 21 6 22 7 23 8 24 9 25 10 26 11
REMARK SMILES IDX 27 12 28 13 29 14 30 15 31 16 32 17 15 18 14 19 13 20 12 21
REMARK SMILES IDX 11 22 10 23 9 24 8 25 7 26 6 27 5 28 4 29 3 30 2 31 1 32
REMARK H PARENT
REMARK Flexibility Score: inf
ROOT
ATOM      1  C   UNL     1     -95.072 148.631 240.078  1.00  0.00     0.000 C 
ENDROOT
BRANCH   1   2
ATOM      2  C   UNL     1     -94.203 148.504 238.814  1.00  0.00     0.000 C 
BRANCH   2   3
ATOM      3  C   UNL     1     -93.225 147.307 238.866  1.00  0.00     0.000 C 
BRANCH   3   4
ATOM      4  C   UNL     1     -93.497 146.253 237.780  1.00  0.00     0.000 C 
BRANCH   4   5
ATOM      5  C   UNL     1     -92.207 145.734 237.127  1.00  0.00     0.000 C 
BRANCH   5   6
ATOM      6  C   UNL     1     -92.417 145.268 235.679  1.00  0.00     0.000 C 
BRANCH   6   7
ATOM      7  C   UNL     1     -92.937 146.395 234.768  1.00  0.00     0.000 C 
BRANCH   7   8
ATOM      8  C   UNL     1     -94.310 146.085 234.144  1.00  0.00     0.000 C 
BRANCH   8   9
ATOM      9  C   UNL     1     -95.386 147.166 234.357  1.00  0.00     0.000 C 
BRANCH   9  10
ATOM     10  C   UNL     1     -94.864 148.389 235.130  1.00  0.00     0.000 C 
BRANCH  10  11
ATOM     11  C   UNL     1     -95.362 149.722 234.547  1.00  0.00     0.000 C 
BRANCH  11  12
ATOM     12  C   UNL     1     -95.341 150.910 235.532  1.00  0.00     0.000 C 
BRANCH  12  13
ATOM     13  C   UNL     1     -96.039 152.193 235.034  1.00  0.00     0.006 C 
BRANCH  13  14
ATOM     14  C   UNL     1     -97.537 152.273 235.371  1.00  0.00     0.053 C 
BRANCH  14  15
ATOM     15  C   UNL     1     -97.915 153.608 235.933  1.00  0.00     0.041 C 
ATOM     16  O   UNL     1     -97.114 154.577 235.857  1.00  0.00    -0.550 OA
ATOM     17  O   UNL     1     -99.138 153.775 236.569  1.00  0.00    -0.550 OA
ENDBRANCH  14  15
ENDBRANCH  13  14
ENDBRANCH  12  13
ENDBRANCH  11  12
ENDBRANCH  10  11
ENDBRANCH   9  10
ENDBRANCH   8   9
ENDBRANCH   7   8
ENDBRANCH   6   7
ENDBRANCH   5   6
ENDBRANCH   4   5
ENDBRANCH   3   4
ENDBRANCH   2   3
ENDBRANCH   1   2
BRANCH   1  18
ATOM     18  C   UNL     1     -94.659 147.621 241.164  1.00  0.00     0.000 C 
BRANCH  18  19
ATOM     19  C   UNL     1     -95.848 146.793 241.687  1.00  0.00     0.000 C 
BRANCH  19  20
ATOM     20  C   UNL     1     -96.378 145.752 240.675  1.00  0.00     0.000 C 
BRANCH  20  21
ATOM     21  C   UNL     1     -97.771 146.086 240.104  1.00  0.00     0.000 C 
BRANCH  21  22
ATOM     22  C   UNL     1     -97.935 145.845 238.590  1.00  0.00     0.000 C 
BRANCH  22  23
ATOM     23  C   UNL     1     -97.148 146.821 237.692  1.00  0.00     0.000 C 
BRANCH  23  24
ATOM     24  C   UNL     1     -98.051 147.883 237.041  1.00  0.00    -0.000 C 
BRANCH  24  25
ATOM     25  C   UNL     1     -97.856 149.283 237.648  1.00  0.00    -0.000 C 
BRANCH  25  26
ATOM     26  C   UNL     1     -99.155 150.021 238.018  1.00  0.00    -0.000 C 
BRANCH  26  27
ATOM     27  C   UNL     1     -99.179 150.564 239.463  1.00  0.00    -0.000 C 
BRANCH  27  28
ATOM     28  C   UNL     1     -98.600 149.559 240.474  1.00  0.00    -0.000 C 
BRANCH  28  29
ATOM     29  C   UNL     1     -97.676 150.222 241.507  1.00  0.00    -0.000 C 
BRANCH  29  30
ATOM     30  C   UNL     1     -97.988 149.781 242.947  1.00  0.00    -0.000 C 
BRANCH  30  31
ATOM     31  C   UNL     1     -98.696 148.418 243.004  1.00  0.00    -0.003 C 
ATOM     32  C   UNL     1     -98.800 147.869 244.427  1.00  0.00     0.004 C 
ENDBRANCH  30  31
ENDBRANCH  29  30
ENDBRANCH  28  29
ENDBRANCH  27  28
ENDBRANCH  26  27
ENDBRANCH  25  26
ENDBRANCH  24  25
ENDBRANCH  23  24
ENDBRANCH  22  23
ENDBRANCH  21  22
ENDBRANCH  20  21
ENDBRANCH  19  20
ENDBRANCH  18  19
ENDBRANCH   1  18
TORSDOF 28
ENDMDL
MODEL 4
REMARK VINA RESULT:    -3.683      2.786      6.303
REMARK INTER + INTRA:         -14.662
REMARK INTER:                  -9.046
REMARK INTRA:                  -5.616
REMARK UNBOUND:                -4.950
REMARK SMILES CCCCCCCCCCCCCCCCCCCCCCCCCCCCCC(=O)[O-]
REMARK SMILES IDX 16 1 17 2 18 3 19 4 20 5 21 6 22 7 23 8 24 9 25 10 26 11
REMARK SMILES IDX 27 12 28 13 29 14 30 15 31 16 32 17 15 18 14 19 13 20 12 21
REMARK SMILES IDX 11 22 10 23 9 24 8 25 7 26 6 27 5 28 4 29 3 30 2 31 1 32
REMARK H PARENT
REMARK Flexibility Score: inf
ROOT
ATOM      1  C   UNL     1     -93.490 148.110 239.195  1.00  0.00     0.000 C 
ENDROOT
BRANCH   1   2
ATOM      2  C   UNL     1     -93.481 146.580 239.025  1.00  0.00     0.000 C 
BRANCH   2   3
ATOM      3  C   UNL     1     -92.084 146.015 238.680  1.00  0.00     0.000 C 
BRANCH   3   4
ATOM      4  C   UNL     1     -91.904 145.715 237.183  1.00  0.00     0.000 C 
BRANCH   4   5
ATOM      5  C   UNL     1     -93.229 145.777 236.407  1.00  0.00     0.000 C 
BRANCH   5   6
ATOM      6  C   UNL     1     -93.053 145.513 234.904  1.00  0.00     0.000 C 
BRANCH   6   7
ATOM      7  C   UNL     1     -92.198 146.591 234.214  1.00  0.00     0.000 C 
BRANCH   7   8
ATOM      8  C   UNL     1     -92.990 147.869 233.879  1.00  0.00     0.000 C 
BRANCH   8   9
ATOM      9  C   UNL     1     -94.398 147.635 233.301  1.00  0.00     0.000 C 
BRANCH   9  10
ATOM     10  C   UNL     1     -95.507 148.292 234.140  1.00  0.00     0.000 C 
BRANCH  10  11
ATOM     11  C   UNL     1     -95.063 148.605 235.578  1.00  0.00     0.000 C 
BRANCH  11  12
ATOM     12  C   UNL     1     -95.270 150.070 236.018  1.00  0.00     0.000 C 
BRANCH  12  13
ATOM     13  C   UNL     1     -95.948 150.982 234.974  1.00  0.00     0.006 C 
BRANCH  13  14
ATOM     14  C   UNL     1     -97.357 151.456 235.364  1.00  0.00     0.053 C 
BRANCH  14  15
ATOM     15  C   UNL     1     -97.549 152.919 235.107  1.00  0.00     0.041 C 
ATOM     16  O   UNL     1     -98.487 153.314 234.367  1.00  0.00    -0.550 OA
ATOM     17  O   UNL     1     -96.672 153.844 235.660  1.00  0.00    -0.550 OA
ENDBRANCH  14  15
ENDBRANCH  13  14
ENDBRANCH  12  13
ENDBRANCH  11  12
ENDBRANCH  10  11
ENDBRANCH   9  10
ENDBRANCH   8   9
ENDBRANCH   7   8
ENDBRANCH   6   7
ENDBRANCH   5   6
ENDBRANCH   4   5
ENDBRANCH   3   4
ENDBRANCH   2   3
ENDBRANCH   1   2
BRANCH   1  18
ATOM     18  C   UNL     1     -94.898 148.646 239.512  1.00  0.00     0.000 C 
BRANCH  18  19
ATOM     19  C   UNL     1     -95.104 148.919 241.014  1.00  0.00     0.000 C 
BRANCH  19  20
ATOM     20  C   UNL     1     -96.388 149.717 241.334  1.00  0.00     0.000 C 
BRANCH  20  21
ATOM     21  C   UNL     1     -97.482 148.888 242.038  1.00  0.00     0.000 C 
BRANCH  21  22
ATOM     22  C   UNL     1     -97.221 147.370 242.093  1.00  0.00     0.000 C 
BRANCH  22  23
ATOM     23  C   UNL     1     -97.913 146.555 240.983  1.00  0.00     0.000 C 
BRANCH  23  24
ATOM     24  C   UNL     1     -96.937 145.630 240.234  1.00  0.00    -0.000 C 
BRANCH  24  25
ATOM     25  C   UNL     1     -97.400 145.309 238.803  1.00  0.00    -0.000 C 
BRANCH  25  26
ATOM     26  C   UNL     1     -97.006 146.352 237.741  1.00  0.00    -0.000 C 
BRANCH  26  27
ATOM     27  C   UNL     1     -98.124 146.661 236.721  1.00  0.00    -0.000 C 
BRANCH  27  28
ATOM     28  C   UNL     1     -98.568 148.134 236.769  1.00  0.00    -0.000 C 
BRANCH  28  29
ATOM     29  C   UNL     1     -98.062 148.864 238.023  1.00  0.00    -0.000 C 
BRANCH  29  30
ATOM     30  C   UNL     1     -99.207 149.460 238.860  1.00  0.00    -0.000 C 
BRANCH  30  31
ATOM     31  C   UNL     1     -99.389 150.968 238.619  1.00  0.00    -0.003 C 
ATOM     32  C   UNL     1    -100.748 151.479 239.096  1.00  0.00     0.004 C 
ENDBRANCH  30  31
ENDBRANCH  29  30
ENDBRANCH  28  29
ENDBRANCH  27  28
ENDBRANCH  26  27
ENDBRANCH  25  26
ENDBRANCH  24  25
ENDBRANCH  23  24
ENDBRANCH  22  23
ENDBRANCH  21  22
ENDBRANCH  20  21
ENDBRANCH  19  20
ENDBRANCH  18  19
ENDBRANCH   1  18
TORSDOF 28
ENDMDL
MODEL 5
REMARK VINA RESULT:    -3.671      2.841      5.280
REMARK INTER + INTRA:         -14.629
REMARK INTER:                  -9.224
REMARK INTRA:                  -5.405
REMARK UNBOUND:                -4.950
REMARK SMILES CCCCCCCCCCCCCCCCCCCCCCCCCCCCCC(=O)[O-]
REMARK SMILES IDX 16 1 17 2 18 3 19 4 20 5 21 6 22 7 23 8 24 9 25 10 26 11
REMARK SMILES IDX 27 12 28 13 29 14 30 15 31 16 32 17 15 18 14 19 13 20 12 21
REMARK SMILES IDX 11 22 10 23 9 24 8 25 7 26 6 27 5 28 4 29 3 30 2 31 1 32
REMARK H PARENT
REMARK Flexibility Score: inf
ROOT
ATOM      1  C   UNL     1     -94.827 146.303 240.117  1.00  0.00     0.000 C 
ENDROOT
BRANCH   1   2
ATOM      2  C   UNL     1     -95.055 147.383 241.190  1.00  0.00     0.000 C 
BRANCH   2   3
ATOM      3  C   UNL     1     -94.998 148.822 240.626  1.00  0.00     0.000 C 
BRANCH   3   4
ATOM      4  C   UNL     1     -96.072 149.749 241.218  1.00  0.00     0.000 C 
BRANCH   4   5
ATOM      5  C   UNL     1     -97.202 148.972 241.912  1.00  0.00     0.000 C 
BRANCH   5   6
ATOM      6  C   UNL     1     -98.511 148.980 241.110  1.00  0.00     0.000 C 
BRANCH   6   7
ATOM      7  C   UNL     1     -98.767 150.330 240.415  1.00  0.00     0.000 C 
BRANCH   7   8
ATOM      8  C   UNL     1    -100.260 150.604 240.154  1.00  0.00     0.000 C 
BRANCH   8   9
ATOM      9  C   UNL     1    -100.865 149.849 238.956  1.00  0.00     0.000 C 
BRANCH   9  10
ATOM     10  C   UNL     1    -100.940 150.707 237.682  1.00  0.00     0.000 C 
BRANCH  10  11
ATOM     11  C   UNL     1    -100.829 152.213 237.969  1.00  0.00     0.000 C 
BRANCH  11  12
ATOM     12  C   UNL     1     -99.614 152.910 237.321  1.00  0.00     0.000 C 
BRANCH  12  13
ATOM     13  C   UNL     1     -98.648 151.979 236.559  1.00  0.00     0.006 C 
BRANCH  13  14
ATOM     14  C   UNL     1     -98.650 152.172 235.034  1.00  0.00     0.053 C 
BRANCH  14  15
ATOM     15  C   UNL     1     -97.469 152.965 234.567  1.00  0.00     0.041 C 
ATOM     16  O   UNL     1     -96.881 152.657 233.498  1.00  0.00    -0.550 OA
ATOM     17  O   UNL     1     -96.998 154.026 235.329  1.00  0.00    -0.550 OA
ENDBRANCH  14  15
ENDBRANCH  13  14
ENDBRANCH  12  13
ENDBRANCH  11  12
ENDBRANCH  10  11
ENDBRANCH   9  10
ENDBRANCH   8   9
ENDBRANCH   7   8
ENDBRANCH   6   7
ENDBRANCH   5   6
ENDBRANCH   4   5
ENDBRANCH   3   4
ENDBRANCH   2   3
ENDBRANCH   1   2
BRANCH   1  18
ATOM     18  C   UNL     1     -93.471 145.594 240.293  1.00  0.00     0.000 C 
BRANCH  18  19
ATOM     19  C   UNL     1     -92.462 145.962 239.189  1.00  0.00     0.000 C 
BRANCH  19  20
ATOM     20  C   UNL     1     -93.118 146.519 237.905  1.00  0.00     0.000 C 
BRANCH  20  21
ATOM     21  C   UNL     1     -92.548 145.921 236.601  1.00  0.00     0.000 C 
BRANCH  21  22
ATOM     22  C   UNL     1     -93.366 146.223 235.329  1.00  0.00     0.000 C 
BRANCH  22  23
ATOM     23  C   UNL     1     -92.634 147.083 234.280  1.00  0.00     0.000 C 
BRANCH  23  24
ATOM     24  C   UNL     1     -93.598 147.958 233.458  1.00  0.00    -0.000 C 
BRANCH  24  25
ATOM     25  C   UNL     1     -94.891 148.296 234.219  1.00  0.00    -0.000 C 
BRANCH  25  26
ATOM     26  C   UNL     1     -95.153 149.800 234.423  1.00  0.00    -0.000 C 
BRANCH  26  27
ATOM     27  C   UNL     1     -95.389 150.202 235.895  1.00  0.00    -0.000 C 
BRANCH  27  28
ATOM     28  C   UNL     1     -95.564 148.979 236.813  1.00  0.00    -0.000 C 
BRANCH  28  29
ATOM     29  C   UNL     1     -96.920 148.971 237.537  1.00  0.00    -0.000 C 
BRANCH  29  30
ATOM     30  C   UNL     1     -97.478 147.551 237.727  1.00  0.00    -0.000 C 
BRANCH  30  31
ATOM     31  C   UNL     1     -96.709 146.502 236.907  1.00  0.00    -0.003 C 
ATOM     32  C   UNL     1     -96.981 145.073 237.377  1.00  0.00     0.004 C 
ENDBRANCH  30  31
ENDBRANCH  29  30
ENDBRANCH  28  29
ENDBRANCH  27  28
ENDBRANCH  26  27
ENDBRANCH  25  26
ENDBRANCH  24  25
ENDBRANCH  23  24
ENDBRANCH  22  23
ENDBRANCH  21  22
ENDBRANCH  20  21
ENDBRANCH  19  20
ENDBRANCH  18  19
ENDBRANCH   1  18
TORSDOF 28
ENDMDL
MODEL 6
REMARK VINA RESULT:    -3.670      3.220      6.919
REMARK INTER + INTRA:         -14.628
REMARK INTER:                  -8.865
REMARK INTRA:                  -5.763
REMARK UNBOUND:                -4.950
REMARK SMILES CCCCCCCCCCCCCCCCCCCCCCCCCCCCCC(=O)[O-]
REMARK SMILES IDX 16 1 17 2 18 3 19 4 20 5 21 6 22 7 23 8 24 9 25 10 26 11
REMARK SMILES IDX 27 12 28 13 29 14 30 15 31 16 32 17 15 18 14 19 13 20 12 21
REMARK SMILES IDX 11 22 10 23 9 24 8 25 7 26 6 27 5 28 4 29 3 30 2 31 1 32
REMARK H PARENT
REMARK Flexibility Score: inf
ROOT
ATOM      1  C   UNL     1     -94.326 147.178 237.251  1.00  0.00     0.000 C 
ENDROOT
BRANCH   1   2
ATOM      2  C   UNL     1     -93.099 146.304 237.572  1.00  0.00     0.000 C 
BRANCH   2   3
ATOM      3  C   UNL     1     -92.385 145.771 236.309  1.00  0.00     0.000 C 
BRANCH   3   4
ATOM      4  C   UNL     1     -93.346 145.127 235.296  1.00  0.00     0.000 C 
BRANCH   4   5
ATOM      5  C   UNL     1     -93.196 145.718 233.885  1.00  0.00     0.000 C 
BRANCH   5   6
ATOM      6  C   UNL     1     -92.621 147.141 233.892  1.00  0.00     0.000 C 
BRANCH   6   7
ATOM      7  C   UNL     1     -93.716 148.218 233.790  1.00  0.00     0.000 C 
BRANCH   7   8
ATOM      8  C   UNL     1     -94.567 148.097 232.512  1.00  0.00     0.000 C 
BRANCH   8   9
ATOM      9  C   UNL     1     -96.076 147.901 232.746  1.00  0.00     0.000 C 
BRANCH   9  10
ATOM     10  C   UNL     1     -96.428 147.654 234.223  1.00  0.00     0.000 C 
BRANCH  10  11
ATOM     11  C   UNL     1     -97.701 148.394 234.666  1.00  0.00     0.000 C 
BRANCH  11  12
ATOM     12  C   UNL     1     -97.519 149.907 234.915  1.00  0.00     0.000 C 
BRANCH  12  13
ATOM     13  C   UNL     1     -96.221 150.304 235.650  1.00  0.00     0.006 C 
BRANCH  13  14
ATOM     14  C   UNL     1     -95.379 151.365 234.924  1.00  0.00     0.053 C 
BRANCH  14  15
ATOM     15  C   UNL     1     -96.080 151.910 233.718  1.00  0.00     0.041 C 
ATOM     16  O   UNL     1     -95.835 151.439 232.576  1.00  0.00    -0.550 OA
ATOM     17  O   UNL     1     -96.981 152.958 233.851  1.00  0.00    -0.550 OA
ENDBRANCH  14  15
ENDBRANCH  13  14
ENDBRANCH  12  13
ENDBRANCH  11  12
ENDBRANCH  10  11
ENDBRANCH   9  10
ENDBRANCH   8   9
ENDBRANCH   7   8
ENDBRANCH   6   7
ENDBRANCH   5   6
ENDBRANCH   4   5
ENDBRANCH   3   4
ENDBRANCH   2   3
ENDBRANCH   1   2
BRANCH   1  18
ATOM     18  C   UNL     1     -94.397 148.424 238.154  1.00  0.00     0.000 C 
BRANCH  18  19
ATOM     19  C   UNL     1     -93.650 148.233 239.487  1.00  0.00     0.000 C 
BRANCH  19  20
ATOM     20  C   UNL     1     -94.567 148.292 240.730  1.00  0.00     0.000 C 
BRANCH  20  21
ATOM     21  C   UNL     1     -94.770 146.929 241.424  1.00  0.00     0.000 C 
BRANCH  21  22
ATOM     22  C   UNL     1     -95.808 146.003 240.760  1.00  0.00     0.000 C 
BRANCH  22  23
ATOM     23  C   UNL     1     -97.144 145.882 241.519  1.00  0.00     0.000 C 
BRANCH  23  24
ATOM     24  C   UNL     1     -96.987 146.107 243.033  1.00  0.00    -0.000 C 
BRANCH  24  25
ATOM     25  C   UNL     1     -97.682 147.390 243.519  1.00  0.00    -0.000 C 
BRANCH  25  26
ATOM     26  C   UNL     1     -98.359 148.224 242.415  1.00  0.00    -0.000 C 
BRANCH  26  27
ATOM     27  C   UNL     1     -97.582 149.501 242.028  1.00  0.00    -0.000 C 
BRANCH  27  28
ATOM     28  C   UNL     1     -98.368 150.388 241.047  1.00  0.00    -0.000 C 
BRANCH  28  29
ATOM     29  C   UNL     1     -98.903 149.604 239.838  1.00  0.00    -0.000 C 
BRANCH  29  30
ATOM     30  C   UNL     1     -97.785 149.179 238.870  1.00  0.00    -0.000 C 
BRANCH  30  31
ATOM     31  C   UNL     1     -97.968 147.741 238.356  1.00  0.00    -0.003 C 
ATOM     32  C   UNL     1     -99.300 147.127 238.790  1.00  0.00     0.004 C 
ENDBRANCH  30  31
ENDBRANCH  29  30
ENDBRANCH  28  29
ENDBRANCH  27  28
ENDBRANCH  26  27
ENDBRANCH  25  26
ENDBRANCH  24  25
ENDBRANCH  23  24
ENDBRANCH  22  23
ENDBRANCH  21  22
ENDBRANCH  20  21
ENDBRANCH  19  20
ENDBRANCH  18  19
ENDBRANCH   1  18
TORSDOF 28
ENDMDL
MODEL 7
REMARK VINA RESULT:    -3.660      2.584      6.411
REMARK INTER + INTRA:         -14.601
REMARK INTER:                  -8.994
REMARK INTRA:                  -5.607
REMARK UNBOUND:                -4.950
REMARK SMILES CCCCCCCCCCCCCCCCCCCCCCCCCCCCCC(=O)[O-]
REMARK SMILES IDX 16 1 17 2 18 3 19 4 20 5 21 6 22 7 23 8 24 9 25 10 26 11
REMARK SMILES IDX 27 12 28 13 29 14 30 15 31 16 32 17 15 18 14 19 13 20 12 21
REMARK SMILES IDX 11 22 10 23 9 24 8 25 7 26 6 27 5 28 4 29 3 30 2 31 1 32
REMARK H PARENT
REMARK Flexibility Score: inf
ROOT
ATOM      1  C   UNL     1     -94.137 148.112 240.446  1.00  0.00     0.000 C 
ENDROOT
BRANCH   1   2
ATOM      2  C   UNL     1     -94.331 146.624 240.792  1.00  0.00     0.000 C 
BRANCH   2   3
ATOM      3  C   UNL     1     -93.497 145.678 239.896  1.00  0.00     0.000 C 
BRANCH   3   4
ATOM      4  C   UNL     1     -92.323 146.383 239.198  1.00  0.00     0.000 C 
BRANCH   4   5
ATOM      5  C   UNL     1     -91.999 145.770 237.826  1.00  0.00     0.000 C 
BRANCH   5   6
ATOM      6  C   UNL     1     -93.035 146.131 236.752  1.00  0.00     0.000 C 
BRANCH   6   7
ATOM      7  C   UNL     1     -92.493 145.940 235.324  1.00  0.00     0.000 C 
BRANCH   7   8
ATOM      8  C   UNL     1     -92.929 147.055 234.356  1.00  0.00     0.000 C 
BRANCH   8   9
ATOM      9  C   UNL     1     -94.297 146.840 233.682  1.00  0.00     0.000 C 
BRANCH   9  10
ATOM     10  C   UNL     1     -95.289 147.983 233.957  1.00  0.00     0.000 C 
BRANCH  10  11
ATOM     11  C   UNL     1     -94.596 149.280 234.404  1.00  0.00     0.000 C 
BRANCH  11  12
ATOM     12  C   UNL     1     -95.553 150.422 234.807  1.00  0.00     0.000 C 
BRANCH  12  13
ATOM     13  C   UNL     1     -97.054 150.067 234.774  1.00  0.00     0.006 C 
BRANCH  13  14
ATOM     14  C   UNL     1     -97.825 150.443 236.050  1.00  0.00     0.053 C 
BRANCH  14  15
ATOM     15  C   UNL     1     -98.747 151.602 235.827  1.00  0.00     0.041 C 
ATOM     16  O   UNL     1     -99.434 151.672 234.774  1.00  0.00    -0.550 OA
ATOM     17  O   UNL     1     -98.824 152.621 236.767  1.00  0.00    -0.550 OA
ENDBRANCH  14  15
ENDBRANCH  13  14
ENDBRANCH  12  13
ENDBRANCH  11  12
ENDBRANCH  10  11
ENDBRANCH   9  10
ENDBRANCH   8   9
ENDBRANCH   7   8
ENDBRANCH   6   7
ENDBRANCH   5   6
ENDBRANCH   4   5
ENDBRANCH   3   4
ENDBRANCH   2   3
ENDBRANCH   1   2
BRANCH   1  18
ATOM     18  C   UNL     1     -95.354 148.693 239.702  1.00  0.00     0.000 C 
BRANCH  18  19
ATOM     19  C   UNL     1     -95.149 148.740 238.177  1.00  0.00     0.000 C 
BRANCH  19  20
ATOM     20  C   UNL     1     -95.941 147.659 237.406  1.00  0.00     0.000 C 
BRANCH  20  21
ATOM     21  C   UNL     1     -97.189 147.145 238.153  1.00  0.00     0.000 C 
BRANCH  21  22
ATOM     22  C   UNL     1     -97.140 145.661 238.567  1.00  0.00     0.000 C 
BRANCH  22  23
ATOM     23  C   UNL     1     -97.810 145.344 239.919  1.00  0.00     0.000 C 
BRANCH  23  24
ATOM     24  C   UNL     1     -98.815 146.428 240.348  1.00  0.00    -0.000 C 
BRANCH  24  25
ATOM     25  C   UNL     1     -99.138 146.379 241.851  1.00  0.00    -0.000 C 
BRANCH  25  26
ATOM     26  C   UNL     1     -97.919 146.485 242.785  1.00  0.00    -0.000 C 
BRANCH  26  27
ATOM     27  C   UNL     1     -97.240 147.872 242.775  1.00  0.00    -0.000 C 
BRANCH  27  28
ATOM     28  C   UNL     1     -98.010 148.904 243.618  1.00  0.00    -0.000 C 
BRANCH  28  29
ATOM     29  C   UNL     1     -98.682 149.987 242.759  1.00  0.00    -0.000 C 
BRANCH  29  30
ATOM     30  C   UNL     1     -97.880 150.313 241.488  1.00  0.00    -0.000 C 
BRANCH  30  31
ATOM     31  C   UNL     1     -98.717 150.160 240.208  1.00  0.00    -0.003 C 
ATOM     32  C   UNL     1    -100.218 150.287 240.469  1.00  0.00     0.004 C 
ENDBRANCH  30  31
ENDBRANCH  29  30
ENDBRANCH  28  29
ENDBRANCH  27  28
ENDBRANCH  26  27
ENDBRANCH  25  26
ENDBRANCH  24  25
ENDBRANCH  23  24
ENDBRANCH  22  23
ENDBRANCH  21  22
ENDBRANCH  20  21
ENDBRANCH  19  20
ENDBRANCH  18  19
ENDBRANCH   1  18
TORSDOF 28
ENDMDL
MODEL 8
REMARK VINA RESULT:    -3.654      2.829      6.042
REMARK INTER + INTRA:         -14.585
REMARK INTER:                  -8.521
REMARK INTRA:                  -6.064
REMARK UNBOUND:                -4.950
REMARK SMILES CCCCCCCCCCCCCCCCCCCCCCCCCCCCCC(=O)[O-]
REMARK SMILES IDX 16 1 17 2 18 3 19 4 20 5 21 6 22 7 23 8 24 9 25 10 26 11
REMARK SMILES IDX 27 12 28 13 29 14 30 15 31 16 32 17 15 18 14 19 13 20 12 21
REMARK SMILES IDX 11 22 10 23 9 24 8 25 7 26 6 27 5 28 4 29 3 30 2 31 1 32
REMARK H PARENT
REMARK Flexibility Score: inf
ROOT
ATOM      1  C   UNL     1     -93.444 147.795 233.769  1.00  0.00     0.000 C 
ENDROOT
BRANCH   1   2
ATOM      2  C   UNL     1     -94.776 148.173 234.443  1.00  0.00     0.000 C 
BRANCH   2   3
ATOM      3  C   UNL     1     -95.052 149.694 234.434  1.00  0.00     0.000 C 
BRANCH   3   4
ATOM      4  C   UNL     1     -95.488 150.240 235.803  1.00  0.00     0.000 C 
BRANCH   4   5
ATOM      5  C   UNL     1     -95.192 149.259 236.949  1.00  0.00     0.000 C 
BRANCH   5   6
ATOM      6  C   UNL     1     -96.459 148.812 237.694  1.00  0.00     0.000 C 
BRANCH   6   7
ATOM      7  C   UNL     1     -96.683 147.291 237.612  1.00  0.00     0.000 C 
BRANCH   7   8
ATOM      8  C   UNL     1     -97.531 146.869 236.398  1.00  0.00     0.000 C 
BRANCH   8   9
ATOM      9  C   UNL     1     -98.503 147.941 235.872  1.00  0.00     0.000 C 
BRANCH   9  10
ATOM     10  C   UNL     1     -98.520 148.034 234.336  1.00  0.00     0.000 C 
BRANCH  10  11
ATOM     11  C   UNL     1     -98.720 149.471 233.827  1.00  0.00     0.000 C 
BRANCH  11  12
ATOM     12  C   UNL     1     -99.064 150.506 234.920  1.00  0.00     0.000 C 
BRANCH  12  13
ATOM     13  C   UNL     1     -98.513 151.927 234.681  1.00  0.00     0.006 C 
BRANCH  13  14
ATOM     14  C   UNL     1     -98.467 152.811 235.937  1.00  0.00     0.053 C 
BRANCH  14  15
ATOM     15  C   UNL     1     -98.401 154.268 235.596  1.00  0.00     0.041 C 
ATOM     16  O   UNL     1     -97.587 154.678 234.727  1.00  0.00    -0.550 OA
ATOM     17  O   UNL     1     -99.215 155.176 236.260  1.00  0.00    -0.550 OA
ENDBRANCH  14  15
ENDBRANCH  13  14
ENDBRANCH  12  13
ENDBRANCH  11  12
ENDBRANCH  10  11
ENDBRANCH   9  10
ENDBRANCH   8   9
ENDBRANCH   7   8
ENDBRANCH   6   7
ENDBRANCH   5   6
ENDBRANCH   4   5
ENDBRANCH   3   4
ENDBRANCH   2   3
ENDBRANCH   1   2
BRANCH   1  18
ATOM     18  C   UNL     1     -92.668 146.740 234.581  1.00  0.00     0.000 C 
BRANCH  18  19
ATOM     19  C   UNL     1     -93.466 146.218 235.790  1.00  0.00     0.000 C 
BRANCH  19  20
ATOM     20  C   UNL     1     -92.601 145.957 237.044  1.00  0.00     0.000 C 
BRANCH  20  21
ATOM     21  C   UNL     1     -93.085 146.700 238.305  1.00  0.00     0.000 C 
BRANCH  21  22
ATOM     22  C   UNL     1     -93.054 145.874 239.607  1.00  0.00     0.000 C 
BRANCH  22  23
ATOM     23  C   UNL     1     -94.094 146.295 240.664  1.00  0.00     0.000 C 
BRANCH  23  24
ATOM     24  C   UNL     1     -94.415 147.799 240.612  1.00  0.00    -0.000 C 
BRANCH  24  25
ATOM     25  C   UNL     1     -95.759 148.144 241.275  1.00  0.00    -0.000 C 
BRANCH  25  26
ATOM     26  C   UNL     1     -96.132 149.638 241.253  1.00  0.00    -0.000 C 
BRANCH  26  27
ATOM     27  C   UNL     1     -97.469 149.960 241.954  1.00  0.00    -0.000 C 
BRANCH  27  28
ATOM     28  C   UNL     1     -98.390 148.731 242.048  1.00  0.00    -0.000 C 
BRANCH  28  29
ATOM     29  C   UNL     1     -99.681 148.894 241.229  1.00  0.00    -0.000 C 
BRANCH  29  30
ATOM     30  C   UNL     1     -99.512 148.446 239.768  1.00  0.00    -0.000 C 
BRANCH  30  31
ATOM     31  C   UNL     1    -100.047 149.485 238.768  1.00  0.00    -0.003 C 
ATOM     32  C   UNL     1     -99.378 150.850 238.925  1.00  0.00     0.004 C 
ENDBRANCH  30  31
ENDBRANCH  29  30
ENDBRANCH  28  29
ENDBRANCH  27  28
ENDBRANCH  26  27
ENDBRANCH  25  26
ENDBRANCH  24  25
ENDBRANCH  23  24
ENDBRANCH  22  23
ENDBRANCH  21  22
ENDBRANCH  20  21
ENDBRANCH  19  20
ENDBRANCH  18  19
ENDBRANCH   1  18
TORSDOF 28
ENDMDL
MODEL 9
REMARK VINA RESULT:    -3.589      2.364      6.388
REMARK INTER + INTRA:         -14.413
REMARK INTER:                  -8.156
REMARK INTRA:                  -6.258
REMARK UNBOUND:                -4.950
REMARK SMILES CCCCCCCCCCCCCCCCCCCCCCCCCCCCCC(=O)[O-]
REMARK SMILES IDX 16 1 17 2 18 3 19 4 20 5 21 6 22 7 23 8 24 9 25 10 26 11
REMARK SMILES IDX 27 12 28 13 29 14 30 15 31 16 32 17 15 18 14 19 13 20 12 21
REMARK SMILES IDX 11 22 10 23 9 24 8 25 7 26 6 27 5 28 4 29 3 30 2 31 1 32
REMARK H PARENT
REMARK Flexibility Score: inf
ROOT
ATOM      1  C   UNL     1     -94.793 148.961 238.366  1.00  0.00     0.000 C 
ENDROOT
BRANCH   1   2
ATOM      2  C   UNL     1     -94.687 148.365 236.950  1.00  0.00     0.000 C 
BRANCH   2   3
ATOM      3  C   UNL     1     -95.577 147.116 236.749  1.00  0.00     0.000 C 
BRANCH   3   4
ATOM      4  C   UNL     1     -94.785 145.874 236.309  1.00  0.00     0.000 C 
BRANCH   4   5
ATOM      5  C   UNL     1     -93.282 145.999 236.600  1.00  0.00     0.000 C 
BRANCH   5   6
ATOM      6  C   UNL     1     -92.410 145.735 235.364  1.00  0.00     0.000 C 
BRANCH   6   7
ATOM      7  C   UNL     1     -93.198 145.875 234.048  1.00  0.00     0.000 C 
BRANCH   7   8
ATOM      8  C   UNL     1     -92.902 147.190 233.303  1.00  0.00     0.000 C 
BRANCH   8   9
ATOM      9  C   UNL     1     -93.901 148.332 233.567  1.00  0.00     0.000 C 
BRANCH   9  10
ATOM     10  C   UNL     1     -95.334 147.990 233.126  1.00  0.00     0.000 C 
BRANCH  10  11
ATOM     11  C   UNL     1     -96.365 149.034 233.586  1.00  0.00     0.000 C 
BRANCH  11  12
ATOM     12  C   UNL     1     -95.764 150.362 234.092  1.00  0.00     0.000 C 
BRANCH  12  13
ATOM     13  C   UNL     1     -96.630 151.132 235.112  1.00  0.00     0.006 C 
BRANCH  13  14
ATOM     14  C   UNL     1     -97.626 150.257 235.889  1.00  0.00     0.053 C 
BRANCH  14  15
ATOM     15  C   UNL     1     -98.766 151.058 236.438  1.00  0.00     0.041 C 
ATOM     16  O   UNL     1     -98.636 152.295 236.632  1.00  0.00    -0.550 OA
ATOM     17  O   UNL     1     -99.962 150.433 236.766  1.00  0.00    -0.550 OA
ENDBRANCH  14  15
ENDBRANCH  13  14
ENDBRANCH  12  13
ENDBRANCH  11  12
ENDBRANCH  10  11
ENDBRANCH   9  10
ENDBRANCH   8   9
ENDBRANCH   7   8
ENDBRANCH   6   7
ENDBRANCH   5   6
ENDBRANCH   4   5
ENDBRANCH   3   4
ENDBRANCH   2   3
ENDBRANCH   1   2
BRANCH   1  18
ATOM     18  C   UNL     1     -93.871 148.237 239.365  1.00  0.00     0.000 C 
BRANCH  18  19
ATOM     19  C   UNL     1     -94.420 148.264 240.804  1.00  0.00     0.000 C 
BRANCH  19  20
ATOM     20  C   UNL     1     -94.835 146.874 241.340  1.00  0.00     0.000 C 
BRANCH  20  21
ATOM     21  C   UNL     1     -94.934 145.786 240.250  1.00  0.00     0.000 C 
BRANCH  21  22
ATOM     22  C   UNL     1     -96.366 145.434 239.803  1.00  0.00     0.000 C 
BRANCH  22  23
ATOM     23  C   UNL     1     -97.473 146.294 240.444  1.00  0.00     0.000 C 
BRANCH  23  24
ATOM     24  C   UNL     1     -98.743 146.365 239.577  1.00  0.00    -0.000 C 
BRANCH  24  25
ATOM     25  C   UNL     1     -99.072 147.795 239.118  1.00  0.00    -0.000 C 
BRANCH  25  26
ATOM     26  C   UNL     1     -97.957 148.830 239.357  1.00  0.00    -0.000 C 
BRANCH  26  27
ATOM     27  C   UNL     1     -98.369 149.991 240.289  1.00  0.00    -0.000 C 
BRANCH  27  28
ATOM     28  C   UNL     1     -97.363 150.207 241.432  1.00  0.00    -0.000 C 
BRANCH  28  29
ATOM     29  C   UNL     1     -97.599 149.257 242.617  1.00  0.00    -0.000 C 
BRANCH  29  30
ATOM     30  C   UNL     1     -98.852 149.627 243.428  1.00  0.00    -0.000 C 
BRANCH  30  31
ATOM     31  C   UNL     1    -100.019 148.657 243.183  1.00  0.00    -0.003 C 
ATOM     32  C   UNL     1     -99.603 147.191 243.316  1.00  0.00     0.004 C 
ENDBRANCH  30  31
ENDBRANCH  29  30
ENDBRANCH  28  29
ENDBRANCH  27  28
ENDBRANCH  26  27
ENDBRANCH  25  26
ENDBRANCH  24  25
ENDBRANCH  23  24
ENDBRANCH  22  23
ENDBRANCH  21  22
ENDBRANCH  20  21
ENDBRANCH  19  20
ENDBRANCH  18  19
ENDBRANCH   1  18
TORSDOF 28
ENDMDL
