MODEL 1
REMARK VINA RESULT:    -7.383      0.000      0.000
REMARK INTER + INTRA:          -9.150
REMARK INTER:                  -8.893
REMARK INTRA:                  -0.257
REMARK UNBOUND:                -0.257
REMARK SMILES O=c1c(O)c(-c2ccc(O)c(O)c2)oc2cc(O)cc(O)c12
REMARK SMILES IDX 5 1 3 2 2 3 1 4 22 5 20 6 19 7 17 8 16 9 15 10 14 11 6 12
REMARK SMILES IDX 7 13 8 14 9 15 13 16 11 17 10 18 12 20 4 22 21 24 18 26
REMARK H PARENT 10 19 12 21 4 23 21 25 18 27
REMARK Flexibility Score: inf
ROOT
ATOM      1  C   UNL     1     -44.164  34.363  -5.438  1.00  0.00     0.180 A 
ATOM      2  C   UNL     1     -45.463  34.640  -4.977  1.00  0.00     0.208 A 
ATOM      3  C   UNL     1     -46.541  34.521  -5.867  1.00  0.00     0.238 A 
ATOM      4  O   UNL     1     -47.708  34.698  -5.429  1.00  0.00    -0.285 OA
ATOM      5  C   UNL     1     -46.304  34.180  -7.221  1.00  0.00     0.111 A 
ATOM      6  C   UNL     1     -47.317  34.073  -8.221  1.00  0.00     0.134 A 
ATOM      7  C   UNL     1     -46.976  33.625  -9.504  1.00  0.00     0.093 A 
ATOM      8  C   UNL     1     -45.651  33.340  -9.840  1.00  0.00     0.123 A 
ATOM      9  C   UNL     1     -44.648  33.493  -8.886  1.00  0.00     0.094 A 
ATOM     10  C   UNL     1     -44.961  33.902  -7.587  1.00  0.00     0.146 A 
ATOM     11  O   UNL     1     -43.976  34.014  -6.705  1.00  0.00    -0.452 OA
ENDROOT
BRANCH   1  12
ATOM     12  C   UNL     1     -42.978  34.453  -4.556  1.00  0.00     0.025 A 
ATOM     13  C   UNL     1     -42.468  35.713  -4.214  1.00  0.00     0.016 A 
ATOM     14  C   UNL     1     -41.339  35.821  -3.400  1.00  0.00     0.051 A 
ATOM     15  C   UNL     1     -40.689  34.676  -2.924  1.00  0.00     0.157 A 
ATOM     16  C   UNL     1     -42.315  33.301  -4.098  1.00  0.00     0.062 A 
ATOM     17  C   UNL     1     -41.180  33.399  -3.284  1.00  0.00     0.158 A 
BRANCH  15  18
ATOM     18  O   UNL     1     -39.570  34.853  -2.109  1.00  0.00    -0.504 OA
ATOM     19  H   UNL     1     -38.618  34.717  -2.418  1.00  0.00     0.293 HD
ENDBRANCH  15  18
BRANCH  17  20
ATOM     20  O   UNL     1     -40.573  32.214  -2.865  1.00  0.00    -0.504 OA
ATOM     21  H   UNL     1     -39.576  32.098  -2.754  1.00  0.00     0.293 HD
ENDBRANCH  17  20
ENDBRANCH   1  12
BRANCH   2  22
ATOM     22  O   UNL     1     -45.668  35.050  -3.656  1.00  0.00    -0.502 OA
ATOM     23  H   UNL     1     -45.296  34.538  -2.865  1.00  0.00     0.293 HD
ENDBRANCH   2  22
BRANCH   6  24
ATOM     24  O   UNL     1     -48.657  34.417  -8.019  1.00  0.00    -0.507 OA
ATOM     25  H   UNL     1     -49.393  34.301  -8.700  1.00  0.00     0.293 HD
ENDBRANCH   6  24
BRANCH   8  26
ATOM     26  O   UNL     1     -45.320  32.911 -11.123  1.00  0.00    -0.508 OA
ATOM     27  H   UNL     1     -45.321  31.929 -11.372  1.00  0.00     0.293 HD
ENDBRANCH   8  26
TORSDOF 6
ENDMDL
MODEL 2
REMARK VINA RESULT:    -7.321      1.389      2.763
REMARK INTER + INTRA:          -9.075
REMARK INTER:                  -8.853
REMARK INTRA:                  -0.223
REMARK UNBOUND:                -0.257
REMARK SMILES O=c1c(O)c(-c2ccc(O)c(O)c2)oc2cc(O)cc(O)c12
REMARK SMILES IDX 5 1 3 2 2 3 1 4 22 5 20 6 19 7 17 8 16 9 15 10 14 11 6 12
REMARK SMILES IDX 7 13 8 14 9 15 13 16 11 17 10 18 12 20 4 22 21 24 18 26
REMARK H PARENT 10 19 12 21 4 23 21 25 18 27
REMARK Flexibility Score: inf
ROOT
ATOM      1  C   UNL     1     -43.809  34.562  -5.988  1.00  0.00     0.180 A 
ATOM      2  C   UNL     1     -43.595  34.900  -7.336  1.00  0.00     0.208 A 
ATOM      3  C   UNL     1     -44.671  34.830  -8.234  1.00  0.00     0.238 A 
ATOM      4  O   UNL     1     -44.491  35.205  -9.422  1.00  0.00    -0.285 OA
ATOM      5  C   UNL     1     -45.934  34.370  -7.787  1.00  0.00     0.111 A 
ATOM      6  C   UNL     1     -47.084  34.218  -8.620  1.00  0.00     0.134 A 
ATOM      7  C   UNL     1     -48.309  33.856  -8.046  1.00  0.00     0.093 A 
ATOM      8  C   UNL     1     -48.412  33.580  -6.681  1.00  0.00     0.123 A 
ATOM      9  C   UNL     1     -47.284  33.673  -5.870  1.00  0.00     0.094 A 
ATOM     10  C   UNL     1     -46.056  34.069  -6.406  1.00  0.00     0.146 A 
ATOM     11  O   UNL     1     -45.012  34.165  -5.592  1.00  0.00    -0.452 OA
ENDROOT
BRANCH   1  12
ATOM     12  C   UNL     1     -42.727  34.624  -4.978  1.00  0.00     0.025 A 
ATOM     13  C   UNL     1     -42.239  35.872  -4.568  1.00  0.00     0.016 A 
ATOM     14  C   UNL     1     -41.206  35.954  -3.633  1.00  0.00     0.051 A 
ATOM     15  C   UNL     1     -40.630  34.794  -3.101  1.00  0.00     0.157 A 
ATOM     16  C   UNL     1     -42.137  33.458  -4.464  1.00  0.00     0.062 A 
ATOM     17  C   UNL     1     -41.098  33.529  -3.527  1.00  0.00     0.158 A 
BRANCH  15  18
ATOM     18  O   UNL     1     -39.606  34.945  -2.165  1.00  0.00    -0.504 OA
ATOM     19  H   UNL     1     -38.941  34.221  -1.933  1.00  0.00     0.293 HD
ENDBRANCH  15  18
BRANCH  17  20
ATOM     20  O   UNL     1     -40.559  32.330  -3.057  1.00  0.00    -0.504 OA
ATOM     21  H   UNL     1     -39.668  31.957  -3.351  1.00  0.00     0.293 HD
ENDBRANCH  17  20
ENDBRANCH   1  12
BRANCH   2  22
ATOM     22  O   UNL     1     -42.322  35.278  -7.772  1.00  0.00    -0.502 OA
ATOM     23  H   UNL     1     -42.112  36.218  -8.085  1.00  0.00     0.293 HD
ENDBRANCH   2  22
BRANCH   6  24
ATOM     24  O   UNL     1     -47.073  34.382 -10.009  1.00  0.00    -0.507 OA
ATOM     25  H   UNL     1     -47.499  33.749 -10.669  1.00  0.00     0.293 HD
ENDBRANCH   6  24
BRANCH   8  26
ATOM     26  O   UNL     1     -49.632  33.204  -6.122  1.00  0.00    -0.508 OA
ATOM     27  H   UNL     1     -49.892  33.478  -5.182  1.00  0.00     0.293 HD
ENDBRANCH   8  26
TORSDOF 6
ENDMDL
MODEL 3
REMARK VINA RESULT:    -7.045      2.256      3.068
REMARK INTER + INTRA:          -8.743
REMARK INTER:                  -8.422
REMARK INTRA:                  -0.321
REMARK UNBOUND:                -0.257
REMARK SMILES O=c1c(O)c(-c2ccc(O)c(O)c2)oc2cc(O)cc(O)c12
REMARK SMILES IDX 5 1 3 2 2 3 1 4 22 5 20 6 19 7 17 8 16 9 15 10 14 11 6 12
REMARK SMILES IDX 7 13 8 14 9 15 13 16 11 17 10 18 12 20 4 22 21 24 18 26
REMARK H PARENT 10 19 12 21 4 23 21 25 18 27
REMARK Flexibility Score: inf
ROOT
ATOM      1  C   UNL     1     -43.644  34.601  -4.268  1.00  0.00     0.180 A 
ATOM      2  C   UNL     1     -42.914  35.454  -5.116  1.00  0.00     0.208 A 
ATOM      3  C   UNL     1     -43.369  35.662  -6.427  1.00  0.00     0.238 A 
ATOM      4  O   UNL     1     -42.754  36.483  -7.156  1.00  0.00    -0.285 OA
ATOM      5  C   UNL     1     -44.515  34.972  -6.894  1.00  0.00     0.111 A 
ATOM      6  C   UNL     1     -45.040  35.074  -8.218  1.00  0.00     0.134 A 
ATOM      7  C   UNL     1     -46.242  34.427  -8.535  1.00  0.00     0.093 A 
ATOM      8  C   UNL     1     -46.903  33.633  -7.596  1.00  0.00     0.123 A 
ATOM      9  C   UNL     1     -46.369  33.484  -6.318  1.00  0.00     0.094 A 
ATOM     10  C   UNL     1     -45.193  34.147  -5.960  1.00  0.00     0.146 A 
ATOM     11  O   UNL     1     -44.732  33.993  -4.724  1.00  0.00    -0.452 OA
ENDROOT
BRANCH   1  12
ATOM     12  C   UNL     1     -43.235  34.343  -2.869  1.00  0.00     0.025 A 
ATOM     13  C   UNL     1     -43.655  35.216  -1.856  1.00  0.00     0.016 A 
ATOM     14  C   UNL     1     -43.264  35.003  -0.533  1.00  0.00     0.051 A 
ATOM     15  C   UNL     1     -42.437  33.926  -0.196  1.00  0.00     0.157 A 
ATOM     16  C   UNL     1     -42.386  33.273  -2.538  1.00  0.00     0.062 A 
ATOM     17  C   UNL     1     -41.986  33.053  -1.214  1.00  0.00     0.158 A 
BRANCH  15  18
ATOM     18  O   UNL     1     -42.089  33.765   1.146  1.00  0.00    -0.504 OA
ATOM     19  H   UNL     1     -42.511  33.085   1.762  1.00  0.00     0.293 HD
ENDBRANCH  15  18
BRANCH  17  20
ATOM     20  O   UNL     1     -41.143  31.970  -0.958  1.00  0.00    -0.504 OA
ATOM     21  H   UNL     1     -40.353  32.005  -0.330  1.00  0.00     0.293 HD
ENDBRANCH  17  20
ENDBRANCH   1  12
BRANCH   2  22
ATOM     22  O   UNL     1     -41.743  36.065  -4.659  1.00  0.00    -0.502 OA
ATOM     23  H   UNL     1     -41.229  36.737  -5.215  1.00  0.00     0.293 HD
ENDBRANCH   2  22
BRANCH   6  24
ATOM     24  O   UNL     1     -44.415  35.768  -9.258  1.00  0.00    -0.507 OA
ATOM     25  H   UNL     1     -44.866  36.057 -10.113  1.00  0.00     0.293 HD
ENDBRANCH   6  24
BRANCH   8  26
ATOM     26  O   UNL     1     -48.088  32.979  -7.926  1.00  0.00    -0.508 OA
ATOM     27  H   UNL     1     -48.799  32.785  -7.231  1.00  0.00     0.293 HD
ENDBRANCH   8  26
TORSDOF 6
ENDMDL
MODEL 4
REMARK VINA RESULT:    -6.884      2.260      6.833
REMARK INTER + INTRA:          -8.550
REMARK INTER:                  -8.216
REMARK INTRA:                  -0.334
REMARK UNBOUND:                -0.257
REMARK SMILES O=c1c(O)c(-c2ccc(O)c(O)c2)oc2cc(O)cc(O)c12
REMARK SMILES IDX 5 1 3 2 2 3 1 4 22 5 20 6 19 7 17 8 16 9 15 10 14 11 6 12
REMARK SMILES IDX 7 13 8 14 9 15 13 16 11 17 10 18 12 20 4 22 21 24 18 26
REMARK H PARENT 10 19 12 21 4 23 21 25 18 27
REMARK Flexibility Score: inf
ROOT
ATOM      1  C   UNL     1     -44.920  34.766  -4.745  1.00  0.00     0.180 A 
ATOM      2  C   UNL     1     -45.348  35.829  -3.930  1.00  0.00     0.208 A 
ATOM      3  C   UNL     1     -44.860  35.920  -2.617  1.00  0.00     0.238 A 
ATOM      4  O   UNL     1     -45.190  36.913  -1.919  1.00  0.00    -0.285 OA
ATOM      5  C   UNL     1     -43.994  34.918  -2.116  1.00  0.00     0.111 A 
ATOM      6  C   UNL     1     -43.472  34.886  -0.787  1.00  0.00     0.134 A 
ATOM      7  C   UNL     1     -42.538  33.903  -0.435  1.00  0.00     0.093 A 
ATOM      8  C   UNL     1     -42.155  32.915  -1.345  1.00  0.00     0.123 A 
ATOM      9  C   UNL     1     -42.699  32.906  -2.626  1.00  0.00     0.094 A 
ATOM     10  C   UNL     1     -43.604  33.895  -3.019  1.00  0.00     0.146 A 
ATOM     11  O   UNL     1     -44.081  33.860  -4.258  1.00  0.00    -0.452 OA
ENDROOT
BRANCH   1  12
ATOM     12  C   UNL     1     -45.379  34.611  -6.144  1.00  0.00     0.025 A 
ATOM     13  C   UNL     1     -46.475  33.783  -6.421  1.00  0.00     0.016 A 
ATOM     14  C   UNL     1     -46.913  33.606  -7.735  1.00  0.00     0.051 A 
ATOM     15  C   UNL     1     -46.257  34.238  -8.797  1.00  0.00     0.157 A 
ATOM     16  C   UNL     1     -44.705  35.230  -7.210  1.00  0.00     0.062 A 
ATOM     17  C   UNL     1     -45.134  35.056  -8.532  1.00  0.00     0.158 A 
BRANCH  15  18
ATOM     18  O   UNL     1     -46.750  34.026 -10.087  1.00  0.00    -0.504 OA
ATOM     19  H   UNL     1     -47.226  34.729 -10.633  1.00  0.00     0.293 HD
ENDBRANCH  15  18
BRANCH  17  20
ATOM     20  O   UNL     1     -44.418  35.702  -9.541  1.00  0.00    -0.504 OA
ATOM     21  H   UNL     1     -44.689  35.705 -10.514  1.00  0.00     0.293 HD
ENDBRANCH  17  20
ENDBRANCH   1  12
BRANCH   2  22
ATOM     22  O   UNL     1     -46.264  36.765  -4.419  1.00  0.00    -0.502 OA
ATOM     23  H   UNL     1     -46.114  37.272  -5.283  1.00  0.00     0.293 HD
ENDBRANCH   2  22
BRANCH   6  24
ATOM     24  O   UNL     1     -43.854  35.771   0.226  1.00  0.00    -0.507 OA
ATOM     25  H   UNL     1     -44.558  35.581   0.924  1.00  0.00     0.293 HD
ENDBRANCH   6  24
BRANCH   8  26
ATOM     26  O   UNL     1     -41.238  31.931  -0.980  1.00  0.00    -0.508 OA
ATOM     27  H   UNL     1     -40.243  32.053  -1.124  1.00  0.00     0.293 HD
ENDBRANCH   8  26
TORSDOF 6
ENDMDL
MODEL 5
REMARK VINA RESULT:    -6.882      2.039      6.860
REMARK INTER + INTRA:          -8.546
REMARK INTER:                  -8.227
REMARK INTRA:                  -0.319
REMARK UNBOUND:                -0.257
REMARK SMILES O=c1c(O)c(-c2ccc(O)c(O)c2)oc2cc(O)cc(O)c12
REMARK SMILES IDX 5 1 3 2 2 3 1 4 22 5 20 6 19 7 17 8 16 9 15 10 14 11 6 12
REMARK SMILES IDX 7 13 8 14 9 15 13 16 11 17 10 18 12 20 4 22 21 24 18 26
REMARK H PARENT 10 19 12 21 4 23 21 25 18 27
REMARK Flexibility Score: inf
ROOT
ATOM      1  C   UNL     1     -43.637  35.005  -5.641  1.00  0.00     0.180 A 
ATOM      2  C   UNL     1     -43.598  36.329  -5.171  1.00  0.00     0.208 A 
ATOM      3  C   UNL     1     -43.077  36.582  -3.893  1.00  0.00     0.238 A 
ATOM      4  O   UNL     1     -42.977  37.776  -3.508  1.00  0.00    -0.285 OA
ATOM      5  C   UNL     1     -42.652  35.504  -3.078  1.00  0.00     0.111 A 
ATOM      6  C   UNL     1     -42.147  35.640  -1.749  1.00  0.00     0.134 A 
ATOM      7  C   UNL     1     -41.657  34.513  -1.078  1.00  0.00     0.093 A 
ATOM      8  C   UNL     1     -41.711  33.246  -1.663  1.00  0.00     0.123 A 
ATOM      9  C   UNL     1     -42.252  33.095  -2.937  1.00  0.00     0.094 A 
ATOM     10  C   UNL     1     -42.714  34.206  -3.647  1.00  0.00     0.146 A 
ATOM     11  O   UNL     1     -43.202  34.018  -4.868  1.00  0.00    -0.452 OA
ENDROOT
BRANCH   1  12
ATOM     12  C   UNL     1     -44.159  34.660  -6.984  1.00  0.00     0.025 A 
ATOM     13  C   UNL     1     -45.462  34.159  -7.108  1.00  0.00     0.016 A 
ATOM     14  C   UNL     1     -45.968  33.809  -8.361  1.00  0.00     0.051 A 
ATOM     15  C   UNL     1     -45.180  33.937  -9.511  1.00  0.00     0.157 A 
ATOM     16  C   UNL     1     -43.358  34.769  -8.133  1.00  0.00     0.062 A 
ATOM     17  C   UNL     1     -43.854  34.417  -9.394  1.00  0.00     0.158 A 
BRANCH  15  18
ATOM     18  O   UNL     1     -45.748  33.576 -10.734  1.00  0.00    -0.504 OA
ATOM     19  H   UNL     1     -46.129  34.236 -11.397  1.00  0.00     0.293 HD
ENDBRANCH  15  18
BRANCH  17  20
ATOM     20  O   UNL     1     -43.003  34.552 -10.492  1.00  0.00    -0.504 OA
ATOM     21  H   UNL     1     -42.956  33.893 -11.255  1.00  0.00     0.293 HD
ENDBRANCH  17  20
ENDBRANCH   1  12
BRANCH   2  22
ATOM     22  O   UNL     1     -44.094  37.371  -5.961  1.00  0.00    -0.502 OA
ATOM     23  H   UNL     1     -43.518  38.151  -6.254  1.00  0.00     0.293 HD
ENDBRANCH   2  22
BRANCH   6  24
ATOM     24  O   UNL     1     -42.128  36.844  -1.038  1.00  0.00    -0.507 OA
ATOM     25  H   UNL     1     -42.258  37.758  -1.444  1.00  0.00     0.293 HD
ENDBRANCH   6  24
BRANCH   8  26
ATOM     26  O   UNL     1     -41.237  32.127  -0.980  1.00  0.00    -0.508 OA
ATOM     27  H   UNL     1     -41.444  31.977   0.000  1.00  0.00     0.293 HD
ENDBRANCH   8  26
TORSDOF 6
ENDMDL
MODEL 6
REMARK VINA RESULT:    -6.766      2.275      7.414
REMARK INTER + INTRA:          -8.407
REMARK INTER:                  -8.169
REMARK INTRA:                  -0.238
REMARK UNBOUND:                -0.257
REMARK SMILES O=c1c(O)c(-c2ccc(O)c(O)c2)oc2cc(O)cc(O)c12
REMARK SMILES IDX 5 1 3 2 2 3 1 4 22 5 20 6 19 7 17 8 16 9 15 10 14 11 6 12
REMARK SMILES IDX 7 13 8 14 9 15 13 16 11 17 10 18 12 20 4 22 21 24 18 26
REMARK H PARENT 10 19 12 21 4 23 21 25 18 27
REMARK Flexibility Score: inf
ROOT
ATOM      1  C   UNL     1     -43.839  34.381  -4.533  1.00  0.00     0.180 A 
ATOM      2  C   UNL     1     -42.679  33.593  -4.422  1.00  0.00     0.208 A 
ATOM      3  C   UNL     1     -41.966  33.599  -3.213  1.00  0.00     0.238 A 
ATOM      4  O   UNL     1     -40.972  32.836  -3.096  1.00  0.00    -0.285 OA
ATOM      5  C   UNL     1     -42.388  34.434  -2.149  1.00  0.00     0.111 A 
ATOM      6  C   UNL     1     -41.717  34.552  -0.895  1.00  0.00     0.134 A 
ATOM      7  C   UNL     1     -42.286  35.329   0.122  1.00  0.00     0.093 A 
ATOM      8  C   UNL     1     -43.469  36.041  -0.091  1.00  0.00     0.123 A 
ATOM      9  C   UNL     1     -44.102  35.974  -1.329  1.00  0.00     0.094 A 
ATOM     10  C   UNL     1     -43.579  35.178  -2.351  1.00  0.00     0.146 A 
ATOM     11  O   UNL     1     -44.228  35.128  -3.508  1.00  0.00    -0.452 OA
ENDROOT
BRANCH   1  12
ATOM     12  C   UNL     1     -44.652  34.416  -5.771  1.00  0.00     0.025 A 
ATOM     13  C   UNL     1     -45.882  33.744  -5.807  1.00  0.00     0.016 A 
ATOM     14  C   UNL     1     -46.655  33.748  -6.969  1.00  0.00     0.051 A 
ATOM     15  C   UNL     1     -46.210  34.406  -8.121  1.00  0.00     0.157 A 
ATOM     16  C   UNL     1     -44.192  35.059  -6.932  1.00  0.00     0.062 A 
ATOM     17  C   UNL     1     -44.958  35.066  -8.104  1.00  0.00     0.158 A 
BRANCH  15  18
ATOM     18  O   UNL     1     -47.034  34.378  -9.248  1.00  0.00    -0.504 OA
ATOM     19  H   UNL     1     -47.893  34.902  -9.333  1.00  0.00     0.293 HD
ENDBRANCH  15  18
BRANCH  17  20
ATOM     20  O   UNL     1     -44.440  35.726  -9.220  1.00  0.00    -0.504 OA
ATOM     21  H   UNL     1     -44.440  35.342 -10.154  1.00  0.00     0.293 HD
ENDBRANCH  17  20
ENDBRANCH   1  12
BRANCH   2  22
ATOM     22  O   UNL     1     -42.237  32.835  -5.510  1.00  0.00    -0.502 OA
ATOM     23  H   UNL     1     -42.795  32.706  -6.345  1.00  0.00     0.293 HD
ENDBRANCH   2  22
BRANCH   6  24
ATOM     24  O   UNL     1     -40.485  33.956  -0.606  1.00  0.00    -0.507 OA
ATOM     25  H   UNL     1     -39.628  34.457  -0.428  1.00  0.00     0.293 HD
ENDBRANCH   6  24
BRANCH   8  26
ATOM     26  O   UNL     1     -44.018  36.824   0.922  1.00  0.00    -0.508 OA
ATOM     27  H   UNL     1     -43.980  37.836   0.890  1.00  0.00     0.293 HD
ENDBRANCH   8  26
TORSDOF 6
ENDMDL
MODEL 7
REMARK VINA RESULT:    -6.519      1.909      7.254
REMARK INTER + INTRA:          -8.109
REMARK INTER:                  -7.779
REMARK INTRA:                  -0.331
REMARK UNBOUND:                -0.257
REMARK SMILES O=c1c(O)c(-c2ccc(O)c(O)c2)oc2cc(O)cc(O)c12
REMARK SMILES IDX 5 1 3 2 2 3 1 4 22 5 20 6 19 7 17 8 16 9 15 10 14 11 6 12
REMARK SMILES IDX 7 13 8 14 9 15 13 16 11 17 10 18 12 20 4 22 21 24 18 26
REMARK H PARENT 10 19 12 21 4 23 21 25 18 27
REMARK Flexibility Score: inf
ROOT
ATOM      1  C   UNL     1     -43.355  34.951  -5.523  1.00  0.00     0.180 A 
ATOM      2  C   UNL     1     -42.524  33.923  -5.044  1.00  0.00     0.208 A 
ATOM      3  C   UNL     1     -41.716  34.167  -3.923  1.00  0.00     0.238 A 
ATOM      4  O   UNL     1     -41.031  33.221  -3.456  1.00  0.00    -0.285 OA
ATOM      5  C   UNL     1     -41.705  35.453  -3.329  1.00  0.00     0.111 A 
ATOM      6  C   UNL     1     -40.892  35.826  -2.216  1.00  0.00     0.134 A 
ATOM      7  C   UNL     1     -41.044  37.096  -1.645  1.00  0.00     0.093 A 
ATOM      8  C   UNL     1     -41.934  38.027  -2.184  1.00  0.00     0.123 A 
ATOM      9  C   UNL     1     -42.691  37.691  -3.303  1.00  0.00     0.094 A 
ATOM     10  C   UNL     1     -42.590  36.419  -3.872  1.00  0.00     0.146 A 
ATOM     11  O   UNL     1     -43.348  36.136  -4.925  1.00  0.00    -0.452 OA
ENDROOT
BRANCH   1  12
ATOM     12  C   UNL     1     -44.246  34.765  -6.691  1.00  0.00     0.025 A 
ATOM     13  C   UNL     1     -43.798  35.135  -7.966  1.00  0.00     0.016 A 
ATOM     14  C   UNL     1     -44.629  34.986  -9.078  1.00  0.00     0.051 A 
ATOM     15  C   UNL     1     -45.926  34.482  -8.938  1.00  0.00     0.157 A 
ATOM     16  C   UNL     1     -45.557  34.278  -6.543  1.00  0.00     0.062 A 
ATOM     17  C   UNL     1     -46.399  34.129  -7.652  1.00  0.00     0.158 A 
BRANCH  15  18
ATOM     18  O   UNL     1     -46.703  34.352 -10.091  1.00  0.00    -0.504 OA
ATOM     19  H   UNL     1     -46.392  33.890 -10.933  1.00  0.00     0.293 HD
ENDBRANCH  15  18
BRANCH  17  20
ATOM     20  O   UNL     1     -47.688  33.639  -7.432  1.00  0.00    -0.504 OA
ATOM     21  H   UNL     1     -47.896  32.674  -7.221  1.00  0.00     0.293 HD
ENDBRANCH  17  20
ENDBRANCH   1  12
BRANCH   2  22
ATOM     22  O   UNL     1     -42.493  32.685  -5.693  1.00  0.00    -0.502 OA
ATOM     23  H   UNL     1     -42.235  31.829  -5.217  1.00  0.00     0.293 HD
ENDBRANCH   2  22
BRANCH   6  24
ATOM     24  O   UNL     1     -39.909  35.005  -1.654  1.00  0.00    -0.507 OA
ATOM     25  H   UNL     1     -39.884  33.999  -1.726  1.00  0.00     0.293 HD
ENDBRANCH   6  24
BRANCH   8  26
ATOM     26  O   UNL     1     -42.065  39.294  -1.619  1.00  0.00    -0.508 OA
ATOM     27  H   UNL     1     -42.700  39.983  -2.004  1.00  0.00     0.293 HD
ENDBRANCH   8  26
TORSDOF 6
ENDMDL
MODEL 8
REMARK VINA RESULT:    -6.486      3.171      5.341
REMARK INTER + INTRA:          -8.070
REMARK INTER:                  -7.867
REMARK INTRA:                  -0.202
REMARK UNBOUND:                -0.257
REMARK SMILES O=c1c(O)c(-c2ccc(O)c(O)c2)oc2cc(O)cc(O)c12
REMARK SMILES IDX 5 1 3 2 2 3 1 4 22 5 20 6 19 7 17 8 16 9 15 10 14 11 6 12
REMARK SMILES IDX 7 13 8 14 9 15 13 16 11 17 10 18 12 20 4 22 21 24 18 26
REMARK H PARENT 10 19 12 21 4 23 21 25 18 27
REMARK Flexibility Score: inf
ROOT
ATOM      1  C   UNL     1     -44.350  36.089  -3.304  1.00  0.00     0.180 A 
ATOM      2  C   UNL     1     -45.250  35.609  -4.271  1.00  0.00     0.208 A 
ATOM      3  C   UNL     1     -46.566  36.097  -4.277  1.00  0.00     0.238 A 
ATOM      4  O   UNL     1     -47.345  35.720  -5.190  1.00  0.00    -0.285 OA
ATOM      5  C   UNL     1     -46.982  37.016  -3.283  1.00  0.00     0.111 A 
ATOM      6  C   UNL     1     -48.304  37.544  -3.167  1.00  0.00     0.134 A 
ATOM      7  C   UNL     1     -48.573  38.528  -2.207  1.00  0.00     0.093 A 
ATOM      8  C   UNL     1     -47.584  38.958  -1.320  1.00  0.00     0.123 A 
ATOM      9  C   UNL     1     -46.306  38.410  -1.390  1.00  0.00     0.094 A 
ATOM     10  C   UNL     1     -45.997  37.454  -2.360  1.00  0.00     0.146 A 
ATOM     11  O   UNL     1     -44.760  36.975  -2.404  1.00  0.00    -0.452 OA
ENDROOT
BRANCH   1  12
ATOM     12  C   UNL     1     -42.942  35.633  -3.243  1.00  0.00     0.025 A 
ATOM     13  C   UNL     1     -41.916  36.514  -3.610  1.00  0.00     0.016 A 
ATOM     14  C   UNL     1     -40.583  36.098  -3.579  1.00  0.00     0.051 A 
ATOM     15  C   UNL     1     -40.251  34.794  -3.197  1.00  0.00     0.157 A 
ATOM     16  C   UNL     1     -42.614  34.316  -2.880  1.00  0.00     0.062 A 
ATOM     17  C   UNL     1     -41.280  33.888  -2.849  1.00  0.00     0.158 A 
BRANCH  15  18
ATOM     18  O   UNL     1     -38.899  34.444  -3.180  1.00  0.00    -0.504 OA
ATOM     19  H   UNL     1     -38.526  33.611  -3.612  1.00  0.00     0.293 HD
ENDBRANCH  15  18
BRANCH  17  20
ATOM     20  O   UNL     1     -41.027  32.566  -2.478  1.00  0.00    -0.504 OA
ATOM     21  H   UNL     1     -40.900  32.262  -1.523  1.00  0.00     0.293 HD
ENDBRANCH  17  20
ENDBRANCH   1  12
BRANCH   2  22
ATOM     22  O   UNL     1     -44.841  34.645  -5.196  1.00  0.00    -0.502 OA
ATOM     23  H   UNL     1     -43.969  34.138  -5.103  1.00  0.00     0.293 HD
ENDBRANCH   2  22
BRANCH   6  24
ATOM     24  O   UNL     1     -49.388  37.120  -3.943  1.00  0.00    -0.507 OA
ATOM     25  H   UNL     1     -49.495  37.296  -4.930  1.00  0.00     0.293 HD
ENDBRANCH   6  24
BRANCH   8  26
ATOM     26  O   UNL     1     -47.866  39.926  -0.357  1.00  0.00    -0.508 OA
ATOM     27  H   UNL     1     -48.795  40.031   0.033  1.00  0.00     0.293 HD
ENDBRANCH   8  26
TORSDOF 6
ENDMDL
MODEL 9
REMARK VINA RESULT:    -6.466      1.820      6.990
REMARK INTER + INTRA:          -8.046
REMARK INTER:                  -7.724
REMARK INTRA:                  -0.322
REMARK UNBOUND:                -0.257
REMARK SMILES O=c1c(O)c(-c2ccc(O)c(O)c2)oc2cc(O)cc(O)c12
REMARK SMILES IDX 5 1 3 2 2 3 1 4 22 5 20 6 19 7 17 8 16 9 15 10 14 11 6 12
REMARK SMILES IDX 7 13 8 14 9 15 13 16 11 17 10 18 12 20 4 22 21 24 18 26
REMARK H PARENT 10 19 12 21 4 23 21 25 18 27
REMARK Flexibility Score: inf
ROOT
ATOM      1  C   UNL     1     -44.423  34.768  -5.242  1.00  0.00     0.180 A 
ATOM      2  C   UNL     1     -44.196  36.111  -4.893  1.00  0.00     0.208 A 
ATOM      3  C   UNL     1     -43.400  36.398  -3.773  1.00  0.00     0.238 A 
ATOM      4  O   UNL     1     -43.141  37.601  -3.510  1.00  0.00    -0.285 OA
ATOM      5  C   UNL     1     -42.886  35.341  -2.983  1.00  0.00     0.111 A 
ATOM      6  C   UNL     1     -42.103  35.516  -1.802  1.00  0.00     0.134 A 
ATOM      7  C   UNL     1     -41.560  34.395  -1.161  1.00  0.00     0.093 A 
ATOM      8  C   UNL     1     -41.822  33.104  -1.623  1.00  0.00     0.123 A 
ATOM      9  C   UNL     1     -42.629  32.920  -2.743  1.00  0.00     0.094 A 
ATOM     10  C   UNL     1     -43.155  34.020  -3.425  1.00  0.00     0.146 A 
ATOM     11  O   UNL     1     -43.901  33.798  -4.501  1.00  0.00    -0.452 OA
ENDROOT
BRANCH   1  12
ATOM     12  C   UNL     1     -45.239  34.386  -6.417  1.00  0.00     0.025 A 
ATOM     13  C   UNL     1     -44.620  34.229  -7.664  1.00  0.00     0.016 A 
ATOM     14  C   UNL     1     -45.374  33.889  -8.789  1.00  0.00     0.051 A 
ATOM     15  C   UNL     1     -46.759  33.714  -8.695  1.00  0.00     0.157 A 
ATOM     16  C   UNL     1     -46.633  34.233  -6.322  1.00  0.00     0.062 A 
ATOM     17  C   UNL     1     -47.399  33.895  -7.445  1.00  0.00     0.158 A 
BRANCH  15  18
ATOM     18  O   UNL     1     -47.454  33.368  -9.855  1.00  0.00    -0.504 OA
ATOM     19  H   UNL     1     -47.931  34.032 -10.448  1.00  0.00     0.293 HD
ENDBRANCH  15  18
BRANCH  17  20
ATOM     20  O   UNL     1     -48.778  33.758  -7.278  1.00  0.00    -0.504 OA
ATOM     21  H   UNL     1     -49.432  33.658  -8.041  1.00  0.00     0.293 HD
ENDBRANCH  17  20
ENDBRANCH   1  12
BRANCH   2  22
ATOM     22  O   UNL     1     -44.776  37.139  -5.641  1.00  0.00    -0.502 OA
ATOM     23  H   UNL     1     -45.114  37.000  -6.586  1.00  0.00     0.293 HD
ENDBRANCH   2  22
BRANCH   6  24
ATOM     24  O   UNL     1     -41.854  36.755  -1.204  1.00  0.00    -0.507 OA
ATOM     25  H   UNL     1     -42.546  37.322  -0.738  1.00  0.00     0.293 HD
ENDBRANCH   6  24
BRANCH   8  26
ATOM     26  O   UNL     1     -41.290  31.994  -0.969  1.00  0.00    -0.508 OA
ATOM     27  H   UNL     1     -40.371  31.634  -1.196  1.00  0.00     0.293 HD
ENDBRANCH   8  26
TORSDOF 6
ENDMDL
