MODEL 1
REMARK VINA RESULT:   143.688      0.000      0.000
REMARK INTER + INTRA:         164.938
REMARK INTER:                 164.688
REMARK INTRA:                   0.250
REMARK UNBOUND:                 0.250
REMARK SMILES C=C(C)[C@@H]1CC[C@]2(C(=O)[O-])CC[C@]3(C)[C@H](CC[C@@H]4[C@@]5(C)CC[C@H](O)C(C)(C)[C@H]5CC[C@@]43C)[C@H]12
REMARK SMILES IDX 7 1 6 2 33 3 11 4 5 5 15 6 4 7 12 8 16 9 13 10 17 11 31 12
REMARK SMILES IDX 14 13 18 14 30 15 32 16 19 17 29 18 21 19 20 20 28 21 22 22
REMARK SMILES IDX 25 23 23 24 26 25 27 26 8 27 9 28 10 29 2 30 3 31 1 32 24 33
REMARK H PARENT 24 34
REMARK Flexibility Score: inf
ROOT
ATOM      1  C   UNL     1     -31.033  26.562 -14.148  1.00  0.00     0.014 C 
ATOM      2  C   UNL     1     -31.175  25.061 -13.817  1.00  0.00     0.014 C 
ATOM      3  C   UNL     1     -29.627  26.655 -14.834  1.00  0.00     0.012 C 
ATOM      4  C   UNL     1     -32.217  26.981 -15.071  1.00  0.00     0.014 C 
ATOM      5  C   UNL     1     -30.460  24.328 -14.938  1.00  0.00     0.009 C 
ATOM      6  C   UNL     1     -29.506  27.890 -15.799  1.00  0.00     0.000 C 
ATOM      7  C   UNL     1     -29.228  25.189 -15.222  1.00  0.00     0.018 C 
ATOM      8  C   UNL     1     -31.963  28.225 -15.944  1.00  0.00     0.008 C 
ATOM      9  C   UNL     1     -28.125  28.127 -16.404  1.00  0.00     0.005 C 
ATOM     10  C   UNL     1     -30.661  28.170 -16.811  1.00  0.00    -0.024 C 
ATOM     11  C   UNL     1     -27.891  29.620 -16.683  1.00  0.00     0.005 C 
ATOM     12  C   UNL     1     -30.362  29.558 -17.660  1.00  0.00    -0.024 C 
ATOM     13  C   UNL     1     -30.831  26.955 -17.771  1.00  0.00     0.012 C 
ATOM     14  C   UNL     1     -29.175  30.447 -17.052  1.00  0.00     0.002 C 
ATOM     15  C   UNL     1     -31.638  30.452 -17.872  1.00  0.00     0.008 C 
ATOM     16  C   UNL     1     -29.897  29.226 -19.131  1.00  0.00     0.012 C 
ATOM     17  C   UNL     1     -29.513  31.696 -16.086  1.00  0.00    -0.026 C 
ATOM     18  C   UNL     1     -31.338  31.955 -17.922  1.00  0.00     0.005 C 
ATOM     19  C   UNL     1     -28.275  32.666 -16.169  1.00  0.00     0.010 C 
ATOM     20  C   UNL     1     -29.643  31.239 -14.606  1.00  0.00     0.012 C 
ATOM     21  C   UNL     1     -30.878  32.429 -16.515  1.00  0.00     0.003 C 
ATOM     22  C   UNL     1     -28.517  34.080 -15.673  1.00  0.00     0.033 C 
ATOM     23  C   UNL     1     -30.991  34.011 -16.262  1.00  0.00    -0.006 C 
ATOM     24  C   UNL     1     -29.631  34.728 -16.486  1.00  0.00     0.120 C 
ATOM     25  C   UNL     1     -31.519  34.286 -14.822  1.00  0.00     0.014 C 
ATOM     26  C   UNL     1     -32.023  34.692 -17.204  1.00  0.00     0.014 C 
ENDROOT
BRANCH   1  27
ATOM     27  C   UNL     1     -31.110  27.376 -12.864  1.00  0.00     0.048 C 
ATOM     28  O   UNL     1     -31.294  28.621 -12.894  1.00  0.00    -0.550 OA
ATOM     29  O   UNL     1     -31.064  26.736 -11.629  1.00  0.00    -0.550 OA
ENDBRANCH   1  27
BRANCH   7  30
ATOM     30  C   UNL     1     -28.459  24.905 -16.518  1.00  0.00    -0.077 C 
ATOM     31  C   UNL     1     -27.044  25.374 -16.785  1.00  0.00     0.039 C 
ATOM     32  C   UNL     1     -29.138  24.422 -17.574  1.00  0.00     0.008 C 
ENDBRANCH   7  30
BRANCH  24  33
ATOM     33  O   UNL     1     -29.726  36.089 -16.143  1.00  0.00    -0.393 OA
ATOM     34  H   UNL     1     -30.530  36.448 -16.599  1.00  0.00     0.210 HD
ENDBRANCH  24  33
TORSDOF 3
ENDMDL
MODEL 2
REMARK VINA RESULT:   146.050     10.994     13.098
REMARK INTER + INTRA:         167.645
REMARK INTER:                 167.811
REMARK INTRA:                  -0.166
REMARK UNBOUND:                 0.250
REMARK SMILES C=C(C)[C@@H]1CC[C@]2(C(=O)[O-])CC[C@]3(C)[C@H](CC[C@@H]4[C@@]5(C)CC[C@H](O)C(C)(C)[C@H]5CC[C@@]43C)[C@H]12
REMARK SMILES IDX 7 1 6 2 33 3 11 4 5 5 15 6 4 7 12 8 16 9 13 10 17 11 31 12
REMARK SMILES IDX 14 13 18 14 30 15 32 16 19 17 29 18 21 19 20 20 28 21 22 22
REMARK SMILES IDX 25 23 23 24 26 25 27 26 8 27 9 28 10 29 2 30 3 31 1 32 24 33
REMARK H PARENT 24 34
REMARK Flexibility Score: inf
ROOT
ATOM      1  C   UNL     1     -38.096  28.352 -22.118  1.00  0.00     0.014 C 
ATOM      2  C   UNL     1     -37.470  27.009 -21.684  1.00  0.00     0.014 C 
ATOM      3  C   UNL     1     -39.395  27.921 -22.882  1.00  0.00     0.012 C 
ATOM      4  C   UNL     1     -38.365  29.208 -20.844  1.00  0.00     0.014 C 
ATOM      5  C   UNL     1     -38.643  26.085 -21.404  1.00  0.00     0.009 C 
ATOM      6  C   UNL     1     -40.499  29.040 -22.876  1.00  0.00     0.000 C 
ATOM      7  C   UNL     1     -39.654  26.422 -22.501  1.00  0.00     0.018 C 
ATOM      8  C   UNL     1     -39.460  30.283 -20.993  1.00  0.00     0.008 C 
ATOM      9  C   UNL     1     -41.743  28.750 -23.711  1.00  0.00     0.005 C 
ATOM     10  C   UNL     1     -40.833  29.758 -21.531  1.00  0.00    -0.024 C 
ATOM     11  C   UNL     1     -42.369  30.050 -24.241  1.00  0.00     0.005 C 
ATOM     12  C   UNL     1     -41.955  30.949 -21.775  1.00  0.00    -0.024 C 
ATOM     13  C   UNL     1     -41.340  28.720 -20.486  1.00  0.00     0.012 C 
ATOM     14  C   UNL     1     -42.193  31.309 -23.319  1.00  0.00     0.002 C 
ATOM     15  C   UNL     1     -41.663  32.264 -20.963  1.00  0.00     0.008 C 
ATOM     16  C   UNL     1     -43.373  30.499 -21.247  1.00  0.00     0.012 C 
ATOM     17  C   UNL     1     -41.435  32.571 -23.981  1.00  0.00    -0.026 C 
ATOM     18  C   UNL     1     -42.130  33.542 -21.671  1.00  0.00     0.005 C 
ATOM     19  C   UNL     1     -42.300  33.001 -25.225  1.00  0.00     0.010 C 
ATOM     20  C   UNL     1     -40.033  32.163 -24.513  1.00  0.00     0.012 C 
ATOM     21  C   UNL     1     -41.253  33.775 -22.933  1.00  0.00     0.003 C 
ATOM     22  C   UNL     1     -42.017  34.391 -25.770  1.00  0.00     0.033 C 
ATOM     23  C   UNL     1     -41.272  35.276 -23.504  1.00  0.00    -0.006 C 
ATOM     24  C   UNL     1     -42.270  35.430 -24.684  1.00  0.00     0.120 C 
ATOM     25  C   UNL     1     -39.838  35.698 -23.946  1.00  0.00     0.014 C 
ATOM     26  C   UNL     1     -41.681  36.318 -22.426  1.00  0.00     0.014 C 
ENDROOT
BRANCH   1  27
ATOM     27  C   UNL     1     -37.118  29.105 -23.009  1.00  0.00     0.048 C 
ATOM     28  O   UNL     1     -36.459  28.507 -23.900  1.00  0.00    -0.550 OA
ATOM     29  O   UNL     1     -37.005  30.488 -22.907  1.00  0.00    -0.550 OA
ENDBRANCH   1  27
BRANCH   7  30
ATOM     30  C   UNL     1     -41.084  25.897 -22.320  1.00  0.00    -0.077 C 
ATOM     31  C   UNL     1     -41.751  25.704 -20.974  1.00  0.00     0.039 C 
ATOM     32  C   UNL     1     -41.708  25.353 -23.379  1.00  0.00     0.008 C 
ENDBRANCH   7  30
BRANCH  24  33
ATOM     33  O   UNL     1     -42.182  36.718 -25.244  1.00  0.00    -0.393 OA
ATOM     34  H   UNL     1     -41.510  37.219 -24.714  1.00  0.00     0.210 HD
ENDBRANCH  24  33
TORSDOF 3
ENDMDL
