MODEL 1
REMARK VINA RESULT:    -3.771      0.000      0.000
REMARK INTER + INTRA:          -4.500
REMARK INTER:                  -4.432
REMARK INTRA:                  -0.068
REMARK UNBOUND:                -0.068
REMARK SMILES O=C([O-])CCC(=O)[O-]
REMARK SMILES IDX 4 1 2 2 1 3 3 4 5 5 6 6 7 7 8 8
REMARK H PARENT
REMARK Flexibility Score: inf
ROOT
ATOM      1  C   UNL     1      19.408  26.828  36.314  1.00  0.00     0.059 C 
ENDROOT
BRANCH   1   2
ATOM      2  C   UNL     1      18.147  27.552  36.665  1.00  0.00     0.042 C 
ATOM      3  O   UNL     1      18.185  28.763  37.006  1.00  0.00    -0.550 OA
ATOM      4  O   UNL     1      16.933  26.875  36.663  1.00  0.00    -0.550 OA
ENDBRANCH   1   2
BRANCH   1   5
ATOM      5  C   UNL     1      19.188  25.315  36.364  1.00  0.00     0.059 C 
BRANCH   5   6
ATOM      6  C   UNL     1      19.588  24.684  35.069  1.00  0.00     0.042 C 
ATOM      7  O   UNL     1      20.801  24.641  34.733  1.00  0.00    -0.550 OA
ATOM      8  O   UNL     1      18.617  24.187  34.208  1.00  0.00    -0.550 OA
ENDBRANCH   5   6
ENDBRANCH   1   5
TORSDOF 3
ENDMDL
MODEL 2
REMARK VINA RESULT:    -3.566      0.676      4.067
REMARK INTER + INTRA:          -4.260
REMARK INTER:                  -4.221
REMARK INTRA:                  -0.039
REMARK UNBOUND:                -0.068
REMARK SMILES O=C([O-])CCC(=O)[O-]
REMARK SMILES IDX 4 1 2 2 1 3 3 4 5 5 6 6 7 7 8 8
REMARK H PARENT
REMARK Flexibility Score: inf
ROOT
ATOM      1  C   UNL     1      18.612  25.568  36.291  1.00  0.00     0.059 C 
ENDROOT
BRANCH   1   2
ATOM      2  C   UNL     1      19.114  24.667  35.208  1.00  0.00     0.042 C 
ATOM      3  O   UNL     1      18.310  23.959  34.548  1.00  0.00    -0.550 OA
ATOM      4  O   UNL     1      20.478  24.575  34.957  1.00  0.00    -0.550 OA
ENDBRANCH   1   2
BRANCH   1   5
ATOM      5  C   UNL     1      19.438  26.854  36.344  1.00  0.00     0.059 C 
BRANCH   5   6
ATOM      6  C   UNL     1      18.603  27.993  36.836  1.00  0.00     0.042 C 
ATOM      7  O   UNL     1      19.141  29.095  37.125  1.00  0.00    -0.550 OA
ATOM      8  O   UNL     1      17.237  27.823  37.024  1.00  0.00    -0.550 OA
ENDBRANCH   5   6
ENDBRANCH   1   5
TORSDOF 3
ENDMDL
MODEL 3
REMARK VINA RESULT:    -3.358     15.581     17.122
REMARK INTER + INTRA:          -4.016
REMARK INTER:                  -3.892
REMARK INTRA:                  -0.124
REMARK UNBOUND:                -0.068
REMARK SMILES O=C([O-])CCC(=O)[O-]
REMARK SMILES IDX 4 1 2 2 1 3 3 4 5 5 6 6 7 7 8 8
REMARK H PARENT
REMARK Flexibility Score: inf
ROOT
ATOM      1  C   UNL     1      22.386  22.713  19.676  1.00  0.00     0.059 C 
ENDROOT
BRANCH   1   2
ATOM      2  C   UNL     1      21.810  22.061  20.892  1.00  0.00     0.042 C 
ATOM      3  O   UNL     1      20.716  22.464  21.369  1.00  0.00    -0.550 OA
ATOM      4  O   UNL     1      22.504  21.040  21.529  1.00  0.00    -0.550 OA
ENDBRANCH   1   2
BRANCH   1   5
ATOM      5  C   UNL     1      21.353  22.746  18.547  1.00  0.00     0.059 C 
BRANCH   5   6
ATOM      6  C   UNL     1      21.013  24.158  18.191  1.00  0.00     0.042 C 
ATOM      7  O   UNL     1      20.991  25.049  19.081  1.00  0.00    -0.550 OA
ATOM      8  O   UNL     1      20.670  24.482  16.884  1.00  0.00    -0.550 OA
ENDBRANCH   5   6
ENDBRANCH   1   5
TORSDOF 3
ENDMDL
MODEL 4
REMARK VINA RESULT:    -3.325     15.572     17.172
REMARK INTER + INTRA:          -3.976
REMARK INTER:                  -3.853
REMARK INTRA:                  -0.123
REMARK UNBOUND:                -0.068
REMARK SMILES O=C([O-])CCC(=O)[O-]
REMARK SMILES IDX 4 1 2 2 1 3 3 4 5 5 6 6 7 7 8 8
REMARK H PARENT
REMARK Flexibility Score: inf
ROOT
ATOM      1  C   UNL     1      22.414  22.728  19.641  1.00  0.00     0.059 C 
ENDROOT
BRANCH   1   2
ATOM      2  C   UNL     1      21.815  22.100  20.859  1.00  0.00     0.042 C 
ATOM      3  O   UNL     1      22.370  21.108  21.399  1.00  0.00    -0.550 OA
ATOM      4  O   UNL     1      20.616  22.581  21.371  1.00  0.00    -0.550 OA
ENDBRANCH   1   2
BRANCH   1   5
ATOM      5  C   UNL     1      21.424  22.686  18.475  1.00  0.00     0.059 C 
BRANCH   5   6
ATOM      6  C   UNL     1      21.004  24.070  18.095  1.00  0.00     0.042 C 
ATOM      7  O   UNL     1      20.721  24.340  16.897  1.00  0.00    -0.550 OA
ATOM      8  O   UNL     1      20.973  25.075  19.053  1.00  0.00    -0.550 OA
ENDBRANCH   5   6
ENDBRANCH   1   5
TORSDOF 3
ENDMDL
MODEL 5
REMARK VINA RESULT:    -3.243      6.632      7.991
REMARK INTER + INTRA:          -3.881
REMARK INTER:                  -3.721
REMARK INTRA:                  -0.159
REMARK UNBOUND:                -0.068
REMARK SMILES O=C([O-])CCC(=O)[O-]
REMARK SMILES IDX 4 1 2 2 1 3 3 4 5 5 6 6 7 7 8 8
REMARK H PARENT
REMARK Flexibility Score: inf
ROOT
ATOM      1  C   UNL     1      21.624  34.538  34.940  1.00  0.00     0.059 C 
ENDROOT
BRANCH   1   2
ATOM      2  C   UNL     1      20.638  34.342  33.832  1.00  0.00     0.042 C 
ATOM      3  O   UNL     1      19.426  34.638  34.003  1.00  0.00    -0.550 OA
ATOM      4  O   UNL     1      21.048  33.788  32.626  1.00  0.00    -0.550 OA
ENDBRANCH   1   2
BRANCH   1   5
ATOM      5  C   UNL     1      22.509  33.299  35.093  1.00  0.00     0.059 C 
BRANCH   5   6
ATOM      6  C   UNL     1      21.743  32.184  35.732  1.00  0.00     0.042 C 
ATOM      7  O   UNL     1      21.102  32.385  36.797  1.00  0.00    -0.550 OA
ATOM      8  O   UNL     1      21.778  30.910  35.178  1.00  0.00    -0.550 OA
ENDBRANCH   5   6
ENDBRANCH   1   5
TORSDOF 3
ENDMDL
MODEL 6
REMARK VINA RESULT:    -3.228      6.630      8.234
REMARK INTER + INTRA:          -3.863
REMARK INTER:                  -3.711
REMARK INTRA:                  -0.152
REMARK UNBOUND:                -0.068
REMARK SMILES O=C([O-])CCC(=O)[O-]
REMARK SMILES IDX 4 1 2 2 1 3 3 4 5 5 6 6 7 7 8 8
REMARK H PARENT
REMARK Flexibility Score: inf
ROOT
ATOM      1  C   UNL     1      22.469  33.293  35.117  1.00  0.00     0.059 C 
ENDROOT
BRANCH   1   2
ATOM      2  C   UNL     1      21.681  32.244  35.836  1.00  0.00     0.042 C 
ATOM      3  O   UNL     1      21.021  32.541  36.866  1.00  0.00    -0.550 OA
ATOM      4  O   UNL     1      21.713  30.927  35.396  1.00  0.00    -0.550 OA
ENDBRANCH   1   2
BRANCH   1   5
ATOM      5  C   UNL     1      21.620  34.548  34.906  1.00  0.00     0.059 C 
BRANCH   5   6
ATOM      6  C   UNL     1      20.637  34.336  33.800  1.00  0.00     0.042 C 
ATOM      7  O   UNL     1      19.440  34.703  33.936  1.00  0.00    -0.550 OA
ATOM      8  O   UNL     1      21.030  33.687  32.636  1.00  0.00    -0.550 OA
ENDBRANCH   5   6
ENDBRANCH   1   5
TORSDOF 3
ENDMDL
MODEL 7
REMARK VINA RESULT:    -3.223     15.105     16.295
REMARK INTER + INTRA:          -3.857
REMARK INTER:                  -3.685
REMARK INTRA:                  -0.172
REMARK UNBOUND:                -0.068
REMARK SMILES O=C([O-])CCC(=O)[O-]
REMARK SMILES IDX 4 1 2 2 1 3 3 4 5 5 6 6 7 7 8 8
REMARK H PARENT
REMARK Flexibility Score: inf
ROOT
ATOM      1  C   UNL     1      19.470  23.379  21.211  1.00  0.00     0.059 C 
ENDROOT
BRANCH   1   2
ATOM      2  C   UNL     1      20.608  22.411  21.139  1.00  0.00     0.042 C 
ATOM      3  O   UNL     1      20.429  21.255  20.674  1.00  0.00    -0.550 OA
ATOM      4  O   UNL     1      21.858  22.769  21.629  1.00  0.00    -0.550 OA
ENDBRANCH   1   2
BRANCH   1   5
ATOM      5  C   UNL     1      19.878  24.730  20.619  1.00  0.00     0.059 C 
BRANCH   5   6
ATOM      6  C   UNL     1      20.019  24.629  19.134  1.00  0.00     0.042 C 
ATOM      7  O   UNL     1      21.093  24.977  18.574  1.00  0.00    -0.550 OA
ATOM      8  O   UNL     1      18.948  24.199  18.361  1.00  0.00    -0.550 OA
ENDBRANCH   5   6
ENDBRANCH   1   5
TORSDOF 3
ENDMDL
MODEL 8
REMARK VINA RESULT:    -3.221     15.031     16.129
REMARK INTER + INTRA:          -3.854
REMARK INTER:                  -3.671
REMARK INTRA:                  -0.183
REMARK UNBOUND:                -0.068
REMARK SMILES O=C([O-])CCC(=O)[O-]
REMARK SMILES IDX 4 1 2 2 1 3 3 4 5 5 6 6 7 7 8 8
REMARK H PARENT
REMARK Flexibility Score: inf
ROOT
ATOM      1  C   UNL     1      19.893  24.796  20.661  1.00  0.00     0.059 C 
ENDROOT
BRANCH   1   2
ATOM      2  C   UNL     1      19.998  24.629  19.178  1.00  0.00     0.042 C 
ATOM      3  O   UNL     1      21.060  24.943  18.579  1.00  0.00    -0.550 OA
ATOM      4  O   UNL     1      18.908  24.169  18.450  1.00  0.00    -0.550 OA
ENDBRANCH   1   2
BRANCH   1   5
ATOM      5  C   UNL     1      19.514  23.470  21.323  1.00  0.00     0.059 C 
BRANCH   5   6
ATOM      6  C   UNL     1      20.619  22.474  21.170  1.00  0.00     0.042 C 
ATOM      7  O   UNL     1      20.395  21.356  20.635  1.00  0.00    -0.550 OA
ATOM      8  O   UNL     1      21.887  22.760  21.662  1.00  0.00    -0.550 OA
ENDBRANCH   5   6
ENDBRANCH   1   5
TORSDOF 3
ENDMDL
MODEL 9
REMARK VINA RESULT:    -1.086     15.618     17.092
REMARK INTER + INTRA:          -1.345
REMARK INTER:                  -1.221
REMARK INTRA:                  -0.123
REMARK UNBOUND:                -0.068
REMARK SMILES O=C([O-])CCC(=O)[O-]
REMARK SMILES IDX 4 1 2 2 1 3 3 4 5 5 6 6 7 7 8 8
REMARK H PARENT
REMARK Flexibility Score: inf
ROOT
ATOM      1  C   UNL     1      21.384  22.770  18.491  1.00  0.00     0.059 C 
ENDROOT
BRANCH   1   2
ATOM      2  C   UNL     1      21.010  24.181  18.165  1.00  0.00     0.042 C 
ATOM      3  O   UNL     1      21.010  25.061  19.065  1.00  0.00    -0.550 OA
ATOM      4  O   UNL     1      20.617  24.516  16.875  1.00  0.00    -0.550 OA
ENDBRANCH   1   2
BRANCH   1   5
ATOM      5  C   UNL     1      22.378  22.735  19.654  1.00  0.00     0.059 C 
BRANCH   5   6
ATOM      6  C   UNL     1      21.776  22.044  20.836  1.00  0.00     0.042 C 
ATOM      7  O   UNL     1      20.705  22.471  21.342  1.00  0.00    -0.550 OA
ATOM      8  O   UNL     1      22.425  20.958  21.411  1.00  0.00    -0.550 OA
ENDBRANCH   5   6
ENDBRANCH   1   5
TORSDOF 3
ENDMDL
