MODEL 1
REMARK VINA RESULT:    -5.783      0.000      0.000
REMARK INTER + INTRA:          -8.963
REMARK INTER:                  -8.150
REMARK INTRA:                  -0.813
REMARK UNBOUND:                -0.813
REMARK SMILES COc1ccc(-c2cc(=O)c3c(OC)c(OC)c(OC)c(OC)c3o2)cc1OC
REMARK SMILES IDX 7 1 8 2 9 3 10 4 11 5 24 6 25 7 21 8 18 9 15 10 12 11 6 12
REMARK SMILES IDX 3 13 27 14 4 15 26 16 5 17 2 18 1 19 28 20 29 21 22 22 23 23
REMARK SMILES IDX 13 24 14 25 19 26 20 27 16 28 17 29
REMARK H PARENT
REMARK Flexibility Score: inf
ROOT
ATOM      1  C   UNL     1     264.817 -28.907  56.372  1.00  0.00     0.138 A 
ATOM      2  C   UNL     1     265.624 -28.118  57.200  1.00  0.00     0.100 A 
ATOM      3  C   UNL     1     265.041 -27.413  58.248  1.00  0.00     0.197 A 
ATOM      4  O   UNL     1     265.787 -26.740  59.009  1.00  0.00    -0.289 OA
ATOM      5  C   UNL     1     263.646 -27.486  58.453  1.00  0.00     0.115 A 
ATOM      6  C   UNL     1     262.895 -28.330  57.598  1.00  0.00     0.188 A 
ATOM      7  O   UNL     1     263.511 -28.985  56.615  1.00  0.00    -0.452 OA
ATOM      8  C   UNL     1     261.496 -28.471  57.779  1.00  0.00     0.209 A 
ATOM      9  C   UNL     1     260.868 -27.801  58.860  1.00  0.00     0.211 A 
ATOM     10  C   UNL     1     261.612 -26.966  59.706  1.00  0.00     0.208 A 
ATOM     11  C   UNL     1     262.986 -26.756  59.467  1.00  0.00     0.179 A 
ENDROOT
BRANCH   1  12
ATOM     12  C   UNL     1     265.386 -29.678  55.238  1.00  0.00     0.021 A 
ATOM     13  C   UNL     1     266.472 -31.096  53.051  1.00  0.00     0.160 A 
ATOM     14  C   UNL     1     265.787 -29.891  52.834  1.00  0.00     0.161 A 
ATOM     15  C   UNL     1     266.620 -31.583  54.363  1.00  0.00     0.051 A 
ATOM     16  C   UNL     1     265.247 -29.190  53.929  1.00  0.00     0.062 A 
ATOM     17  C   UNL     1     266.086 -30.879  55.444  1.00  0.00     0.016 A 
BRANCH  13  18
ATOM     18  O   UNL     1     266.991 -31.779  51.939  1.00  0.00    -0.493 OA
ATOM     19  C   UNL     1     266.756 -33.155  51.655  1.00  0.00     0.278 C 
ENDBRANCH  13  18
BRANCH  14  20
ATOM     20  O   UNL     1     265.664 -29.422  51.516  1.00  0.00    -0.493 OA
ATOM     21  C   UNL     1     266.328 -28.269  51.006  1.00  0.00     0.278 C 
ENDBRANCH  14  20
ENDBRANCH   1  12
BRANCH   8  22
ATOM     22  O   UNL     1     260.694 -29.247  56.922  1.00  0.00    -0.490 OA
ATOM     23  C   UNL     1     259.821 -28.779  55.899  1.00  0.00     0.278 C 
ENDBRANCH   8  22
BRANCH  11  24
ATOM     24  O   UNL     1     263.683 -25.799  60.210  1.00  0.00    -0.492 OA
ATOM     25  C   UNL     1     263.516 -24.408  59.955  1.00  0.00     0.278 C 
ENDBRANCH  11  24
BRANCH   9  26
ATOM     26  O   UNL     1     259.497 -27.927  59.164  1.00  0.00    -0.490 OA
ATOM     27  C   UNL     1     258.865 -28.994  59.861  1.00  0.00     0.279 C 
ENDBRANCH   9  26
BRANCH  10  28
ATOM     28  O   UNL     1     260.918 -26.371  60.776  1.00  0.00    -0.490 OA
ATOM     29  C   UNL     1     260.900 -26.829  62.125  1.00  0.00     0.278 C 
ENDBRANCH  10  28
TORSDOF 7
ENDMDL
MODEL 2
REMARK VINA RESULT:    -5.765      1.914      8.726
REMARK INTER + INTRA:          -8.937
REMARK INTER:                  -8.155
REMARK INTRA:                  -0.782
REMARK UNBOUND:                -0.813
REMARK SMILES COc1ccc(-c2cc(=O)c3c(OC)c(OC)c(OC)c(OC)c3o2)cc1OC
REMARK SMILES IDX 7 1 8 2 9 3 10 4 11 5 24 6 25 7 21 8 18 9 15 10 12 11 6 12
REMARK SMILES IDX 3 13 27 14 4 15 26 16 5 17 2 18 1 19 28 20 29 21 22 22 23 23
REMARK SMILES IDX 13 24 14 25 19 26 20 27 16 28 17 29
REMARK H PARENT
REMARK Flexibility Score: inf
ROOT
ATOM      1  C   UNL     1     266.019 -29.788  56.099  1.00  0.00     0.138 A 
ATOM      2  C   UNL     1     267.122 -30.496  56.590  1.00  0.00     0.100 A 
ATOM      3  C   UNL     1     267.898 -31.245  55.710  1.00  0.00     0.197 A 
ATOM      4  O   UNL     1     268.912 -31.843  56.161  1.00  0.00    -0.289 OA
ATOM      5  C   UNL     1     267.553 -31.298  54.341  1.00  0.00     0.115 A 
ATOM      6  C   UNL     1     266.444 -30.530  53.908  1.00  0.00     0.188 A 
ATOM      7  O   UNL     1     265.744 -29.828  54.798  1.00  0.00    -0.452 OA
ATOM      8  C   UNL     1     266.074 -30.515  52.540  1.00  0.00     0.209 A 
ATOM      9  C   UNL     1     266.861 -31.233  51.603  1.00  0.00     0.211 A 
ATOM     10  C   UNL     1     267.959 -31.992  52.033  1.00  0.00     0.208 A 
ATOM     11  C   UNL     1     268.269 -32.078  53.406  1.00  0.00     0.179 A 
ENDROOT
BRANCH   1  12
ATOM     12  C   UNL     1     265.157 -28.976  56.994  1.00  0.00     0.021 A 
ATOM     13  C   UNL     1     263.474 -27.465  58.685  1.00  0.00     0.160 A 
ATOM     14  C   UNL     1     262.919 -28.239  57.654  1.00  0.00     0.161 A 
ATOM     15  C   UNL     1     264.868 -27.458  58.873  1.00  0.00     0.051 A 
ATOM     16  C   UNL     1     263.765 -28.988  56.814  1.00  0.00     0.062 A 
ATOM     17  C   UNL     1     265.699 -28.208  58.038  1.00  0.00     0.016 A 
BRANCH  13  18
ATOM     18  O   UNL     1     262.607 -26.720  59.500  1.00  0.00    -0.493 OA
ATOM     19  C   UNL     1     262.242 -27.079  60.830  1.00  0.00     0.278 C 
ENDBRANCH  13  18
BRANCH  14  20
ATOM     20  O   UNL     1     261.524 -28.237  57.496  1.00  0.00    -0.493 OA
ATOM     21  C   UNL     1     260.672 -29.323  57.850  1.00  0.00     0.278 C 
ENDBRANCH  14  20
ENDBRANCH   1  12
BRANCH   8  22
ATOM     22  O   UNL     1     264.945 -29.820  52.066  1.00  0.00    -0.490 OA
ATOM     23  C   UNL     1     264.877 -28.454  51.672  1.00  0.00     0.278 C 
ENDBRANCH   8  22
BRANCH  11  24
ATOM     24  O   UNL     1     269.259 -32.963  53.842  1.00  0.00    -0.492 OA
ATOM     25  C   UNL     1     268.972 -34.344  54.042  1.00  0.00     0.278 C 
ENDBRANCH  11  24
BRANCH   9  26
ATOM     26  O   UNL     1     266.616 -31.231  50.215  1.00  0.00    -0.490 OA
ATOM     27  C   UNL     1     267.076 -30.279  49.262  1.00  0.00     0.279 C 
ENDBRANCH   9  26
BRANCH  10  28
ATOM     28  O   UNL     1     268.708 -32.642  51.033  1.00  0.00    -0.490 OA
ATOM     29  C   UNL     1     268.468 -33.947  50.518  1.00  0.00     0.278 C 
ENDBRANCH  10  28
TORSDOF 7
ENDMDL
MODEL 3
REMARK VINA RESULT:    -5.706      2.905      5.291
REMARK INTER + INTRA:          -8.854
REMARK INTER:                  -8.010
REMARK INTRA:                  -0.844
REMARK UNBOUND:                -0.813
REMARK SMILES COc1ccc(-c2cc(=O)c3c(OC)c(OC)c(OC)c(OC)c3o2)cc1OC
REMARK SMILES IDX 7 1 8 2 9 3 10 4 11 5 24 6 25 7 21 8 18 9 15 10 12 11 6 12
REMARK SMILES IDX 3 13 27 14 4 15 26 16 5 17 2 18 1 19 28 20 29 21 22 22 23 23
REMARK SMILES IDX 13 24 14 25 19 26 20 27 16 28 17 29
REMARK H PARENT
REMARK Flexibility Score: inf
ROOT
ATOM      1  C   UNL     1     266.305 -30.017  54.087  1.00  0.00     0.138 A 
ATOM      2  C   UNL     1     266.025 -29.611  52.778  1.00  0.00     0.100 A 
ATOM      3  C   UNL     1     265.088 -28.604  52.562  1.00  0.00     0.197 A 
ATOM      4  O   UNL     1     264.878 -28.220  51.380  1.00  0.00    -0.289 OA
ATOM      5  C   UNL     1     264.421 -28.019  53.661  1.00  0.00     0.115 A 
ATOM      6  C   UNL     1     264.778 -28.456  54.961  1.00  0.00     0.188 A 
ATOM      7  O   UNL     1     265.686 -29.420  55.103  1.00  0.00    -0.452 OA
ATOM      8  C   UNL     1     264.168 -27.879  56.103  1.00  0.00     0.209 A 
ATOM      9  C   UNL     1     263.237 -26.823  55.930  1.00  0.00     0.211 A 
ATOM     10  C   UNL     1     262.885 -26.391  54.644  1.00  0.00     0.208 A 
ATOM     11  C   UNL     1     263.425 -27.028  53.507  1.00  0.00     0.179 A 
ENDROOT
BRANCH   1  12
ATOM     12  C   UNL     1     267.292 -31.088  54.373  1.00  0.00     0.021 A 
ATOM     13  C   UNL     1     269.172 -33.138  54.863  1.00  0.00     0.160 A 
ATOM     14  C   UNL     1     268.360 -33.191  53.721  1.00  0.00     0.161 A 
ATOM     15  C   UNL     1     269.048 -32.054  55.752  1.00  0.00     0.051 A 
ATOM     16  C   UNL     1     267.423 -32.167  53.484  1.00  0.00     0.062 A 
ATOM     17  C   UNL     1     268.121 -31.039  55.507  1.00  0.00     0.016 A 
BRANCH  13  18
ATOM     18  O   UNL     1     270.090 -34.178  55.080  1.00  0.00    -0.493 OA
ATOM     19  C   UNL     1     269.865 -35.285  55.948  1.00  0.00     0.278 C 
ENDBRANCH  13  18
BRANCH  14  20
ATOM     20  O   UNL     1     268.512 -34.277  52.845  1.00  0.00    -0.493 OA
ATOM     21  C   UNL     1     267.605 -35.373  52.753  1.00  0.00     0.278 C 
ENDBRANCH  14  20
ENDBRANCH   1  12
BRANCH   8  22
ATOM     22  O   UNL     1     264.440 -28.318  57.412  1.00  0.00    -0.490 OA
ATOM     23  C   UNL     1     265.475 -27.862  58.277  1.00  0.00     0.278 C 
ENDBRANCH   8  22
BRANCH  11  24
ATOM     24  O   UNL     1     262.948 -26.705  52.234  1.00  0.00    -0.492 OA
ATOM     25  C   UNL     1     261.650 -27.113  51.813  1.00  0.00     0.278 C 
ENDBRANCH  11  24
BRANCH   9  26
ATOM     26  O   UNL     1     262.625 -26.141  57.001  1.00  0.00    -0.490 OA
ATOM     27  C   UNL     1     261.536 -26.593  57.799  1.00  0.00     0.279 C 
ENDBRANCH   9  26
BRANCH  10  28
ATOM     28  O   UNL     1     261.985 -25.311  54.564  1.00  0.00    -0.490 OA
ATOM     29  C   UNL     1     262.311 -23.968  54.222  1.00  0.00     0.278 C 
ENDBRANCH  10  28
TORSDOF 7
ENDMDL
MODEL 4
REMARK VINA RESULT:    -5.692     13.202     16.749
REMARK INTER + INTRA:          -8.834
REMARK INTER:                  -8.058
REMARK INTRA:                  -0.776
REMARK UNBOUND:                -0.813
REMARK SMILES COc1ccc(-c2cc(=O)c3c(OC)c(OC)c(OC)c(OC)c3o2)cc1OC
REMARK SMILES IDX 7 1 8 2 9 3 10 4 11 5 24 6 25 7 21 8 18 9 15 10 12 11 6 12
REMARK SMILES IDX 3 13 27 14 4 15 26 16 5 17 2 18 1 19 28 20 29 21 22 22 23 23
REMARK SMILES IDX 13 24 14 25 19 26 20 27 16 28 17 29
REMARK H PARENT
REMARK Flexibility Score: inf
ROOT
ATOM      1  C   UNL     1     252.737 -23.275  48.716  1.00  0.00     0.138 A 
ATOM      2  C   UNL     1     252.299 -21.948  48.653  1.00  0.00     0.100 A 
ATOM      3  C   UNL     1     252.043 -21.373  47.412  1.00  0.00     0.197 A 
ATOM      4  O   UNL     1     251.609 -20.189  47.375  1.00  0.00    -0.289 OA
ATOM      5  C   UNL     1     252.244 -22.126  46.235  1.00  0.00     0.115 A 
ATOM      6  C   UNL     1     252.657 -23.474  46.374  1.00  0.00     0.188 A 
ATOM      7  O   UNL     1     252.881 -23.970  47.589  1.00  0.00    -0.452 OA
ATOM      8  C   UNL     1     252.840 -24.288  45.228  1.00  0.00     0.209 A 
ATOM      9  C   UNL     1     252.551 -23.754  43.946  1.00  0.00     0.211 A 
ATOM     10  C   UNL     1     252.142 -22.420  43.810  1.00  0.00     0.208 A 
ATOM     11  C   UNL     1     252.050 -21.585  44.943  1.00  0.00     0.179 A 
ENDROOT
BRANCH   1  12
ATOM     12  C   UNL     1     253.028 -23.937  50.012  1.00  0.00     0.021 A 
ATOM     13  C   UNL     1     253.610 -25.237  52.451  1.00  0.00     0.160 A 
ATOM     14  C   UNL     1     253.595 -25.968  51.254  1.00  0.00     0.161 A 
ATOM     15  C   UNL     1     253.343 -23.855  52.423  1.00  0.00     0.051 A 
ATOM     16  C   UNL     1     253.303 -25.314  50.042  1.00  0.00     0.062 A 
ATOM     17  C   UNL     1     253.060 -23.213  51.216  1.00  0.00     0.016 A 
BRANCH  13  18
ATOM     18  O   UNL     1     253.895 -25.917  53.646  1.00  0.00    -0.493 OA
ATOM     19  C   UNL     1     253.395 -25.543  54.927  1.00  0.00     0.278 C 
ENDBRANCH  13  18
BRANCH  14  20
ATOM     20  O   UNL     1     253.876 -27.342  51.309  1.00  0.00    -0.493 OA
ATOM     21  C   UNL     1     253.148 -28.343  50.604  1.00  0.00     0.278 C 
ENDBRANCH  14  20
ENDBRANCH   1  12
BRANCH   8  22
ATOM     22  O   UNL     1     253.307 -25.614  45.306  1.00  0.00    -0.490 OA
ATOM     23  C   UNL     1     252.526 -26.803  45.332  1.00  0.00     0.278 C 
ENDBRANCH   8  22
BRANCH  11  24
ATOM     24  O   UNL     1     251.803 -20.219  44.784  1.00  0.00    -0.492 OA
ATOM     25  C   UNL     1     252.826 -19.336  44.333  1.00  0.00     0.278 C 
ENDBRANCH  11  24
BRANCH   9  26
ATOM     26  O   UNL     1     252.639 -24.499  42.753  1.00  0.00    -0.490 OA
ATOM     27  C   UNL     1     253.780 -24.653  41.917  1.00  0.00     0.279 C 
ENDBRANCH   9  26
BRANCH  10  28
ATOM     28  O   UNL     1     251.839 -21.982  42.506  1.00  0.00    -0.490 OA
ATOM     29  C   UNL     1     250.564 -22.041  41.875  1.00  0.00     0.278 C 
ENDBRANCH  10  28
TORSDOF 7
ENDMDL
MODEL 5
REMARK VINA RESULT:    -5.661      1.944      8.169
REMARK INTER + INTRA:          -8.790
REMARK INTER:                  -7.933
REMARK INTRA:                  -0.857
REMARK UNBOUND:                -0.813
REMARK SMILES COc1ccc(-c2cc(=O)c3c(OC)c(OC)c(OC)c(OC)c3o2)cc1OC
REMARK SMILES IDX 7 1 8 2 9 3 10 4 11 5 24 6 25 7 21 8 18 9 15 10 12 11 6 12
REMARK SMILES IDX 3 13 27 14 4 15 26 16 5 17 2 18 1 19 28 20 29 21 22 22 23 23
REMARK SMILES IDX 13 24 14 25 19 26 20 27 16 28 17 29
REMARK H PARENT
REMARK Flexibility Score: inf
ROOT
ATOM      1  C   UNL     1     263.701 -28.619  56.954  1.00  0.00     0.138 A 
ATOM      2  C   UNL     1     264.743 -29.427  57.422  1.00  0.00     0.100 A 
ATOM      3  C   UNL     1     265.833 -29.682  56.596  1.00  0.00     0.197 A 
ATOM      4  O   UNL     1     266.781 -30.378  57.048  1.00  0.00    -0.289 OA
ATOM      5  C   UNL     1     265.867 -29.140  55.292  1.00  0.00     0.115 A 
ATOM      6  C   UNL     1     264.794 -28.303  54.895  1.00  0.00     0.188 A 
ATOM      7  O   UNL     1     263.782 -28.092  55.734  1.00  0.00    -0.452 OA
ATOM      8  C   UNL     1     264.793 -27.701  53.612  1.00  0.00     0.209 A 
ATOM      9  C   UNL     1     265.903 -27.903  52.752  1.00  0.00     0.211 A 
ATOM     10  C   UNL     1     266.964 -28.731  53.146  1.00  0.00     0.208 A 
ATOM     11  C   UNL     1     266.920 -29.401  54.387  1.00  0.00     0.179 A 
ENDROOT
BRANCH   1  12
ATOM     12  C   UNL     1     262.514 -28.317  57.792  1.00  0.00     0.021 A 
ATOM     13  C   UNL     1     260.275 -27.690  59.395  1.00  0.00     0.160 A 
ATOM     14  C   UNL     1     261.468 -26.966  59.544  1.00  0.00     0.161 A 
ATOM     15  C   UNL     1     260.204 -28.718  58.438  1.00  0.00     0.051 A 
ATOM     16  C   UNL     1     262.581 -27.285  58.743  1.00  0.00     0.062 A 
ATOM     17  C   UNL     1     261.310 -29.024  57.643  1.00  0.00     0.016 A 
BRANCH  13  18
ATOM     18  O   UNL     1     259.185 -27.356  60.215  1.00  0.00    -0.493 OA
ATOM     19  C   UNL     1     258.897 -27.974  61.466  1.00  0.00     0.278 C 
ENDBRANCH  13  18
BRANCH  14  20
ATOM     20  O   UNL     1     261.509 -25.937  60.498  1.00  0.00    -0.493 OA
ATOM     21  C   UNL     1     262.124 -26.049  61.779  1.00  0.00     0.278 C 
ENDBRANCH  14  20
ENDBRANCH   1  12
BRANCH   8  22
ATOM     22  O   UNL     1     263.725 -26.912  53.144  1.00  0.00    -0.490 OA
ATOM     23  C   UNL     1     262.640 -27.329  52.323  1.00  0.00     0.278 C 
ENDBRANCH   8  22
BRANCH  11  24
ATOM     24  O   UNL     1     267.897 -30.349  54.701  1.00  0.00    -0.492 OA
ATOM     25  C   UNL     1     267.884 -31.642  54.103  1.00  0.00     0.278 C 
ENDBRANCH  11  24
BRANCH   9  26
ATOM     26  O   UNL     1     266.028 -27.299  51.485  1.00  0.00    -0.490 OA
ATOM     27  C   UNL     1     266.454 -25.970  51.203  1.00  0.00     0.279 C 
ENDBRANCH   9  26
BRANCH  10  28
ATOM     28  O   UNL     1     268.043 -28.845  52.249  1.00  0.00    -0.490 OA
ATOM     29  C   UNL     1     269.317 -28.220  52.382  1.00  0.00     0.278 C 
ENDBRANCH  10  28
TORSDOF 7
ENDMDL
MODEL 6
REMARK VINA RESULT:    -5.651      7.118     11.288
REMARK INTER + INTRA:          -8.777
REMARK INTER:                  -7.936
REMARK INTRA:                  -0.842
REMARK UNBOUND:                -0.813
REMARK SMILES COc1ccc(-c2cc(=O)c3c(OC)c(OC)c(OC)c(OC)c3o2)cc1OC
REMARK SMILES IDX 7 1 8 2 9 3 10 4 11 5 24 6 25 7 21 8 18 9 15 10 12 11 6 12
REMARK SMILES IDX 3 13 27 14 4 15 26 16 5 17 2 18 1 19 28 20 29 21 22 22 23 23
REMARK SMILES IDX 13 24 14 25 19 26 20 27 16 28 17 29
REMARK H PARENT
REMARK Flexibility Score: inf
ROOT
ATOM      1  C   UNL     1     268.197 -35.403  51.696  1.00  0.00     0.138 A 
ATOM      2  C   UNL     1     268.422 -36.038  50.471  1.00  0.00     0.100 A 
ATOM      3  C   UNL     1     268.228 -35.329  49.289  1.00  0.00     0.197 A 
ATOM      4  O   UNL     1     268.475 -35.904  48.194  1.00  0.00    -0.289 OA
ATOM      5  C   UNL     1     267.790 -33.988  49.340  1.00  0.00     0.115 A 
ATOM      6  C   UNL     1     267.614 -33.397  50.616  1.00  0.00     0.188 A 
ATOM      7  O   UNL     1     267.821 -34.125  51.711  1.00  0.00    -0.452 OA
ATOM      8  C   UNL     1     267.212 -32.042  50.728  1.00  0.00     0.209 A 
ATOM      9  C   UNL     1     267.042 -31.271  49.549  1.00  0.00     0.211 A 
ATOM     10  C   UNL     1     267.217 -31.857  48.287  1.00  0.00     0.208 A 
ATOM     11  C   UNL     1     267.528 -33.228  48.177  1.00  0.00     0.179 A 
ENDROOT
BRANCH   1  12
ATOM     12  C   UNL     1     268.386 -36.113  52.986  1.00  0.00     0.021 A 
ATOM     13  C   UNL     1     268.702 -37.498  55.427  1.00  0.00     0.160 A 
ATOM     14  C   UNL     1     267.461 -37.506  54.773  1.00  0.00     0.161 A 
ATOM     15  C   UNL     1     269.784 -36.805  54.853  1.00  0.00     0.051 A 
ATOM     16  C   UNL     1     267.310 -36.811  53.557  1.00  0.00     0.062 A 
ATOM     17  C   UNL     1     269.627 -36.124  53.644  1.00  0.00     0.016 A 
BRANCH  13  18
ATOM     18  O   UNL     1     268.821 -38.190  56.643  1.00  0.00    -0.493 OA
ATOM     19  C   UNL     1     269.874 -39.096  56.956  1.00  0.00     0.278 C 
ENDBRANCH  13  18
BRANCH  14  20
ATOM     20  O   UNL     1     266.401 -38.214  55.362  1.00  0.00    -0.493 OA
ATOM     21  C   UNL     1     265.452 -38.993  54.639  1.00  0.00     0.278 C 
ENDBRANCH  14  20
ENDBRANCH   1  12
BRANCH   8  22
ATOM     22  O   UNL     1     266.963 -31.424  51.968  1.00  0.00    -0.490 OA
ATOM     23  C   UNL     1     265.725 -31.364  52.668  1.00  0.00     0.278 C 
ENDBRANCH   8  22
BRANCH  11  24
ATOM     24  O   UNL     1     267.539 -33.842  46.921  1.00  0.00    -0.492 OA
ATOM     25  C   UNL     1     266.324 -34.207  46.273  1.00  0.00     0.278 C 
ENDBRANCH  11  24
BRANCH   9  26
ATOM     26  O   UNL     1     266.707 -29.902  49.554  1.00  0.00    -0.490 OA
ATOM     27  C   UNL     1     267.576 -28.804  49.808  1.00  0.00     0.279 C 
ENDBRANCH   9  26
BRANCH  10  28
ATOM     28  O   UNL     1     267.066 -31.011  47.172  1.00  0.00    -0.490 OA
ATOM     29  C   UNL     1     268.120 -30.452  46.393  1.00  0.00     0.278 C 
ENDBRANCH  10  28
TORSDOF 7
ENDMDL
MODEL 7
REMARK VINA RESULT:    -5.589      1.243      2.018
REMARK INTER + INTRA:          -8.689
REMARK INTER:                  -7.931
REMARK INTRA:                  -0.759
REMARK UNBOUND:                -0.813
REMARK SMILES COc1ccc(-c2cc(=O)c3c(OC)c(OC)c(OC)c(OC)c3o2)cc1OC
REMARK SMILES IDX 7 1 8 2 9 3 10 4 11 5 24 6 25 7 21 8 18 9 15 10 12 11 6 12
REMARK SMILES IDX 3 13 27 14 4 15 26 16 5 17 2 18 1 19 28 20 29 21 22 22 23 23
REMARK SMILES IDX 13 24 14 25 19 26 20 27 16 28 17 29
REMARK H PARENT
REMARK Flexibility Score: inf
ROOT
ATOM      1  C   UNL     1     264.995 -28.806  56.928  1.00  0.00     0.138 A 
ATOM      2  C   UNL     1     265.682 -28.058  57.889  1.00  0.00     0.100 A 
ATOM      3  C   UNL     1     264.962 -27.382  58.870  1.00  0.00     0.197 A 
ATOM      4  O   UNL     1     265.598 -26.746  59.754  1.00  0.00    -0.289 OA
ATOM      5  C   UNL     1     263.551 -27.444  58.872  1.00  0.00     0.115 A 
ATOM      6  C   UNL     1     262.922 -28.248  57.889  1.00  0.00     0.188 A 
ATOM      7  O   UNL     1     263.666 -28.875  56.980  1.00  0.00    -0.452 OA
ATOM      8  C   UNL     1     261.511 -28.377  57.866  1.00  0.00     0.209 A 
ATOM      9  C   UNL     1     260.741 -27.738  58.871  1.00  0.00     0.211 A 
ATOM     10  C   UNL     1     261.364 -26.943  59.844  1.00  0.00     0.208 A 
ATOM     11  C   UNL     1     262.760 -26.743  59.810  1.00  0.00     0.179 A 
ENDROOT
BRANCH   1  12
ATOM     12  C   UNL     1     265.713 -29.543  55.858  1.00  0.00     0.021 A 
ATOM     13  C   UNL     1     267.094 -30.985  53.860  1.00  0.00     0.160 A 
ATOM     14  C   UNL     1     267.452 -31.137  55.208  1.00  0.00     0.161 A 
ATOM     15  C   UNL     1     266.039 -30.119  53.517  1.00  0.00     0.051 A 
ATOM     16  C   UNL     1     266.761 -30.413  56.198  1.00  0.00     0.062 A 
ATOM     17  C   UNL     1     265.354 -29.410  54.506  1.00  0.00     0.016 A 
BRANCH  13  18
ATOM     18  O   UNL     1     267.807 -31.710  52.893  1.00  0.00    -0.493 OA
ATOM     19  C   UNL     1     268.734 -31.138  51.975  1.00  0.00     0.278 C 
ENDBRANCH  13  18
BRANCH  14  20
ATOM     20  O   UNL     1     268.500 -32.015  55.524  1.00  0.00    -0.493 OA
ATOM     21  C   UNL     1     269.846 -31.612  55.764  1.00  0.00     0.278 C 
ENDBRANCH  14  20
ENDBRANCH   1  12
BRANCH   8  22
ATOM     22  O   UNL     1     260.832 -29.111  56.875  1.00  0.00    -0.490 OA
ATOM     23  C   UNL     1     259.996 -28.599  55.844  1.00  0.00     0.278 C 
ENDBRANCH   8  22
BRANCH  11  24
ATOM     24  O   UNL     1     263.352 -25.822  60.679  1.00  0.00    -0.492 OA
ATOM     25  C   UNL     1     263.155 -24.422  60.510  1.00  0.00     0.278 C 
ENDBRANCH  11  24
BRANCH   9  26
ATOM     26  O   UNL     1     259.340 -27.856  58.973  1.00  0.00    -0.490 OA
ATOM     27  C   UNL     1     258.607 -28.937  59.539  1.00  0.00     0.279 C 
ENDBRANCH   9  26
BRANCH  10  28
ATOM     28  O   UNL     1     260.530 -26.377  60.827  1.00  0.00    -0.490 OA
ATOM     29  C   UNL     1     260.282 -26.907  62.125  1.00  0.00     0.278 C 
ENDBRANCH  10  28
TORSDOF 7
ENDMDL
MODEL 8
REMARK VINA RESULT:    -5.585      2.149      8.270
REMARK INTER + INTRA:          -8.683
REMARK INTER:                  -7.948
REMARK INTRA:                  -0.736
REMARK UNBOUND:                -0.813
REMARK SMILES COc1ccc(-c2cc(=O)c3c(OC)c(OC)c(OC)c(OC)c3o2)cc1OC
REMARK SMILES IDX 7 1 8 2 9 3 10 4 11 5 24 6 25 7 21 8 18 9 15 10 12 11 6 12
REMARK SMILES IDX 3 13 27 14 4 15 26 16 5 17 2 18 1 19 28 20 29 21 22 22 23 23
REMARK SMILES IDX 13 24 14 25 19 26 20 27 16 28 17 29
REMARK H PARENT
REMARK Flexibility Score: inf
ROOT
ATOM      1  C   UNL     1     262.328 -27.472  56.559  1.00  0.00     0.138 A 
ATOM      2  C   UNL     1     262.099 -26.510  55.569  1.00  0.00     0.100 A 
ATOM      3  C   UNL     1     262.952 -26.446  54.471  1.00  0.00     0.197 A 
ATOM      4  O   UNL     1     262.708 -25.601  53.568  1.00  0.00    -0.289 OA
ATOM      5  C   UNL     1     264.045 -27.335  54.379  1.00  0.00     0.115 A 
ATOM      6  C   UNL     1     264.198 -28.304  55.401  1.00  0.00     0.188 A 
ATOM      7  O   UNL     1     263.345 -28.320  56.424  1.00  0.00    -0.452 OA
ATOM      8  C   UNL     1     265.255 -29.246  55.342  1.00  0.00     0.209 A 
ATOM      9  C   UNL     1     266.124 -29.241  54.221  1.00  0.00     0.211 A 
ATOM     10  C   UNL     1     265.972 -28.282  53.210  1.00  0.00     0.208 A 
ATOM     11  C   UNL     1     264.976 -27.289  53.317  1.00  0.00     0.179 A 
ENDROOT
BRANCH   1  12
ATOM     12  C   UNL     1     261.450 -27.583  57.752  1.00  0.00     0.021 A 
ATOM     13  C   UNL     1     259.819 -27.764  60.050  1.00  0.00     0.160 A 
ATOM     14  C   UNL     1     261.198 -27.544  60.185  1.00  0.00     0.161 A 
ATOM     15  C   UNL     1     259.259 -27.882  58.764  1.00  0.00     0.051 A 
ATOM     16  C   UNL     1     262.005 -27.456  59.035  1.00  0.00     0.062 A 
ATOM     17  C   UNL     1     260.066 -27.789  57.629  1.00  0.00     0.016 A 
BRANCH  13  18
ATOM     18  O   UNL     1     259.040 -27.857  61.214  1.00  0.00    -0.493 OA
ATOM     19  C   UNL     1     258.489 -26.742  61.908  1.00  0.00     0.278 C 
ENDBRANCH  13  18
BRANCH  14  20
ATOM     20  O   UNL     1     261.729 -27.418  61.479  1.00  0.00    -0.493 OA
ATOM     21  C   UNL     1     263.098 -27.146  61.765  1.00  0.00     0.278 C 
ENDBRANCH  14  20
ENDBRANCH   1  12
BRANCH   8  22
ATOM     22  O   UNL     1     265.489 -30.190  56.360  1.00  0.00    -0.490 OA
ATOM     23  C   UNL     1     266.052 -29.950  57.645  1.00  0.00     0.278 C 
ENDBRANCH   8  22
BRANCH  11  24
ATOM     24  O   UNL     1     264.935 -26.241  52.393  1.00  0.00    -0.492 OA
ATOM     25  C   UNL     1     265.938 -25.229  52.387  1.00  0.00     0.278 C 
ENDBRANCH  11  24
BRANCH   9  26
ATOM     26  O   UNL     1     267.164 -30.174  54.037  1.00  0.00    -0.490 OA
ATOM     27  C   UNL     1     268.460 -30.147  54.626  1.00  0.00     0.279 C 
ENDBRANCH   9  26
BRANCH  10  28
ATOM     28  O   UNL     1     266.853 -28.372  52.115  1.00  0.00    -0.490 OA
ATOM     29  C   UNL     1     266.551 -28.926  50.838  1.00  0.00     0.278 C 
ENDBRANCH  10  28
TORSDOF 7
ENDMDL
MODEL 9
REMARK VINA RESULT:    -5.554      8.141     11.464
REMARK INTER + INTRA:          -8.640
REMARK INTER:                  -7.960
REMARK INTRA:                  -0.680
REMARK UNBOUND:                -0.813
REMARK SMILES COc1ccc(-c2cc(=O)c3c(OC)c(OC)c(OC)c(OC)c3o2)cc1OC
REMARK SMILES IDX 7 1 8 2 9 3 10 4 11 5 24 6 25 7 21 8 18 9 15 10 12 11 6 12
REMARK SMILES IDX 3 13 27 14 4 15 26 16 5 17 2 18 1 19 28 20 29 21 22 22 23 23
REMARK SMILES IDX 13 24 14 25 19 26 20 27 16 28 17 29
REMARK H PARENT
REMARK Flexibility Score: inf
ROOT
ATOM      1  C   UNL     1     267.870 -34.711  52.280  1.00  0.00     0.138 A 
ATOM      2  C   UNL     1     267.356 -33.465  52.651  1.00  0.00     0.100 A 
ATOM      3  C   UNL     1     267.082 -32.520  51.667  1.00  0.00     0.197 A 
ATOM      4  O   UNL     1     266.580 -31.416  52.014  1.00  0.00    -0.289 OA
ATOM      5  C   UNL     1     267.341 -32.822  50.312  1.00  0.00     0.115 A 
ATOM      6  C   UNL     1     267.830 -34.116  50.005  1.00  0.00     0.188 A 
ATOM      7  O   UNL     1     268.068 -34.979  50.991  1.00  0.00    -0.452 OA
ATOM      8  C   UNL     1     268.074 -34.488  48.659  1.00  0.00     0.209 A 
ATOM      9  C   UNL     1     267.771 -33.570  47.622  1.00  0.00     0.211 A 
ATOM     10  C   UNL     1     267.287 -32.290  47.927  1.00  0.00     0.208 A 
ATOM     11  C   UNL     1     267.131 -31.890  49.271  1.00  0.00     0.179 A 
ENDROOT
BRANCH   1  12
ATOM     12  C   UNL     1     268.183 -35.754  53.289  1.00  0.00     0.021 A 
ATOM     13  C   UNL     1     268.736 -37.770  55.189  1.00  0.00     0.160 A 
ATOM     14  C   UNL     1     267.443 -37.641  54.660  1.00  0.00     0.161 A 
ATOM     15  C   UNL     1     269.751 -36.896  54.758  1.00  0.00     0.051 A 
ATOM     16  C   UNL     1     267.174 -36.633  53.715  1.00  0.00     0.062 A 
ATOM     17  C   UNL     1     269.477 -35.902  53.815  1.00  0.00     0.016 A 
BRANCH  13  18
ATOM     18  O   UNL     1     268.972 -38.777  56.137  1.00  0.00    -0.493 OA
ATOM     19  C   UNL     1     269.190 -38.544  57.526  1.00  0.00     0.278 C 
ENDBRANCH  13  18
BRANCH  14  20
ATOM     20  O   UNL     1     266.452 -38.533  55.099  1.00  0.00    -0.493 OA
ATOM     21  C   UNL     1     265.589 -38.298  56.208  1.00  0.00     0.278 C 
ENDBRANCH  14  20
ENDBRANCH   1  12
BRANCH   8  22
ATOM     22  O   UNL     1     268.617 -35.737  48.304  1.00  0.00    -0.490 OA
ATOM     23  C   UNL     1     267.907 -36.900  47.893  1.00  0.00     0.278 C 
ENDBRANCH   8  22
BRANCH  11  24
ATOM     24  O   UNL     1     266.807 -30.564  49.570  1.00  0.00    -0.492 OA
ATOM     25  C   UNL     1     267.806 -29.549  49.581  1.00  0.00     0.278 C 
ENDBRANCH  11  24
BRANCH   9  26
ATOM     26  O   UNL     1     267.917 -33.865  46.251  1.00  0.00    -0.490 OA
ATOM     27  C   UNL     1     269.132 -33.973  45.519  1.00  0.00     0.279 C 
ENDBRANCH   9  26
BRANCH  10  28
ATOM     28  O   UNL     1     266.975 -31.456  46.836  1.00  0.00    -0.490 OA
ATOM     29  C   UNL     1     267.869 -30.564  46.177  1.00  0.00     0.278 C 
ENDBRANCH  10  28
TORSDOF 7
ENDMDL
