MODEL 1
REMARK VINA RESULT:    -4.164      0.000      0.000
REMARK INTER + INTRA:         -12.075
REMARK INTER:                  -9.519
REMARK INTRA:                  -2.556
REMARK UNBOUND:                -2.556
REMARK SMILES CCCCCCCCCCCCCCCCCCCCCCCC(=O)[O-]
REMARK SMILES IDX 13 1 14 2 15 3 16 4 17 5 18 6 19 7 20 8 21 9 22 10 23 11
REMARK SMILES IDX 24 12 25 13 26 14 12 15 11 16 10 17 9 18 8 19 7 20 6 21 5 22
REMARK SMILES IDX 4 23 3 24 2 25 1 26
REMARK H PARENT
REMARK Flexibility Score: inf
ROOT
ATOM      1  C   UNL     1      10.385  49.445  98.410  1.00  0.00     0.000 C 
ENDROOT
BRANCH   1   2
ATOM      2  C   UNL     1      11.469  48.900  97.462  1.00  0.00     0.000 C 
BRANCH   2   3
ATOM      3  C   UNL     1      12.739  49.764  97.451  1.00  0.00     0.000 C 
BRANCH   3   4
ATOM      4  C   UNL     1      13.600  49.539  96.196  1.00  0.00     0.000 C 
BRANCH   4   5
ATOM      5  C   UNL     1      14.885  50.393  96.203  1.00  0.00     0.000 C 
BRANCH   5   6
ATOM      6  C   UNL     1      15.700  50.311  94.901  1.00  0.00     0.000 C 
BRANCH   6   7
ATOM      7  C   UNL     1      15.199  49.207  93.955  1.00  0.00     0.000 C 
BRANCH   7   8
ATOM      8  C   UNL     1      16.327  48.306  93.421  1.00  0.00     0.000 C 
BRANCH   8   9
ATOM      9  C   UNL     1      17.038  47.433  94.473  1.00  0.00     0.000 C 
BRANCH   9  10
ATOM     10  C   UNL     1      17.622  46.103  93.955  1.00  0.00     0.006 C 
BRANCH  10  11
ATOM     11  C   UNL     1      19.106  46.185  93.553  1.00  0.00     0.053 C 
BRANCH  11  12
ATOM     12  C   UNL     1      19.299  46.229  92.067  1.00  0.00     0.041 C 
ATOM     13  O   UNL     1      19.028  45.221  91.363  1.00  0.00    -0.550 OA
ATOM     14  O   UNL     1      19.820  47.367  91.465  1.00  0.00    -0.550 OA
ENDBRANCH  11  12
ENDBRANCH  10  11
ENDBRANCH   9  10
ENDBRANCH   8   9
ENDBRANCH   7   8
ENDBRANCH   6   7
ENDBRANCH   5   6
ENDBRANCH   4   5
ENDBRANCH   3   4
ENDBRANCH   2   3
ENDBRANCH   1   2
BRANCH   1  15
ATOM     15  C   UNL     1       9.023  49.636  97.719  1.00  0.00     0.000 C 
BRANCH  15  16
ATOM     16  C   UNL     1       8.353  48.337  97.231  1.00  0.00     0.000 C 
BRANCH  16  17
ATOM     17  C   UNL     1       7.433  48.554  96.019  1.00  0.00     0.000 C 
BRANCH  17  18
ATOM     18  C   UNL     1       7.316  50.035  95.614  1.00  0.00    -0.000 C 
BRANCH  18  19
ATOM     19  C   UNL     1       8.133  50.410  94.359  1.00  0.00    -0.000 C 
BRANCH  19  20
ATOM     20  C   UNL     1       8.856  49.194  93.751  1.00  0.00    -0.000 C 
BRANCH  20  21
ATOM     21  C   UNL     1      10.372  49.415  93.607  1.00  0.00    -0.000 C 
BRANCH  21  22
ATOM     22  C   UNL     1      11.215  48.126  93.516  1.00  0.00    -0.000 C 
BRANCH  22  23
ATOM     23  C   UNL     1      11.013  47.131  94.673  1.00  0.00    -0.000 C 
BRANCH  23  24
ATOM     24  C   UNL     1      10.404  45.798  94.214  1.00  0.00    -0.000 C 
BRANCH  24  25
ATOM     25  C   UNL     1       9.719  45.074  95.378  1.00  0.00    -0.003 C 
ATOM     26  C   UNL     1      10.361  43.714  95.635  1.00  0.00     0.004 C 
ENDBRANCH  24  25
ENDBRANCH  23  24
ENDBRANCH  22  23
ENDBRANCH  21  22
ENDBRANCH  20  21
ENDBRANCH  19  20
ENDBRANCH  18  19
ENDBRANCH  17  18
ENDBRANCH  16  17
ENDBRANCH  15  16
ENDBRANCH   1  15
TORSDOF 22
ENDMDL
MODEL 2
REMARK VINA RESULT:    -4.113      2.319      5.038
REMARK INTER + INTRA:         -11.959
REMARK INTER:                  -9.750
REMARK INTRA:                  -2.209
REMARK UNBOUND:                -2.556
REMARK SMILES CCCCCCCCCCCCCCCCCCCCCCCC(=O)[O-]
REMARK SMILES IDX 13 1 14 2 15 3 16 4 17 5 18 6 19 7 20 8 21 9 22 10 23 11
REMARK SMILES IDX 24 12 25 13 26 14 12 15 11 16 10 17 9 18 8 19 7 20 6 21 5 22
REMARK SMILES IDX 4 23 3 24 2 25 1 26
REMARK H PARENT
REMARK Flexibility Score: inf
ROOT
ATOM      1  C   UNL     1      15.647  50.613  94.979  1.00  0.00     0.000 C 
ENDROOT
BRANCH   1   2
ATOM      2  C   UNL     1      15.920  49.107  94.814  1.00  0.00     0.000 C 
BRANCH   2   3
ATOM      3  C   UNL     1      15.628  48.601  93.393  1.00  0.00     0.000 C 
BRANCH   3   4
ATOM      4  C   UNL     1      16.732  47.673  92.855  1.00  0.00     0.000 C 
BRANCH   4   5
ATOM      5  C   UNL     1      17.216  46.661  93.913  1.00  0.00     0.000 C 
BRANCH   5   6
ATOM      6  C   UNL     1      18.719  46.344  93.836  1.00  0.00     0.000 C 
BRANCH   6   7
ATOM      7  C   UNL     1      19.158  45.883  92.435  1.00  0.00     0.000 C 
BRANCH   7   8
ATOM      8  C   UNL     1      20.244  46.779  91.814  1.00  0.00     0.000 C 
BRANCH   8   9
ATOM      9  C   UNL     1      19.808  47.606  90.589  1.00  0.00     0.000 C 
BRANCH   9  10
ATOM     10  C   UNL     1      18.557  47.093  89.846  1.00  0.00     0.006 C 
BRANCH  10  11
ATOM     11  C   UNL     1      18.282  47.812  88.513  1.00  0.00     0.053 C 
BRANCH  11  12
ATOM     12  C   UNL     1      17.420  49.027  88.680  1.00  0.00     0.041 C 
ATOM     13  O   UNL     1      16.667  49.136  89.685  1.00  0.00    -0.550 OA
ATOM     14  O   UNL     1      17.413  50.017  87.707  1.00  0.00    -0.550 OA
ENDBRANCH  11  12
ENDBRANCH  10  11
ENDBRANCH   9  10
ENDBRANCH   8   9
ENDBRANCH   7   8
ENDBRANCH   6   7
ENDBRANCH   5   6
ENDBRANCH   4   5
ENDBRANCH   3   4
ENDBRANCH   2   3
ENDBRANCH   1   2
BRANCH   1  15
ATOM     15  C   UNL     1      14.253  50.911  95.561  1.00  0.00     0.000 C 
BRANCH  15  16
ATOM     16  C   UNL     1      14.126  50.707  97.082  1.00  0.00     0.000 C 
BRANCH  16  17
ATOM     17  C   UNL     1      13.094  49.632  97.461  1.00  0.00     0.000 C 
BRANCH  17  18
ATOM     18  C   UNL     1      12.390  49.023  96.235  1.00  0.00    -0.000 C 
BRANCH  18  19
ATOM     19  C   UNL     1      10.927  48.602  96.495  1.00  0.00    -0.000 C 
BRANCH  19  20
ATOM     20  C   UNL     1      10.562  48.662  97.990  1.00  0.00    -0.000 C 
BRANCH  20  21
ATOM     21  C   UNL     1       9.609  49.824  98.323  1.00  0.00    -0.000 C 
BRANCH  21  22
ATOM     22  C   UNL     1       8.535  50.115  97.255  1.00  0.00    -0.000 C 
BRANCH  22  23
ATOM     23  C   UNL     1       7.310  49.184  97.291  1.00  0.00    -0.000 C 
BRANCH  23  24
ATOM     24  C   UNL     1       7.183  48.316  96.030  1.00  0.00    -0.000 C 
BRANCH  24  25
ATOM     25  C   UNL     1       7.121  46.827  96.389  1.00  0.00    -0.003 C 
ATOM     26  C   UNL     1       7.368  46.610  97.878  1.00  0.00     0.004 C 
ENDBRANCH  24  25
ENDBRANCH  23  24
ENDBRANCH  22  23
ENDBRANCH  21  22
ENDBRANCH  20  21
ENDBRANCH  19  20
ENDBRANCH  18  19
ENDBRANCH  17  18
ENDBRANCH  16  17
ENDBRANCH  15  16
ENDBRANCH   1  15
TORSDOF 22
ENDMDL
MODEL 3
REMARK VINA RESULT:    -4.109      2.188      4.904
REMARK INTER + INTRA:         -11.949
REMARK INTER:                 -10.241
REMARK INTRA:                  -1.708
REMARK UNBOUND:                -2.556
REMARK SMILES CCCCCCCCCCCCCCCCCCCCCCCC(=O)[O-]
REMARK SMILES IDX 13 1 14 2 15 3 16 4 17 5 18 6 19 7 20 8 21 9 22 10 23 11
REMARK SMILES IDX 24 12 25 13 26 14 12 15 11 16 10 17 9 18 8 19 7 20 6 21 5 22
REMARK SMILES IDX 4 23 3 24 2 25 1 26
REMARK H PARENT
REMARK Flexibility Score: inf
ROOT
ATOM      1  C   UNL     1      15.644  50.715  94.862  1.00  0.00     0.000 C 
ENDROOT
BRANCH   1   2
ATOM      2  C   UNL     1      15.909  49.198  94.868  1.00  0.00     0.000 C 
BRANCH   2   3
ATOM      3  C   UNL     1      15.601  48.535  93.517  1.00  0.00     0.000 C 
BRANCH   3   4
ATOM      4  C   UNL     1      16.736  47.615  93.034  1.00  0.00     0.000 C 
BRANCH   4   5
ATOM      5  C   UNL     1      17.354  46.792  94.184  1.00  0.00     0.000 C 
BRANCH   5   6
ATOM      6  C   UNL     1      18.727  46.182  93.851  1.00  0.00     0.000 C 
BRANCH   6   7
ATOM      7  C   UNL     1      18.679  45.241  92.635  1.00  0.00     0.000 C 
BRANCH   7   8
ATOM      8  C   UNL     1      19.291  45.859  91.365  1.00  0.00     0.000 C 
BRANCH   8   9
ATOM      9  C   UNL     1      20.394  46.910  91.598  1.00  0.00     0.000 C 
BRANCH   9  10
ATOM     10  C   UNL     1      20.456  48.055  90.567  1.00  0.00     0.006 C 
BRANCH  10  11
ATOM     11  C   UNL     1      21.661  47.974  89.612  1.00  0.00     0.053 C 
BRANCH  11  12
ATOM     12  C   UNL     1      22.378  49.283  89.477  1.00  0.00     0.041 C 
ATOM     13  O   UNL     1      21.741  50.326  89.174  1.00  0.00    -0.550 OA
ATOM     14  O   UNL     1      23.756  49.344  89.642  1.00  0.00    -0.550 OA
ENDBRANCH  11  12
ENDBRANCH  10  11
ENDBRANCH   9  10
ENDBRANCH   8   9
ENDBRANCH   7   8
ENDBRANCH   6   7
ENDBRANCH   5   6
ENDBRANCH   4   5
ENDBRANCH   3   4
ENDBRANCH   2   3
ENDBRANCH   1   2
BRANCH   1  15
ATOM     15  C   UNL     1      14.348  51.102  95.597  1.00  0.00     0.000 C 
BRANCH  15  16
ATOM     16  C   UNL     1      14.365  50.857  97.118  1.00  0.00     0.000 C 
BRANCH  16  17
ATOM     17  C   UNL     1      13.272  49.881  97.582  1.00  0.00     0.000 C 
BRANCH  17  18
ATOM     18  C   UNL     1      12.671  49.063  96.424  1.00  0.00    -0.000 C 
BRANCH  18  19
ATOM     19  C   UNL     1      11.260  48.507  96.713  1.00  0.00    -0.000 C 
BRANCH  19  20
ATOM     20  C   UNL     1      10.581  49.230  97.891  1.00  0.00    -0.000 C 
BRANCH  20  21
ATOM     21  C   UNL     1       9.044  49.180  97.812  1.00  0.00    -0.000 C 
BRANCH  21  22
ATOM     22  C   UNL     1       8.470  48.037  96.950  1.00  0.00    -0.000 C 
BRANCH  22  23
ATOM     23  C   UNL     1       8.464  46.652  97.621  1.00  0.00    -0.000 C 
BRANCH  23  24
ATOM     24  C   UNL     1       9.201  45.586  96.796  1.00  0.00    -0.000 C 
BRANCH  24  25
ATOM     25  C   UNL     1       8.996  45.811  95.294  1.00  0.00    -0.003 C 
ATOM     26  C   UNL     1      10.330  45.842  94.556  1.00  0.00     0.004 C 
ENDBRANCH  24  25
ENDBRANCH  23  24
ENDBRANCH  22  23
ENDBRANCH  21  22
ENDBRANCH  20  21
ENDBRANCH  19  20
ENDBRANCH  18  19
ENDBRANCH  17  18
ENDBRANCH  16  17
ENDBRANCH  15  16
ENDBRANCH   1  15
TORSDOF 22
ENDMDL
MODEL 4
REMARK VINA RESULT:    -3.959      2.294      3.506
REMARK INTER + INTRA:         -11.606
REMARK INTER:                  -8.928
REMARK INTRA:                  -2.678
REMARK UNBOUND:                -2.556
REMARK SMILES CCCCCCCCCCCCCCCCCCCCCCCC(=O)[O-]
REMARK SMILES IDX 13 1 14 2 15 3 16 4 17 5 18 6 19 7 20 8 21 9 22 10 23 11
REMARK SMILES IDX 24 12 25 13 26 14 12 15 11 16 10 17 9 18 8 19 7 20 6 21 5 22
REMARK SMILES IDX 4 23 3 24 2 25 1 26
REMARK H PARENT
REMARK Flexibility Score: inf
ROOT
ATOM      1  C   UNL     1       9.817  48.830  96.300  1.00  0.00     0.000 C 
ENDROOT
BRANCH   1   2
ATOM      2  C   UNL     1      10.981  48.449  97.235  1.00  0.00     0.000 C 
BRANCH   2   3
ATOM      3  C   UNL     1      11.831  49.660  97.650  1.00  0.00     0.000 C 
BRANCH   3   4
ATOM      4  C   UNL     1      13.322  49.480  97.315  1.00  0.00     0.000 C 
BRANCH   4   5
ATOM      5  C   UNL     1      13.964  50.778  96.782  1.00  0.00     0.000 C 
BRANCH   5   6
ATOM      6  C   UNL     1      14.936  50.560  95.609  1.00  0.00     0.000 C 
BRANCH   6   7
ATOM      7  C   UNL     1      15.253  49.074  95.368  1.00  0.00     0.000 C 
BRANCH   7   8
ATOM      8  C   UNL     1      16.033  48.824  94.065  1.00  0.00     0.000 C 
BRANCH   8   9
ATOM      9  C   UNL     1      16.922  47.565  94.050  1.00  0.00     0.000 C 
BRANCH   9  10
ATOM     10  C   UNL     1      17.291  47.022  92.654  1.00  0.00     0.006 C 
BRANCH  10  11
ATOM     11  C   UNL     1      16.131  47.058  91.641  1.00  0.00     0.053 C 
BRANCH  11  12
ATOM     12  C   UNL     1      15.630  45.689  91.292  1.00  0.00     0.041 C 
ATOM     13  O   UNL     1      16.270  44.667  91.657  1.00  0.00    -0.550 OA
ATOM     14  O   UNL     1      14.482  45.541  90.525  1.00  0.00    -0.550 OA
ENDBRANCH  11  12
ENDBRANCH  10  11
ENDBRANCH   9  10
ENDBRANCH   8   9
ENDBRANCH   7   8
ENDBRANCH   6   7
ENDBRANCH   5   6
ENDBRANCH   4   5
ENDBRANCH   3   4
ENDBRANCH   2   3
ENDBRANCH   1   2
BRANCH   1  15
ATOM     15  C   UNL     1      10.234  48.900  94.820  1.00  0.00     0.000 C 
BRANCH  15  16
ATOM     16  C   UNL     1      11.409  47.983  94.430  1.00  0.00     0.000 C 
BRANCH  16  17
ATOM     17  C   UNL     1      10.958  46.582  93.986  1.00  0.00     0.000 C 
BRANCH  17  18
ATOM     18  C   UNL     1       9.579  46.588  93.300  1.00  0.00    -0.000 C 
BRANCH  18  19
ATOM     19  C   UNL     1       9.576  45.961  91.890  1.00  0.00    -0.000 C 
BRANCH  19  20
ATOM     20  C   UNL     1      10.971  45.459  91.473  1.00  0.00    -0.000 C 
BRANCH  20  21
ATOM     21  C   UNL     1      10.939  44.040  90.879  1.00  0.00    -0.000 C 
BRANCH  21  22
ATOM     22  C   UNL     1      11.801  43.000  91.625  1.00  0.00    -0.000 C 
BRANCH  22  23
ATOM     23  C   UNL     1      12.725  43.577  92.712  1.00  0.00    -0.000 C 
BRANCH  23  24
ATOM     24  C   UNL     1      12.748  42.724  93.990  1.00  0.00    -0.000 C 
BRANCH  24  25
ATOM     25  C   UNL     1      11.516  42.999  94.859  1.00  0.00    -0.003 C 
ATOM     26  C   UNL     1      11.483  42.077  96.074  1.00  0.00     0.004 C 
ENDBRANCH  24  25
ENDBRANCH  23  24
ENDBRANCH  22  23
ENDBRANCH  21  22
ENDBRANCH  20  21
ENDBRANCH  19  20
ENDBRANCH  18  19
ENDBRANCH  17  18
ENDBRANCH  16  17
ENDBRANCH  15  16
ENDBRANCH   1  15
TORSDOF 22
ENDMDL
MODEL 5
REMARK VINA RESULT:    -3.909      3.017      6.834
REMARK INTER + INTRA:         -11.492
REMARK INTER:                  -9.060
REMARK INTRA:                  -2.432
REMARK UNBOUND:                -2.556
REMARK SMILES CCCCCCCCCCCCCCCCCCCCCCCC(=O)[O-]
REMARK SMILES IDX 13 1 14 2 15 3 16 4 17 5 18 6 19 7 20 8 21 9 22 10 23 11
REMARK SMILES IDX 24 12 25 13 26 14 12 15 11 16 10 17 9 18 8 19 7 20 6 21 5 22
REMARK SMILES IDX 4 23 3 24 2 25 1 26
REMARK H PARENT
REMARK Flexibility Score: inf
ROOT
ATOM      1  C   UNL     1      13.297  49.494  97.422  1.00  0.00     0.000 C 
ENDROOT
BRANCH   1   2
ATOM      2  C   UNL     1      11.772  49.405  97.621  1.00  0.00     0.000 C 
BRANCH   2   3
ATOM      3  C   UNL     1      11.086  48.512  96.577  1.00  0.00     0.000 C 
BRANCH   3   4
ATOM      4  C   UNL     1       9.636  48.939  96.291  1.00  0.00     0.000 C 
BRANCH   4   5
ATOM      5  C   UNL     1       9.309  48.937  94.784  1.00  0.00     0.000 C 
BRANCH   5   6
ATOM      6  C   UNL     1      10.496  48.549  93.886  1.00  0.00     0.000 C 
BRANCH   6   7
ATOM      7  C   UNL     1      10.238  47.262  93.084  1.00  0.00     0.000 C 
BRANCH   7   8
ATOM      8  C   UNL     1      10.752  45.994  93.789  1.00  0.00     0.000 C 
BRANCH   8   9
ATOM      9  C   UNL     1       9.754  45.309  94.742  1.00  0.00     0.000 C 
BRANCH   9  10
ATOM     10  C   UNL     1      10.288  44.077  95.500  1.00  0.00     0.006 C 
BRANCH  10  11
ATOM     11  C   UNL     1      11.456  43.364  94.792  1.00  0.00     0.053 C 
BRANCH  11  12
ATOM     12  C   UNL     1      12.260  42.510  95.726  1.00  0.00     0.041 C 
ATOM     13  O   UNL     1      13.396  42.089  95.380  1.00  0.00    -0.550 OA
ATOM     14  O   UNL     1      11.738  42.141  96.959  1.00  0.00    -0.550 OA
ENDBRANCH  11  12
ENDBRANCH  10  11
ENDBRANCH   9  10
ENDBRANCH   8   9
ENDBRANCH   7   8
ENDBRANCH   6   7
ENDBRANCH   5   6
ENDBRANCH   4   5
ENDBRANCH   3   4
ENDBRANCH   2   3
ENDBRANCH   1   2
BRANCH   1  15
ATOM     15  C   UNL     1      13.694  49.827  95.972  1.00  0.00     0.000 C 
BRANCH  15  16
ATOM     16  C   UNL     1      15.091  50.456  95.809  1.00  0.00     0.000 C 
BRANCH  16  17
ATOM     17  C   UNL     1      15.783  50.051  94.498  1.00  0.00     0.000 C 
BRANCH  17  18
ATOM     18  C   UNL     1      14.982  49.010  93.695  1.00  0.00    -0.000 C 
BRANCH  18  19
ATOM     19  C   UNL     1      15.853  48.090  92.814  1.00  0.00    -0.000 C 
BRANCH  19  20
ATOM     20  C   UNL     1      16.920  47.340  93.632  1.00  0.00    -0.000 C 
BRANCH  20  21
ATOM     21  C   UNL     1      17.985  46.668  92.746  1.00  0.00    -0.000 C 
BRANCH  21  22
ATOM     22  C   UNL     1      17.732  45.178  92.438  1.00  0.00    -0.000 C 
BRANCH  22  23
ATOM     23  C   UNL     1      16.592  44.528  93.243  1.00  0.00    -0.000 C 
BRANCH  23  24
ATOM     24  C   UNL     1      15.871  43.417  92.465  1.00  0.00    -0.000 C 
BRANCH  24  25
ATOM     25  C   UNL     1      14.438  43.832  92.111  1.00  0.00    -0.003 C 
ATOM     26  C   UNL     1      13.564  42.612  91.838  1.00  0.00     0.004 C 
ENDBRANCH  24  25
ENDBRANCH  23  24
ENDBRANCH  22  23
ENDBRANCH  21  22
ENDBRANCH  20  21
ENDBRANCH  19  20
ENDBRANCH  18  19
ENDBRANCH  17  18
ENDBRANCH  16  17
ENDBRANCH  15  16
ENDBRANCH   1  15
TORSDOF 22
ENDMDL
MODEL 6
REMARK VINA RESULT:    -3.867      2.071      3.542
REMARK INTER + INTRA:         -11.397
REMARK INTER:                  -8.454
REMARK INTRA:                  -2.943
REMARK UNBOUND:                -2.556
REMARK SMILES CCCCCCCCCCCCCCCCCCCCCCCC(=O)[O-]
REMARK SMILES IDX 13 1 14 2 15 3 16 4 17 5 18 6 19 7 20 8 21 9 22 10 23 11
REMARK SMILES IDX 24 12 25 13 26 14 12 15 11 16 10 17 9 18 8 19 7 20 6 21 5 22
REMARK SMILES IDX 4 23 3 24 2 25 1 26
REMARK H PARENT
REMARK Flexibility Score: inf
ROOT
ATOM      1  C   UNL     1      11.028  48.513  94.036  1.00  0.00     0.000 C 
ENDROOT
BRANCH   1   2
ATOM      2  C   UNL     1      12.318  49.221  94.492  1.00  0.00     0.000 C 
BRANCH   2   3
ATOM      3  C   UNL     1      12.595  49.045  95.993  1.00  0.00     0.000 C 
BRANCH   3   4
ATOM      4  C   UNL     1      13.960  49.617  96.415  1.00  0.00     0.000 C 
BRANCH   4   5
ATOM      5  C   UNL     1      14.385  50.822  95.550  1.00  0.00     0.000 C 
BRANCH   5   6
ATOM      6  C   UNL     1      15.681  50.594  94.754  1.00  0.00     0.000 C 
BRANCH   6   7
ATOM      7  C   UNL     1      16.020  49.104  94.582  1.00  0.00     0.000 C 
BRANCH   7   8
ATOM      8  C   UNL     1      15.762  48.583  93.156  1.00  0.00     0.000 C 
BRANCH   8   9
ATOM      9  C   UNL     1      16.426  47.238  92.806  1.00  0.00     0.000 C 
BRANCH   9  10
ATOM     10  C   UNL     1      16.774  47.030  91.318  1.00  0.00     0.006 C 
BRANCH  10  11
ATOM     11  C   UNL     1      18.073  47.727  90.876  1.00  0.00     0.053 C 
BRANCH  11  12
ATOM     12  C   UNL     1      17.826  48.847  89.910  1.00  0.00     0.041 C 
ATOM     13  O   UNL     1      16.648  49.171  89.604  1.00  0.00    -0.550 OA
ATOM     14  O   UNL     1      18.894  49.502  89.313  1.00  0.00    -0.550 OA
ENDBRANCH  11  12
ENDBRANCH  10  11
ENDBRANCH   9  10
ENDBRANCH   8   9
ENDBRANCH   7   8
ENDBRANCH   6   7
ENDBRANCH   5   6
ENDBRANCH   4   5
ENDBRANCH   3   4
ENDBRANCH   2   3
ENDBRANCH   1   2
BRANCH   1  15
ATOM     15  C   UNL     1       9.895  49.494  93.686  1.00  0.00     0.000 C 
BRANCH  15  16
ATOM     16  C   UNL     1       8.471  48.931  93.853  1.00  0.00     0.000 C 
BRANCH  16  17
ATOM     17  C   UNL     1       7.478  49.962  94.411  1.00  0.00     0.000 C 
BRANCH  17  18
ATOM     18  C   UNL     1       7.982  51.411  94.278  1.00  0.00    -0.000 C 
BRANCH  18  19
ATOM     19  C   UNL     1       7.384  52.382  95.318  1.00  0.00    -0.000 C 
BRANCH  19  20
ATOM     20  C   UNL     1       6.153  51.790  96.026  1.00  0.00    -0.000 C 
BRANCH  20  21
ATOM     21  C   UNL     1       6.376  51.584  97.535  1.00  0.00    -0.000 C 
BRANCH  21  22
ATOM     22  C   UNL     1       7.803  51.151  97.932  1.00  0.00    -0.000 C 
BRANCH  22  23
ATOM     23  C   UNL     1       8.012  49.632  98.061  1.00  0.00    -0.000 C 
BRANCH  23  24
ATOM     24  C   UNL     1       9.454  49.200  97.754  1.00  0.00    -0.000 C 
BRANCH  24  25
ATOM     25  C   UNL     1       9.508  47.734  97.309  1.00  0.00    -0.003 C 
ATOM     26  C   UNL     1       8.105  47.172  97.099  1.00  0.00     0.004 C 
ENDBRANCH  24  25
ENDBRANCH  23  24
ENDBRANCH  22  23
ENDBRANCH  21  22
ENDBRANCH  20  21
ENDBRANCH  19  20
ENDBRANCH  18  19
ENDBRANCH  17  18
ENDBRANCH  16  17
ENDBRANCH  15  16
ENDBRANCH   1  15
TORSDOF 22
ENDMDL
MODEL 7
REMARK VINA RESULT:    -3.815      1.449      2.846
REMARK INTER + INTRA:         -11.278
REMARK INTER:                  -8.326
REMARK INTRA:                  -2.951
REMARK UNBOUND:                -2.556
REMARK SMILES CCCCCCCCCCCCCCCCCCCCCCCC(=O)[O-]
REMARK SMILES IDX 13 1 14 2 15 3 16 4 17 5 18 6 19 7 20 8 21 9 22 10 23 11
REMARK SMILES IDX 24 12 25 13 26 14 12 15 11 16 10 17 9 18 8 19 7 20 6 21 5 22
REMARK SMILES IDX 4 23 3 24 2 25 1 26
REMARK H PARENT
REMARK Flexibility Score: inf
ROOT
ATOM      1  C   UNL     1      10.883  49.067  93.570  1.00  0.00     0.000 C 
ENDROOT
BRANCH   1   2
ATOM      2  C   UNL     1      12.248  49.380  94.209  1.00  0.00     0.000 C 
BRANCH   2   3
ATOM      3  C   UNL     1      12.347  48.906  95.667  1.00  0.00     0.000 C 
BRANCH   3   4
ATOM      4  C   UNL     1      13.496  49.581  96.435  1.00  0.00     0.000 C 
BRANCH   4   5
ATOM      5  C   UNL     1      14.127  50.746  95.644  1.00  0.00     0.000 C 
BRANCH   5   6
ATOM      6  C   UNL     1      15.608  50.532  95.289  1.00  0.00     0.000 C 
BRANCH   6   7
ATOM      7  C   UNL     1      15.890  49.124  94.737  1.00  0.00     0.000 C 
BRANCH   7   8
ATOM      8  C   UNL     1      15.647  49.006  93.222  1.00  0.00     0.000 C 
BRANCH   8   9
ATOM      9  C   UNL     1      16.241  47.756  92.545  1.00  0.00     0.000 C 
BRANCH   9  10
ATOM     10  C   UNL     1      17.237  46.943  93.397  1.00  0.00     0.006 C 
BRANCH  10  11
ATOM     11  C   UNL     1      18.091  45.952  92.586  1.00  0.00     0.053 C 
BRANCH  11  12
ATOM     12  C   UNL     1      17.513  44.569  92.573  1.00  0.00     0.041 C 
ATOM     13  O   UNL     1      16.382  44.350  93.083  1.00  0.00    -0.550 OA
ATOM     14  O   UNL     1      18.242  43.513  92.041  1.00  0.00    -0.550 OA
ENDBRANCH  11  12
ENDBRANCH  10  11
ENDBRANCH   9  10
ENDBRANCH   8   9
ENDBRANCH   7   8
ENDBRANCH   6   7
ENDBRANCH   5   6
ENDBRANCH   4   5
ENDBRANCH   3   4
ENDBRANCH   2   3
ENDBRANCH   1   2
BRANCH   1  15
ATOM     15  C   UNL     1      10.310  50.248  92.766  1.00  0.00     0.000 C 
BRANCH  15  16
ATOM     16  C   UNL     1       8.849  50.612  93.094  1.00  0.00     0.000 C 
BRANCH  16  17
ATOM     17  C   UNL     1       8.203  49.651  94.106  1.00  0.00     0.000 C 
BRANCH  17  18
ATOM     18  C   UNL     1       7.854  50.335  95.440  1.00  0.00    -0.000 C 
BRANCH  18  19
ATOM     19  C   UNL     1       7.693  49.358  96.624  1.00  0.00    -0.000 C 
BRANCH  19  20
ATOM     20  C   UNL     1       9.049  48.940  97.221  1.00  0.00    -0.000 C 
BRANCH  20  21
ATOM     21  C   UNL     1       9.307  47.426  97.108  1.00  0.00    -0.000 C 
BRANCH  21  22
ATOM     22  C   UNL     1       8.253  46.642  96.299  1.00  0.00    -0.000 C 
BRANCH  22  23
ATOM     23  C   UNL     1       8.806  45.851  95.101  1.00  0.00    -0.000 C 
BRANCH  23  24
ATOM     24  C   UNL     1      10.340  45.878  95.024  1.00  0.00    -0.000 C 
BRANCH  24  25
ATOM     25  C   UNL     1      10.835  45.340  93.676  1.00  0.00    -0.003 C 
ATOM     26  C   UNL     1      11.469  43.962  93.835  1.00  0.00     0.004 C 
ENDBRANCH  24  25
ENDBRANCH  23  24
ENDBRANCH  22  23
ENDBRANCH  21  22
ENDBRANCH  20  21
ENDBRANCH  19  20
ENDBRANCH  18  19
ENDBRANCH  17  18
ENDBRANCH  16  17
ENDBRANCH  15  16
ENDBRANCH   1  15
TORSDOF 22
ENDMDL
MODEL 8
REMARK VINA RESULT:    -3.779      3.107      5.960
REMARK INTER + INTRA:         -11.194
REMARK INTER:                  -8.762
REMARK INTRA:                  -2.432
REMARK UNBOUND:                -2.556
REMARK SMILES CCCCCCCCCCCCCCCCCCCCCCCC(=O)[O-]
REMARK SMILES IDX 13 1 14 2 15 3 16 4 17 5 18 6 19 7 20 8 21 9 22 10 23 11
REMARK SMILES IDX 24 12 25 13 26 14 12 15 11 16 10 17 9 18 8 19 7 20 6 21 5 22
REMARK SMILES IDX 4 23 3 24 2 25 1 26
REMARK H PARENT
REMARK Flexibility Score: inf
ROOT
ATOM      1  C   UNL     1      12.686  48.876  94.158  1.00  0.00     0.000 C 
ENDROOT
BRANCH   1   2
ATOM      2  C   UNL     1      11.248  49.322  93.833  1.00  0.00     0.000 C 
BRANCH   2   3
ATOM      3  C   UNL     1      10.219  48.197  94.021  1.00  0.00     0.000 C 
BRANCH   3   4
ATOM      4  C   UNL     1      10.679  47.134  95.035  1.00  0.00     0.000 C 
BRANCH   4   5
ATOM      5  C   UNL     1       9.901  45.810  94.891  1.00  0.00     0.000 C 
BRANCH   5   6
ATOM      6  C   UNL     1      10.726  44.660  94.288  1.00  0.00     0.000 C 
BRANCH   6   7
ATOM      7  C   UNL     1      11.389  45.041  92.953  1.00  0.00     0.000 C 
BRANCH   7   8
ATOM      8  C   UNL     1      11.881  43.822  92.151  1.00  0.00     0.000 C 
BRANCH   8   9
ATOM      9  C   UNL     1      12.566  42.714  92.972  1.00  0.00     0.000 C 
BRANCH   9  10
ATOM     10  C   UNL     1      14.037  42.975  93.354  1.00  0.00     0.006 C 
BRANCH  10  11
ATOM     11  C   UNL     1      14.555  42.084  94.498  1.00  0.00     0.053 C 
BRANCH  11  12
ATOM     12  C   UNL     1      15.468  40.998  94.014  1.00  0.00     0.041 C 
ATOM     13  O   UNL     1      15.671  40.844  92.780  1.00  0.00    -0.550 OA
ATOM     14  O   UNL     1      16.059  40.128  94.921  1.00  0.00    -0.550 OA
ENDBRANCH  11  12
ENDBRANCH  10  11
ENDBRANCH   9  10
ENDBRANCH   8   9
ENDBRANCH   7   8
ENDBRANCH   6   7
ENDBRANCH   5   6
ENDBRANCH   4   5
ENDBRANCH   3   4
ENDBRANCH   2   3
ENDBRANCH   1   2
BRANCH   1  15
ATOM     15  C   UNL     1      13.493  49.950  94.909  1.00  0.00     0.000 C 
BRANCH  15  16
ATOM     16  C   UNL     1      13.962  49.544  96.320  1.00  0.00     0.000 C 
BRANCH  16  17
ATOM     17  C   UNL     1      12.993  49.989  97.427  1.00  0.00     0.000 C 
BRANCH  17  18
ATOM     18  C   UNL     1      11.782  49.049  97.573  1.00  0.00    -0.000 C 
BRANCH  18  19
ATOM     19  C   UNL     1      10.626  49.639  98.410  1.00  0.00    -0.000 C 
BRANCH  19  20
ATOM     20  C   UNL     1       9.276  49.557  97.676  1.00  0.00    -0.000 C 
BRANCH  20  21
ATOM     21  C   UNL     1       8.285  50.644  98.129  1.00  0.00    -0.000 C 
BRANCH  21  22
ATOM     22  C   UNL     1       7.397  51.227  97.011  1.00  0.00    -0.000 C 
BRANCH  22  23
ATOM     23  C   UNL     1       6.817  50.192  96.031  1.00  0.00    -0.000 C 
BRANCH  23  24
ATOM     24  C   UNL     1       7.349  50.360  94.600  1.00  0.00    -0.000 C 
BRANCH  24  25
ATOM     25  C   UNL     1       7.793  51.805  94.343  1.00  0.00    -0.003 C 
ATOM     26  C   UNL     1       8.656  51.900  93.089  1.00  0.00     0.004 C 
ENDBRANCH  24  25
ENDBRANCH  23  24
ENDBRANCH  22  23
ENDBRANCH  21  22
ENDBRANCH  20  21
ENDBRANCH  19  20
ENDBRANCH  18  19
ENDBRANCH  17  18
ENDBRANCH  16  17
ENDBRANCH  15  16
ENDBRANCH   1  15
TORSDOF 22
ENDMDL
MODEL 9
REMARK VINA RESULT:    -3.488      3.481      6.183
REMARK INTER + INTRA:         -10.531
REMARK INTER:                  -7.318
REMARK INTRA:                  -3.212
REMARK UNBOUND:                -2.556
REMARK SMILES CCCCCCCCCCCCCCCCCCCCCCCC(=O)[O-]
REMARK SMILES IDX 13 1 14 2 15 3 16 4 17 5 18 6 19 7 20 8 21 9 22 10 23 11
REMARK SMILES IDX 24 12 25 13 26 14 12 15 11 16 10 17 9 18 8 19 7 20 6 21 5 22
REMARK SMILES IDX 4 23 3 24 2 25 1 26
REMARK H PARENT
REMARK Flexibility Score: inf
ROOT
ATOM      1  C   UNL     1      10.231  48.432  97.194  1.00  0.00     0.000 C 
ENDROOT
BRANCH   1   2
ATOM      2  C   UNL     1       9.629  47.076  97.604  1.00  0.00     0.000 C 
BRANCH   2   3
ATOM      3  C   UNL     1       9.277  46.192  96.398  1.00  0.00     0.000 C 
BRANCH   3   4
ATOM      4  C   UNL     1       7.964  46.615  95.714  1.00  0.00     0.000 C 
BRANCH   4   5
ATOM      5  C   UNL     1       8.158  46.931  94.216  1.00  0.00     0.000 C 
BRANCH   5   6
ATOM      6  C   UNL     1       8.107  48.431  93.881  1.00  0.00     0.000 C 
BRANCH   6   7
ATOM      7  C   UNL     1       8.899  48.784  92.610  1.00  0.00     0.000 C 
BRANCH   7   8
ATOM      8  C   UNL     1      10.414  48.555  92.756  1.00  0.00     0.000 C 
BRANCH   8   9
ATOM      9  C   UNL     1      11.083  49.257  93.954  1.00  0.00     0.000 C 
BRANCH   9  10
ATOM     10  C   UNL     1      12.556  48.880  94.213  1.00  0.00     0.006 C 
BRANCH  10  11
ATOM     11  C   UNL     1      13.437  50.064  94.653  1.00  0.00     0.053 C 
BRANCH  11  12
ATOM     12  C   UNL     1      14.066  49.846  95.996  1.00  0.00     0.041 C 
ATOM     13  O   UNL     1      15.232  49.379  96.081  1.00  0.00    -0.550 OA
ATOM     14  O   UNL     1      13.348  50.115  97.154  1.00  0.00    -0.550 OA
ENDBRANCH  11  12
ENDBRANCH  10  11
ENDBRANCH   9  10
ENDBRANCH   8   9
ENDBRANCH   7   8
ENDBRANCH   6   7
ENDBRANCH   5   6
ENDBRANCH   4   5
ENDBRANCH   3   4
ENDBRANCH   2   3
ENDBRANCH   1   2
BRANCH   1  15
ATOM     15  C   UNL     1       9.667  49.611  98.008  1.00  0.00     0.000 C 
BRANCH  15  16
ATOM     16  C   UNL     1       8.132  49.733  97.997  1.00  0.00     0.000 C 
BRANCH  16  17
ATOM     17  C   UNL     1       7.586  50.344  96.697  1.00  0.00     0.000 C 
BRANCH  17  18
ATOM     18  C   UNL     1       7.357  51.863  96.800  1.00  0.00    -0.000 C 
BRANCH  18  19
ATOM     19  C   UNL     1       6.714  52.489  95.544  1.00  0.00    -0.000 C 
BRANCH  19  20
ATOM     20  C   UNL     1       7.685  52.525  94.350  1.00  0.00    -0.000 C 
BRANCH  20  21
ATOM     21  C   UNL     1       7.069  51.945  93.065  1.00  0.00    -0.000 C 
BRANCH  21  22
ATOM     22  C   UNL     1       6.712  52.986  91.983  1.00  0.00    -0.000 C 
BRANCH  22  23
ATOM     23  C   UNL     1       7.545  52.898  90.692  1.00  0.00    -0.000 C 
BRANCH  23  24
ATOM     24  C   UNL     1       8.570  51.754  90.720  1.00  0.00    -0.000 C 
BRANCH  24  25
ATOM     25  C   UNL     1       9.992  52.292  90.918  1.00  0.00    -0.003 C 
ATOM     26  C   UNL     1      10.384  53.238  89.787  1.00  0.00     0.004 C 
ENDBRANCH  24  25
ENDBRANCH  23  24
ENDBRANCH  22  23
ENDBRANCH  21  22
ENDBRANCH  20  21
ENDBRANCH  19  20
ENDBRANCH  18  19
ENDBRANCH  17  18
ENDBRANCH  16  17
ENDBRANCH  15  16
ENDBRANCH   1  15
TORSDOF 22
ENDMDL
