MODEL 1
REMARK VINA RESULT:    -5.373      0.000      0.000
REMARK INTER + INTRA:          -5.373
REMARK INTER:                  -5.373
REMARK INTRA:                   0.000
REMARK UNBOUND:                 0.000
REMARK SMILES C=C1CCCC(C)(C)[C@]12CC=C(C)CC2
REMARK SMILES IDX 13 1 12 2 11 3 10 4 9 5 15 6 14 7 2 8 1 9 3 10 4 11 5 12
REMARK SMILES IDX 6 13 7 14 8 15
REMARK H PARENT
REMARK Flexibility Score: inf
ROOT
ATOM      1  C   UNL     1     132.121 135.825 131.230  1.00  0.00     0.039 C 
ATOM      2  C   UNL     1     133.323 136.694 131.479  1.00  0.00    -0.077 C 
ATOM      3  C   UNL     1     134.522 136.311 130.997  1.00  0.00    -0.027 C 
ATOM      4  C   UNL     1     135.792 137.103 131.214  1.00  0.00     0.039 C 
ATOM      5  C   UNL     1     135.554 138.617 131.548  1.00  0.00    -0.000 C 
ATOM      6  C   UNL     1     134.451 138.637 132.652  1.00  0.00     0.017 C 
ATOM      7  C   UNL     1     133.130 138.031 132.160  1.00  0.00     0.031 C 
ATOM      8  C   UNL     1     135.049 139.429 130.323  1.00  0.00    -0.070 C 
ATOM      9  C   UNL     1     134.771 138.892 129.115  1.00  0.00     0.008 C 
ATOM     10  C   UNL     1     134.871 140.921 130.498  1.00  0.00     0.031 C 
ATOM     11  C   UNL     1     136.180 141.549 130.964  1.00  0.00     0.005 C 
ATOM     12  C   UNL     1     136.712 140.857 132.224  1.00  0.00     0.008 C 
ATOM     13  C   UNL     1     136.905 139.313 132.060  1.00  0.00    -0.026 C 
ATOM     14  C   UNL     1     137.383 138.784 133.440  1.00  0.00     0.012 C 
ATOM     15  C   UNL     1     138.065 139.066 131.056  1.00  0.00     0.012 C 
ENDROOT
TORSDOF 0
ENDMDL
MODEL 2
REMARK VINA RESULT:    -5.336      2.537      4.764
REMARK INTER + INTRA:          -5.336
REMARK INTER:                  -5.336
REMARK INTRA:                   0.000
REMARK UNBOUND:                 0.000
REMARK SMILES C=C1CCCC(C)(C)[C@]12CC=C(C)CC2
REMARK SMILES IDX 13 1 12 2 11 3 10 4 9 5 15 6 14 7 2 8 1 9 3 10 4 11 5 12
REMARK SMILES IDX 6 13 7 14 8 15
REMARK H PARENT
REMARK Flexibility Score: inf
ROOT
ATOM      1  C   UNL     1     138.020 132.128 131.254  1.00  0.00     0.039 C 
ATOM      2  C   UNL     1     137.121 133.308 131.503  1.00  0.00    -0.077 C 
ATOM      3  C   UNL     1     137.483 134.519 131.036  1.00  0.00    -0.027 C 
ATOM      4  C   UNL     1     136.661 135.770 131.253  1.00  0.00     0.039 C 
ATOM      5  C   UNL     1     135.148 135.495 131.566  1.00  0.00    -0.000 C 
ATOM      6  C   UNL     1     135.139 134.383 132.660  1.00  0.00     0.017 C 
ATOM      7  C   UNL     1     135.781 133.080 132.165  1.00  0.00     0.031 C 
ATOM      8  C   UNL     1     134.364 134.984 130.327  1.00  0.00    -0.070 C 
ATOM      9  C   UNL     1     134.921 134.727 129.123  1.00  0.00     0.008 C 
ATOM     10  C   UNL     1     132.874 134.771 130.481  1.00  0.00     0.031 C 
ATOM     11  C   UNL     1     132.212 136.061 130.950  1.00  0.00     0.005 C 
ATOM     12  C   UNL     1     132.876 136.597 132.223  1.00  0.00     0.008 C 
ATOM     13  C   UNL     1     134.416 136.826 132.080  1.00  0.00    -0.026 C 
ATOM     14  C   UNL     1     134.918 137.303 133.472  1.00  0.00     0.012 C 
ATOM     15  C   UNL     1     134.651 138.001 131.090  1.00  0.00     0.012 C 
ENDROOT
TORSDOF 0
ENDMDL
MODEL 3
REMARK VINA RESULT:    -5.291      3.739      6.617
REMARK INTER + INTRA:          -5.291
REMARK INTER:                  -5.291
REMARK INTRA:                   0.000
REMARK UNBOUND:                 0.000
REMARK SMILES C=C1CCCC(C)(C)[C@]12CC=C(C)CC2
REMARK SMILES IDX 13 1 12 2 11 3 10 4 9 5 15 6 14 7 2 8 1 9 3 10 4 11 5 12
REMARK SMILES IDX 6 13 7 14 8 15
REMARK H PARENT
REMARK Flexibility Score: inf
ROOT
ATOM      1  C   UNL     1     141.505 138.034 131.251  1.00  0.00     0.039 C 
ATOM      2  C   UNL     1     140.336 137.126 131.515  1.00  0.00    -0.077 C 
ATOM      3  C   UNL     1     139.116 137.480 131.066  1.00  0.00    -0.027 C 
ATOM      4  C   UNL     1     137.874 136.648 131.301  1.00  0.00     0.039 C 
ATOM      5  C   UNL     1     138.165 135.137 131.608  1.00  0.00    -0.000 C 
ATOM      6  C   UNL     1     139.293 135.135 132.686  1.00  0.00     0.017 C 
ATOM      7  C   UNL     1     140.584 135.787 132.172  1.00  0.00     0.031 C 
ATOM      8  C   UNL     1     138.664 134.358 130.360  1.00  0.00    -0.070 C 
ATOM      9  C   UNL     1     138.899 134.918 129.154  1.00  0.00     0.008 C 
ATOM     10  C   UNL     1     138.890 132.869 130.510  1.00  0.00     0.031 C 
ATOM     11  C   UNL     1     137.612 132.197 130.997  1.00  0.00     0.005 C 
ATOM     12  C   UNL     1     137.089 132.855 132.278  1.00  0.00     0.008 C 
ATOM     13  C   UNL     1     136.847 134.395 132.140  1.00  0.00    -0.026 C 
ATOM     14  C   UNL     1     136.386 134.891 133.539  1.00  0.00     0.012 C 
ATOM     15  C   UNL     1     135.657 134.621 131.167  1.00  0.00     0.012 C 
ENDROOT
TORSDOF 0
ENDMDL
MODEL 4
REMARK VINA RESULT:    -5.238      2.439      4.611
REMARK INTER + INTRA:          -5.238
REMARK INTER:                  -5.238
REMARK INTRA:                   0.000
REMARK UNBOUND:                 0.000
REMARK SMILES C=C1CCCC(C)(C)[C@]12CC=C(C)CC2
REMARK SMILES IDX 13 1 12 2 11 3 10 4 9 5 15 6 14 7 2 8 1 9 3 10 4 11 5 12
REMARK SMILES IDX 6 13 7 14 8 15
REMARK H PARENT
REMARK Flexibility Score: inf
ROOT
ATOM      1  C   UNL     1     135.615 141.495 131.247  1.00  0.00     0.039 C 
ATOM      2  C   UNL     1     136.563 140.354 131.497  1.00  0.00    -0.077 C 
ATOM      3  C   UNL     1     136.242 139.124 131.048  1.00  0.00    -0.027 C 
ATOM      4  C   UNL     1     137.116 137.909 131.269  1.00  0.00     0.039 C 
ATOM      5  C   UNL     1     138.620 138.246 131.559  1.00  0.00    -0.000 C 
ATOM      6  C   UNL     1     138.600 139.371 132.641  1.00  0.00     0.017 C 
ATOM      7  C   UNL     1     137.901 140.642 132.139  1.00  0.00     0.031 C 
ATOM      8  C   UNL     1     139.369 138.773 130.304  1.00  0.00    -0.070 C 
ATOM      9  C   UNL     1     138.787 138.994 129.105  1.00  0.00     0.008 C 
ATOM     10  C   UNL     1     140.851 139.046 130.437  1.00  0.00     0.031 C 
ATOM     11  C   UNL     1     141.569 137.788 130.912  1.00  0.00     0.005 C 
ATOM     12  C   UNL     1     140.943 137.241 132.199  1.00  0.00     0.008 C 
ATOM     13  C   UNL     1     139.410 136.951 132.079  1.00  0.00    -0.026 C 
ATOM     14  C   UNL     1     138.945 136.470 133.481  1.00  0.00     0.012 C 
ATOM     15  C   UNL     1     139.210 135.757 131.104  1.00  0.00     0.012 C 
ENDROOT
TORSDOF 0
ENDMDL
MODEL 5
REMARK VINA RESULT:    -5.154      2.198      3.612
REMARK INTER + INTRA:          -5.154
REMARK INTER:                  -5.154
REMARK INTRA:                   0.000
REMARK UNBOUND:                 0.000
REMARK SMILES C=C1CCCC(C)(C)[C@]12CC=C(C)CC2
REMARK SMILES IDX 13 1 12 2 11 3 10 4 9 5 15 6 14 7 2 8 1 9 3 10 4 11 5 12
REMARK SMILES IDX 6 13 7 14 8 15
REMARK H PARENT
REMARK Flexibility Score: inf
ROOT
ATOM      1  C   UNL     1     133.447 134.407 129.085  1.00  0.00     0.039 C 
ATOM      2  C   UNL     1     133.627 134.946 130.478  1.00  0.00    -0.077 C 
ATOM      3  C   UNL     1     134.528 134.366 131.294  1.00  0.00    -0.027 C 
ATOM      4  C   UNL     1     134.767 134.819 132.718  1.00  0.00     0.039 C 
ATOM      5  C   UNL     1     134.318 136.294 133.004  1.00  0.00    -0.000 C 
ATOM      6  C   UNL     1     132.886 136.425 132.397  1.00  0.00     0.017 C 
ATOM      7  C   UNL     1     132.879 136.197 130.880  1.00  0.00     0.031 C 
ATOM      8  C   UNL     1     135.245 137.343 132.329  1.00  0.00    -0.070 C 
ATOM      9  C   UNL     1     136.283 137.037 131.522  1.00  0.00     0.008 C 
ATOM     10  C   UNL     1     134.967 138.804 132.609  1.00  0.00     0.031 C 
ATOM     11  C   UNL     1     134.993 139.059 134.112  1.00  0.00     0.005 C 
ATOM     12  C   UNL     1     134.040 138.115 134.853  1.00  0.00     0.008 C 
ATOM     13  C   UNL     1     134.315 136.600 134.578  1.00  0.00    -0.026 C 
ATOM     14  C   UNL     1     133.225 135.810 135.354  1.00  0.00     0.012 C 
ATOM     15  C   UNL     1     135.683 136.223 135.214  1.00  0.00     0.012 C 
ENDROOT
TORSDOF 0
ENDMDL
MODEL 6
REMARK VINA RESULT:    -5.141      1.793      3.747
REMARK INTER + INTRA:          -5.141
REMARK INTER:                  -5.141
REMARK INTRA:                   0.000
REMARK UNBOUND:                 0.000
REMARK SMILES C=C1CCCC(C)(C)[C@]12CC=C(C)CC2
REMARK SMILES IDX 13 1 12 2 11 3 10 4 9 5 15 6 14 7 2 8 1 9 3 10 4 11 5 12
REMARK SMILES IDX 6 13 7 14 8 15
REMARK H PARENT
REMARK Flexibility Score: inf
ROOT
ATOM      1  C   UNL     1     134.373 140.377 129.088  1.00  0.00     0.039 C 
ATOM      2  C   UNL     1     134.925 140.154 130.469  1.00  0.00    -0.077 C 
ATOM      3  C   UNL     1     134.354 139.226 131.262  1.00  0.00    -0.027 C 
ATOM      4  C   UNL     1     134.820 138.943 132.673  1.00  0.00     0.039 C 
ATOM      5  C   UNL     1     136.298 139.385 132.960  1.00  0.00    -0.000 C 
ATOM      6  C   UNL     1     136.420 140.836 132.398  1.00  0.00     0.017 C 
ATOM      7  C   UNL     1     136.178 140.891 130.884  1.00  0.00     0.031 C 
ATOM      8  C   UNL     1     137.342 138.483 132.247  1.00  0.00    -0.070 C 
ATOM      9  C   UNL     1     137.030 137.471 131.409  1.00  0.00     0.008 C 
ATOM     10  C   UNL     1     138.805 138.755 132.522  1.00  0.00     0.031 C 
ATOM     11  C   UNL     1     139.073 138.681 134.020  1.00  0.00     0.005 C 
ATOM     12  C   UNL     1     138.135 139.608 134.801  1.00  0.00     0.008 C 
ATOM     13  C   UNL     1     136.618 139.339 134.530  1.00  0.00    -0.026 C 
ATOM     14  C   UNL     1     135.833 140.401 135.348  1.00  0.00     0.012 C 
ATOM     15  C   UNL     1     136.250 137.951 135.126  1.00  0.00     0.012 C 
ENDROOT
TORSDOF 0
ENDMDL
MODEL 7
REMARK VINA RESULT:    -5.119      2.087      4.664
REMARK INTER + INTRA:          -5.119
REMARK INTER:                  -5.119
REMARK INTRA:                   0.000
REMARK UNBOUND:                 0.000
REMARK SMILES C=C1CCCC(C)(C)[C@]12CC=C(C)CC2
REMARK SMILES IDX 13 1 12 2 11 3 10 4 9 5 15 6 14 7 2 8 1 9 3 10 4 11 5 12
REMARK SMILES IDX 6 13 7 14 8 15
REMARK H PARENT
REMARK Flexibility Score: inf
ROOT
ATOM      1  C   UNL     1     134.403 140.097 129.913  1.00  0.00     0.039 C 
ATOM      2  C   UNL     1     134.665 139.008 130.918  1.00  0.00    -0.077 C 
ATOM      3  C   UNL     1     133.878 138.917 132.007  1.00  0.00    -0.027 C 
ATOM      4  C   UNL     1     134.074 137.874 133.085  1.00  0.00     0.039 C 
ATOM      5  C   UNL     1     134.873 136.609 132.614  1.00  0.00    -0.000 C 
ATOM      6  C   UNL     1     136.120 137.156 131.854  1.00  0.00     0.017 C 
ATOM      7  C   UNL     1     135.729 137.976 130.617  1.00  0.00     0.031 C 
ATOM      8  C   UNL     1     134.053 135.709 131.648  1.00  0.00    -0.070 C 
ATOM      9  C   UNL     1     132.816 136.005 131.194  1.00  0.00     0.008 C 
ATOM     10  C   UNL     1     134.685 134.410 131.197  1.00  0.00     0.031 C 
ATOM     11  C   UNL     1     135.060 133.567 132.411  1.00  0.00     0.005 C 
ATOM     12  C   UNL     1     135.942 134.356 133.385  1.00  0.00     0.008 C 
ATOM     13  C   UNL     1     135.302 135.701 133.864  1.00  0.00    -0.026 C 
ATOM     14  C   UNL     1     136.354 136.382 134.783  1.00  0.00     0.012 C 
ATOM     15  C   UNL     1     134.071 135.373 134.754  1.00  0.00     0.012 C 
ENDROOT
TORSDOF 0
ENDMDL
MODEL 8
REMARK VINA RESULT:    -5.102      3.474      4.965
REMARK INTER + INTRA:          -5.102
REMARK INTER:                  -5.102
REMARK INTRA:                   0.000
REMARK UNBOUND:                 0.000
REMARK SMILES C=C1CCCC(C)(C)[C@]12CC=C(C)CC2
REMARK SMILES IDX 13 1 12 2 11 3 10 4 9 5 15 6 14 7 2 8 1 9 3 10 4 11 5 12
REMARK SMILES IDX 6 13 7 14 8 15
REMARK H PARENT
REMARK Flexibility Score: inf
ROOT
ATOM      1  C   UNL     1     133.420 134.377 130.050  1.00  0.00     0.039 C 
ATOM      2  C   UNL     1     134.568 134.679 130.974  1.00  0.00    -0.077 C 
ATOM      3  C   UNL     1     134.708 133.957 132.103  1.00  0.00    -0.027 C 
ATOM      4  C   UNL     1     135.814 134.198 133.106  1.00  0.00     0.039 C 
ATOM      5  C   UNL     1     137.063 134.942 132.517  1.00  0.00    -0.000 C 
ATOM      6  C   UNL     1     136.494 136.151 131.712  1.00  0.00     0.017 C 
ATOM      7  C   UNL     1     135.598 135.701 130.550  1.00  0.00     0.031 C 
ATOM      8  C   UNL     1     137.893 134.047 131.554  1.00  0.00    -0.070 C 
ATOM      9  C   UNL     1     137.551 132.791 131.196  1.00  0.00     0.008 C 
ATOM     10  C   UNL     1     139.174 134.624 130.994  1.00  0.00     0.031 C 
ATOM     11  C   UNL     1     140.091 135.056 132.133  1.00  0.00     0.005 C 
ATOM     12  C   UNL     1     139.373 136.011 133.093  1.00  0.00     0.008 C 
ATOM     13  C   UNL     1     138.047 135.429 133.685  1.00  0.00    -0.026 C 
ATOM     14  C   UNL     1     137.438 136.548 134.574  1.00  0.00     0.012 C 
ATOM     15  C   UNL     1     138.406 134.248 134.630  1.00  0.00     0.012 C 
ENDROOT
TORSDOF 0
ENDMDL
MODEL 9
REMARK VINA RESULT:    -5.079      2.487      4.666
REMARK INTER + INTRA:          -5.079
REMARK INTER:                  -5.079
REMARK INTRA:                   0.000
REMARK UNBOUND:                 0.000
REMARK SMILES C=C1CCCC(C)(C)[C@]12CC=C(C)CC2
REMARK SMILES IDX 13 1 12 2 11 3 10 4 9 5 15 6 14 7 2 8 1 9 3 10 4 11 5 12
REMARK SMILES IDX 6 13 7 14 8 15
REMARK H PARENT
REMARK Flexibility Score: inf
ROOT
ATOM      1  C   UNL     1     137.749 132.130 131.248  1.00  0.00     0.039 C 
ATOM      2  C   UNL     1     136.717 133.213 131.403  1.00  0.00    -0.077 C 
ATOM      3  C   UNL     1     135.962 133.246 132.518  1.00  0.00    -0.027 C 
ATOM      4  C   UNL     1     134.884 134.280 132.758  1.00  0.00     0.039 C 
ATOM      5  C   UNL     1     135.057 135.592 131.915  1.00  0.00    -0.000 C 
ATOM      6  C   UNL     1     135.345 135.122 130.456  1.00  0.00     0.017 C 
ATOM      7  C   UNL     1     136.639 134.303 130.357  1.00  0.00     0.031 C 
ATOM      8  C   UNL     1     136.247 136.465 132.403  1.00  0.00    -0.070 C 
ATOM      9  C   UNL     1     137.095 136.113 133.394  1.00  0.00     0.008 C 
ATOM     10  C   UNL     1     136.457 137.802 131.727  1.00  0.00     0.031 C 
ATOM     11  C   UNL     1     135.190 138.642 131.833  1.00  0.00     0.005 C 
ATOM     12  C   UNL     1     133.971 137.884 131.296  1.00  0.00     0.008 C 
ATOM     13  C   UNL     1     133.737 136.500 131.987  1.00  0.00    -0.026 C 
ATOM     14  C   UNL     1     132.513 135.859 131.276  1.00  0.00     0.012 C 
ATOM     15  C   UNL     1     133.321 136.751 133.463  1.00  0.00     0.012 C 
ENDROOT
TORSDOF 0
ENDMDL
