MODEL 1
REMARK VINA RESULT:    -5.525      0.000      0.000
REMARK INTER + INTRA:          -5.946
REMARK INTER:                  -5.848
REMARK INTRA:                  -0.098
REMARK UNBOUND:                -0.098
REMARK SMILES C=C(C)[C@H]1CC=C(C)C(=O)C1
REMARK SMILES IDX 8 1 7 2 6 3 5 4 4 5 11 6 9 7 10 8 2 9 1 10 3 11
REMARK H PARENT
REMARK Flexibility Score: inf
ROOT
ATOM      1  C   UNL     1     -11.368 -17.022  26.751  1.00  0.00     0.048 C 
ATOM      2  C   UNL     1     -11.816 -16.496  28.086  1.00  0.00    -0.012 C 
ATOM      3  C   UNL     1     -12.891 -15.694  28.164  1.00  0.00    -0.019 C 
ATOM      4  C   UNL     1     -13.371 -15.125  29.473  1.00  0.00     0.036 C 
ATOM      5  C   UNL     1     -13.098 -16.101  30.634  1.00  0.00     0.025 C 
ATOM      6  C   UNL     1     -11.606 -16.480  30.674  1.00  0.00     0.089 C 
ATOM      7  C   UNL     1     -11.146 -16.964  29.326  1.00  0.00     0.158 C 
ATOM      8  O   UNL     1     -10.160 -17.746  29.258  1.00  0.00    -0.295 OA
ENDROOT
BRANCH   5   9
ATOM      9  C   UNL     1     -13.563 -15.527  31.964  1.00  0.00    -0.077 C 
ATOM     10  C   UNL     1     -12.869 -15.778  33.086  1.00  0.00     0.008 C 
ATOM     11  C   UNL     1     -14.799 -14.666  32.061  1.00  0.00     0.039 C 
ENDBRANCH   5   9
TORSDOF 1
ENDMDL
MODEL 2
REMARK VINA RESULT:    -5.481      1.622      4.430
REMARK INTER + INTRA:          -5.899
REMARK INTER:                  -5.802
REMARK INTRA:                  -0.098
REMARK UNBOUND:                -0.098
REMARK SMILES C=C(C)[C@H]1CC=C(C)C(=O)C1
REMARK SMILES IDX 8 1 7 2 6 3 5 4 4 5 11 6 9 7 10 8 2 9 1 10 3 11
REMARK H PARENT
REMARK Flexibility Score: inf
ROOT
ATOM      1  C   UNL     1     -13.028 -16.597  32.742  1.00  0.00     0.048 C 
ATOM      2  C   UNL     1     -13.068 -16.657  31.240  1.00  0.00    -0.012 C 
ATOM      3  C   UNL     1     -13.156 -15.522  30.526  1.00  0.00    -0.019 C 
ATOM      4  C   UNL     1     -13.218 -15.527  29.022  1.00  0.00     0.036 C 
ATOM      5  C   UNL     1     -12.408 -16.699  28.438  1.00  0.00     0.025 C 
ATOM      6  C   UNL     1     -12.882 -18.032  29.045  1.00  0.00     0.089 C 
ATOM      7  C   UNL     1     -12.885 -17.958  30.548  1.00  0.00     0.158 C 
ATOM      8  O   UNL     1     -12.766 -19.020  31.215  1.00  0.00    -0.295 OA
ENDROOT
BRANCH   5   9
ATOM      9  C   UNL     1     -12.480 -16.723  26.918  1.00  0.00    -0.077 C 
ATOM     10  C   UNL     1     -13.591 -16.309  26.289  1.00  0.00     0.008 C 
ATOM     11  C   UNL     1     -11.318 -17.204  26.083  1.00  0.00     0.039 C 
ENDBRANCH   5   9
TORSDOF 1
ENDMDL
MODEL 3
REMARK VINA RESULT:    -5.456      2.882      4.564
REMARK INTER + INTRA:          -5.873
REMARK INTER:                  -5.784
REMARK INTRA:                  -0.089
REMARK UNBOUND:                -0.098
REMARK SMILES C=C(C)[C@H]1CC=C(C)C(=O)C1
REMARK SMILES IDX 8 1 7 2 6 3 5 4 4 5 11 6 9 7 10 8 2 9 1 10 3 11
REMARK H PARENT
REMARK Flexibility Score: inf
ROOT
ATOM      1  C   UNL     1     -12.459 -20.047  31.884  1.00  0.00     0.048 C 
ATOM      2  C   UNL     1     -12.395 -19.379  30.539  1.00  0.00    -0.012 C 
ATOM      3  C   UNL     1     -13.410 -19.521  29.671  1.00  0.00    -0.019 C 
ATOM      4  C   UNL     1     -13.389 -18.889  28.305  1.00  0.00     0.036 C 
ATOM      5  C   UNL     1     -12.623 -17.552  28.325  1.00  0.00     0.025 C 
ATOM      6  C   UNL     1     -11.208 -17.755  28.897  1.00  0.00     0.089 C 
ATOM      7  C   UNL     1     -11.269 -18.464  30.223  1.00  0.00     0.158 C 
ATOM      8  O   UNL     1     -10.333 -18.300  31.050  1.00  0.00    -0.295 OA
ENDROOT
BRANCH   5   9
ATOM      9  C   UNL     1     -12.580 -16.914  26.944  1.00  0.00    -0.077 C 
ATOM     10  C   UNL     1     -13.615 -16.179  26.509  1.00  0.00     0.008 C 
ATOM     11  C   UNL     1     -11.385 -17.082  26.037  1.00  0.00     0.039 C 
ENDBRANCH   5   9
TORSDOF 1
ENDMDL
MODEL 4
REMARK VINA RESULT:    -5.423      1.580      2.042
REMARK INTER + INTRA:          -5.838
REMARK INTER:                  -5.745
REMARK INTRA:                  -0.093
REMARK UNBOUND:                -0.098
REMARK SMILES C=C(C)[C@H]1CC=C(C)C(=O)C1
REMARK SMILES IDX 8 1 7 2 6 3 5 4 4 5 11 6 9 7 10 8 2 9 1 10 3 11
REMARK H PARENT
REMARK Flexibility Score: inf
ROOT
ATOM      1  C   UNL     1     -11.385 -17.349  26.681  1.00  0.00     0.048 C 
ATOM      2  C   UNL     1     -11.607 -17.167  28.157  1.00  0.00    -0.012 C 
ATOM      3  C   UNL     1     -10.994 -16.164  28.808  1.00  0.00    -0.019 C 
ATOM      4  C   UNL     1     -11.166 -15.949  30.287  1.00  0.00     0.036 C 
ATOM      5  C   UNL     1     -12.575 -16.368  30.748  1.00  0.00     0.025 C 
ATOM      6  C   UNL     1     -12.862 -17.823  30.333  1.00  0.00     0.089 C 
ATOM      7  C   UNL     1     -12.597 -18.017  28.864  1.00  0.00     0.158 C 
ATOM      8  O   UNL     1     -13.202 -18.935  28.248  1.00  0.00    -0.295 OA
ENDROOT
BRANCH   5   9
ATOM      9  C   UNL     1     -12.754 -16.171  32.246  1.00  0.00    -0.077 C 
ATOM     10  C   UNL     1     -13.980 -16.214  32.791  1.00  0.00     0.008 C 
ATOM     11  C   UNL     1     -11.572 -15.930  33.154  1.00  0.00     0.039 C 
ENDBRANCH   5   9
TORSDOF 1
ENDMDL
MODEL 5
REMARK VINA RESULT:    -5.413      2.159      4.483
REMARK INTER + INTRA:          -5.828
REMARK INTER:                  -5.730
REMARK INTRA:                  -0.098
REMARK UNBOUND:                -0.098
REMARK SMILES C=C(C)[C@H]1CC=C(C)C(=O)C1
REMARK SMILES IDX 8 1 7 2 6 3 5 4 4 5 11 6 9 7 10 8 2 9 1 10 3 11
REMARK H PARENT
REMARK Flexibility Score: inf
ROOT
ATOM      1  C   UNL     1     -10.777 -16.510  32.801  1.00  0.00     0.048 C 
ATOM      2  C   UNL     1     -11.221 -16.471  31.365  1.00  0.00    -0.012 C 
ATOM      3  C   UNL     1     -10.493 -15.801  30.456  1.00  0.00    -0.019 C 
ATOM      4  C   UNL     1     -10.902 -15.715  29.010  1.00  0.00     0.036 C 
ATOM      5  C   UNL     1     -11.632 -16.996  28.564  1.00  0.00     0.025 C 
ATOM      6  C   UNL     1     -12.827 -17.281  29.492  1.00  0.00     0.089 C 
ATOM      7  C   UNL     1     -12.391 -17.276  30.933  1.00  0.00     0.158 C 
ATOM      8  O   UNL     1     -13.054 -17.935  31.777  1.00  0.00    -0.295 OA
ENDROOT
BRANCH   5   9
ATOM      9  C   UNL     1     -12.066 -16.912  27.108  1.00  0.00    -0.077 C 
ATOM     10  C   UNL     1     -13.291 -16.461  26.795  1.00  0.00     0.008 C 
ATOM     11  C   UNL     1     -11.143 -17.322  25.986  1.00  0.00     0.039 C 
ENDBRANCH   5   9
TORSDOF 1
ENDMDL
MODEL 6
REMARK VINA RESULT:    -5.305      2.574      4.206
REMARK INTER + INTRA:          -5.714
REMARK INTER:                  -5.616
REMARK INTRA:                  -0.098
REMARK UNBOUND:                -0.098
REMARK SMILES C=C(C)[C@H]1CC=C(C)C(=O)C1
REMARK SMILES IDX 8 1 7 2 6 3 5 4 4 5 11 6 9 7 10 8 2 9 1 10 3 11
REMARK H PARENT
REMARK Flexibility Score: inf
ROOT
ATOM      1  C   UNL     1     -12.497 -20.373  31.717  1.00  0.00     0.048 C 
ATOM      2  C   UNL     1     -12.821 -19.252  30.769  1.00  0.00    -0.012 C 
ATOM      3  C   UNL     1     -12.696 -17.976  31.172  1.00  0.00    -0.019 C 
ATOM      4  C   UNL     1     -13.025 -16.817  30.270  1.00  0.00     0.036 C 
ATOM      5  C   UNL     1     -12.714 -17.154  28.799  1.00  0.00     0.025 C 
ATOM      6  C   UNL     1     -13.444 -18.444  28.381  1.00  0.00     0.089 C 
ATOM      7  C   UNL     1     -13.156 -19.555  29.355  1.00  0.00     0.158 C 
ATOM      8  O   UNL     1     -13.238 -20.750  28.964  1.00  0.00    -0.295 OA
ENDROOT
BRANCH   5   9
ATOM      9  C   UNL     1     -13.061 -15.995  27.877  1.00  0.00    -0.077 C 
ATOM     10  C   UNL     1     -13.156 -14.749  28.367  1.00  0.00     0.008 C 
ATOM     11  C   UNL     1     -13.301 -16.207  26.402  1.00  0.00     0.039 C 
ENDBRANCH   5   9
TORSDOF 1
ENDMDL
MODEL 7
REMARK VINA RESULT:    -5.296      2.451      2.993
REMARK INTER + INTRA:          -5.704
REMARK INTER:                  -5.616
REMARK INTRA:                  -0.087
REMARK UNBOUND:                -0.098
REMARK SMILES C=C(C)[C@H]1CC=C(C)C(=O)C1
REMARK SMILES IDX 8 1 7 2 6 3 5 4 4 5 11 6 9 7 10 8 2 9 1 10 3 11
REMARK H PARENT
REMARK Flexibility Score: inf
ROOT
ATOM      1  C   UNL     1     -13.296 -20.371  28.617  1.00  0.00     0.048 C 
ATOM      2  C   UNL     1     -13.185 -19.271  29.635  1.00  0.00    -0.012 C 
ATOM      3  C   UNL     1     -13.244 -19.562  30.946  1.00  0.00    -0.019 C 
ATOM      4  C   UNL     1     -13.156 -18.497  32.006  1.00  0.00     0.036 C 
ATOM      5  C   UNL     1     -12.249 -17.337  31.553  1.00  0.00     0.025 C 
ATOM      6  C   UNL     1     -12.731 -16.777  30.202  1.00  0.00     0.089 C 
ATOM      7  C   UNL     1     -12.885 -17.885  29.195  1.00  0.00     0.158 C 
ATOM      8  O   UNL     1     -12.792 -17.615  27.967  1.00  0.00    -0.295 OA
ENDROOT
BRANCH   5   9
ATOM      9  C   UNL     1     -12.169 -16.246  32.611  1.00  0.00    -0.077 C 
ATOM     10  C   UNL     1     -10.979 -15.881  33.114  1.00  0.00     0.008 C 
ATOM     11  C   UNL     1     -13.408 -15.548  33.116  1.00  0.00     0.039 C 
ENDBRANCH   5   9
TORSDOF 1
ENDMDL
MODEL 8
REMARK VINA RESULT:    -5.255      2.590      2.795
REMARK INTER + INTRA:          -5.660
REMARK INTER:                  -5.563
REMARK INTRA:                  -0.097
REMARK UNBOUND:                -0.098
REMARK SMILES C=C(C)[C@H]1CC=C(C)C(=O)C1
REMARK SMILES IDX 8 1 7 2 6 3 5 4 4 5 11 6 9 7 10 8 2 9 1 10 3 11
REMARK H PARENT
REMARK Flexibility Score: inf
ROOT
ATOM      1  C   UNL     1     -13.257 -20.354  28.629  1.00  0.00     0.048 C 
ATOM      2  C   UNL     1     -12.959 -19.266  29.622  1.00  0.00    -0.012 C 
ATOM      3  C   UNL     1     -13.113 -17.978  29.271  1.00  0.00    -0.019 C 
ATOM      4  C   UNL     1     -12.811 -16.849  30.220  1.00  0.00     0.036 C 
ATOM      5  C   UNL     1     -13.113 -17.254  31.676  1.00  0.00     0.025 C 
ATOM      6  C   UNL     1     -12.353 -18.542  32.042  1.00  0.00     0.089 C 
ATOM      7  C   UNL     1     -12.616 -19.618  31.023  1.00  0.00     0.158 C 
ATOM      8  O   UNL     1     -12.506 -20.826  31.365  1.00  0.00    -0.295 OA
ENDROOT
BRANCH   5   9
ATOM      9  C   UNL     1     -12.793 -16.125  32.646  1.00  0.00    -0.077 C 
ATOM     10  C   UNL     1     -11.542 -15.967  33.107  1.00  0.00     0.008 C 
ATOM     11  C   UNL     1     -13.857 -15.159  33.107  1.00  0.00     0.039 C 
ENDBRANCH   5   9
TORSDOF 1
ENDMDL
MODEL 9
REMARK VINA RESULT:    -5.134      2.867      3.319
REMARK INTER + INTRA:          -5.532
REMARK INTER:                  -5.437
REMARK INTRA:                  -0.095
REMARK UNBOUND:                -0.098
REMARK SMILES C=C(C)[C@H]1CC=C(C)C(=O)C1
REMARK SMILES IDX 8 1 7 2 6 3 5 4 4 5 11 6 9 7 10 8 2 9 1 10 3 11
REMARK H PARENT
REMARK Flexibility Score: inf
ROOT
ATOM      1  C   UNL     1     -10.079 -18.825  30.880  1.00  0.00     0.048 C 
ATOM      2  C   UNL     1     -11.077 -17.958  31.596  1.00  0.00    -0.012 C 
ATOM      3  C   UNL     1     -10.688 -16.785  32.124  1.00  0.00    -0.019 C 
ATOM      4  C   UNL     1     -11.642 -15.888  32.867  1.00  0.00     0.036 C 
ATOM      5  C   UNL     1     -13.067 -15.996  32.291  1.00  0.00     0.025 C 
ATOM      6  C   UNL     1     -13.531 -17.464  32.287  1.00  0.00     0.089 C 
ATOM      7  C   UNL     1     -12.512 -18.340  31.609  1.00  0.00     0.158 C 
ATOM      8  O   UNL     1     -12.885 -19.421  31.082  1.00  0.00    -0.295 OA
ENDROOT
BRANCH   5   9
ATOM      9  C   UNL     1     -14.042 -15.106  33.048  1.00  0.00    -0.077 C 
ATOM     10  C   UNL     1     -15.308 -14.976  32.619  1.00  0.00     0.008 C 
ATOM     11  C   UNL     1     -13.623 -14.357  34.290  1.00  0.00     0.039 C 
ENDBRANCH   5   9
TORSDOF 1
ENDMDL
