MODEL 1
REMARK VINA RESULT:    -4.970      0.000      0.000
REMARK INTER + INTRA:          -5.499
REMARK INTER:                  -5.405
REMARK INTRA:                  -0.094
REMARK UNBOUND:                -0.094
REMARK SMILES C=C(C)[C@H]1CC=C(C)[C@H](O)C1
REMARK SMILES IDX 8 1 7 2 6 3 5 4 4 5 11 6 9 7 10 8 2 10 1 11 3 12
REMARK H PARENT 10 9
REMARK Flexibility Score: inf
ROOT
ATOM      1  C   UNL     1      -1.933  16.875  46.665  1.00  0.00     0.042 C 
ATOM      2  C   UNL     1      -2.563  18.179  47.071  1.00  0.00    -0.049 C 
ATOM      3  C   UNL     1      -3.170  18.263  48.275  1.00  0.00    -0.025 C 
ATOM      4  C   UNL     1      -3.890  19.500  48.753  1.00  0.00     0.035 C 
ATOM      5  C   UNL     1      -3.412  20.769  48.024  1.00  0.00     0.021 C 
ATOM      6  C   UNL     1      -3.381  20.520  46.509  1.00  0.00     0.044 C 
ATOM      7  C   UNL     1      -2.392  19.389  46.168  1.00  0.00     0.140 C 
ENDROOT
BRANCH   7   8
ATOM      8  O   UNL     1      -1.072  19.851  46.286  1.00  0.00    -0.389 OA
ATOM      9  H   UNL     1      -1.082  20.588  46.951  1.00  0.00     0.211 HD
ENDBRANCH   7   8
BRANCH   5  10
ATOM     10  C   UNL     1      -4.281  21.969  48.376  1.00  0.00    -0.077 C 
ATOM     11  C   UNL     1      -5.423  22.193  47.707  1.00  0.00     0.008 C 
ATOM     12  C   UNL     1      -3.883  22.936  49.465  1.00  0.00     0.039 C 
ENDBRANCH   5  10
TORSDOF 2
ENDMDL
MODEL 2
REMARK VINA RESULT:    -4.942      1.584      4.619
REMARK INTER + INTRA:          -5.469
REMARK INTER:                  -5.376
REMARK INTRA:                  -0.094
REMARK UNBOUND:                -0.094
REMARK SMILES C=C(C)[C@H]1CC=C(C)[C@H](O)C1
REMARK SMILES IDX 8 1 7 2 6 3 5 4 4 5 11 6 9 7 10 8 2 10 1 11 3 12
REMARK H PARENT 10 9
REMARK Flexibility Score: inf
ROOT
ATOM      1  C   UNL     1      -4.186  21.988  48.833  1.00  0.00     0.042 C 
ATOM      2  C   UNL     1      -3.779  20.807  47.994  1.00  0.00    -0.049 C 
ATOM      3  C   UNL     1      -3.147  21.028  46.821  1.00  0.00    -0.025 C 
ATOM      4  C   UNL     1      -2.755  19.921  45.873  1.00  0.00     0.035 C 
ATOM      5  C   UNL     1      -2.640  18.561  46.583  1.00  0.00     0.021 C 
ATOM      6  C   UNL     1      -3.878  18.324  47.460  1.00  0.00     0.044 C 
ATOM      7  C   UNL     1      -3.983  19.408  48.549  1.00  0.00     0.140 C 
ENDROOT
BRANCH   7   8
ATOM      8  O   UNL     1      -3.027  19.181  49.551  1.00  0.00    -0.389 OA
ATOM      9  H   UNL     1      -3.198  18.271  49.912  1.00  0.00     0.211 HD
ENDBRANCH   7   8
BRANCH   5  10
ATOM     10  C   UNL     1      -2.437  17.430  45.583  1.00  0.00    -0.077 C 
ATOM     11  C   UNL     1      -3.496  16.875  44.972  1.00  0.00     0.008 C 
ATOM     12  C   UNL     1      -1.061  16.900  45.263  1.00  0.00     0.039 C 
ENDBRANCH   5  10
TORSDOF 2
ENDMDL
MODEL 3
REMARK VINA RESULT:    -4.940      1.414      2.037
REMARK INTER + INTRA:          -5.467
REMARK INTER:                  -5.381
REMARK INTRA:                  -0.086
REMARK UNBOUND:                -0.094
REMARK SMILES C=C(C)[C@H]1CC=C(C)[C@H](O)C1
REMARK SMILES IDX 8 1 7 2 6 3 5 4 4 5 11 6 9 7 10 8 2 10 1 11 3 12
REMARK H PARENT 10 9
REMARK Flexibility Score: inf
ROOT
ATOM      1  C   UNL     1      -1.667  17.219  46.823  1.00  0.00     0.042 C 
ATOM      2  C   UNL     1      -2.375  18.478  47.242  1.00  0.00    -0.049 C 
ATOM      3  C   UNL     1      -2.737  19.368  46.293  1.00  0.00    -0.025 C 
ATOM      4  C   UNL     1      -3.392  20.691  46.608  1.00  0.00     0.035 C 
ATOM      5  C   UNL     1      -4.081  20.686  47.984  1.00  0.00     0.021 C 
ATOM      6  C   UNL     1      -3.130  20.107  49.042  1.00  0.00     0.044 C 
ATOM      7  C   UNL     1      -2.764  18.651  48.700  1.00  0.00     0.140 C 
ENDROOT
BRANCH   7   8
ATOM      8  O   UNL     1      -3.850  17.804  48.975  1.00  0.00    -0.389 OA
ATOM      9  H   UNL     1      -3.707  17.440  49.889  1.00  0.00     0.211 HD
ENDBRANCH   7   8
BRANCH   5  10
ATOM     10  C   UNL     1      -4.562  22.079  48.367  1.00  0.00    -0.077 C 
ATOM     11  C   UNL     1      -5.666  22.589  47.797  1.00  0.00     0.008 C 
ATOM     12  C   UNL     1      -3.819  22.919  49.376  1.00  0.00     0.039 C 
ENDBRANCH   5  10
TORSDOF 2
ENDMDL
MODEL 4
REMARK VINA RESULT:    -4.897      3.937      5.553
REMARK INTER + INTRA:          -5.420
REMARK INTER:                  -5.323
REMARK INTRA:                  -0.096
REMARK UNBOUND:                -0.094
REMARK SMILES C=C(C)[C@H]1CC=C(C)[C@H](O)C1
REMARK SMILES IDX 8 1 7 2 6 3 5 4 4 5 11 6 9 7 10 8 2 10 1 11 3 12
REMARK H PARENT 10 9
REMARK Flexibility Score: inf
ROOT
ATOM      1  C   UNL     1      -5.364  22.745  47.478  1.00  0.00     0.042 C 
ATOM      2  C   UNL     1      -4.812  23.341  48.745  1.00  0.00    -0.049 C 
ATOM      3  C   UNL     1      -5.627  24.079  49.528  1.00  0.00    -0.025 C 
ATOM      4  C   UNL     1      -5.160  24.776  50.782  1.00  0.00     0.035 C 
ATOM      5  C   UNL     1      -3.882  24.142  51.358  1.00  0.00     0.021 C 
ATOM      6  C   UNL     1      -2.847  23.946  50.240  1.00  0.00     0.044 C 
ATOM      7  C   UNL     1      -3.392  22.993  49.160  1.00  0.00     0.140 C 
ENDROOT
BRANCH   7   8
ATOM      8  O   UNL     1      -3.376  21.671  49.631  1.00  0.00    -0.389 OA
ATOM      9  H   UNL     1      -3.938  21.136  49.009  1.00  0.00     0.211 HD
ENDBRANCH   7   8
BRANCH   5  10
ATOM     10  C   UNL     1      -3.318  24.972  52.503  1.00  0.00    -0.077 C 
ATOM     11  C   UNL     1      -4.015  26.014  52.984  1.00  0.00     0.008 C 
ATOM     12  C   UNL     1      -1.974  24.660  53.114  1.00  0.00     0.039 C 
ENDBRANCH   5  10
TORSDOF 2
ENDMDL
MODEL 5
REMARK VINA RESULT:    -4.860      1.526      4.261
REMARK INTER + INTRA:          -5.380
REMARK INTER:                  -5.295
REMARK INTRA:                  -0.085
REMARK UNBOUND:                -0.094
REMARK SMILES C=C(C)[C@H]1CC=C(C)[C@H](O)C1
REMARK SMILES IDX 8 1 7 2 6 3 5 4 4 5 11 6 9 7 10 8 2 10 1 11 3 12
REMARK H PARENT 10 9
REMARK Flexibility Score: inf
ROOT
ATOM      1  C   UNL     1      -3.780  22.238  49.278  1.00  0.00     0.042 C 
ATOM      2  C   UNL     1      -3.427  21.085  48.380  1.00  0.00    -0.049 C 
ATOM      3  C   UNL     1      -3.512  19.828  48.868  1.00  0.00    -0.025 C 
ATOM      4  C   UNL     1      -3.118  18.606  48.075  1.00  0.00     0.035 C 
ATOM      5  C   UNL     1      -3.147  18.862  46.558  1.00  0.00     0.021 C 
ATOM      6  C   UNL     1      -2.410  20.171  46.236  1.00  0.00     0.044 C 
ATOM      7  C   UNL     1      -3.103  21.363  46.922  1.00  0.00     0.140 C 
ENDROOT
BRANCH   7   8
ATOM      8  O   UNL     1      -4.295  21.678  46.251  1.00  0.00    -0.389 OA
ATOM      9  H   UNL     1      -4.472  20.937  45.613  1.00  0.00     0.211 HD
ENDBRANCH   7   8
BRANCH   5  10
ATOM     10  C   UNL     1      -2.562  17.686  45.787  1.00  0.00    -0.077 C 
ATOM     11  C   UNL     1      -3.368  16.880  45.077  1.00  0.00     0.008 C 
ATOM     12  C   UNL     1      -1.082  17.390  45.806  1.00  0.00     0.039 C 
ENDBRANCH   5  10
TORSDOF 2
ENDMDL
MODEL 6
REMARK VINA RESULT:    -4.834      4.533      6.919
REMARK INTER + INTRA:          -5.351
REMARK INTER:                  -5.255
REMARK INTRA:                  -0.096
REMARK UNBOUND:                -0.094
REMARK SMILES C=C(C)[C@H]1CC=C(C)[C@H](O)C1
REMARK SMILES IDX 8 1 7 2 6 3 5 4 4 5 11 6 9 7 10 8 2 10 1 11 3 12
REMARK H PARENT 10 9
REMARK Flexibility Score: inf
ROOT
ATOM      1  C   UNL     1      -4.248  26.367  52.968  1.00  0.00     0.042 C 
ATOM      2  C   UNL     1      -4.474  25.686  51.645  1.00  0.00    -0.049 C 
ATOM      3  C   UNL     1      -4.160  24.378  51.523  1.00  0.00    -0.025 C 
ATOM      4  C   UNL     1      -4.285  23.616  50.227  1.00  0.00     0.035 C 
ATOM      5  C   UNL     1      -5.278  24.278  49.256  1.00  0.00     0.021 C 
ATOM      6  C   UNL     1      -4.986  25.783  49.157  1.00  0.00     0.044 C 
ATOM      7  C   UNL     1      -5.159  26.458  50.530  1.00  0.00     0.140 C 
ENDROOT
BRANCH   7   8
ATOM      8  O   UNL     1      -6.523  26.576  50.841  1.00  0.00    -0.389 OA
ATOM      9  H   UNL     1      -6.738  27.546  50.835  1.00  0.00     0.211 HD
ENDBRANCH   7   8
BRANCH   5  10
ATOM     10  C   UNL     1      -5.243  23.610  47.888  1.00  0.00    -0.077 C 
ATOM     11  C   UNL     1      -5.089  24.353  46.780  1.00  0.00     0.008 C 
ATOM     12  C   UNL     1      -5.391  22.116  47.738  1.00  0.00     0.039 C 
ENDBRANCH   5  10
TORSDOF 2
ENDMDL
MODEL 7
REMARK VINA RESULT:    -4.805      2.332      3.700
REMARK INTER + INTRA:          -5.320
REMARK INTER:                  -5.223
REMARK INTRA:                  -0.097
REMARK UNBOUND:                -0.094
REMARK SMILES C=C(C)[C@H]1CC=C(C)[C@H](O)C1
REMARK SMILES IDX 8 1 7 2 6 3 5 4 4 5 11 6 9 7 10 8 2 10 1 11 3 12
REMARK H PARENT 10 9
REMARK Flexibility Score: inf
ROOT
ATOM      1  C   UNL     1      -3.267  20.680  46.298  1.00  0.00     0.042 C 
ATOM      2  C   UNL     1      -3.733  21.639  47.359  1.00  0.00    -0.049 C 
ATOM      3  C   UNL     1      -4.979  22.152  47.272  1.00  0.00    -0.025 C 
ATOM      4  C   UNL     1      -5.522  23.171  48.244  1.00  0.00     0.035 C 
ATOM      5  C   UNL     1      -4.774  23.150  49.588  1.00  0.00     0.021 C 
ATOM      6  C   UNL     1      -3.258  23.157  49.342  1.00  0.00     0.044 C 
ATOM      7  C   UNL     1      -2.833  21.905  48.554  1.00  0.00     0.140 C 
ENDROOT
BRANCH   7   8
ATOM      8  O   UNL     1      -2.856  20.777  49.390  1.00  0.00    -0.389 OA
ATOM      9  H   UNL     1      -2.473  20.023  48.869  1.00  0.00     0.211 HD
ENDBRANCH   7   8
BRANCH   5  10
ATOM     10  C   UNL     1      -5.202  24.308  50.479  1.00  0.00    -0.077 C 
ATOM     11  C   UNL     1      -6.221  25.101  50.108  1.00  0.00     0.008 C 
ATOM     12  C   UNL     1      -4.498  24.602  51.781  1.00  0.00     0.039 C 
ENDBRANCH   5  10
TORSDOF 2
ENDMDL
MODEL 8
REMARK VINA RESULT:    -4.772      2.187      3.527
REMARK INTER + INTRA:          -5.284
REMARK INTER:                  -5.196
REMARK INTRA:                  -0.088
REMARK UNBOUND:                -0.094
REMARK SMILES C=C(C)[C@H]1CC=C(C)[C@H](O)C1
REMARK SMILES IDX 8 1 7 2 6 3 5 4 4 5 11 6 9 7 10 8 2 10 1 11 3 12
REMARK H PARENT 10 9
REMARK Flexibility Score: inf
ROOT
ATOM      1  C   UNL     1      -3.095  19.682  48.645  1.00  0.00     0.042 C 
ATOM      2  C   UNL     1      -3.808  21.006  48.594  1.00  0.00    -0.049 C 
ATOM      3  C   UNL     1      -3.440  21.978  49.456  1.00  0.00    -0.025 C 
ATOM      4  C   UNL     1      -4.132  23.317  49.535  1.00  0.00     0.035 C 
ATOM      5  C   UNL     1      -4.881  23.662  48.236  1.00  0.00     0.021 C 
ATOM      6  C   UNL     1      -5.729  22.463  47.789  1.00  0.00     0.044 C 
ATOM      7  C   UNL     1      -4.832  21.246  47.498  1.00  0.00     0.140 C 
ENDROOT
BRANCH   7   8
ATOM      8  O   UNL     1      -4.152  21.427  46.283  1.00  0.00    -0.389 OA
ATOM      9  H   UNL     1      -4.023  22.406  46.168  1.00  0.00     0.211 HD
ENDBRANCH   7   8
BRANCH   5  10
ATOM     10  C   UNL     1      -5.729  24.916  48.403  1.00  0.00    -0.077 C 
ATOM     11  C   UNL     1      -5.700  25.877  47.465  1.00  0.00     0.008 C 
ATOM     12  C   UNL     1      -6.606  25.118  49.614  1.00  0.00     0.039 C 
ENDBRANCH   5  10
TORSDOF 2
ENDMDL
MODEL 9
REMARK VINA RESULT:    -4.724      4.096      5.903
REMARK INTER + INTRA:          -5.232
REMARK INTER:                  -5.135
REMARK INTRA:                  -0.097
REMARK UNBOUND:                -0.094
REMARK SMILES C=C(C)[C@H]1CC=C(C)[C@H](O)C1
REMARK SMILES IDX 8 1 7 2 6 3 5 4 4 5 11 6 9 7 10 8 2 10 1 11 3 12
REMARK H PARENT 10 9
REMARK Flexibility Score: inf
ROOT
ATOM      1  C   UNL     1      -5.469  22.081  47.618  1.00  0.00     0.042 C 
ATOM      2  C   UNL     1      -5.191  23.097  48.693  1.00  0.00    -0.049 C 
ATOM      3  C   UNL     1      -4.045  23.000  49.401  1.00  0.00    -0.025 C 
ATOM      4  C   UNL     1      -3.699  23.925  50.542  1.00  0.00     0.035 C 
ATOM      5  C   UNL     1      -4.463  25.258  50.463  1.00  0.00     0.021 C 
ATOM      6  C   UNL     1      -5.953  24.992  50.206  1.00  0.00     0.044 C 
ATOM      7  C   UNL     1      -6.148  24.264  48.863  1.00  0.00     0.140 C 
ENDROOT
BRANCH   7   8
ATOM      8  O   UNL     1      -5.957  25.158  47.798  1.00  0.00    -0.389 OA
ATOM      9  H   UNL     1      -6.655  24.954  47.120  1.00  0.00     0.211 HD
ENDBRANCH   7   8
BRANCH   5  10
ATOM     10  C   UNL     1      -4.251  26.093  51.718  1.00  0.00    -0.077 C 
ATOM     11  C   UNL     1      -4.018  25.491  52.895  1.00  0.00     0.008 C 
ATOM     12  C   UNL     1      -4.307  27.601  51.679  1.00  0.00     0.039 C 
ENDBRANCH   5  10
TORSDOF 2
ENDMDL
