MODEL 1
REMARK VINA RESULT:    -2.743      0.000      0.000
REMARK INTER + INTRA:          -3.942
REMARK INTER:                  -3.625
REMARK INTRA:                  -0.318
REMARK UNBOUND:                -0.318
REMARK SMILES CCCCCCCO
REMARK SMILES IDX 5 1 4 2 3 3 2 4 1 5 6 6 7 7 8 8
REMARK H PARENT 8 9
REMARK Flexibility Score: inf
ROOT
ATOM      1  C   UNL     1     139.079 145.649 144.670  1.00  0.00     0.002 C 
ENDROOT
BRANCH   1   2
ATOM      2  C   UNL     1     139.585 147.092 144.780  1.00  0.00     0.000 C 
BRANCH   2   3
ATOM      3  C   UNL     1     138.951 147.807 145.980  1.00  0.00    -0.000 C 
BRANCH   3   4
ATOM      4  C   UNL     1     137.889 148.814 145.522  1.00  0.00    -0.003 C 
ATOM      5  C   UNL     1     138.177 149.315 144.110  1.00  0.00     0.004 C 
ENDBRANCH   3   4
ENDBRANCH   2   3
ENDBRANCH   1   2
BRANCH   1   6
ATOM      6  C   UNL     1     138.265 145.448 143.387  1.00  0.00     0.028 C 
BRANCH   6   7
ATOM      7  C   UNL     1     136.764 145.587 143.658  1.00  0.00     0.156 C 
BRANCH   7   8
ATOM      8  O   UNL     1     136.030 145.207 142.527  1.00  0.00    -0.396 OA
ATOM      9  H   UNL     1     135.267 145.840 142.457  1.00  0.00     0.210 HD
ENDBRANCH   7   8
ENDBRANCH   6   7
ENDBRANCH   1   6
TORSDOF 6
ENDMDL
MODEL 2
REMARK VINA RESULT:    -2.728      8.653      9.797
REMARK INTER + INTRA:          -3.922
REMARK INTER:                  -3.613
REMARK INTRA:                  -0.309
REMARK UNBOUND:                -0.318
REMARK SMILES CCCCCCCO
REMARK SMILES IDX 5 1 4 2 3 3 2 4 1 5 6 6 7 7 8 8
REMARK H PARENT 8 9
REMARK Flexibility Score: inf
ROOT
ATOM      1  C   UNL     1     135.890 139.102 144.736  1.00  0.00     0.002 C 
ENDROOT
BRANCH   1   2
ATOM      2  C   UNL     1     134.432 139.559 144.858  1.00  0.00     0.000 C 
BRANCH   2   3
ATOM      3  C   UNL     1     133.721 138.829 146.003  1.00  0.00    -0.000 C 
BRANCH   3   4
ATOM      4  C   UNL     1     132.724 137.796 145.464  1.00  0.00    -0.003 C 
ATOM      5  C   UNL     1     132.253 138.166 144.060  1.00  0.00     0.004 C 
ENDBRANCH   3   4
ENDBRANCH   2   3
ENDBRANCH   1   2
BRANCH   1   6
ATOM      6  C   UNL     1     136.112 138.311 143.441  1.00  0.00     0.028 C 
BRANCH   6   7
ATOM      7  C   UNL     1     136.146 136.805 143.714  1.00  0.00     0.156 C 
BRANCH   7   8
ATOM      8  O   UNL     1     136.264 136.097 142.511  1.00  0.00    -0.396 OA
ATOM      9  H   UNL     1     137.143 135.634 142.539  1.00  0.00     0.210 HD
ENDBRANCH   7   8
ENDBRANCH   6   7
ENDBRANCH   1   6
TORSDOF 6
ENDMDL
MODEL 3
REMARK VINA RESULT:    -2.725      8.805      9.913
REMARK INTER + INTRA:          -3.919
REMARK INTER:                  -3.737
REMARK INTRA:                  -0.181
REMARK UNBOUND:                -0.318
REMARK SMILES CCCCCCCO
REMARK SMILES IDX 5 1 4 2 3 3 2 4 1 5 6 6 7 7 8 8
REMARK H PARENT 8 9
REMARK Flexibility Score: inf
ROOT
ATOM      1  C   UNL     1     145.863 142.629 144.708  1.00  0.00     0.002 C 
ENDROOT
BRANCH   1   2
ATOM      2  C   UNL     1     147.292 142.080 144.610  1.00  0.00     0.000 C 
BRANCH   2   3
ATOM      3  C   UNL     1     148.292 143.029 145.280  1.00  0.00    -0.000 C 
BRANCH   3   4
ATOM      4  C   UNL     1     149.323 143.545 144.269  1.00  0.00    -0.003 C 
ATOM      5  C   UNL     1     149.981 144.831 144.761  1.00  0.00     0.004 C 
ENDBRANCH   3   4
ENDBRANCH   2   3
ENDBRANCH   1   2
BRANCH   1   6
ATOM      6  C   UNL     1     145.479 143.391 143.435  1.00  0.00     0.028 C 
BRANCH   6   7
ATOM      7  C   UNL     1     145.415 144.900 143.692  1.00  0.00     0.156 C 
BRANCH   7   8
ATOM      8  O   UNL     1     145.208 145.588 142.490  1.00  0.00    -0.396 OA
ATOM      9  H   UNL     1     145.718 145.100 141.791  1.00  0.00     0.210 HD
ENDBRANCH   7   8
ENDBRANCH   6   7
ENDBRANCH   1   6
TORSDOF 6
ENDMDL
MODEL 4
REMARK VINA RESULT:    -2.700     12.307     13.976
REMARK INTER + INTRA:          -3.886
REMARK INTER:                  -3.589
REMARK INTRA:                  -0.297
REMARK UNBOUND:                -0.318
REMARK SMILES CCCCCCCO
REMARK SMILES IDX 5 1 4 2 3 3 2 4 1 5 6 6 7 7 8 8
REMARK H PARENT 8 9
REMARK Flexibility Score: inf
ROOT
ATOM      1  C   UNL     1     142.548 135.865 144.706  1.00  0.00     0.002 C 
ENDROOT
BRANCH   1   2
ATOM      2  C   UNL     1     141.882 134.484 144.699  1.00  0.00     0.000 C 
BRANCH   2   3
ATOM      3  C   UNL     1     142.778 133.437 145.370  1.00  0.00    -0.000 C 
BRANCH   3   4
ATOM      4  C   UNL     1     143.297 132.419 144.346  1.00  0.00    -0.003 C 
ATOM      5  C   UNL     1     144.822 132.366 144.346  1.00  0.00     0.004 C 
ENDBRANCH   3   4
ENDBRANCH   2   3
ENDBRANCH   1   2
BRANCH   1   6
ATOM      6  C   UNL     1     143.369 136.086 143.430  1.00  0.00     0.028 C 
BRANCH   6   7
ATOM      7  C   UNL     1     144.868 136.137 143.740  1.00  0.00     0.156 C 
BRANCH   7   8
ATOM      8  O   UNL     1     145.596 136.381 142.568  1.00  0.00    -0.396 OA
ATOM      9  H   UNL     1     146.361 136.960 142.824  1.00  0.00     0.210 HD
ENDBRANCH   7   8
ENDBRANCH   6   7
ENDBRANCH   1   6
TORSDOF 6
ENDMDL
MODEL 5
REMARK VINA RESULT:    -2.657      1.623      3.614
REMARK INTER + INTRA:          -3.829
REMARK INTER:                  -3.505
REMARK INTRA:                  -0.324
REMARK UNBOUND:                -0.318
REMARK SMILES CCCCCCCO
REMARK SMILES IDX 5 1 4 2 3 3 2 4 1 5 6 6 7 7 8 8
REMARK H PARENT 8 9
REMARK Flexibility Score: inf
ROOT
ATOM      1  C   UNL     1     139.489 147.318 144.595  1.00  0.00     0.002 C 
ENDROOT
BRANCH   1   2
ATOM      2  C   UNL     1     138.958 145.908 144.881  1.00  0.00     0.000 C 
BRANCH   2   3
ATOM      3  C   UNL     1     138.352 145.282 143.620  1.00  0.00    -0.000 C 
BRANCH   3   4
ATOM      4  C   UNL     1     136.829 145.464 143.593  1.00  0.00    -0.003 C 
ATOM      5  C   UNL     1     136.155 144.631 144.680  1.00  0.00     0.004 C 
ENDBRANCH   3   4
ENDBRANCH   2   3
ENDBRANCH   1   2
BRANCH   1   6
ATOM      6  C   UNL     1     138.566 148.385 145.196  1.00  0.00     0.028 C 
BRANCH   6   7
ATOM      7  C   UNL     1     137.979 149.285 144.105  1.00  0.00     0.156 C 
BRANCH   7   8
ATOM      8  O   UNL     1     138.254 148.754 142.838  1.00  0.00    -0.396 OA
ATOM      9  H   UNL     1     139.200 148.977 142.636  1.00  0.00     0.210 HD
ENDBRANCH   7   8
ENDBRANCH   6   7
ENDBRANCH   1   6
TORSDOF 6
ENDMDL
MODEL 6
REMARK VINA RESULT:    -2.628      8.616      9.902
REMARK INTER + INTRA:          -3.790
REMARK INTER:                  -3.403
REMARK INTRA:                  -0.387
REMARK UNBOUND:                -0.318
REMARK SMILES CCCCCCCO
REMARK SMILES IDX 5 1 4 2 3 3 2 4 1 5 6 6 7 7 8 8
REMARK H PARENT 8 9
REMARK Flexibility Score: inf
ROOT
ATOM      1  C   UNL     1     134.276 139.494 144.557  1.00  0.00     0.002 C 
ENDROOT
BRANCH   1   2
ATOM      2  C   UNL     1     135.693 138.949 144.772  1.00  0.00     0.000 C 
BRANCH   2   3
ATOM      3  C   UNL     1     136.238 138.314 143.488  1.00  0.00    -0.000 C 
BRANCH   3   4
ATOM      4  C   UNL     1     136.181 136.783 143.564  1.00  0.00    -0.003 C 
ATOM      5  C   UNL     1     136.348 136.296 145.001  1.00  0.00     0.004 C 
ENDBRANCH   3   4
ENDBRANCH   2   3
ENDBRANCH   1   2
BRANCH   1   6
ATOM      6  C   UNL     1     133.227 138.545 145.147  1.00  0.00     0.028 C 
BRANCH   6   7
ATOM      7  C   UNL     1     132.457 137.817 144.042  1.00  0.00     0.156 C 
BRANCH   7   8
ATOM      8  O   UNL     1     132.834 138.307 142.785  1.00  0.00    -0.396 OA
ATOM      9  H   UNL     1     132.390 137.730 142.109  1.00  0.00     0.210 HD
ENDBRANCH   7   8
ENDBRANCH   6   7
ENDBRANCH   1   6
TORSDOF 6
ENDMDL
MODEL 7
REMARK VINA RESULT:    -2.565      9.660     10.769
REMARK INTER + INTRA:          -3.708
REMARK INTER:                  -3.448
REMARK INTRA:                  -0.259
REMARK UNBOUND:                -0.318
REMARK SMILES CCCCCCCO
REMARK SMILES IDX 5 1 4 2 3 3 2 4 1 5 6 6 7 7 8 8
REMARK H PARENT 8 9
REMARK Flexibility Score: inf
ROOT
ATOM      1  C   UNL     1     148.218 142.883 145.352  1.00  0.00     0.002 C 
ENDROOT
BRANCH   1   2
ATOM      2  C   UNL     1     147.194 141.924 144.732  1.00  0.00     0.000 C 
BRANCH   2   3
ATOM      3  C   UNL     1     145.789 142.537 144.742  1.00  0.00    -0.000 C 
BRANCH   3   4
ATOM      4  C   UNL     1     145.502 143.276 143.430  1.00  0.00    -0.003 C 
ATOM      5  C   UNL     1     145.377 144.780 143.659  1.00  0.00     0.004 C 
ENDBRANCH   3   4
ENDBRANCH   2   3
ENDBRANCH   1   2
BRANCH   1   6
ATOM      6  C   UNL     1     149.216 143.378 144.298  1.00  0.00     0.028 C 
BRANCH   6   7
ATOM      7  C   UNL     1     149.459 144.883 144.432  1.00  0.00     0.156 C 
BRANCH   7   8
ATOM      8  O   UNL     1     150.832 145.158 144.392  1.00  0.00    -0.396 OA
ATOM      9  H   UNL     1     151.054 145.622 145.242  1.00  0.00     0.210 HD
ENDBRANCH   7   8
ENDBRANCH   6   7
ENDBRANCH   1   6
TORSDOF 6
ENDMDL
MODEL 8
REMARK VINA RESULT:    -2.562      8.608     10.374
REMARK INTER + INTRA:          -3.704
REMARK INTER:                  -3.325
REMARK INTRA:                  -0.378
REMARK UNBOUND:                -0.318
REMARK SMILES CCCCCCCO
REMARK SMILES IDX 5 1 4 2 3 3 2 4 1 5 6 6 7 7 8 8
REMARK H PARENT 8 9
REMARK Flexibility Score: inf
ROOT
ATOM      1  C   UNL     1     133.758 136.174 144.031  1.00  0.00     0.002 C 
ENDROOT
BRANCH   1   2
ATOM      2  C   UNL     1     135.136 136.316 144.689  1.00  0.00     0.000 C 
BRANCH   2   3
ATOM      3  C   UNL     1     136.204 136.688 143.654  1.00  0.00    -0.000 C 
BRANCH   3   4
ATOM      4  C   UNL     1     136.190 138.193 143.366  1.00  0.00    -0.003 C 
ATOM      5  C   UNL     1     136.154 139.002 144.660  1.00  0.00     0.004 C 
ENDBRANCH   3   4
ENDBRANCH   2   3
ENDBRANCH   1   2
BRANCH   1   6
ATOM      6  C   UNL     1     132.692 136.949 144.814  1.00  0.00     0.028 C 
BRANCH   6   7
ATOM      7  C   UNL     1     132.283 138.226 144.075  1.00  0.00     0.156 C 
BRANCH   7   8
ATOM      8  O   UNL     1     132.815 138.227 142.779  1.00  0.00    -0.396 OA
ATOM      9  H   UNL     1     133.664 138.740 142.821  1.00  0.00     0.210 HD
ENDBRANCH   7   8
ENDBRANCH   6   7
ENDBRANCH   1   6
TORSDOF 6
ENDMDL
MODEL 9
REMARK VINA RESULT:    -2.531      9.481     10.826
REMARK INTER + INTRA:          -3.662
REMARK INTER:                  -3.339
REMARK INTRA:                  -0.323
REMARK UNBOUND:                -0.318
REMARK SMILES CCCCCCCO
REMARK SMILES IDX 5 1 4 2 3 3 2 4 1 5 6 6 7 7 8 8
REMARK H PARENT 8 9
REMARK Flexibility Score: inf
ROOT
ATOM      1  C   UNL     1     132.293 138.143 144.081  1.00  0.00     0.002 C 
ENDROOT
BRANCH   1   2
ATOM      2  C   UNL     1     133.637 138.581 144.675  1.00  0.00     0.000 C 
BRANCH   2   3
ATOM      3  C   UNL     1     134.711 138.686 143.587  1.00  0.00    -0.000 C 
BRANCH   3   4
ATOM      4  C   UNL     1     136.037 138.079 144.062  1.00  0.00    -0.003 C 
ATOM      5  C   UNL     1     136.146 136.611 143.659  1.00  0.00     0.004 C 
ENDBRANCH   3   4
ENDBRANCH   2   3
ENDBRANCH   1   2
BRANCH   1   6
ATOM      6  C   UNL     1     131.822 136.822 144.701  1.00  0.00     0.028 C 
BRANCH   6   7
ATOM      7  C   UNL     1     132.581 135.632 144.107  1.00  0.00     0.156 C 
BRANCH   7   8
ATOM      8  O   UNL     1     132.752 135.806 142.727  1.00  0.00    -0.396 OA
ATOM      9  H   UNL     1     132.612 134.917 142.309  1.00  0.00     0.210 HD
ENDBRANCH   7   8
ENDBRANCH   6   7
ENDBRANCH   1   6
TORSDOF 6
ENDMDL
