MODEL 1
REMARK VINA RESULT:    -3.671      0.000      0.000
REMARK INTER + INTRA:          -5.696
REMARK INTER:                  -5.173
REMARK INTRA:                  -0.522
REMARK UNBOUND:                -0.522
REMARK SMILES CCCCCCCCC(=O)[O-]
REMARK SMILES IDX 6 1 7 2 8 3 9 4 10 5 11 6 5 7 4 8 3 9 2 10 1 11
REMARK H PARENT
REMARK Flexibility Score: inf
ROOT
ATOM      1  C   UNL     1      51.011  -6.486 -54.757  1.00  0.00     0.000 C 
ENDROOT
BRANCH   1   2
ATOM      2  C   UNL     1      50.862  -6.277 -56.274  1.00  0.00     0.006 C 
BRANCH   2   3
ATOM      3  C   UNL     1      52.198  -5.931 -56.945  1.00  0.00     0.053 C 
BRANCH   3   4
ATOM      4  C   UNL     1      52.250  -6.405 -58.364  1.00  0.00     0.041 C 
ATOM      5  O   UNL     1      51.245  -6.952 -58.888  1.00  0.00    -0.550 OA
ATOM      6  O   UNL     1      53.401  -6.214 -59.120  1.00  0.00    -0.550 OA
ENDBRANCH   3   4
ENDBRANCH   2   3
ENDBRANCH   1   2
BRANCH   1   7
ATOM      7  C   UNL     1      50.072  -7.576 -54.217  1.00  0.00     0.000 C 
BRANCH   7   8
ATOM      8  C   UNL     1      48.652  -7.050 -53.941  1.00  0.00    -0.000 C 
BRANCH   8   9
ATOM      9  C   UNL     1      47.583  -7.774 -54.775  1.00  0.00    -0.000 C 
BRANCH   9  10
ATOM     10  C   UNL     1      48.183  -8.831 -55.715  1.00  0.00    -0.003 C 
ATOM     11  C   UNL     1      47.983  -8.443 -57.177  1.00  0.00     0.004 C 
ENDBRANCH   9  10
ENDBRANCH   8   9
ENDBRANCH   7   8
ENDBRANCH   1   7
TORSDOF 7
ENDMDL
MODEL 2
REMARK VINA RESULT:    -3.634      2.584      4.534
REMARK INTER + INTRA:          -5.644
REMARK INTER:                  -5.133
REMARK INTRA:                  -0.511
REMARK UNBOUND:                -0.522
REMARK SMILES CCCCCCCCC(=O)[O-]
REMARK SMILES IDX 6 1 7 2 8 3 9 4 10 5 11 6 5 7 4 8 3 9 2 10 1 11
REMARK H PARENT
REMARK Flexibility Score: inf
ROOT
ATOM      1  C   UNL     1      50.157  -5.644 -54.659  1.00  0.00     0.000 C 
ENDROOT
BRANCH   1   2
ATOM      2  C   UNL     1      49.217  -6.680 -54.019  1.00  0.00     0.006 C 
BRANCH   2   3
ATOM      3  C   UNL     1      49.424  -8.085 -54.598  1.00  0.00     0.053 C 
BRANCH   3   4
ATOM      4  C   UNL     1      48.354  -8.448 -55.582  1.00  0.00     0.041 C 
ATOM      5  O   UNL     1      48.118  -9.656 -55.846  1.00  0.00    -0.550 OA
ATOM      6  O   UNL     1      47.596  -7.451 -56.184  1.00  0.00    -0.550 OA
ENDBRANCH   3   4
ENDBRANCH   2   3
ENDBRANCH   1   2
BRANCH   1   7
ATOM      7  C   UNL     1      51.529  -6.236 -55.020  1.00  0.00     0.000 C 
BRANCH   7   8
ATOM      8  C   UNL     1      51.959  -5.897 -56.458  1.00  0.00    -0.000 C 
BRANCH   8   9
ATOM      9  C   UNL     1      50.879  -6.246 -57.494  1.00  0.00    -0.000 C 
BRANCH   9  10
ATOM     10  C   UNL     1      51.469  -6.607 -58.865  1.00  0.00    -0.003 C 
ATOM     11  C   UNL     1      52.977  -6.370 -58.893  1.00  0.00     0.004 C 
ENDBRANCH   9  10
ENDBRANCH   8   9
ENDBRANCH   7   8
ENDBRANCH   1   7
TORSDOF 7
ENDMDL
MODEL 3
REMARK VINA RESULT:    -3.594      0.991      1.091
REMARK INTER + INTRA:          -5.587
REMARK INTER:                  -4.932
REMARK INTRA:                  -0.655
REMARK UNBOUND:                -0.522
REMARK SMILES CCCCCCCCC(=O)[O-]
REMARK SMILES IDX 6 1 7 2 8 3 9 4 10 5 11 6 5 7 4 8 3 9 2 10 1 11
REMARK H PARENT
REMARK Flexibility Score: inf
ROOT
ATOM      1  C   UNL     1      50.547  -5.360 -54.816  1.00  0.00     0.000 C 
ENDROOT
BRANCH   1   2
ATOM      2  C   UNL     1      50.734  -4.937 -56.284  1.00  0.00     0.006 C 
BRANCH   2   3
ATOM      3  C   UNL     1      51.052  -6.131 -57.194  1.00  0.00     0.053 C 
BRANCH   3   4
ATOM      4  C   UNL     1      52.281  -5.895 -58.016  1.00  0.00     0.041 C 
ATOM      5  O   UNL     1      52.573  -6.676 -58.959  1.00  0.00    -0.550 OA
ATOM      6  O   UNL     1      53.088  -4.793 -57.760  1.00  0.00    -0.550 OA
ENDBRANCH   3   4
ENDBRANCH   2   3
ENDBRANCH   1   2
BRANCH   1   7
ATOM      7  C   UNL     1      50.627  -6.884 -54.626  1.00  0.00     0.000 C 
BRANCH   7   8
ATOM      8  C   UNL     1      49.435  -7.444 -53.831  1.00  0.00    -0.000 C 
BRANCH   8   9
ATOM      9  C   UNL     1      48.153  -7.531 -54.674  1.00  0.00    -0.000 C 
BRANCH   9  10
ATOM     10  C   UNL     1      48.134  -8.761 -55.594  1.00  0.00    -0.003 C 
ATOM     11  C   UNL     1      47.993  -8.350 -57.057  1.00  0.00     0.004 C 
ENDBRANCH   9  10
ENDBRANCH   8   9
ENDBRANCH   7   8
ENDBRANCH   1   7
TORSDOF 7
ENDMDL
MODEL 4
REMARK VINA RESULT:    -3.589      5.027      6.916
REMARK INTER + INTRA:          -5.579
REMARK INTER:                  -5.280
REMARK INTRA:                  -0.300
REMARK UNBOUND:                -0.522
REMARK SMILES CCCCCCCCC(=O)[O-]
REMARK SMILES IDX 6 1 7 2 8 3 9 4 10 5 11 6 5 7 4 8 3 9 2 10 1 11
REMARK H PARENT
REMARK Flexibility Score: inf
ROOT
ATOM      1  C   UNL     1      47.680 -11.810 -57.243  1.00  0.00     0.000 C 
ENDROOT
BRANCH   1   2
ATOM      2  C   UNL     1      48.476 -12.318 -56.028  1.00  0.00     0.006 C 
BRANCH   2   3
ATOM      3  C   UNL     1      49.075 -13.710 -56.270  1.00  0.00     0.053 C 
BRANCH   3   4
ATOM      4  C   UNL     1      48.128 -14.802 -55.880  1.00  0.00     0.041 C 
ATOM      5  O   UNL     1      48.152 -15.908 -56.480  1.00  0.00    -0.550 OA
ATOM      6  O   UNL     1      47.237 -14.609 -54.830  1.00  0.00    -0.550 OA
ENDBRANCH   3   4
ENDBRANCH   2   3
ENDBRANCH   1   2
BRANCH   1   7
ATOM      7  C   UNL     1      47.256 -10.340 -57.099  1.00  0.00     0.000 C 
BRANCH   7   8
ATOM      8  C   UNL     1      48.048  -9.601 -56.005  1.00  0.00    -0.000 C 
BRANCH   8   9
ATOM      9  C   UNL     1      47.967  -8.073 -56.149  1.00  0.00    -0.000 C 
BRANCH   9  10
ATOM     10  C   UNL     1      48.466  -7.335 -54.898  1.00  0.00    -0.003 C 
ATOM     11  C   UNL     1      49.721  -7.995 -54.335  1.00  0.00     0.004 C 
ENDBRANCH   9  10
ENDBRANCH   8   9
ENDBRANCH   7   8
ENDBRANCH   1   7
TORSDOF 7
ENDMDL
MODEL 5
REMARK VINA RESULT:    -3.555      1.664      1.995
REMARK INTER + INTRA:          -5.531
REMARK INTER:                  -4.961
REMARK INTRA:                  -0.571
REMARK UNBOUND:                -0.522
REMARK SMILES CCCCCCCCC(=O)[O-]
REMARK SMILES IDX 6 1 7 2 8 3 9 4 10 5 11 6 5 7 4 8 3 9 2 10 1 11
REMARK H PARENT
REMARK Flexibility Score: inf
ROOT
ATOM      1  C   UNL     1      51.641  -6.197 -55.658  1.00  0.00     0.000 C 
ENDROOT
BRANCH   1   2
ATOM      2  C   UNL     1      51.416  -6.031 -57.171  1.00  0.00     0.006 C 
BRANCH   2   3
ATOM      3  C   UNL     1      52.734  -5.842 -57.934  1.00  0.00     0.053 C 
BRANCH   3   4
ATOM      4  C   UNL     1      53.125  -4.399 -58.025  1.00  0.00     0.041 C 
ATOM      5  O   UNL     1      52.252  -3.498 -57.928  1.00  0.00    -0.550 OA
ATOM      6  O   UNL     1      54.461  -4.049 -58.184  1.00  0.00    -0.550 OA
ENDBRANCH   3   4
ENDBRANCH   2   3
ENDBRANCH   1   2
BRANCH   1   7
ATOM      7  C   UNL     1      50.643  -5.383 -54.820  1.00  0.00     0.000 C 
BRANCH   7   8
ATOM      8  C   UNL     1      49.455  -6.228 -54.328  1.00  0.00    -0.000 C 
BRANCH   8   9
ATOM      9  C   UNL     1      49.795  -7.724 -54.233  1.00  0.00    -0.000 C 
BRANCH   9  10
ATOM     10  C   UNL     1      48.823  -8.603 -55.033  1.00  0.00    -0.003 C 
ATOM     11  C   UNL     1      48.148  -7.804 -56.145  1.00  0.00     0.004 C 
ENDBRANCH   9  10
ENDBRANCH   8   9
ENDBRANCH   7   8
ENDBRANCH   1   7
TORSDOF 7
ENDMDL
MODEL 6
REMARK VINA RESULT:    -3.535      2.717      4.462
REMARK INTER + INTRA:          -5.504
REMARK INTER:                  -4.862
REMARK INTRA:                  -0.641
REMARK UNBOUND:                -0.522
REMARK SMILES CCCCCCCCC(=O)[O-]
REMARK SMILES IDX 6 1 7 2 8 3 9 4 10 5 11 6 5 7 4 8 3 9 2 10 1 11
REMARK H PARENT
REMARK Flexibility Score: inf
ROOT
ATOM      1  C   UNL     1      51.522  -5.339 -56.596  1.00  0.00     0.000 C 
ENDROOT
BRANCH   1   2
ATOM      2  C   UNL     1      51.293  -6.198 -55.341  1.00  0.00     0.006 C 
BRANCH   2   3
ATOM      3  C   UNL     1      49.952  -5.887 -54.664  1.00  0.00     0.053 C 
BRANCH   3   4
ATOM      4  C   UNL     1      49.295  -7.123 -54.130  1.00  0.00     0.041 C 
ATOM      5  O   UNL     1      48.163  -7.054 -53.584  1.00  0.00    -0.550 OA
ATOM      6  O   UNL     1      49.920  -8.357 -54.264  1.00  0.00    -0.550 OA
ENDBRANCH   3   4
ENDBRANCH   2   3
ENDBRANCH   1   2
BRANCH   1   7
ATOM      7  C   UNL     1      52.535  -5.969 -57.566  1.00  0.00     0.000 C 
BRANCH   7   8
ATOM      8  C   UNL     1      51.864  -6.570 -58.814  1.00  0.00    -0.000 C 
BRANCH   8   9
ATOM      9  C   UNL     1      50.372  -6.213 -58.911  1.00  0.00    -0.000 C 
BRANCH   9  10
ATOM     10  C   UNL     1      49.474  -7.454 -59.015  1.00  0.00    -0.003 C 
ATOM     11  C   UNL     1      48.437  -7.477 -57.896  1.00  0.00     0.004 C 
ENDBRANCH   9  10
ENDBRANCH   8   9
ENDBRANCH   7   8
ENDBRANCH   1   7
TORSDOF 7
ENDMDL
MODEL 7
REMARK VINA RESULT:    -3.509      3.022      4.968
REMARK INTER + INTRA:          -5.467
REMARK INTER:                  -5.015
REMARK INTRA:                  -0.452
REMARK UNBOUND:                -0.522
REMARK SMILES CCCCCCCCC(=O)[O-]
REMARK SMILES IDX 6 1 7 2 8 3 9 4 10 5 11 6 5 7 4 8 3 9 2 10 1 11
REMARK H PARENT
REMARK Flexibility Score: inf
ROOT
ATOM      1  C   UNL     1      48.334  -7.674 -56.378  1.00  0.00     0.000 C 
ENDROOT
BRANCH   1   2
ATOM      2  C   UNL     1      47.975  -8.770 -57.396  1.00  0.00     0.006 C 
BRANCH   2   3
ATOM      3  C   UNL     1      47.214  -9.935 -56.748  1.00  0.00     0.053 C 
BRANCH   3   4
ATOM      4  C   UNL     1      47.766 -11.264 -57.165  1.00  0.00     0.041 C 
ATOM      5  O   UNL     1      47.933 -11.526 -58.384  1.00  0.00    -0.550 OA
ATOM      6  O   UNL     1      48.125 -12.201 -56.204  1.00  0.00    -0.550 OA
ENDBRANCH   3   4
ENDBRANCH   2   3
ENDBRANCH   1   2
BRANCH   1   7
ATOM      7  C   UNL     1      48.441  -8.213 -54.943  1.00  0.00     0.000 C 
BRANCH   7   8
ATOM      8  C   UNL     1      49.695  -7.703 -54.211  1.00  0.00    -0.000 C 
BRANCH   8   9
ATOM      9  C   UNL     1      50.112  -6.295 -54.667  1.00  0.00    -0.000 C 
BRANCH   9  10
ATOM     10  C   UNL     1      51.603  -6.207 -55.022  1.00  0.00    -0.003 C 
ATOM     11  C   UNL     1      51.798  -5.934 -56.510  1.00  0.00     0.004 C 
ENDBRANCH   9  10
ENDBRANCH   8   9
ENDBRANCH   7   8
ENDBRANCH   1   7
TORSDOF 7
ENDMDL
MODEL 8
REMARK VINA RESULT:    -3.496      6.176      8.088
REMARK INTER + INTRA:          -5.448
REMARK INTER:                  -5.123
REMARK INTRA:                  -0.325
REMARK UNBOUND:                -0.522
REMARK SMILES CCCCCCCCC(=O)[O-]
REMARK SMILES IDX 6 1 7 2 8 3 9 4 10 5 11 6 5 7 4 8 3 9 2 10 1 11
REMARK H PARENT
REMARK Flexibility Score: inf
ROOT
ATOM      1  C   UNL     1      48.858 -13.451 -56.117  1.00  0.00     0.000 C 
ENDROOT
BRANCH   1   2
ATOM      2  C   UNL     1      47.748 -14.414 -55.660  1.00  0.00     0.006 C 
BRANCH   2   3
ATOM      3  C   UNL     1      48.051 -15.869 -56.041  1.00  0.00     0.053 C 
BRANCH   3   4
ATOM      4  C   UNL     1      47.180 -16.346 -57.162  1.00  0.00     0.041 C 
ATOM      5  O   UNL     1      47.389 -17.467 -57.696  1.00  0.00    -0.550 OA
ATOM      6  O   UNL     1      46.115 -15.565 -57.597  1.00  0.00    -0.550 OA
ENDBRANCH   3   4
ENDBRANCH   2   3
ENDBRANCH   1   2
BRANCH   1   7
ATOM      7  C   UNL     1      48.383 -11.991 -56.179  1.00  0.00     0.000 C 
BRANCH   7   8
ATOM      8  C   UNL     1      47.339 -11.755 -57.285  1.00  0.00    -0.000 C 
BRANCH   8   9
ATOM      9  C   UNL     1      46.750 -10.336 -57.247  1.00  0.00    -0.000 C 
BRANCH   9  10
ATOM     10  C   UNL     1      47.613  -9.360 -56.432  1.00  0.00    -0.003 C 
ATOM     11  C   UNL     1      47.946  -8.112 -57.245  1.00  0.00     0.004 C 
ENDBRANCH   9  10
ENDBRANCH   8   9
ENDBRANCH   7   8
ENDBRANCH   1   7
TORSDOF 7
ENDMDL
MODEL 9
REMARK VINA RESULT:    -3.403      2.409      2.822
REMARK INTER + INTRA:          -5.318
REMARK INTER:                  -4.429
REMARK INTRA:                  -0.888
REMARK UNBOUND:                -0.522
REMARK SMILES CCCCCCCCC(=O)[O-]
REMARK SMILES IDX 6 1 7 2 8 3 9 4 10 5 11 6 5 7 4 8 3 9 2 10 1 11
REMARK H PARENT
REMARK Flexibility Score: inf
ROOT
ATOM      1  C   UNL     1      50.855  -6.541 -54.622  1.00  0.00     0.000 C 
ENDROOT
BRANCH   1   2
ATOM      2  C   UNL     1      50.787  -6.269 -56.135  1.00  0.00     0.006 C 
BRANCH   2   3
ATOM      3  C   UNL     1      50.459  -4.802 -56.445  1.00  0.00     0.053 C 
BRANCH   3   4
ATOM      4  C   UNL     1      49.041  -4.463 -56.102  1.00  0.00     0.041 C 
ATOM      5  O   UNL     1      48.100  -4.845 -56.845  1.00  0.00    -0.550 OA
ATOM      6  O   UNL     1      48.756  -3.750 -54.943  1.00  0.00    -0.550 OA
ENDBRANCH   3   4
ENDBRANCH   2   3
ENDBRANCH   1   2
BRANCH   1   7
ATOM      7  C   UNL     1      49.964  -7.718 -54.193  1.00  0.00     0.000 C 
BRANCH   7   8
ATOM      8  C   UNL     1      48.551  -7.270 -53.780  1.00  0.00    -0.000 C 
BRANCH   8   9
ATOM      9  C   UNL     1      47.482  -7.665 -54.812  1.00  0.00    -0.000 C 
BRANCH   9  10
ATOM     10  C   UNL     1      47.942  -8.805 -55.732  1.00  0.00    -0.003 C 
ATOM     11  C   UNL     1      47.856  -8.395 -57.200  1.00  0.00     0.004 C 
ENDBRANCH   9  10
ENDBRANCH   8   9
ENDBRANCH   7   8
ENDBRANCH   1   7
TORSDOF 7
ENDMDL
