MODEL 1
REMARK VINA RESULT:    -5.214      0.000      0.000
REMARK INTER + INTRA:          -6.644
REMARK INTER:                  -6.281
REMARK INTRA:                  -0.363
REMARK UNBOUND:                -0.363
REMARK SMILES O=c1c(O)c(-c2ccc(O)cc2O)oc2cc(O)cc(O)c12
REMARK SMILES IDX 5 1 3 2 2 3 1 4 22 5 20 6 19 7 17 8 16 9 15 10 14 11 6 12
REMARK SMILES IDX 8 13 7 14 9 15 11 16 12 17 10 18 13 20 4 22 21 24 18 26
REMARK H PARENT 10 19 13 21 4 23 21 25 18 27
REMARK Flexibility Score: inf
ROOT
ATOM      1  C   UNL     1      54.259  22.659  52.112  1.00  0.00     0.184 A 
ATOM      2  C   UNL     1      54.910  23.124  53.267  1.00  0.00     0.208 A 
ATOM      3  C   UNL     1      54.153  23.365  54.425  1.00  0.00     0.238 A 
ATOM      4  O   UNL     1      54.733  23.834  55.439  1.00  0.00    -0.285 OA
ATOM      5  C   UNL     1      52.759  23.118  54.420  1.00  0.00     0.111 A 
ATOM      6  C   UNL     1      51.901  23.289  55.548  1.00  0.00     0.134 A 
ATOM      7  C   UNL     1      50.518  23.138  55.392  1.00  0.00     0.093 A 
ATOM      8  C   UNL     1      49.967  22.759  54.168  1.00  0.00     0.123 A 
ATOM      9  C   UNL     1      50.803  22.532  53.073  1.00  0.00     0.094 A 
ATOM     10  C   UNL     1      52.183  22.710  53.188  1.00  0.00     0.146 A 
ATOM     11  O   UNL     1      52.941  22.495  52.119  1.00  0.00    -0.451 OA
ENDROOT
BRANCH   1  12
ATOM     12  C   UNL     1      54.999  22.362  50.864  1.00  0.00     0.063 A 
ATOM     13  C   UNL     1      56.006  20.751  49.342  1.00  0.00     0.047 A 
ATOM     14  C   UNL     1      55.332  21.036  50.532  1.00  0.00     0.020 A 
ATOM     15  C   UNL     1      56.348  21.784  48.462  1.00  0.00     0.119 A 
ATOM     16  C   UNL     1      56.009  23.103  48.776  1.00  0.00     0.093 A 
ATOM     17  C   UNL     1      55.335  23.399  49.970  1.00  0.00     0.130 A 
BRANCH  15  18
ATOM     18  O   UNL     1      57.019  21.511  47.273  1.00  0.00    -0.508 OA
ATOM     19  H   UNL     1      56.872  20.645  46.768  1.00  0.00     0.293 HD
ENDBRANCH  15  18
BRANCH  17  20
ATOM     20  O   UNL     1      55.009  24.722  50.274  1.00  0.00    -0.507 OA
ATOM     21  H   UNL     1      54.045  25.029  50.343  1.00  0.00     0.293 HD
ENDBRANCH  17  20
ENDBRANCH   1  12
BRANCH   2  22
ATOM     22  O   UNL     1      56.285  23.373  53.245  1.00  0.00    -0.502 OA
ATOM     23  H   UNL     1      56.727  23.922  52.518  1.00  0.00     0.293 HD
ENDBRANCH   2  22
BRANCH   6  24
ATOM     24  O   UNL     1      52.356  23.577  56.838  1.00  0.00    -0.507 OA
ATOM     25  H   UNL     1      51.912  23.265  57.687  1.00  0.00     0.293 HD
ENDBRANCH   6  24
BRANCH   8  26
ATOM     26  O   UNL     1      48.587  22.603  54.053  1.00  0.00    -0.508 OA
ATOM     27  H   UNL     1      47.964  23.401  54.029  1.00  0.00     0.293 HD
ENDBRANCH   8  26
TORSDOF 6
ENDMDL
MODEL 2
REMARK VINA RESULT:    -5.185      5.432      9.271
REMARK INTER + INTRA:          -6.609
REMARK INTER:                  -6.473
REMARK INTRA:                  -0.136
REMARK UNBOUND:                -0.363
REMARK SMILES O=c1c(O)c(-c2ccc(O)cc2O)oc2cc(O)cc(O)c12
REMARK SMILES IDX 5 1 3 2 2 3 1 4 22 5 20 6 19 7 17 8 16 9 15 10 14 11 6 12
REMARK SMILES IDX 8 13 7 14 9 15 11 16 12 17 10 18 13 20 4 22 21 24 18 26
REMARK H PARENT 10 19 13 21 4 23 21 25 18 27
REMARK Flexibility Score: inf
ROOT
ATOM      1  C   UNL     1      46.376  22.617  55.981  1.00  0.00     0.184 A 
ATOM      2  C   UNL     1      45.528  23.736  55.938  1.00  0.00     0.208 A 
ATOM      3  C   UNL     1      44.182  23.585  56.309  1.00  0.00     0.238 A 
ATOM      4  O   UNL     1      43.415  24.579  56.215  1.00  0.00    -0.285 OA
ATOM      5  C   UNL     1      43.707  22.322  56.738  1.00  0.00     0.111 A 
ATOM      6  C   UNL     1      42.372  22.064  57.175  1.00  0.00     0.134 A 
ATOM      7  C   UNL     1      41.980  20.750  57.454  1.00  0.00     0.093 A 
ATOM      8  C   UNL     1      42.888  19.694  57.376  1.00  0.00     0.123 A 
ATOM      9  C   UNL     1      44.211  19.944  57.008  1.00  0.00     0.094 A 
ATOM     10  C   UNL     1      44.623  21.239  56.687  1.00  0.00     0.146 A 
ATOM     11  O   UNL     1      45.887  21.432  56.329  1.00  0.00    -0.451 OA
ENDROOT
BRANCH   1  12
ATOM     12  C   UNL     1      47.812  22.709  55.627  1.00  0.00     0.063 A 
ATOM     13  C   UNL     1      49.953  23.856  55.784  1.00  0.00     0.047 A 
ATOM     14  C   UNL     1      48.593  23.782  56.095  1.00  0.00     0.020 A 
ATOM     15  C   UNL     1      50.554  22.856  55.011  1.00  0.00     0.119 A 
ATOM     16  C   UNL     1      49.789  21.780  54.553  1.00  0.00     0.093 A 
ATOM     17  C   UNL     1      48.422  21.698  54.858  1.00  0.00     0.130 A 
BRANCH  15  18
ATOM     18  O   UNL     1      51.909  22.920  54.696  1.00  0.00    -0.508 OA
ATOM     19  H   UNL     1      52.603  22.415  55.234  1.00  0.00     0.293 HD
ENDBRANCH  15  18
BRANCH  17  20
ATOM     20  O   UNL     1      47.670  20.621  54.389  1.00  0.00    -0.507 OA
ATOM     21  H   UNL     1      46.694  20.725  54.134  1.00  0.00     0.293 HD
ENDBRANCH  17  20
ENDBRANCH   1  12
BRANCH   2  22
ATOM     22  O   UNL     1      46.017  24.969  55.499  1.00  0.00    -0.502 OA
ATOM     23  H   UNL     1      45.775  25.842  55.951  1.00  0.00     0.293 HD
ENDBRANCH   2  22
BRANCH   6  24
ATOM     24  O   UNL     1      41.411  23.058  57.375  1.00  0.00    -0.507 OA
ATOM     25  H   UNL     1      41.611  24.001  57.671  1.00  0.00     0.293 HD
ENDBRANCH   6  24
BRANCH   8  26
ATOM     26  O   UNL     1      42.466  18.400  57.677  1.00  0.00    -0.508 OA
ATOM     27  H   UNL     1      42.424  18.066  58.632  1.00  0.00     0.293 HD
ENDBRANCH   8  26
TORSDOF 6
ENDMDL
MODEL 3
REMARK VINA RESULT:    -5.138      2.279      4.303
REMARK INTER + INTRA:          -6.552
REMARK INTER:                  -6.076
REMARK INTRA:                  -0.477
REMARK UNBOUND:                -0.363
REMARK SMILES O=c1c(O)c(-c2ccc(O)cc2O)oc2cc(O)cc(O)c12
REMARK SMILES IDX 5 1 3 2 2 3 1 4 22 5 20 6 19 7 17 8 16 9 15 10 14 11 6 12
REMARK SMILES IDX 8 13 7 14 9 15 11 16 12 17 10 18 13 20 4 22 21 24 18 26
REMARK H PARENT 10 19 13 21 4 23 21 25 18 27
REMARK Flexibility Score: inf
ROOT
ATOM      1  C   UNL     1      54.376  23.423  52.437  1.00  0.00     0.184 A 
ATOM      2  C   UNL     1      53.267  23.063  53.221  1.00  0.00     0.208 A 
ATOM      3  C   UNL     1      53.447  22.853  54.598  1.00  0.00     0.238 A 
ATOM      4  O   UNL     1      52.462  22.475  55.284  1.00  0.00    -0.285 OA
ATOM      5  C   UNL     1      54.727  23.026  55.176  1.00  0.00     0.111 A 
ATOM      6  C   UNL     1      55.016  22.879  56.566  1.00  0.00     0.134 A 
ATOM      7  C   UNL     1      56.343  22.949  57.007  1.00  0.00     0.093 A 
ATOM      8  C   UNL     1      57.383  23.225  56.121  1.00  0.00     0.123 A 
ATOM      9  C   UNL     1      57.105  23.429  54.768  1.00  0.00     0.094 A 
ATOM     10  C   UNL     1      55.796  23.330  54.292  1.00  0.00     0.146 A 
ATOM     11  O   UNL     1      55.577  23.519  52.996  1.00  0.00    -0.451 OA
ENDROOT
BRANCH   1  12
ATOM     12  C   UNL     1      54.254  23.683  50.983  1.00  0.00     0.063 A 
ATOM     13  C   UNL     1      53.542  25.117  49.150  1.00  0.00     0.047 A 
ATOM     14  C   UNL     1      53.634  24.858  50.520  1.00  0.00     0.020 A 
ATOM     15  C   UNL     1      54.078  24.214  48.225  1.00  0.00     0.119 A 
ATOM     16  C   UNL     1      54.708  23.052  48.676  1.00  0.00     0.093 A 
ATOM     17  C   UNL     1      54.803  22.781  50.050  1.00  0.00     0.130 A 
BRANCH  15  18
ATOM     18  O   UNL     1      53.993  24.464  46.857  1.00  0.00    -0.508 OA
ATOM     19  H   UNL     1      53.217  24.119  46.303  1.00  0.00     0.293 HD
ENDBRANCH  15  18
BRANCH  17  20
ATOM     20  O   UNL     1      55.429  21.613  50.486  1.00  0.00    -0.507 OA
ATOM     21  H   UNL     1      55.002  21.008  51.178  1.00  0.00     0.293 HD
ENDBRANCH  17  20
ENDBRANCH   1  12
BRANCH   2  22
ATOM     22  O   UNL     1      52.016  22.884  52.626  1.00  0.00    -0.502 OA
ATOM     23  H   UNL     1      51.347  23.638  52.529  1.00  0.00     0.293 HD
ENDBRANCH   2  22
BRANCH   6  24
ATOM     24  O   UNL     1      54.040  22.692  57.550  1.00  0.00    -0.507 OA
ATOM     25  H   UNL     1      54.216  22.323  58.472  1.00  0.00     0.293 HD
ENDBRANCH   6  24
BRANCH   8  26
ATOM     26  O   UNL     1      58.691  23.303  56.597  1.00  0.00    -0.508 OA
ATOM     27  H   UNL     1      59.222  24.163  56.547  1.00  0.00     0.293 HD
ENDBRANCH   8  26
TORSDOF 6
ENDMDL
MODEL 4
REMARK VINA RESULT:    -5.128      2.106      3.973
REMARK INTER + INTRA:          -6.540
REMARK INTER:                  -6.057
REMARK INTRA:                  -0.484
REMARK UNBOUND:                -0.363
REMARK SMILES O=c1c(O)c(-c2ccc(O)cc2O)oc2cc(O)cc(O)c12
REMARK SMILES IDX 5 1 3 2 2 3 1 4 22 5 20 6 19 7 17 8 16 9 15 10 14 11 6 12
REMARK SMILES IDX 8 13 7 14 9 15 11 16 12 17 10 18 13 20 4 22 21 24 18 26
REMARK H PARENT 10 19 13 21 4 23 21 25 18 27
REMARK Flexibility Score: inf
ROOT
ATOM      1  C   UNL     1      55.335  23.205  50.348  1.00  0.00     0.184 A 
ATOM      2  C   UNL     1      53.967  23.500  50.466  1.00  0.00     0.208 A 
ATOM      3  C   UNL     1      53.306  23.197  51.668  1.00  0.00     0.238 A 
ATOM      4  O   UNL     1      52.068  23.413  51.747  1.00  0.00    -0.285 OA
ATOM      5  C   UNL     1      54.026  22.623  52.743  1.00  0.00     0.111 A 
ATOM      6  C   UNL     1      53.467  22.313  54.019  1.00  0.00     0.134 A 
ATOM      7  C   UNL     1      54.242  21.629  54.964  1.00  0.00     0.093 A 
ATOM      8  C   UNL     1      55.573  21.303  54.705  1.00  0.00     0.123 A 
ATOM      9  C   UNL     1      56.147  21.655  53.483  1.00  0.00     0.094 A 
ATOM     10  C   UNL     1      55.389  22.304  52.506  1.00  0.00     0.146 A 
ATOM     11  O   UNL     1      55.970  22.611  51.352  1.00  0.00    -0.451 OA
ENDROOT
BRANCH   1  12
ATOM     12  C   UNL     1      56.100  23.519  49.119  1.00  0.00     0.063 A 
ATOM     13  C   UNL     1      57.283  25.125  47.724  1.00  0.00     0.047 A 
ATOM     14  C   UNL     1      56.539  24.832  48.869  1.00  0.00     0.020 A 
ATOM     15  C   UNL     1      57.609  24.109  46.818  1.00  0.00     0.119 A 
ATOM     16  C   UNL     1      57.189  22.800  47.064  1.00  0.00     0.093 A 
ATOM     17  C   UNL     1      56.439  22.496  48.210  1.00  0.00     0.130 A 
BRANCH  15  18
ATOM     18  O   UNL     1      58.351  24.390  45.673  1.00  0.00    -0.508 OA
ATOM     19  H   UNL     1      59.361  24.311  45.664  1.00  0.00     0.293 HD
ENDBRANCH  15  18
BRANCH  17  20
ATOM     20  O   UNL     1      56.021  21.185  48.439  1.00  0.00    -0.507 OA
ATOM     21  H   UNL     1      56.640  20.494  48.848  1.00  0.00     0.293 HD
ENDBRANCH  17  20
ENDBRANCH   1  12
BRANCH   2  22
ATOM     22  O   UNL     1      53.274  24.054  49.387  1.00  0.00    -0.502 OA
ATOM     23  H   UNL     1      53.370  25.027  49.121  1.00  0.00     0.293 HD
ENDBRANCH   2  22
BRANCH   6  24
ATOM     24  O   UNL     1      52.176  22.675  54.414  1.00  0.00    -0.507 OA
ATOM     25  H   UNL     1      51.502  22.046  54.823  1.00  0.00     0.293 HD
ENDBRANCH   6  24
BRANCH   8  26
ATOM     26  O   UNL     1      56.319  20.636  55.675  1.00  0.00    -0.508 OA
ATOM     27  H   UNL     1      56.250  20.880  56.656  1.00  0.00     0.293 HD
ENDBRANCH   8  26
TORSDOF 6
ENDMDL
MODEL 5
REMARK VINA RESULT:    -4.985      2.321      4.085
REMARK INTER + INTRA:          -6.368
REMARK INTER:                  -5.961
REMARK INTRA:                  -0.407
REMARK UNBOUND:                -0.363
REMARK SMILES O=c1c(O)c(-c2ccc(O)cc2O)oc2cc(O)cc(O)c12
REMARK SMILES IDX 5 1 3 2 2 3 1 4 22 5 20 6 19 7 17 8 16 9 15 10 14 11 6 12
REMARK SMILES IDX 8 13 7 14 9 15 11 16 12 17 10 18 13 20 4 22 21 24 18 26
REMARK H PARENT 10 19 13 21 4 23 21 25 18 27
REMARK Flexibility Score: inf
ROOT
ATOM      1  C   UNL     1      51.386  22.772  54.305  1.00  0.00     0.184 A 
ATOM      2  C   UNL     1      51.426  23.754  55.310  1.00  0.00     0.208 A 
ATOM      3  C   UNL     1      50.338  23.872  56.190  1.00  0.00     0.238 A 
ATOM      4  O   UNL     1      50.356  24.790  57.052  1.00  0.00    -0.285 OA
ATOM      5  C   UNL     1      49.234  22.995  56.068  1.00  0.00     0.111 A 
ATOM      6  C   UNL     1      48.096  23.000  56.930  1.00  0.00     0.134 A 
ATOM      7  C   UNL     1      47.005  22.173  56.636  1.00  0.00     0.093 A 
ATOM      8  C   UNL     1      47.036  21.296  55.552  1.00  0.00     0.123 A 
ATOM      9  C   UNL     1      48.168  21.241  54.738  1.00  0.00     0.094 A 
ATOM     10  C   UNL     1      49.257  22.080  54.983  1.00  0.00     0.146 A 
ATOM     11  O   UNL     1      50.309  22.004  54.177  1.00  0.00    -0.451 OA
ENDROOT
BRANCH   1  12
ATOM     12  C   UNL     1      52.508  22.576  53.358  1.00  0.00     0.063 A 
ATOM     13  C   UNL     1      53.705  23.231  51.343  1.00  0.00     0.047 A 
ATOM     14  C   UNL     1      52.633  23.397  52.223  1.00  0.00     0.020 A 
ATOM     15  C   UNL     1      54.673  22.251  51.590  1.00  0.00     0.119 A 
ATOM     16  C   UNL     1      54.564  21.439  52.722  1.00  0.00     0.093 A 
ATOM     17  C   UNL     1      53.489  21.597  53.610  1.00  0.00     0.130 A 
BRANCH  15  18
ATOM     18  O   UNL     1      55.746  22.077  50.720  1.00  0.00    -0.508 OA
ATOM     19  H   UNL     1      56.251  21.200  50.670  1.00  0.00     0.293 HD
ENDBRANCH  15  18
BRANCH  17  20
ATOM     20  O   UNL     1      53.390  20.775  54.733  1.00  0.00    -0.507 OA
ATOM     21  H   UNL     1      52.514  20.340  54.998  1.00  0.00     0.293 HD
ENDBRANCH  17  20
ENDBRANCH   1  12
BRANCH   2  22
ATOM     22  O   UNL     1      52.521  24.616  55.403  1.00  0.00    -0.502 OA
ATOM     23  H   UNL     1      53.415  24.409  54.975  1.00  0.00     0.293 HD
ENDBRANCH   2  22
BRANCH   6  24
ATOM     24  O   UNL     1      48.000  23.770  58.092  1.00  0.00    -0.507 OA
ATOM     25  H   UNL     1      47.579  23.461  58.954  1.00  0.00     0.293 HD
ENDBRANCH   6  24
BRANCH   8  26
ATOM     26  O   UNL     1      45.938  20.476  55.300  1.00  0.00    -0.508 OA
ATOM     27  H   UNL     1      45.105  20.514  55.874  1.00  0.00     0.293 HD
ENDBRANCH   8  26
TORSDOF 6
ENDMDL
MODEL 6
REMARK VINA RESULT:    -4.948      1.501      2.138
REMARK INTER + INTRA:          -6.324
REMARK INTER:                  -5.931
REMARK INTRA:                  -0.393
REMARK UNBOUND:                -0.363
REMARK SMILES O=c1c(O)c(-c2ccc(O)cc2O)oc2cc(O)cc(O)c12
REMARK SMILES IDX 5 1 3 2 2 3 1 4 22 5 20 6 19 7 17 8 16 9 15 10 14 11 6 12
REMARK SMILES IDX 8 13 7 14 9 15 11 16 12 17 10 18 13 20 4 22 21 24 18 26
REMARK H PARENT 10 19 13 21 4 23 21 25 18 27
REMARK Flexibility Score: inf
ROOT
ATOM      1  C   UNL     1      55.391  23.357  51.467  1.00  0.00     0.184 A 
ATOM      2  C   UNL     1      56.183  23.393  52.626  1.00  0.00     0.208 A 
ATOM      3  C   UNL     1      55.569  23.208  53.876  1.00  0.00     0.238 A 
ATOM      4  O   UNL     1      56.276  23.298  54.915  1.00  0.00    -0.285 OA
ATOM      5  C   UNL     1      54.176  22.970  53.949  1.00  0.00     0.111 A 
ATOM      6  C   UNL     1      53.457  22.730  55.158  1.00  0.00     0.134 A 
ATOM      7  C   UNL     1      52.060  22.634  55.123  1.00  0.00     0.093 A 
ATOM      8  C   UNL     1      51.363  22.704  53.917  1.00  0.00     0.123 A 
ATOM      9  C   UNL     1      52.062  22.879  52.722  1.00  0.00     0.094 A 
ATOM     10  C   UNL     1      53.452  23.015  52.729  1.00  0.00     0.146 A 
ATOM     11  O   UNL     1      54.077  23.192  51.571  1.00  0.00    -0.451 OA
ENDROOT
BRANCH   1  12
ATOM     12  C   UNL     1      55.975  23.520  50.115  1.00  0.00     0.063 A 
ATOM     13  C   UNL     1      57.130  24.891  48.468  1.00  0.00     0.047 A 
ATOM     14  C   UNL     1      56.554  24.744  49.733  1.00  0.00     0.020 A 
ATOM     15  C   UNL     1      57.144  23.816  47.572  1.00  0.00     0.119 A 
ATOM     16  C   UNL     1      56.583  22.593  47.948  1.00  0.00     0.093 A 
ATOM     17  C   UNL     1      56.001  22.436  49.215  1.00  0.00     0.130 A 
BRANCH  15  18
ATOM     18  O   UNL     1      57.716  23.952  46.310  1.00  0.00    -0.508 OA
ATOM     19  H   UNL     1      58.670  23.663  46.126  1.00  0.00     0.293 HD
ENDBRANCH  15  18
BRANCH  17  20
ATOM     20  O   UNL     1      55.438  21.210  49.574  1.00  0.00    -0.507 OA
ATOM     21  H   UNL     1      55.247  20.977  50.542  1.00  0.00     0.293 HD
ENDBRANCH  17  20
ENDBRANCH   1  12
BRANCH   2  22
ATOM     22  O   UNL     1      57.554  23.643  52.531  1.00  0.00    -0.502 OA
ATOM     23  H   UNL     1      58.237  23.155  53.098  1.00  0.00     0.293 HD
ENDBRANCH   2  22
BRANCH   6  24
ATOM     24  O   UNL     1      54.063  22.552  56.405  1.00  0.00    -0.507 OA
ATOM     25  H   UNL     1      54.984  22.168  56.547  1.00  0.00     0.293 HD
ENDBRANCH   6  24
BRANCH   8  26
ATOM     26  O   UNL     1      49.974  22.588  53.919  1.00  0.00    -0.508 OA
ATOM     27  H   UNL     1      49.486  22.070  54.640  1.00  0.00     0.293 HD
ENDBRANCH   8  26
TORSDOF 6
ENDMDL
MODEL 7
REMARK VINA RESULT:    -4.902      3.313      5.033
REMARK INTER + INTRA:          -6.268
REMARK INTER:                  -5.875
REMARK INTRA:                  -0.393
REMARK UNBOUND:                -0.363
REMARK SMILES O=c1c(O)c(-c2ccc(O)cc2O)oc2cc(O)cc(O)c12
REMARK SMILES IDX 5 1 3 2 2 3 1 4 22 5 20 6 19 7 17 8 16 9 15 10 14 11 6 12
REMARK SMILES IDX 8 13 7 14 9 15 11 16 12 17 10 18 13 20 4 22 21 24 18 26
REMARK H PARENT 10 19 13 21 4 23 21 25 18 27
REMARK Flexibility Score: inf
ROOT
ATOM      1  C   UNL     1      54.443  23.074  55.068  1.00  0.00     0.184 A 
ATOM      2  C   UNL     1      54.164  22.060  54.137  1.00  0.00     0.208 A 
ATOM      3  C   UNL     1      52.826  21.710  53.891  1.00  0.00     0.238 A 
ATOM      4  O   UNL     1      52.586  20.763  53.098  1.00  0.00    -0.285 OA
ATOM      5  C   UNL     1      51.784  22.393  54.563  1.00  0.00     0.111 A 
ATOM      6  C   UNL     1      50.392  22.149  54.361  1.00  0.00     0.134 A 
ATOM      7  C   UNL     1      49.453  22.794  55.175  1.00  0.00     0.093 A 
ATOM      8  C   UNL     1      49.850  23.722  56.137  1.00  0.00     0.123 A 
ATOM      9  C   UNL     1      51.205  24.013  56.302  1.00  0.00     0.094 A 
ATOM     10  C   UNL     1      52.168  23.358  55.532  1.00  0.00     0.146 A 
ATOM     11  O   UNL     1      53.447  23.655  55.729  1.00  0.00    -0.451 OA
ENDROOT
BRANCH   1  12
ATOM     12  C   UNL     1      55.828  23.510  55.359  1.00  0.00     0.063 A 
ATOM     13  C   UNL     1      57.669  25.062  55.003  1.00  0.00     0.047 A 
ATOM     14  C   UNL     1      56.372  24.634  54.710  1.00  0.00     0.020 A 
ATOM     15  C   UNL     1      58.437  24.382  55.954  1.00  0.00     0.119 A 
ATOM     16  C   UNL     1      57.901  23.273  56.614  1.00  0.00     0.093 A 
ATOM     17  C   UNL     1      56.600  22.834  56.325  1.00  0.00     0.130 A 
BRANCH  15  18
ATOM     18  O   UNL     1      59.731  24.801  56.254  1.00  0.00    -0.508 OA
ATOM     19  H   UNL     1      60.180  25.548  55.736  1.00  0.00     0.293 HD
ENDBRANCH  15  18
BRANCH  17  20
ATOM     20  O   UNL     1      56.080  21.721  56.986  1.00  0.00    -0.507 OA
ATOM     21  H   UNL     1      55.790  20.890  56.482  1.00  0.00     0.293 HD
ENDBRANCH  17  20
ENDBRANCH   1  12
BRANCH   2  22
ATOM     22  O   UNL     1      55.209  21.391  53.496  1.00  0.00    -0.502 OA
ATOM     23  H   UNL     1      55.760  21.819  52.761  1.00  0.00     0.293 HD
ENDBRANCH   2  22
BRANCH   6  24
ATOM     24  O   UNL     1      49.884  21.309  53.366  1.00  0.00    -0.507 OA
ATOM     25  H   UNL     1      49.489  20.396  53.530  1.00  0.00     0.293 HD
ENDBRANCH   6  24
BRANCH   8  26
ATOM     26  O   UNL     1      48.886  24.358  56.918  1.00  0.00    -0.508 OA
ATOM     27  H   UNL     1      48.943  24.362  57.929  1.00  0.00     0.293 HD
ENDBRANCH   8  26
TORSDOF 6
ENDMDL
MODEL 8
REMARK VINA RESULT:    -4.814      1.506      2.131
REMARK INTER + INTRA:          -6.162
REMARK INTER:                  -5.801
REMARK INTRA:                  -0.361
REMARK UNBOUND:                -0.363
REMARK SMILES O=c1c(O)c(-c2ccc(O)cc2O)oc2cc(O)cc(O)c12
REMARK SMILES IDX 5 1 3 2 2 3 1 4 22 5 20 6 19 7 17 8 16 9 15 10 14 11 6 12
REMARK SMILES IDX 8 13 7 14 9 15 11 16 12 17 10 18 13 20 4 22 21 24 18 26
REMARK H PARENT 10 19 13 21 4 23 21 25 18 27
REMARK Flexibility Score: inf
ROOT
ATOM      1  C   UNL     1      52.920  23.176  52.890  1.00  0.00     0.184 A 
ATOM      2  C   UNL     1      53.385  24.010  53.920  1.00  0.00     0.208 A 
ATOM      3  C   UNL     1      52.588  24.191  55.063  1.00  0.00     0.238 A 
ATOM      4  O   UNL     1      52.985  24.983  55.957  1.00  0.00    -0.285 OA
ATOM      5  C   UNL     1      51.346  23.519  55.168  1.00  0.00     0.111 A 
ATOM      6  C   UNL     1      50.476  23.597  56.297  1.00  0.00     0.134 A 
ATOM      7  C   UNL     1      49.214  22.993  56.239  1.00  0.00     0.093 A 
ATOM      8  C   UNL     1      48.817  22.259  55.121  1.00  0.00     0.123 A 
ATOM      9  C   UNL     1      49.684  22.127  54.036  1.00  0.00     0.094 A 
ATOM     10  C   UNL     1      50.935  22.749  54.049  1.00  0.00     0.146 A 
ATOM     11  O   UNL     1      51.724  22.608  52.991  1.00  0.00    -0.451 OA
ENDROOT
BRANCH   1  12
ATOM     12  C   UNL     1      53.720  22.922  51.668  1.00  0.00     0.063 A 
ATOM     13  C   UNL     1      54.247  23.438  49.349  1.00  0.00     0.047 A 
ATOM     14  C   UNL     1      53.477  23.658  50.494  1.00  0.00     0.020 A 
ATOM     15  C   UNL     1      55.277  22.491  49.365  1.00  0.00     0.119 A 
ATOM     16  C   UNL     1      55.534  21.766  50.531  1.00  0.00     0.093 A 
ATOM     17  C   UNL     1      54.764  21.977  51.685  1.00  0.00     0.130 A 
BRANCH  15  18
ATOM     18  O   UNL     1      56.052  22.265  48.229  1.00  0.00    -0.508 OA
ATOM     19  H   UNL     1      55.764  21.607  47.514  1.00  0.00     0.293 HD
ENDBRANCH  15  18
BRANCH  17  20
ATOM     20  O   UNL     1      55.028  21.241  52.840  1.00  0.00    -0.507 OA
ATOM     21  H   UNL     1      54.469  20.435  53.096  1.00  0.00     0.293 HD
ENDBRANCH  17  20
ENDBRANCH   1  12
BRANCH   2  22
ATOM     22  O   UNL     1      54.608  24.673  53.788  1.00  0.00    -0.502 OA
ATOM     23  H   UNL     1      54.856  25.475  54.355  1.00  0.00     0.293 HD
ENDBRANCH   2  22
BRANCH   6  24
ATOM     24  O   UNL     1      50.811  24.227  57.499  1.00  0.00    -0.507 OA
ATOM     25  H   UNL     1      51.412  23.834  58.207  1.00  0.00     0.293 HD
ENDBRANCH   6  24
BRANCH   8  26
ATOM     26  O   UNL     1      47.560  21.658  55.105  1.00  0.00    -0.508 OA
ATOM     27  H   UNL     1      47.314  20.964  54.409  1.00  0.00     0.293 HD
ENDBRANCH   8  26
TORSDOF 6
ENDMDL
MODEL 9
REMARK VINA RESULT:    -4.792      2.016      6.557
REMARK INTER + INTRA:          -6.135
REMARK INTER:                  -5.659
REMARK INTRA:                  -0.477
REMARK UNBOUND:                -0.363
REMARK SMILES O=c1c(O)c(-c2ccc(O)cc2O)oc2cc(O)cc(O)c12
REMARK SMILES IDX 5 1 3 2 2 3 1 4 22 5 20 6 19 7 17 8 16 9 15 10 14 11 6 12
REMARK SMILES IDX 8 13 7 14 9 15 11 16 12 17 10 18 13 20 4 22 21 24 18 26
REMARK H PARENT 10 19 13 21 4 23 21 25 18 27
REMARK Flexibility Score: inf
ROOT
ATOM      1  C   UNL     1      52.840  23.113  54.263  1.00  0.00     0.184 A 
ATOM      2  C   UNL     1      53.969  22.832  55.052  1.00  0.00     0.208 A 
ATOM      3  C   UNL     1      55.247  23.024  54.503  1.00  0.00     0.238 A 
ATOM      4  O   UNL     1      56.253  22.718  55.195  1.00  0.00    -0.285 OA
ATOM      5  C   UNL     1      55.381  23.512  53.181  1.00  0.00     0.111 A 
ATOM      6  C   UNL     1      56.627  23.781  52.538  1.00  0.00     0.134 A 
ATOM      7  C   UNL     1      56.642  24.140  51.185  1.00  0.00     0.093 A 
ATOM      8  C   UNL     1      55.456  24.302  50.469  1.00  0.00     0.123 A 
ATOM      9  C   UNL     1      54.230  24.100  51.104  1.00  0.00     0.094 A 
ATOM     10  C   UNL     1      54.183  23.706  52.443  1.00  0.00     0.146 A 
ATOM     11  O   UNL     1      52.997  23.511  53.006  1.00  0.00    -0.451 OA
ENDROOT
BRANCH   1  12
ATOM     12  C   UNL     1      51.463  22.956  54.785  1.00  0.00     0.063 A 
ATOM     13  C   UNL     1      49.634  23.751  56.181  1.00  0.00     0.047 A 
ATOM     14  C   UNL     1      50.942  23.882  55.708  1.00  0.00     0.020 A 
ATOM     15  C   UNL     1      48.824  22.702  55.732  1.00  0.00     0.119 A 
ATOM     16  C   UNL     1      49.329  21.785  54.806  1.00  0.00     0.093 A 
ATOM     17  C   UNL     1      50.642  21.906  54.327  1.00  0.00     0.130 A 
BRANCH  15  18
ATOM     18  O   UNL     1      47.519  22.562  56.197  1.00  0.00    -0.508 OA
ATOM     19  H   UNL     1      46.904  21.839  55.841  1.00  0.00     0.293 HD
ENDBRANCH  15  18
BRANCH  17  20
ATOM     20  O   UNL     1      51.134  20.980  53.407  1.00  0.00    -0.507 OA
ATOM     21  H   UNL     1      51.824  21.238  52.710  1.00  0.00     0.293 HD
ENDBRANCH  17  20
ENDBRANCH   1  12
BRANCH   2  22
ATOM     22  O   UNL     1      53.812  22.339  56.349  1.00  0.00    -0.502 OA
ATOM     23  H   UNL     1      53.118  21.640  56.585  1.00  0.00     0.293 HD
ENDBRANCH   2  22
BRANCH   6  24
ATOM     24  O   UNL     1      57.864  23.738  53.186  1.00  0.00    -0.507 OA
ATOM     25  H   UNL     1      58.007  23.425  54.134  1.00  0.00     0.293 HD
ENDBRANCH   6  24
BRANCH   8  26
ATOM     26  O   UNL     1      55.509  24.676  49.127  1.00  0.00    -0.508 OA
ATOM     27  H   UNL     1      54.796  24.386  48.469  1.00  0.00     0.293 HD
ENDBRANCH   8  26
TORSDOF 6
ENDMDL
