MODEL 1
REMARK VINA RESULT:    -3.285      0.000      0.000
REMARK INTER + INTRA:          -5.349
REMARK INTER:                  -5.014
REMARK INTRA:                  -0.336
REMARK UNBOUND:                -0.336
REMARK SMILES CC1=CCC[C@@H](C)C(=O)C[C@H](C(C)C)C(=O)C1
REMARK SMILES IDX 8 1 9 2 6 3 7 4 5 5 4 6 3 7 2 8 1 9 10 11 11 12 15 13 16 14
REMARK SMILES IDX 17 15 12 17 13 18 14 19
REMARK H PARENT
REMARK Flexibility Score: 70.00
ROOT
ATOM      1  C   UNL     1      34.405  70.087 107.345  1.00  0.00     0.136 C 
ATOM      2  O   UNL     1      35.082  70.547 108.255  1.00  0.00    -0.299 OA
ENDROOT
BRANCH   1   3
ATOM      3  C   UNL     1      33.881  71.000 106.257  1.00  0.00     0.053 C 
ATOM      4  C   UNL     1      35.048  71.795 105.661  1.00  0.00     0.016 C 
BRANCH   3   5
ATOM      5  C   UNL     1      32.777  71.961 106.758  1.00  0.00     0.015 C 
BRANCH   5   6
ATOM      6  C   UNL     1      31.357  71.374 106.678  1.00  0.00     0.028 C 
BRANCH   6   7
ATOM      7  C   UNL     1      31.208  70.444 105.496  1.00  0.00    -0.028 C 
ATOM      8  C   UNL     1      30.917  69.126 105.566  1.00  0.00    -0.070 CG0
ATOM      9  C   UNL     1      30.813  68.354 104.274  1.00  0.00     0.039 C 
ATOM     10  G   UNL     1      30.687  68.398 106.877  1.00  0.00     0.000 G0
ENDBRANCH   6   7
ENDBRANCH   5   6
ENDBRANCH   3   5
ENDBRANCH   1   3
BRANCH   1  11
ATOM     11  C   UNL     1      34.161  68.598 107.289  1.00  0.00     0.087 C 
BRANCH  11  12
ATOM     12  C   UNL     1      32.970  68.175 108.179  1.00  0.00     0.066 C 
BRANCH  12  13
ATOM     13  C   UNL     1      31.859  67.564 107.337  1.00  0.00     0.140 C 
ATOM     14  O   UNL     1      31.911  66.381 107.031  1.00  0.00    -0.299 OA
BRANCH  13  15
ATOM     15  C   UNL     1      30.676  68.381 106.880  1.00  0.00     0.106 CG0
ATOM     16  G   UNL     1      30.949  69.118 105.582  1.00  0.00     0.000 G0
ENDBRANCH  13  15
ENDBRANCH  12  13
BRANCH  12  17
ATOM     17  C   UNL     1      33.413  67.257 109.358  1.00  0.00    -0.006 C 
ATOM     18  C   UNL     1      33.214  67.876 110.752  1.00  0.00     0.008 C 
ATOM     19  C   UNL     1      34.870  66.798 109.191  1.00  0.00     0.008 C 
ENDBRANCH  12  17
ENDBRANCH  11  12
ENDBRANCH   1  11
TORSDOF 1
ENDMDL
MODEL 2
REMARK VINA RESULT:    -3.245      2.882      4.853
REMARK INTER + INTRA:          -5.288
REMARK INTER:                  -5.043
REMARK INTRA:                  -0.245
REMARK UNBOUND:                -0.336
REMARK SMILES CC1=CCC[C@@H](C)C(=O)C[C@H](C(C)C)C(=O)C1
REMARK SMILES IDX 8 1 9 2 6 3 7 4 5 5 4 6 3 7 2 8 1 9 10 11 11 12 15 13 16 14
REMARK SMILES IDX 17 15 12 17 13 18 14 19
REMARK H PARENT
REMARK Flexibility Score: 70.00
ROOT
ATOM      1  C   UNL     1      31.671  69.680 105.457  1.00  0.00     0.136 C 
ATOM      2  O   UNL     1      31.044  69.874 104.424  1.00  0.00    -0.299 OA
ENDROOT
BRANCH   1   3
ATOM      3  C   UNL     1      31.484  70.608 106.639  1.00  0.00     0.053 C 
ATOM      4  C   UNL     1      30.001  70.641 107.023  1.00  0.00     0.016 C 
BRANCH   3   5
ATOM      5  C   UNL     1      32.000  72.041 106.367  1.00  0.00     0.015 C 
BRANCH   5   6
ATOM      6  C   UNL     1      33.516  72.119 106.121  1.00  0.00     0.028 C 
BRANCH   6   7
ATOM      7  C   UNL     1      34.299  71.760 107.362  1.00  0.00    -0.028 C 
ATOM      8  C   UNL     1      35.315  70.870 107.421  1.00  0.00    -0.070 CG0
ATOM      9  C   UNL     1      35.976  70.637 108.756  1.00  0.00     0.039 C 
ATOM     10  G   UNL     1      35.816  70.106 106.209  1.00  0.00     0.000 G0
ENDBRANCH   6   7
ENDBRANCH   5   6
ENDBRANCH   3   5
ENDBRANCH   1   3
BRANCH   1  11
ATOM     11  C   UNL     1      32.575  68.475 105.556  1.00  0.00     0.087 C 
BRANCH  11  12
ATOM     12  C   UNL     1      33.959  68.737 104.920  1.00  0.00     0.066 C 
BRANCH  12  13
ATOM     13  C   UNL     1      35.037  68.817 105.990  1.00  0.00     0.140 C 
ATOM     14  O   UNL     1      35.285  67.835 106.676  1.00  0.00    -0.299 OA
BRANCH  13  15
ATOM     15  C   UNL     1      35.829  70.081 106.218  1.00  0.00     0.106 CG0
ATOM     16  G   UNL     1      35.327  70.869 107.414  1.00  0.00     0.000 G0
ENDBRANCH  13  15
ENDBRANCH  12  13
BRANCH  12  17
ATOM     17  C   UNL     1      34.293  67.711 103.795  1.00  0.00    -0.006 C 
ATOM     18  C   UNL     1      35.519  68.082 102.943  1.00  0.00     0.008 C 
ATOM     19  C   UNL     1      33.079  67.461 102.888  1.00  0.00     0.008 C 
ENDBRANCH  12  17
ENDBRANCH  11  12
ENDBRANCH   1  11
TORSDOF 1
ENDMDL
MODEL 3
REMARK VINA RESULT:    -3.086      2.768      5.133
REMARK INTER + INTRA:          -5.046
REMARK INTER:                  -4.930
REMARK INTRA:                  -0.116
REMARK UNBOUND:                -0.336
REMARK SMILES CC1=CCC[C@@H](C)C(=O)C[C@H](C(C)C)C(=O)C1
REMARK SMILES IDX 8 1 9 2 6 3 7 4 5 5 4 6 3 7 2 8 1 9 10 11 11 12 15 13 16 14
REMARK SMILES IDX 17 15 12 17 13 18 14 19
REMARK H PARENT
REMARK Flexibility Score: 70.00
ROOT
ATOM      1  C   UNL     1      31.601  68.223 104.080  1.00  0.00     0.136 C 
ATOM      2  O   UNL     1      30.513  67.663 104.116  1.00  0.00    -0.299 OA
ENDROOT
BRANCH   1   3
ATOM      3  C   UNL     1      32.817  67.478 103.570  1.00  0.00     0.053 C 
ATOM      4  C   UNL     1      32.373  66.431 102.544  1.00  0.00     0.016 C 
BRANCH   3   5
ATOM      5  C   UNL     1      33.630  66.808 104.703  1.00  0.00     0.015 C 
BRANCH   5   6
ATOM      6  C   UNL     1      35.065  67.346 104.841  1.00  0.00     0.028 C 
BRANCH   6   7
ATOM      7  C   UNL     1      35.316  68.504 103.903  1.00  0.00    -0.028 C 
ATOM      8  C   UNL     1      35.276  69.812 104.241  1.00  0.00    -0.070 CG0
ATOM      9  C   UNL     1      35.549  70.830 103.162  1.00  0.00     0.039 C 
ATOM     10  G   UNL     1      34.975  70.294 105.648  1.00  0.00     0.000 G0
ENDBRANCH   6   7
ENDBRANCH   5   6
ENDBRANCH   3   5
ENDBRANCH   1   3
BRANCH   1  11
ATOM     11  C   UNL     1      31.696  69.675 104.483  1.00  0.00     0.087 C 
BRANCH  11  12
ATOM     12  C   UNL     1      32.369  69.848 105.863  1.00  0.00     0.066 C 
BRANCH  12  13
ATOM     13  C   UNL     1      33.542  70.814 105.774  1.00  0.00     0.140 C 
ATOM     14  O   UNL     1      33.340  72.019 105.823  1.00  0.00    -0.299 OA
BRANCH  13  15
ATOM     15  C   UNL     1      34.961  70.320 105.642  1.00  0.00     0.106 CG0
ATOM     16  G   UNL     1      35.273  69.821 104.244  1.00  0.00     0.000 G0
ENDBRANCH  13  15
ENDBRANCH  12  13
BRANCH  12  17
ATOM     17  C   UNL     1      31.345  70.237 106.972  1.00  0.00    -0.006 C 
ATOM     18  C   UNL     1      30.706  69.037 107.693  1.00  0.00     0.008 C 
ATOM     19  C   UNL     1      30.250  71.163 106.422  1.00  0.00     0.008 C 
ENDBRANCH  12  17
ENDBRANCH  11  12
ENDBRANCH   1  11
TORSDOF 1
ENDMDL
MODEL 4
REMARK VINA RESULT:    -3.058      1.966      3.645
REMARK INTER + INTRA:          -5.003
REMARK INTER:                  -5.142
REMARK INTRA:                   0.139
REMARK UNBOUND:                -0.336
REMARK SMILES CC1=CCC[C@@H](C)C(=O)C[C@H](C(C)C)C(=O)C1
REMARK SMILES IDX 8 1 9 2 6 3 7 4 5 5 4 6 3 7 2 8 1 9 10 11 11 12 15 13 16 14
REMARK SMILES IDX 17 15 12 17 13 18 14 19
REMARK H PARENT
REMARK Flexibility Score: 70.00
ROOT
ATOM      1  C   UNL     1      31.715  70.138 105.008  1.00  0.00     0.136 C 
ATOM      2  O   UNL     1      31.295  69.227 104.308  1.00  0.00    -0.299 OA
ENDROOT
BRANCH   1   3
ATOM      3  C   UNL     1      30.749  70.956 105.841  1.00  0.00     0.053 C 
ATOM      4  C   UNL     1      31.521  72.071 106.556  1.00  0.00     0.016 C 
BRANCH   3   5
ATOM      5  C   UNL     1      29.967  70.102 106.867  1.00  0.00     0.015 C 
BRANCH   5   6
ATOM      6  C   UNL     1      30.866  69.265 107.793  1.00  0.00     0.028 C 
BRANCH   6   7
ATOM      7  C   UNL     1      30.853  67.804 107.407  1.00  0.00    -0.028 C 
ATOM      8  C   UNL     1      31.945  67.020 107.263  1.00  0.00    -0.070 CG0
ATOM      9  C   UNL     1      31.735  65.581 106.864  1.00  0.00     0.039 C 
ATOM     10  G   UNL     1      33.359  67.522 107.487  1.00  0.00     0.000 G0
ENDBRANCH   6   7
ENDBRANCH   5   6
ENDBRANCH   3   5
ENDBRANCH   1   3
BRANCH   1  11
ATOM     11  C   UNL     1      33.202  70.388 105.081  1.00  0.00     0.087 C 
BRANCH  11  12
ATOM     12  C   UNL     1      33.811  69.860 106.399  1.00  0.00     0.066 C 
BRANCH  12  13
ATOM     13  C   UNL     1      33.907  68.342 106.379  1.00  0.00     0.140 C 
ATOM     14  O   UNL     1      34.442  67.779 105.433  1.00  0.00    -0.299 OA
BRANCH  13  15
ATOM     15  C   UNL     1      33.371  67.503 107.513  1.00  0.00     0.106 CG0
ATOM     16  G   UNL     1      31.953  67.025 107.259  1.00  0.00     0.000 G0
ENDBRANCH  13  15
ENDBRANCH  12  13
BRANCH  12  17
ATOM     17  C   UNL     1      35.168  70.550 106.737  1.00  0.00    -0.006 C 
ATOM     18  C   UNL     1      35.503  70.585 108.238  1.00  0.00     0.008 C 
ATOM     19  C   UNL     1      35.235  71.967 106.151  1.00  0.00     0.008 C 
ENDBRANCH  12  17
ENDBRANCH  11  12
ENDBRANCH   1  11
TORSDOF 1
ENDMDL
MODEL 5
REMARK VINA RESULT:    -3.030      2.694      4.037
REMARK INTER + INTRA:          -4.960
REMARK INTER:                  -4.993
REMARK INTRA:                   0.033
REMARK UNBOUND:                -0.336
REMARK SMILES CC1=CCC[C@@H](C)C(=O)C[C@H](C(C)C)C(=O)C1
REMARK SMILES IDX 8 1 9 2 6 3 7 4 5 5 4 6 3 7 2 8 1 9 10 11 11 12 15 13 16 14
REMARK SMILES IDX 17 15 12 17 13 18 14 19
REMARK H PARENT
REMARK Flexibility Score: 70.00
ROOT
ATOM      1  C   UNL     1      31.096  69.053 106.967  1.00  0.00     0.136 C 
ATOM      2  O   UNL     1      30.102  68.823 107.643  1.00  0.00    -0.299 OA
ENDROOT
BRANCH   1   3
ATOM      3  C   UNL     1      31.721  70.433 106.987  1.00  0.00     0.053 C 
ATOM      4  C   UNL     1      31.024  71.316 105.948  1.00  0.00     0.016 C 
BRANCH   3   5
ATOM      5  C   UNL     1      33.247  70.405 106.732  1.00  0.00     0.015 C 
BRANCH   5   6
ATOM      6  C   UNL     1      33.664  71.029 105.389  1.00  0.00     0.028 C 
BRANCH   6   7
ATOM      7  C   UNL     1      34.362  70.022 104.504  1.00  0.00    -0.028 C 
ATOM      8  C   UNL     1      33.753  69.191 103.628  1.00  0.00    -0.070 CG0
ATOM      9  C   UNL     1      34.617  68.247 102.831  1.00  0.00     0.039 C 
ATOM     10  G   UNL     1      32.251  69.173 103.412  1.00  0.00     0.000 G0
ENDBRANCH   6   7
ENDBRANCH   5   6
ENDBRANCH   3   5
ENDBRANCH   1   3
BRANCH   1  11
ATOM     11  C   UNL     1      31.724  67.931 106.174  1.00  0.00     0.087 C 
BRANCH  11  12
ATOM     12  C   UNL     1      30.865  67.539 104.951  1.00  0.00     0.066 C 
BRANCH  12  13
ATOM     13  C   UNL     1      31.606  67.834 103.655  1.00  0.00     0.140 C 
ATOM     14  O   UNL     1      31.682  66.972 102.790  1.00  0.00    -0.299 OA
BRANCH  13  15
ATOM     15  C   UNL     1      32.242  69.178 103.398  1.00  0.00     0.106 CG0
ATOM     16  G   UNL     1      33.741  69.163 103.632  1.00  0.00     0.000 G0
ENDBRANCH  13  15
ENDBRANCH  12  13
BRANCH  12  17
ATOM     17  C   UNL     1      30.355  66.069 105.038  1.00  0.00    -0.006 C 
ATOM     18  C   UNL     1      29.154  65.870 105.979  1.00  0.00     0.008 C 
ATOM     19  C   UNL     1      31.488  65.106 105.422  1.00  0.00     0.008 C 
ENDBRANCH  12  17
ENDBRANCH  11  12
ENDBRANCH   1  11
TORSDOF 1
ENDMDL
MODEL 6
REMARK VINA RESULT:    -2.940      2.372      5.406
REMARK INTER + INTRA:          -4.823
REMARK INTER:                  -4.660
REMARK INTRA:                  -0.162
REMARK UNBOUND:                -0.336
REMARK SMILES CC1=CCC[C@@H](C)C(=O)C[C@H](C(C)C)C(=O)C1
REMARK SMILES IDX 8 1 9 2 6 3 7 4 5 5 4 6 3 7 2 8 1 9 10 11 11 12 15 13 16 14
REMARK SMILES IDX 17 15 12 17 13 18 14 19
REMARK H PARENT
REMARK Flexibility Score: 70.00
ROOT
ATOM      1  C   UNL     1      32.585  68.002 107.320  1.00  0.00     0.136 C 
ATOM      2  O   UNL     1      31.374  67.832 107.369  1.00  0.00    -0.299 OA
ENDROOT
BRANCH   1   3
ATOM      3  C   UNL     1      33.494  67.246 108.266  1.00  0.00     0.053 C 
ATOM      4  C   UNL     1      32.715  66.083 108.890  1.00  0.00     0.016 C 
BRANCH   3   5
ATOM      5  C   UNL     1      34.092  68.146 109.373  1.00  0.00     0.015 C 
BRANCH   5   6
ATOM      6  C   UNL     1      35.530  68.611 109.087  1.00  0.00     0.028 C 
BRANCH   6   7
ATOM      7  C   UNL     1      35.693  70.093 109.333  1.00  0.00    -0.028 C 
ATOM      8  C   UNL     1      35.660  71.056 108.384  1.00  0.00    -0.070 CG0
ATOM      9  C   UNL     1      35.847  72.487 108.822  1.00  0.00     0.039 C 
ATOM     10  G   UNL     1      35.438  70.759 106.913  1.00  0.00     0.000 G0
ENDBRANCH   6   7
ENDBRANCH   5   6
ENDBRANCH   3   5
ENDBRANCH   1   3
BRANCH   1  11
ATOM     11  C   UNL     1      33.158  68.918 106.265  1.00  0.00     0.087 C 
BRANCH  11  12
ATOM     12  C   UNL     1      32.841  70.403 106.556  1.00  0.00     0.066 C 
BRANCH  12  13
ATOM     13  C   UNL     1      34.092  71.258 106.421  1.00  0.00     0.140 C 
ATOM     14  O   UNL     1      34.015  72.372 105.923  1.00  0.00    -0.299 OA
BRANCH  13  15
ATOM     15  C   UNL     1      35.436  70.771 106.904  1.00  0.00     0.106 CG0
ATOM     16  G   UNL     1      35.662  71.064 108.375  1.00  0.00     0.000 G0
ENDBRANCH  13  15
ENDBRANCH  12  13
BRANCH  12  17
ATOM     17  C   UNL     1      31.650  70.929 105.698  1.00  0.00    -0.006 C 
ATOM     18  C   UNL     1      30.440  71.405 106.519  1.00  0.00     0.008 C 
ATOM     19  C   UNL     1      31.204  69.885 104.662  1.00  0.00     0.008 C 
ENDBRANCH  12  17
ENDBRANCH  11  12
ENDBRANCH   1  11
TORSDOF 1
ENDMDL
MODEL 7
REMARK VINA RESULT:    -2.921      2.413      3.784
REMARK INTER + INTRA:          -4.793
REMARK INTER:                  -4.564
REMARK INTRA:                  -0.229
REMARK UNBOUND:                -0.336
REMARK SMILES CC1=CCC[C@@H](C)C(=O)C[C@H](C(C)C)C(=O)C1
REMARK SMILES IDX 8 1 9 2 6 3 7 4 5 5 4 6 3 7 2 8 1 9 10 11 11 12 15 13 16 14
REMARK SMILES IDX 17 15 12 17 13 18 14 19
REMARK H PARENT
REMARK Flexibility Score: 70.00
ROOT
ATOM      1  C   UNL     1      30.513  69.799 106.925  1.00  0.00     0.136 C 
ATOM      2  O   UNL     1      29.362  70.136 107.166  1.00  0.00    -0.299 OA
ENDROOT
BRANCH   1   3
ATOM      3  C   UNL     1      31.317  70.548 105.882  1.00  0.00     0.053 C 
ATOM      4  C   UNL     1      31.146  72.054 106.101  1.00  0.00     0.016 C 
BRANCH   3   5
ATOM      5  C   UNL     1      30.926  70.167 104.434  1.00  0.00     0.015 C 
BRANCH   5   6
ATOM      6  C   UNL     1      31.942  69.246 103.737  1.00  0.00     0.028 C 
BRANCH   6   7
ATOM      7  C   UNL     1      33.345  69.483 104.246  1.00  0.00    -0.028 C 
ATOM      8  C   UNL     1      34.078  68.604 104.965  1.00  0.00    -0.070 CG0
ATOM      9  C   UNL     1      35.463  69.020 105.392  1.00  0.00     0.039 C 
ATOM     10  G   UNL     1      33.572  67.227 105.354  1.00  0.00     0.000 G0
ENDBRANCH   6   7
ENDBRANCH   5   6
ENDBRANCH   3   5
ENDBRANCH   1   3
BRANCH   1  11
ATOM     11  C   UNL     1      31.135  68.679 107.724  1.00  0.00     0.087 C 
BRANCH  11  12
ATOM     12  C   UNL     1      31.419  67.436 106.850  1.00  0.00     0.066 C 
BRANCH  12  13
ATOM     13  C   UNL     1      32.917  67.206 106.709  1.00  0.00     0.140 C 
ATOM     14  O   UNL     1      33.595  66.995 107.706  1.00  0.00    -0.299 OA
BRANCH  13  15
ATOM     15  C   UNL     1      33.593  67.214 105.360  1.00  0.00     0.106 CG0
ATOM     16  G   UNL     1      34.079  68.596 104.966  1.00  0.00     0.000 G0
ENDBRANCH  13  15
ENDBRANCH  12  13
BRANCH  12  17
ATOM     17  C   UNL     1      30.656  66.174 107.356  1.00  0.00    -0.006 C 
ATOM     18  C   UNL     1      31.129  64.853 106.726  1.00  0.00     0.008 C 
ATOM     19  C   UNL     1      29.139  66.329 107.173  1.00  0.00     0.008 C 
ENDBRANCH  12  17
ENDBRANCH  11  12
ENDBRANCH   1  11
TORSDOF 1
ENDMDL
MODEL 8
REMARK VINA RESULT:    -2.865      3.067      4.666
REMARK INTER + INTRA:          -4.708
REMARK INTER:                  -5.026
REMARK INTRA:                   0.318
REMARK UNBOUND:                -0.336
REMARK SMILES CC1=CCC[C@@H](C)C(=O)C[C@H](C(C)C)C(=O)C1
REMARK SMILES IDX 8 1 9 2 6 3 7 4 5 5 4 6 3 7 2 8 1 9 10 11 11 12 15 13 16 14
REMARK SMILES IDX 17 15 12 17 13 18 14 19
REMARK H PARENT
REMARK Flexibility Score: 70.00
ROOT
ATOM      1  C   UNL     1      32.473  71.626 106.326  1.00  0.00     0.136 C 
ATOM      2  O   UNL     1      31.476  72.163 106.790  1.00  0.00    -0.299 OA
ENDROOT
BRANCH   1   3
ATOM      3  C   UNL     1      32.330  70.403 105.444  1.00  0.00     0.053 C 
ATOM      4  C   UNL     1      30.936  70.399 104.809  1.00  0.00     0.016 C 
BRANCH   3   5
ATOM      5  C   UNL     1      32.575  69.080 106.208  1.00  0.00     0.015 C 
BRANCH   5   6
ATOM      6  C   UNL     1      33.419  68.058 105.427  1.00  0.00     0.028 C 
BRANCH   6   7
ATOM      7  C   UNL     1      34.152  68.707 104.277  1.00  0.00    -0.028 C 
ATOM      8  C   UNL     1      35.336  69.355 104.365  1.00  0.00    -0.070 CG0
ATOM      9  C   UNL     1      35.914  69.947 103.105  1.00  0.00     0.039 C 
ATOM     10  G   UNL     1      36.102  69.505 105.667  1.00  0.00     0.000 G0
ENDBRANCH   6   7
ENDBRANCH   5   6
ENDBRANCH   3   5
ENDBRANCH   1   3
BRANCH   1  11
ATOM     11  C   UNL     1      33.829  72.238 106.586  1.00  0.00     0.087 C 
BRANCH  11  12
ATOM     12  C   UNL     1      34.807  71.223 107.220  1.00  0.00     0.066 C 
BRANCH  12  13
ATOM     13  C   UNL     1      35.944  70.900 106.263  1.00  0.00     0.140 C 
ATOM     14  O   UNL     1      36.759  71.765 105.975  1.00  0.00    -0.299 OA
BRANCH  13  15
ATOM     15  C   UNL     1      36.105  69.523 105.666  1.00  0.00     0.106 CG0
ATOM     16  G   UNL     1      35.341  69.363 104.366  1.00  0.00     0.000 G0
ENDBRANCH  13  15
ENDBRANCH  12  13
BRANCH  12  17
ATOM     17  C   UNL     1      35.306  71.685 108.623  1.00  0.00    -0.006 C 
ATOM     18  C   UNL     1      35.619  73.188 108.720  1.00  0.00     0.008 C 
ATOM     19  C   UNL     1      36.522  70.865 109.080  1.00  0.00     0.008 C 
ENDBRANCH  12  17
ENDBRANCH  11  12
ENDBRANCH   1  11
TORSDOF 1
ENDMDL
MODEL 9
REMARK VINA RESULT:    -2.859      2.658      5.139
REMARK INTER + INTRA:          -4.699
REMARK INTER:                  -4.413
REMARK INTRA:                  -0.286
REMARK UNBOUND:                -0.336
REMARK SMILES CC1=CCC[C@@H](C)C(=O)C[C@H](C(C)C)C(=O)C1
REMARK SMILES IDX 8 1 9 2 6 3 7 4 5 5 4 6 3 7 2 8 1 9 10 11 11 12 15 13 16 14
REMARK SMILES IDX 17 15 12 17 13 18 14 19
REMARK H PARENT
REMARK Flexibility Score: 70.00
ROOT
ATOM      1  C   UNL     1      30.431  68.157 106.066  1.00  0.00     0.136 C 
ATOM      2  O   UNL     1      29.643  68.632 106.873  1.00  0.00    -0.299 OA
ENDROOT
BRANCH   1   3
ATOM      3  C   UNL     1      30.661  66.660 106.026  1.00  0.00     0.053 C 
ATOM      4  C   UNL     1      29.316  65.949 105.844  1.00  0.00     0.016 C 
BRANCH   3   5
ATOM      5  C   UNL     1      31.383  66.129 107.287  1.00  0.00     0.015 C 
BRANCH   5   6
ATOM      6  C   UNL     1      32.915  66.247 107.222  1.00  0.00     0.028 C 
BRANCH   6   7
ATOM      7  C   UNL     1      33.446  65.842 105.866  1.00  0.00    -0.028 C 
ATOM      8  C   UNL     1      34.177  66.626 105.042  1.00  0.00    -0.070 CG0
ATOM      9  C   UNL     1      34.615  66.048 103.720  1.00  0.00     0.039 C 
ATOM     10  G   UNL     1      34.574  68.048 105.390  1.00  0.00     0.000 G0
ENDBRANCH   6   7
ENDBRANCH   5   6
ENDBRANCH   3   5
ENDBRANCH   1   3
BRANCH   1  11
ATOM     11  C   UNL     1      31.112  69.071 105.075  1.00  0.00     0.087 C 
BRANCH  11  12
ATOM     12  C   UNL     1      32.447  69.624 105.623  1.00  0.00     0.066 C 
BRANCH  12  13
ATOM     13  C   UNL     1      33.622  69.089 104.819  1.00  0.00     0.140 C 
ATOM     14  O   UNL     1      33.824  69.508 103.688  1.00  0.00    -0.299 OA
BRANCH  13  15
ATOM     15  C   UNL     1      34.566  68.060 105.391  1.00  0.00     0.106 CG0
ATOM     16  G   UNL     1      34.164  66.643 105.029  1.00  0.00     0.000 G0
ENDBRANCH  13  15
ENDBRANCH  12  13
BRANCH  12  17
ATOM     17  C   UNL     1      32.440  71.179 105.728  1.00  0.00    -0.006 C 
ATOM     18  C   UNL     1      33.716  71.778 106.344  1.00  0.00     0.008 C 
ATOM     19  C   UNL     1      31.204  71.682 106.490  1.00  0.00     0.008 C 
ENDBRANCH  12  17
ENDBRANCH  11  12
ENDBRANCH   1  11
TORSDOF 1
ENDMDL
