MODEL 1
REMARK VINA RESULT:    -5.046      0.000      0.000
REMARK INTER + INTRA:         -10.570
REMARK INTER:                  -9.175
REMARK INTRA:                  -1.395
REMARK UNBOUND:                -1.395
REMARK SMILES CCCCCCCCCCCCCCCC(=O)[O-]
REMARK SMILES IDX 9 1 10 2 11 3 12 4 13 5 14 6 15 7 16 8 17 9 18 10 8 11 7 12
REMARK SMILES IDX 6 13 5 14 4 15 3 16 2 17 1 18
REMARK H PARENT
REMARK Flexibility Score: inf
ROOT
ATOM      1  C   UNL     1      28.916  -3.025  30.174  1.00  0.00     0.000 C 
ENDROOT
BRANCH   1   2
ATOM      2  C   UNL     1      27.684  -2.684  31.027  1.00  0.00     0.000 C 
BRANCH   2   3
ATOM      3  C   UNL     1      26.718  -1.723  30.316  1.00  0.00     0.000 C 
BRANCH   3   4
ATOM      4  C   UNL     1      27.334  -1.094  29.054  1.00  0.00     0.000 C 
BRANCH   4   5
ATOM      5  C   UNL     1      27.529   0.426  29.187  1.00  0.00     0.000 C 
BRANCH   5   6
ATOM      6  C   UNL     1      27.531   0.899  30.648  1.00  0.00     0.006 C 
BRANCH   6   7
ATOM      7  C   UNL     1      28.898   1.472  31.036  1.00  0.00     0.053 C 
BRANCH   7   8
ATOM      8  C   UNL     1      29.876   0.370  31.289  1.00  0.00     0.041 C 
ATOM      9  O   UNL     1      29.875  -0.239  32.393  1.00  0.00    -0.550 OA
ATOM     10  O   UNL     1      30.821   0.043  30.325  1.00  0.00    -0.550 OA
ENDBRANCH   7   8
ENDBRANCH   6   7
ENDBRANCH   5   6
ENDBRANCH   4   5
ENDBRANCH   3   4
ENDBRANCH   2   3
ENDBRANCH   1   2
BRANCH   1  11
ATOM     11  C   UNL     1      29.073  -4.544  30.021  1.00  0.00     0.000 C 
BRANCH  11  12
ATOM     12  C   UNL     1      27.782  -5.274  30.419  1.00  0.00    -0.000 C 
BRANCH  12  13
ATOM     13  C   UNL     1      27.649  -6.652  29.752  1.00  0.00    -0.000 C 
BRANCH  13  14
ATOM     14  C   UNL     1      28.987  -7.184  29.218  1.00  0.00    -0.000 C 
BRANCH  14  15
ATOM     15  C   UNL     1      28.860  -8.652  28.783  1.00  0.00    -0.000 C 
BRANCH  15  16
ATOM     16  C   UNL     1      29.472  -9.634  29.799  1.00  0.00    -0.000 C 
BRANCH  16  17
ATOM     17  C   UNL     1      29.754  -9.036  31.189  1.00  0.00    -0.003 C 
ATOM     18  C   UNL     1      28.679  -9.381  32.220  1.00  0.00     0.004 C 
ENDBRANCH  16  17
ENDBRANCH  15  16
ENDBRANCH  14  15
ENDBRANCH  13  14
ENDBRANCH  12  13
ENDBRANCH  11  12
ENDBRANCH   1  11
TORSDOF 14
ENDMDL
MODEL 2
REMARK VINA RESULT:    -5.016      4.685      6.656
REMARK INTER + INTRA:         -10.516
REMARK INTER:                  -9.444
REMARK INTRA:                  -1.072
REMARK UNBOUND:                -1.395
REMARK SMILES CCCCCCCCCCCCCCCC(=O)[O-]
REMARK SMILES IDX 9 1 10 2 11 3 12 4 13 5 14 6 15 7 16 8 17 9 18 10 8 11 7 12
REMARK SMILES IDX 6 13 5 14 4 15 3 16 2 17 1 18
REMARK H PARENT
REMARK Flexibility Score: inf
ROOT
ATOM      1  C   UNL     1      27.064   0.937  29.083  1.00  0.00     0.000 C 
ENDROOT
BRANCH   1   2
ATOM      2  C   UNL     1      27.820   2.047  29.828  1.00  0.00     0.000 C 
BRANCH   2   3
ATOM      3  C   UNL     1      27.776   3.394  29.089  1.00  0.00     0.000 C 
BRANCH   3   4
ATOM      4  C   UNL     1      27.390   4.562  30.013  1.00  0.00     0.000 C 
BRANCH   4   5
ATOM      5  C   UNL     1      28.596   5.438  30.394  1.00  0.00     0.000 C 
BRANCH   5   6
ATOM      6  C   UNL     1      28.337   6.935  30.172  1.00  0.00     0.006 C 
BRANCH   6   7
ATOM      7  C   UNL     1      26.935   7.326  30.649  1.00  0.00     0.053 C 
BRANCH   7   8
ATOM      8  C   UNL     1      26.840   8.805  30.844  1.00  0.00     0.041 C 
ATOM      9  O   UNL     1      25.739   9.397  30.680  1.00  0.00    -0.550 OA
ATOM     10  O   UNL     1      27.975   9.540  31.162  1.00  0.00    -0.550 OA
ENDBRANCH   7   8
ENDBRANCH   6   7
ENDBRANCH   5   6
ENDBRANCH   4   5
ENDBRANCH   3   4
ENDBRANCH   2   3
ENDBRANCH   1   2
BRANCH   1  11
ATOM     11  C   UNL     1      26.369  -0.011  30.069  1.00  0.00     0.000 C 
BRANCH  11  12
ATOM     12  C   UNL     1      26.990   0.100  31.470  1.00  0.00    -0.000 C 
BRANCH  12  13
ATOM     13  C   UNL     1      27.905  -1.087  31.810  1.00  0.00    -0.000 C 
BRANCH  13  14
ATOM     14  C   UNL     1      29.395  -0.750  31.656  1.00  0.00    -0.000 C 
BRANCH  14  15
ATOM     15  C   UNL     1      29.967  -1.366  30.370  1.00  0.00    -0.000 C 
BRANCH  15  16
ATOM     16  C   UNL     1      29.315  -2.713  30.008  1.00  0.00    -0.000 C 
BRANCH  16  17
ATOM     17  C   UNL     1      30.281  -3.909  29.960  1.00  0.00    -0.003 C 
ATOM     18  C   UNL     1      29.604  -5.241  30.287  1.00  0.00     0.004 C 
ENDBRANCH  16  17
ENDBRANCH  15  16
ENDBRANCH  14  15
ENDBRANCH  13  14
ENDBRANCH  12  13
ENDBRANCH  11  12
ENDBRANCH   1  11
TORSDOF 14
ENDMDL
MODEL 3
REMARK VINA RESULT:    -5.015      3.449      7.801
REMARK INTER + INTRA:         -10.514
REMARK INTER:                  -9.049
REMARK INTRA:                  -1.465
REMARK UNBOUND:                -1.395
REMARK SMILES CCCCCCCCCCCCCCCC(=O)[O-]
REMARK SMILES IDX 9 1 10 2 11 3 12 4 13 5 14 6 15 7 16 8 17 9 18 10 8 11 7 12
REMARK SMILES IDX 6 13 5 14 4 15 3 16 2 17 1 18
REMARK H PARENT
REMARK Flexibility Score: inf
ROOT
ATOM      1  C   UNL     1      27.566  -3.152  30.538  1.00  0.00     0.000 C 
ENDROOT
BRANCH   1   2
ATOM      2  C   UNL     1      29.096  -3.156  30.391  1.00  0.00     0.000 C 
BRANCH   2   3
ATOM      3  C   UNL     1      29.601  -4.284  29.477  1.00  0.00     0.000 C 
BRANCH   3   4
ATOM      4  C   UNL     1      29.559  -5.661  30.162  1.00  0.00     0.000 C 
BRANCH   4   5
ATOM      5  C   UNL     1      28.849  -6.725  29.307  1.00  0.00     0.000 C 
BRANCH   5   6
ATOM      6  C   UNL     1      28.598  -8.032  30.072  1.00  0.00     0.006 C 
BRANCH   6   7
ATOM      7  C   UNL     1      28.750  -7.822  31.582  1.00  0.00     0.053 C 
BRANCH   7   8
ATOM      8  C   UNL     1      28.871  -9.136  32.285  1.00  0.00     0.041 C 
ATOM      9  O   UNL     1      29.835  -9.907  32.029  1.00  0.00    -0.550 OA
ATOM     10  O   UNL     1      27.895  -9.534  33.190  1.00  0.00    -0.550 OA
ENDBRANCH   7   8
ENDBRANCH   6   7
ENDBRANCH   5   6
ENDBRANCH   4   5
ENDBRANCH   3   4
ENDBRANCH   2   3
ENDBRANCH   1   2
BRANCH   1  11
ATOM     11  C   UNL     1      27.074  -1.817  31.111  1.00  0.00     0.000 C 
BRANCH  11  12
ATOM     12  C   UNL     1      26.090  -1.134  30.149  1.00  0.00    -0.000 C 
BRANCH  12  13
ATOM     13  C   UNL     1      26.798  -0.387  29.008  1.00  0.00    -0.000 C 
BRANCH  13  14
ATOM     14  C   UNL     1      26.910   1.123  29.267  1.00  0.00    -0.000 C 
BRANCH  14  15
ATOM     15  C   UNL     1      28.292   1.481  29.836  1.00  0.00    -0.000 C 
BRANCH  15  16
ATOM     16  C   UNL     1      29.397   0.510  29.384  1.00  0.00    -0.000 C 
BRANCH  16  17
ATOM     17  C   UNL     1      30.368   0.070  30.494  1.00  0.00    -0.003 C 
ATOM     18  C   UNL     1      29.824   0.322  31.901  1.00  0.00     0.004 C 
ENDBRANCH  16  17
ENDBRANCH  15  16
ENDBRANCH  14  15
ENDBRANCH  13  14
ENDBRANCH  12  13
ENDBRANCH  11  12
ENDBRANCH   1  11
TORSDOF 14
ENDMDL
MODEL 4
REMARK VINA RESULT:    -5.014      3.377      7.748
REMARK INTER + INTRA:         -10.512
REMARK INTER:                  -8.737
REMARK INTRA:                  -1.776
REMARK UNBOUND:                -1.395
REMARK SMILES CCCCCCCCCCCCCCCC(=O)[O-]
REMARK SMILES IDX 9 1 10 2 11 3 12 4 13 5 14 6 15 7 16 8 17 9 18 10 8 11 7 12
REMARK SMILES IDX 6 13 5 14 4 15 3 16 2 17 1 18
REMARK H PARENT
REMARK Flexibility Score: inf
ROOT
ATOM      1  C   UNL     1      27.036  -2.102  30.265  1.00  0.00     0.000 C 
ENDROOT
BRANCH   1   2
ATOM      2  C   UNL     1      27.869  -3.295  30.759  1.00  0.00     0.000 C 
BRANCH   2   3
ATOM      3  C   UNL     1      29.198  -3.445  30.000  1.00  0.00     0.000 C 
BRANCH   3   4
ATOM      4  C   UNL     1      29.485  -4.902  29.597  1.00  0.00     0.000 C 
BRANCH   4   5
ATOM      5  C   UNL     1      29.923  -5.770  30.789  1.00  0.00     0.000 C 
BRANCH   5   6
ATOM      6  C   UNL     1      29.023  -6.997  30.994  1.00  0.00     0.006 C 
BRANCH   6   7
ATOM      7  C   UNL     1      28.372  -7.426  29.675  1.00  0.00     0.053 C 
BRANCH   7   8
ATOM      8  C   UNL     1      29.015  -8.671  29.153  1.00  0.00     0.041 C 
ATOM      9  O   UNL     1      29.436  -9.551  29.951  1.00  0.00    -0.550 OA
ATOM     10  O   UNL     1      29.193  -8.842  27.786  1.00  0.00    -0.550 OA
ENDBRANCH   7   8
ENDBRANCH   6   7
ENDBRANCH   5   6
ENDBRANCH   4   5
ENDBRANCH   3   4
ENDBRANCH   2   3
ENDBRANCH   1   2
BRANCH   1  11
ATOM     11  C   UNL     1      27.558  -1.590  28.915  1.00  0.00     0.000 C 
BRANCH  11  12
ATOM     12  C   UNL     1      26.910  -0.247  28.548  1.00  0.00    -0.000 C 
BRANCH  12  13
ATOM     13  C   UNL     1      26.713   0.671  29.764  1.00  0.00    -0.000 C 
BRANCH  13  14
ATOM     14  C   UNL     1      27.633   1.901  29.734  1.00  0.00    -0.000 C 
BRANCH  14  15
ATOM     15  C   UNL     1      28.462   1.999  31.024  1.00  0.00    -0.000 C 
BRANCH  15  16
ATOM     16  C   UNL     1      28.616   0.646  31.742  1.00  0.00    -0.000 C 
BRANCH  16  17
ATOM     17  C   UNL     1      30.048   0.083  31.763  1.00  0.00    -0.003 C 
ATOM     18  C   UNL     1      30.634  -0.118  30.365  1.00  0.00     0.004 C 
ENDBRANCH  16  17
ENDBRANCH  15  16
ENDBRANCH  14  15
ENDBRANCH  13  14
ENDBRANCH  12  13
ENDBRANCH  11  12
ENDBRANCH   1  11
TORSDOF 14
ENDMDL
MODEL 5
REMARK VINA RESULT:    -4.987      1.786      2.451
REMARK INTER + INTRA:         -10.463
REMARK INTER:                  -9.228
REMARK INTRA:                  -1.235
REMARK UNBOUND:                -1.395
REMARK SMILES CCCCCCCCCCCCCCCC(=O)[O-]
REMARK SMILES IDX 9 1 10 2 11 3 12 4 13 5 14 6 15 7 16 8 17 9 18 10 8 11 7 12
REMARK SMILES IDX 6 13 5 14 4 15 3 16 2 17 1 18
REMARK H PARENT
REMARK Flexibility Score: inf
ROOT
ATOM      1  C   UNL     1      26.866  -1.980  30.389  1.00  0.00     0.000 C 
ENDROOT
BRANCH   1   2
ATOM      2  C   UNL     1      27.215  -1.173  29.129  1.00  0.00     0.000 C 
BRANCH   2   3
ATOM      3  C   UNL     1      28.723  -1.161  28.832  1.00  0.00     0.000 C 
BRANCH   3   4
ATOM      4  C   UNL     1      29.377   0.195  29.151  1.00  0.00     0.000 C 
BRANCH   4   5
ATOM      5  C   UNL     1      30.204   0.161  30.447  1.00  0.00     0.000 C 
BRANCH   5   6
ATOM      6  C   UNL     1      29.456   0.767  31.645  1.00  0.00     0.006 C 
BRANCH   6   7
ATOM      7  C   UNL     1      28.275   1.623  31.178  1.00  0.00     0.053 C 
BRANCH   7   8
ATOM      8  C   UNL     1      28.538   3.070  31.444  1.00  0.00     0.041 C 
ATOM      9  O   UNL     1      27.978   3.957  30.745  1.00  0.00    -0.550 OA
ATOM     10  O   UNL     1      29.438   3.443  32.434  1.00  0.00    -0.550 OA
ENDBRANCH   7   8
ENDBRANCH   6   7
ENDBRANCH   5   6
ENDBRANCH   4   5
ENDBRANCH   3   4
ENDBRANCH   2   3
ENDBRANCH   1   2
BRANCH   1  11
ATOM     11  C   UNL     1      27.743  -3.234  30.498  1.00  0.00     0.000 C 
BRANCH  11  12
ATOM     12  C   UNL     1      26.892  -4.477  30.800  1.00  0.00    -0.000 C 
BRANCH  12  13
ATOM     13  C   UNL     1      27.349  -5.715  30.012  1.00  0.00    -0.000 C 
BRANCH  13  14
ATOM     14  C   UNL     1      28.863  -5.726  29.752  1.00  0.00    -0.000 C 
BRANCH  14  15
ATOM     15  C   UNL     1      29.539  -6.891  30.493  1.00  0.00    -0.000 C 
BRANCH  15  16
ATOM     16  C   UNL     1      29.217  -8.263  29.873  1.00  0.00    -0.000 C 
BRANCH  16  17
ATOM     17  C   UNL     1      28.366  -9.191  30.758  1.00  0.00    -0.003 C 
ATOM     18  C   UNL     1      28.827  -9.218  32.216  1.00  0.00     0.004 C 
ENDBRANCH  16  17
ENDBRANCH  15  16
ENDBRANCH  14  15
ENDBRANCH  13  14
ENDBRANCH  12  13
ENDBRANCH  11  12
ENDBRANCH   1  11
TORSDOF 14
ENDMDL
MODEL 6
REMARK VINA RESULT:    -4.983      3.762      9.125
REMARK INTER + INTRA:         -10.456
REMARK INTER:                  -9.542
REMARK INTRA:                  -0.914
REMARK UNBOUND:                -1.395
REMARK SMILES CCCCCCCCCCCCCCCC(=O)[O-]
REMARK SMILES IDX 9 1 10 2 11 3 12 4 13 5 14 6 15 7 16 8 17 9 18 10 8 11 7 12
REMARK SMILES IDX 6 13 5 14 4 15 3 16 2 17 1 18
REMARK H PARENT
REMARK Flexibility Score: inf
ROOT
ATOM      1  C   UNL     1      27.693  -1.168  31.492  1.00  0.00     0.000 C 
ENDROOT
BRANCH   1   2
ATOM      2  C   UNL     1      27.568  -2.344  30.511  1.00  0.00     0.000 C 
BRANCH   2   3
ATOM      3  C   UNL     1      28.930  -2.821  29.981  1.00  0.00     0.000 C 
BRANCH   3   4
ATOM      4  C   UNL     1      29.148  -4.330  30.189  1.00  0.00     0.000 C 
BRANCH   4   5
ATOM      5  C   UNL     1      27.843  -5.076  30.512  1.00  0.00     0.000 C 
BRANCH   5   6
ATOM      6  C   UNL     1      27.689  -6.378  29.712  1.00  0.00     0.006 C 
BRANCH   6   7
ATOM      7  C   UNL     1      28.981  -7.201  29.749  1.00  0.00     0.053 C 
BRANCH   7   8
ATOM      8  C   UNL     1      28.815  -8.473  28.983  1.00  0.00     0.041 C 
ATOM      9  O   UNL     1      29.370  -8.615  27.860  1.00  0.00    -0.550 OA
ATOM     10  O   UNL     1      28.010  -9.488  29.484  1.00  0.00    -0.550 OA
ENDBRANCH   7   8
ENDBRANCH   6   7
ENDBRANCH   5   6
ENDBRANCH   4   5
ENDBRANCH   3   4
ENDBRANCH   2   3
ENDBRANCH   1   2
BRANCH   1  11
ATOM     11  C   UNL     1      29.157  -0.737  31.648  1.00  0.00     0.000 C 
BRANCH  11  12
ATOM     12  C   UNL     1      29.322   0.764  31.362  1.00  0.00    -0.000 C 
BRANCH  12  13
ATOM     13  C   UNL     1      28.011   1.433  30.923  1.00  0.00    -0.000 C 
BRANCH  13  14
ATOM     14  C   UNL     1      28.062   1.946  29.476  1.00  0.00    -0.000 C 
BRANCH  14  15
ATOM     15  C   UNL     1      27.609   3.412  29.397  1.00  0.00    -0.000 C 
BRANCH  15  16
ATOM     16  C   UNL     1      28.003   4.230  30.640  1.00  0.00    -0.000 C 
BRANCH  16  17
ATOM     17  C   UNL     1      28.421   5.683  30.354  1.00  0.00    -0.003 C 
ATOM     18  C   UNL     1      27.264   6.676  30.478  1.00  0.00     0.004 C 
ENDBRANCH  16  17
ENDBRANCH  15  16
ENDBRANCH  14  15
ENDBRANCH  13  14
ENDBRANCH  12  13
ENDBRANCH  11  12
ENDBRANCH   1  11
TORSDOF 14
ENDMDL
MODEL 7
REMARK VINA RESULT:    -4.946      3.517      8.017
REMARK INTER + INTRA:         -10.390
REMARK INTER:                  -8.746
REMARK INTRA:                  -1.643
REMARK UNBOUND:                -1.395
REMARK SMILES CCCCCCCCCCCCCCCC(=O)[O-]
REMARK SMILES IDX 9 1 10 2 11 3 12 4 13 5 14 6 15 7 16 8 17 9 18 10 8 11 7 12
REMARK SMILES IDX 6 13 5 14 4 15 3 16 2 17 1 18
REMARK H PARENT
REMARK Flexibility Score: inf
ROOT
ATOM      1  C   UNL     1      27.661  -3.253  30.042  1.00  0.00     0.000 C 
ENDROOT
BRANCH   1   2
ATOM      2  C   UNL     1      27.091  -4.470  30.787  1.00  0.00     0.000 C 
BRANCH   2   3
ATOM      3  C   UNL     1      27.242  -5.776  29.990  1.00  0.00     0.000 C 
BRANCH   3   4
ATOM      4  C   UNL     1      28.693  -6.030  29.542  1.00  0.00     0.000 C 
BRANCH   4   5
ATOM      5  C   UNL     1      29.560  -6.628  30.662  1.00  0.00     0.000 C 
BRANCH   5   6
ATOM      6  C   UNL     1      28.799  -7.645  31.525  1.00  0.00     0.006 C 
BRANCH   6   7
ATOM      7  C   UNL     1      29.367  -9.056  31.340  1.00  0.00     0.053 C 
BRANCH   7   8
ATOM      8  C   UNL     1      29.025  -9.584  29.983  1.00  0.00     0.041 C 
ATOM      9  O   UNL     1      29.940  -9.923  29.185  1.00  0.00    -0.550 OA
ATOM     10  O   UNL     1      27.698  -9.661  29.580  1.00  0.00    -0.550 OA
ENDBRANCH   7   8
ENDBRANCH   6   7
ENDBRANCH   5   6
ENDBRANCH   4   5
ENDBRANCH   3   4
ENDBRANCH   2   3
ENDBRANCH   1   2
BRANCH   1  11
ATOM     11  C   UNL     1      28.695  -2.517  30.905  1.00  0.00     0.000 C 
BRANCH  11  12
ATOM     12  C   UNL     1      29.844  -1.972  30.043  1.00  0.00    -0.000 C 
BRANCH  12  13
ATOM     13  C   UNL     1      30.282  -0.559  30.462  1.00  0.00    -0.000 C 
BRANCH  13  14
ATOM     14  C   UNL     1      29.393   0.034  31.565  1.00  0.00    -0.000 C 
BRANCH  14  15
ATOM     15  C   UNL     1      28.847   1.409  31.149  1.00  0.00    -0.000 C 
BRANCH  15  16
ATOM     16  C   UNL     1      28.035   1.362  29.842  1.00  0.00    -0.000 C 
BRANCH  16  17
ATOM     17  C   UNL     1      26.814   0.425  29.870  1.00  0.00    -0.003 C 
ATOM     18  C   UNL     1      26.486  -0.174  28.502  1.00  0.00     0.004 C 
ENDBRANCH  16  17
ENDBRANCH  15  16
ENDBRANCH  14  15
ENDBRANCH  13  14
ENDBRANCH  12  13
ENDBRANCH  11  12
ENDBRANCH   1  11
TORSDOF 14
ENDMDL
MODEL 8
REMARK VINA RESULT:    -4.942      1.750      2.047
REMARK INTER + INTRA:         -10.381
REMARK INTER:                  -9.125
REMARK INTRA:                  -1.257
REMARK UNBOUND:                -1.395
REMARK SMILES CCCCCCCCCCCCCCCC(=O)[O-]
REMARK SMILES IDX 9 1 10 2 11 3 12 4 13 5 14 6 15 7 16 8 17 9 18 10 8 11 7 12
REMARK SMILES IDX 6 13 5 14 4 15 3 16 2 17 1 18
REMARK H PARENT
REMARK Flexibility Score: inf
ROOT
ATOM      1  C   UNL     1      29.781  -4.004  30.028  1.00  0.00     0.000 C 
ENDROOT
BRANCH   1   2
ATOM      2  C   UNL     1      28.399  -3.415  30.347  1.00  0.00     0.000 C 
BRANCH   2   3
ATOM      3  C   UNL     1      28.369  -1.881  30.237  1.00  0.00     0.000 C 
BRANCH   3   4
ATOM      4  C   UNL     1      29.715  -1.297  29.775  1.00  0.00     0.000 C 
BRANCH   4   5
ATOM      5  C   UNL     1      30.044   0.041  30.459  1.00  0.00     0.000 C 
BRANCH   5   6
ATOM      6  C   UNL     1      28.962   0.479  31.458  1.00  0.00     0.006 C 
BRANCH   6   7
ATOM      7  C   UNL     1      28.470   1.896  31.147  1.00  0.00     0.053 C 
BRANCH   7   8
ATOM      8  C   UNL     1      27.769   1.930  29.827  1.00  0.00     0.041 C 
ATOM      9  O   UNL     1      26.885   1.073  29.556  1.00  0.00    -0.550 OA
ATOM     10  O   UNL     1      28.122   2.878  28.875  1.00  0.00    -0.550 OA
ENDBRANCH   7   8
ENDBRANCH   6   7
ENDBRANCH   5   6
ENDBRANCH   4   5
ENDBRANCH   3   4
ENDBRANCH   2   3
ENDBRANCH   1   2
BRANCH   1  11
ATOM     11  C   UNL     1      29.895  -5.445  30.542  1.00  0.00     0.000 C 
BRANCH  11  12
ATOM     12  C   UNL     1      28.512  -6.016  30.891  1.00  0.00    -0.000 C 
BRANCH  12  13
ATOM     13  C   UNL     1      27.947  -6.922  29.785  1.00  0.00    -0.000 C 
BRANCH  13  14
ATOM     14  C   UNL     1      29.044  -7.518  28.889  1.00  0.00    -0.000 C 
BRANCH  14  15
ATOM     15  C   UNL     1      28.894  -9.043  28.779  1.00  0.00    -0.000 C 
BRANCH  15  16
ATOM     16  C   UNL     1      28.185  -9.665  29.995  1.00  0.00    -0.000 C 
BRANCH  16  17
ATOM     17  C   UNL     1      29.101  -9.970  31.194  1.00  0.00    -0.003 C 
ATOM     18  C   UNL     1      28.601  -9.356  32.502  1.00  0.00     0.004 C 
ENDBRANCH  16  17
ENDBRANCH  15  16
ENDBRANCH  14  15
ENDBRANCH  13  14
ENDBRANCH  12  13
ENDBRANCH  11  12
ENDBRANCH   1  11
TORSDOF 14
ENDMDL
MODEL 9
REMARK VINA RESULT:    -4.871      1.931      2.779
REMARK INTER + INTRA:         -10.252
REMARK INTER:                  -8.983
REMARK INTRA:                  -1.269
REMARK UNBOUND:                -1.395
REMARK SMILES CCCCCCCCCCCCCCCC(=O)[O-]
REMARK SMILES IDX 9 1 10 2 11 3 12 4 13 5 14 6 15 7 16 8 17 9 18 10 8 11 7 12
REMARK SMILES IDX 6 13 5 14 4 15 3 16 2 17 1 18
REMARK H PARENT
REMARK Flexibility Score: inf
ROOT
ATOM      1  C   UNL     1      27.651  -5.017  30.678  1.00  0.00     0.000 C 
ENDROOT
BRANCH   1   2
ATOM      2  C   UNL     1      27.548  -3.494  30.504  1.00  0.00     0.000 C 
BRANCH   2   3
ATOM      3  C   UNL     1      28.883  -2.852  30.094  1.00  0.00     0.000 C 
BRANCH   3   4
ATOM      4  C   UNL     1      29.118  -1.492  30.774  1.00  0.00     0.000 C 
BRANCH   4   5
ATOM      5  C   UNL     1      28.086  -1.197  31.876  1.00  0.00     0.000 C 
BRANCH   5   6
ATOM      6  C   UNL     1      27.371   0.147  31.676  1.00  0.00     0.006 C 
BRANCH   6   7
ATOM      7  C   UNL     1      28.259   1.132  30.910  1.00  0.00     0.053 C 
BRANCH   7   8
ATOM      8  C   UNL     1      27.605   1.543  29.630  1.00  0.00     0.041 C 
ATOM      9  O   UNL     1      27.650   2.744  29.251  1.00  0.00    -0.550 OA
ATOM     10  O   UNL     1      26.904   0.610  28.876  1.00  0.00    -0.550 OA
ENDBRANCH   7   8
ENDBRANCH   6   7
ENDBRANCH   5   6
ENDBRANCH   4   5
ENDBRANCH   3   4
ENDBRANCH   2   3
ENDBRANCH   1   2
BRANCH   1  11
ATOM     11  C   UNL     1      28.786  -5.592  29.820  1.00  0.00     0.000 C 
BRANCH  11  12
ATOM     12  C   UNL     1      29.588  -6.645  30.601  1.00  0.00    -0.000 C 
BRANCH  12  13
ATOM     13  C   UNL     1      28.701  -7.522  31.498  1.00  0.00    -0.000 C 
BRANCH  13  14
ATOM     14  C   UNL     1      29.164  -8.986  31.540  1.00  0.00    -0.000 C 
BRANCH  14  15
ATOM     15  C   UNL     1      28.052  -9.927  31.053  1.00  0.00    -0.000 C 
BRANCH  15  16
ATOM     16  C   UNL     1      28.057 -10.123  29.526  1.00  0.00    -0.000 C 
BRANCH  16  17
ATOM     17  C   UNL     1      29.447 -10.054  28.868  1.00  0.00    -0.003 C 
ATOM     18  C   UNL     1      29.548  -8.972  27.792  1.00  0.00     0.004 C 
ENDBRANCH  16  17
ENDBRANCH  15  16
ENDBRANCH  14  15
ENDBRANCH  13  14
ENDBRANCH  12  13
ENDBRANCH  11  12
ENDBRANCH   1  11
TORSDOF 14
ENDMDL
