MODEL 1
REMARK VINA RESULT:    -3.794      0.000      0.000
REMARK INTER + INTRA:          -4.807
REMARK INTER:                  -4.682
REMARK INTRA:                  -0.126
REMARK UNBOUND:                -0.126
REMARK SMILES CCCCCC(=O)[O-]
REMARK SMILES IDX 4 1 5 2 6 3 7 4 8 5 3 6 2 7 1 8
REMARK H PARENT
REMARK Flexibility Score: inf
ROOT
ATOM      1  C   UNL     1     -10.411  -5.542  -8.176  1.00  0.00     0.006 C 
ENDROOT
BRANCH   1   2
ATOM      2  C   UNL     1      -9.674  -5.905  -6.883  1.00  0.00     0.053 C 
BRANCH   2   3
ATOM      3  C   UNL     1     -10.648  -6.146  -5.775  1.00  0.00     0.041 C 
ATOM      4  O   UNL     1     -11.269  -7.239  -5.702  1.00  0.00    -0.550 OA
ATOM      5  O   UNL     1     -10.837  -5.181  -4.793  1.00  0.00    -0.550 OA
ENDBRANCH   2   3
ENDBRANCH   1   2
BRANCH   1   6
ATOM      6  C   UNL     1     -10.806  -4.057  -8.185  1.00  0.00     0.000 C 
BRANCH   6   7
ATOM      7  C   UNL     1     -11.325  -3.593  -9.555  1.00  0.00    -0.003 C 
ATOM      8  C   UNL     1     -11.168  -4.660 -10.639  1.00  0.00     0.004 C 
ENDBRANCH   6   7
ENDBRANCH   1   6
TORSDOF 4
ENDMDL
MODEL 2
REMARK VINA RESULT:    -3.722      1.583      2.030
REMARK INTER + INTRA:          -4.718
REMARK INTER:                  -4.632
REMARK INTRA:                  -0.086
REMARK UNBOUND:                -0.126
REMARK SMILES CCCCCC(=O)[O-]
REMARK SMILES IDX 4 1 5 2 6 3 7 4 8 5 3 6 2 7 1 8
REMARK H PARENT
REMARK Flexibility Score: inf
ROOT
ATOM      1  C   UNL     1     -11.542  -3.669  -6.851  1.00  0.00     0.006 C 
ENDROOT
BRANCH   1   2
ATOM      2  C   UNL     1     -12.696  -4.531  -6.331  1.00  0.00     0.053 C 
BRANCH   2   3
ATOM      3  C   UNL     1     -12.306  -5.217  -5.061  1.00  0.00     0.041 C 
ATOM      4  O   UNL     1     -13.070  -5.183  -4.060  1.00  0.00    -0.550 OA
ATOM      5  O   UNL     1     -11.120  -5.938  -4.996  1.00  0.00    -0.550 OA
ENDBRANCH   2   3
ENDBRANCH   1   2
BRANCH   1   6
ATOM      6  C   UNL     1     -10.888  -4.314  -8.083  1.00  0.00     0.000 C 
BRANCH   6   7
ATOM      7  C   UNL     1     -11.307  -3.635  -9.396  1.00  0.00    -0.003 C 
ATOM      8  C   UNL     1     -11.264  -4.586 -10.593  1.00  0.00     0.004 C 
ENDBRANCH   6   7
ENDBRANCH   1   6
TORSDOF 4
ENDMDL
MODEL 3
REMARK VINA RESULT:    -3.664      0.838      1.370
REMARK INTER + INTRA:          -4.647
REMARK INTER:                  -4.492
REMARK INTRA:                  -0.155
REMARK UNBOUND:                -0.126
REMARK SMILES CCCCCC(=O)[O-]
REMARK SMILES IDX 4 1 5 2 6 3 7 4 8 5 3 6 2 7 1 8
REMARK H PARENT
REMARK Flexibility Score: inf
ROOT
ATOM      1  C   UNL     1      -9.653  -5.907  -6.915  1.00  0.00     0.006 C 
ENDROOT
BRANCH   1   2
ATOM      2  C   UNL     1     -10.423  -6.889  -6.026  1.00  0.00     0.053 C 
BRANCH   2   3
ATOM      3  C   UNL     1     -11.516  -6.182  -5.289  1.00  0.00     0.041 C 
ATOM      4  O   UNL     1     -12.644  -6.726  -5.151  1.00  0.00    -0.550 OA
ATOM      5  O   UNL     1     -11.276  -4.941  -4.712  1.00  0.00    -0.550 OA
ENDBRANCH   2   3
ENDBRANCH   1   2
BRANCH   1   6
ATOM      6  C   UNL     1     -10.472  -5.538  -8.161  1.00  0.00     0.000 C 
BRANCH   6   7
ATOM      7  C   UNL     1     -10.781  -4.034  -8.240  1.00  0.00    -0.003 C 
ATOM      8  C   UNL     1     -11.367  -3.621  -9.590  1.00  0.00     0.004 C 
ENDBRANCH   6   7
ENDBRANCH   1   6
TORSDOF 4
ENDMDL
MODEL 4
REMARK VINA RESULT:    -3.649      1.300      2.068
REMARK INTER + INTRA:          -4.628
REMARK INTER:                  -4.435
REMARK INTRA:                  -0.193
REMARK UNBOUND:                -0.126
REMARK SMILES CCCCCC(=O)[O-]
REMARK SMILES IDX 4 1 5 2 6 3 7 4 8 5 3 6 2 7 1 8
REMARK H PARENT
REMARK Flexibility Score: inf
ROOT
ATOM      1  C   UNL     1     -10.247  -6.036  -8.029  1.00  0.00     0.006 C 
ENDROOT
BRANCH   1   2
ATOM      2  C   UNL     1      -9.410  -5.947  -6.749  1.00  0.00     0.053 C 
BRANCH   2   3
ATOM      3  C   UNL     1      -9.914  -6.914  -5.726  1.00  0.00     0.041 C 
ATOM      4  O   UNL     1      -9.108  -7.644  -5.091  1.00  0.00    -0.550 OA
ATOM      5  O   UNL     1     -11.272  -6.977  -5.438  1.00  0.00    -0.550 OA
ENDBRANCH   2   3
ENDBRANCH   1   2
BRANCH   1   6
ATOM      6  C   UNL     1     -10.750  -4.647  -8.453  1.00  0.00     0.000 C 
BRANCH   6   7
ATOM      7  C   UNL     1     -11.045  -3.735  -7.253  1.00  0.00    -0.003 C 
ATOM      8  C   UNL     1     -12.444  -3.952  -6.675  1.00  0.00     0.004 C 
ENDBRANCH   6   7
ENDBRANCH   1   6
TORSDOF 4
ENDMDL
MODEL 5
REMARK VINA RESULT:    -3.563      2.494      3.943
REMARK INTER + INTRA:          -4.523
REMARK INTER:                  -4.312
REMARK INTRA:                  -0.211
REMARK UNBOUND:                -0.126
REMARK SMILES CCCCCC(=O)[O-]
REMARK SMILES IDX 4 1 5 2 6 3 7 4 8 5 3 6 2 7 1 8
REMARK H PARENT
REMARK Flexibility Score: inf
ROOT
ATOM      1  C   UNL     1     -11.192  -3.889  -7.058  1.00  0.00     0.006 C 
ENDROOT
BRANCH   1   2
ATOM      2  C   UNL     1     -11.079  -3.886  -8.585  1.00  0.00     0.053 C 
BRANCH   2   3
ATOM      3  C   UNL     1     -10.860  -5.273  -9.097  1.00  0.00     0.041 C 
ATOM      4  O   UNL     1     -10.151  -6.085  -8.446  1.00  0.00    -0.550 OA
ATOM      5  O   UNL     1     -11.479  -5.688 -10.270  1.00  0.00    -0.550 OA
ENDBRANCH   2   3
ENDBRANCH   1   2
BRANCH   1   6
ATOM      6  C   UNL     1     -12.625  -4.217  -6.613  1.00  0.00     0.000 C 
BRANCH   6   7
ATOM      7  C   UNL     1     -12.667  -5.040  -5.316  1.00  0.00    -0.003 C 
ATOM      8  C   UNL     1     -12.069  -6.437  -5.483  1.00  0.00     0.004 C 
ENDBRANCH   6   7
ENDBRANCH   1   6
TORSDOF 4
ENDMDL
MODEL 6
REMARK VINA RESULT:    -3.530      1.396      1.986
REMARK INTER + INTRA:          -4.481
REMARK INTER:                  -4.227
REMARK INTRA:                  -0.254
REMARK UNBOUND:                -0.126
REMARK SMILES CCCCCC(=O)[O-]
REMARK SMILES IDX 4 1 5 2 6 3 7 4 8 5 3 6 2 7 1 8
REMARK H PARENT
REMARK Flexibility Score: inf
ROOT
ATOM      1  C   UNL     1     -11.953  -4.282  -5.811  1.00  0.00     0.006 C 
ENDROOT
BRANCH   1   2
ATOM      2  C   UNL     1     -12.450  -5.678  -5.428  1.00  0.00     0.053 C 
BRANCH   2   3
ATOM      3  C   UNL     1     -11.351  -6.683  -5.570  1.00  0.00     0.041 C 
ATOM      4  O   UNL     1     -11.582  -7.806  -6.091  1.00  0.00    -0.550 OA
ATOM      5  O   UNL     1     -10.060  -6.362  -5.172  1.00  0.00    -0.550 OA
ENDBRANCH   2   3
ENDBRANCH   1   2
BRANCH   1   6
ATOM      6  C   UNL     1     -12.126  -4.031  -7.318  1.00  0.00     0.000 C 
BRANCH   6   7
ATOM      7  C   UNL     1     -10.786  -4.001  -8.068  1.00  0.00    -0.003 C 
ATOM      8  C   UNL     1     -10.588  -5.214  -8.976  1.00  0.00     0.004 C 
ENDBRANCH   6   7
ENDBRANCH   1   6
TORSDOF 4
ENDMDL
MODEL 7
REMARK VINA RESULT:    -3.487      1.904      3.643
REMARK INTER + INTRA:          -4.429
REMARK INTER:                  -4.159
REMARK INTRA:                  -0.270
REMARK UNBOUND:                -0.126
REMARK SMILES CCCCCC(=O)[O-]
REMARK SMILES IDX 4 1 5 2 6 3 7 4 8 5 3 6 2 7 1 8
REMARK H PARENT
REMARK Flexibility Score: inf
ROOT
ATOM      1  C   UNL     1     -10.444  -5.886  -7.814  1.00  0.00     0.006 C 
ENDROOT
BRANCH   1   2
ATOM      2  C   UNL     1     -10.948  -4.450  -7.992  1.00  0.00     0.053 C 
BRANCH   2   3
ATOM      3  C   UNL     1     -11.747  -4.024  -6.802  1.00  0.00     0.041 C 
ATOM      4  O   UNL     1     -11.401  -3.015  -6.133  1.00  0.00    -0.550 OA
ATOM      5  O   UNL     1     -12.904  -4.713  -6.459  1.00  0.00    -0.550 OA
ENDBRANCH   2   3
ENDBRANCH   1   2
BRANCH   1   6
ATOM      6  C   UNL     1      -9.488  -5.988  -6.615  1.00  0.00     0.000 C 
BRANCH   6   7
ATOM      7  C   UNL     1      -9.875  -7.118  -5.648  1.00  0.00    -0.003 C 
ATOM      8  C   UNL     1     -11.221  -7.756  -5.991  1.00  0.00     0.004 C 
ENDBRANCH   6   7
ENDBRANCH   1   6
TORSDOF 4
ENDMDL
MODEL 8
REMARK VINA RESULT:    -3.484      2.351      4.088
REMARK INTER + INTRA:          -4.425
REMARK INTER:                  -4.244
REMARK INTRA:                  -0.180
REMARK UNBOUND:                -0.126
REMARK SMILES CCCCCC(=O)[O-]
REMARK SMILES IDX 4 1 5 2 6 3 7 4 8 5 3 6 2 7 1 8
REMARK H PARENT
REMARK Flexibility Score: inf
ROOT
ATOM      1  C   UNL     1      -9.461  -5.978  -6.718  1.00  0.00     0.006 C 
ENDROOT
BRANCH   1   2
ATOM      2  C   UNL     1     -10.335  -6.064  -7.973  1.00  0.00     0.053 C 
BRANCH   2   3
ATOM      3  C   UNL     1     -10.606  -4.697  -8.517  1.00  0.00     0.041 C 
ATOM      4  O   UNL     1     -10.641  -3.702  -7.745  1.00  0.00    -0.550 OA
ATOM      5  O   UNL     1     -10.771  -4.513  -9.884  1.00  0.00    -0.550 OA
ENDBRANCH   2   3
ENDBRANCH   1   2
BRANCH   1   6
ATOM      6  C   UNL     1     -10.239  -6.434  -5.474  1.00  0.00     0.000 C 
BRANCH   6   7
ATOM      7  C   UNL     1     -11.568  -7.119  -5.829  1.00  0.00    -0.003 C 
ATOM      8  C   UNL     1     -12.769  -6.472  -5.138  1.00  0.00     0.004 C 
ENDBRANCH   6   7
ENDBRANCH   1   6
TORSDOF 4
ENDMDL
MODEL 9
REMARK VINA RESULT:    -3.421      2.537      4.169
REMARK INTER + INTRA:          -4.346
REMARK INTER:                  -4.124
REMARK INTRA:                  -0.223
REMARK UNBOUND:                -0.126
REMARK SMILES CCCCCC(=O)[O-]
REMARK SMILES IDX 4 1 5 2 6 3 7 4 8 5 3 6 2 7 1 8
REMARK H PARENT
REMARK Flexibility Score: inf
ROOT
ATOM      1  C   UNL     1     -12.312  -4.019  -6.669  1.00  0.00     0.006 C 
ENDROOT
BRANCH   1   2
ATOM      2  C   UNL     1     -10.982  -3.699  -7.358  1.00  0.00     0.053 C 
BRANCH   2   3
ATOM      3  C   UNL     1     -10.946  -4.294  -8.730  1.00  0.00     0.041 C 
ATOM      4  O   UNL     1     -11.336  -3.624  -9.723  1.00  0.00    -0.550 OA
ATOM      5  O   UNL     1     -10.436  -5.572  -8.920  1.00  0.00    -0.550 OA
ENDBRANCH   2   3
ENDBRANCH   1   2
BRANCH   1   6
ATOM      6  C   UNL     1     -12.225  -5.345  -5.897  1.00  0.00     0.000 C 
BRANCH   6   7
ATOM      7  C   UNL     1     -10.926  -5.470  -5.085  1.00  0.00    -0.003 C 
ATOM      8  C   UNL     1     -10.142  -6.740  -5.417  1.00  0.00     0.004 C 
ENDBRANCH   6   7
ENDBRANCH   1   6
TORSDOF 4
ENDMDL
