MODEL 1
REMARK VINA RESULT:    -6.849      0.000      0.000
REMARK INTER + INTRA:          -8.339
REMARK INTER:                  -8.050
REMARK INTRA:                  -0.289
REMARK UNBOUND:                -0.289
REMARK SMILES O=c1cc(-c2ccc(O)c(O)c2)oc2cc(O)cc(O)c12
REMARK SMILES IDX 4 1 3 2 2 3 1 4 21 5 19 6 18 7 16 8 15 9 14 10 13 11 5 12
REMARK SMILES IDX 6 13 7 14 8 15 12 16 10 17 9 18 11 20 20 22 17 24
REMARK H PARENT 9 19 11 21 20 23 17 25
REMARK Flexibility Score: inf
ROOT
ATOM      1  C   UNL     1      17.937  42.888  24.029  1.00  0.00     0.138 A 
ATOM      2  C   UNL     1      18.980  43.294  23.187  1.00  0.00     0.100 A 
ATOM      3  C   UNL     1      20.300  43.002  23.534  1.00  0.00     0.197 A 
ATOM      4  O   UNL     1      21.210  43.330  22.730  1.00  0.00    -0.289 OA
ATOM      5  C   UNL     1      20.578  42.332  24.750  1.00  0.00     0.107 A 
ATOM      6  C   UNL     1      21.886  42.012  25.223  1.00  0.00     0.134 A 
ATOM      7  C   UNL     1      22.030  41.259  26.395  1.00  0.00     0.093 A 
ATOM      8  C   UNL     1      20.920  40.864  27.140  1.00  0.00     0.123 A 
ATOM      9  C   UNL     1      19.638  41.214  26.713  1.00  0.00     0.094 A 
ATOM     10  C   UNL     1      19.460  41.935  25.530  1.00  0.00     0.146 A 
ATOM     11  O   UNL     1      18.221  42.233  25.150  1.00  0.00    -0.456 OA
ENDROOT
BRANCH   1  12
ATOM     12  C   UNL     1      16.515  43.175  23.712  1.00  0.00     0.021 A 
ATOM     13  C   UNL     1      16.086  44.459  23.326  1.00  0.00     0.016 A 
ATOM     14  C   UNL     1      14.742  44.696  23.023  1.00  0.00     0.051 A 
ATOM     15  C   UNL     1      13.806  43.657  23.093  1.00  0.00     0.157 A 
ATOM     16  C   UNL     1      15.570  42.133  23.767  1.00  0.00     0.062 A 
ATOM     17  C   UNL     1      14.224  42.369  23.465  1.00  0.00     0.158 A 
BRANCH  15  18
ATOM     18  O   UNL     1      12.467  43.899  22.792  1.00  0.00    -0.504 OA
ATOM     19  H   UNL     1      11.892  44.496  23.375  1.00  0.00     0.293 HD
ENDBRANCH  15  18
BRANCH  17  20
ATOM     20  O   UNL     1      13.318  41.312  23.540  1.00  0.00    -0.504 OA
ATOM     21  H   UNL     1      13.520  40.401  23.150  1.00  0.00     0.293 HD
ENDBRANCH  17  20
ENDBRANCH   1  12
BRANCH   6  22
ATOM     22  O   UNL     1      23.068  42.424  24.599  1.00  0.00    -0.507 OA
ATOM     23  H   UNL     1      23.724  41.812  24.139  1.00  0.00     0.293 HD
ENDBRANCH   6  22
BRANCH   8  24
ATOM     24  O   UNL     1      21.103  40.129  28.309  1.00  0.00    -0.508 OA
ATOM     25  H   UNL     1      21.401  40.569  29.172  1.00  0.00     0.293 HD
ENDBRANCH   8  24
TORSDOF 5
ENDMDL
MODEL 2
REMARK VINA RESULT:    -6.814      1.112      2.809
REMARK INTER + INTRA:          -8.298
REMARK INTER:                  -8.033
REMARK INTRA:                  -0.265
REMARK UNBOUND:                -0.289
REMARK SMILES O=c1cc(-c2ccc(O)c(O)c2)oc2cc(O)cc(O)c12
REMARK SMILES IDX 4 1 3 2 2 3 1 4 21 5 19 6 18 7 16 8 15 9 14 10 13 11 5 12
REMARK SMILES IDX 6 13 7 14 8 15 12 16 10 17 9 18 11 20 20 22 17 24
REMARK H PARENT 9 19 11 21 20 23 17 25
REMARK Flexibility Score: inf
ROOT
ATOM      1  C   UNL     1      17.282  42.251  25.464  1.00  0.00     0.138 A 
ATOM      2  C   UNL     1      17.226  41.550  26.676  1.00  0.00     0.100 A 
ATOM      3  C   UNL     1      18.408  41.124  27.282  1.00  0.00     0.197 A 
ATOM      4  O   UNL     1      18.328  40.546  28.397  1.00  0.00    -0.289 OA
ATOM      5  C   UNL     1      19.652  41.369  26.651  1.00  0.00     0.107 A 
ATOM      6  C   UNL     1      20.919  40.951  27.158  1.00  0.00     0.134 A 
ATOM      7  C   UNL     1      22.089  41.339  26.494  1.00  0.00     0.093 A 
ATOM      8  C   UNL     1      22.038  42.078  25.313  1.00  0.00     0.123 A 
ATOM      9  C   UNL     1      20.802  42.450  24.781  1.00  0.00     0.094 A 
ATOM     10  C   UNL     1      19.618  42.108  25.439  1.00  0.00     0.146 A 
ATOM     11  O   UNL     1      18.463  42.496  24.907  1.00  0.00    -0.456 OA
ENDROOT
BRANCH   1  12
ATOM     12  C   UNL     1      16.056  42.725  24.774  1.00  0.00     0.021 A 
ATOM     13  C   UNL     1      15.782  44.096  24.606  1.00  0.00     0.016 A 
ATOM     14  C   UNL     1      14.625  44.512  23.943  1.00  0.00     0.051 A 
ATOM     15  C   UNL     1      13.725  43.570  23.430  1.00  0.00     0.157 A 
ATOM     16  C   UNL     1      15.153  41.785  24.244  1.00  0.00     0.062 A 
ATOM     17  C   UNL     1      13.993  42.200  23.580  1.00  0.00     0.158 A 
BRANCH  15  18
ATOM     18  O   UNL     1      12.571  43.989  22.770  1.00  0.00    -0.504 OA
ATOM     19  H   UNL     1      12.508  43.986  21.758  1.00  0.00     0.293 HD
ENDBRANCH  15  18
BRANCH  17  20
ATOM     20  O   UNL     1      13.119  41.236  23.077  1.00  0.00    -0.504 OA
ATOM     21  H   UNL     1      12.756  41.278  22.133  1.00  0.00     0.293 HD
ENDBRANCH  17  20
ENDBRANCH   1  12
BRANCH   6  22
ATOM     22  O   UNL     1      21.084  40.143  28.288  1.00  0.00    -0.507 OA
ATOM     23  H   UNL     1      21.970  39.826  28.648  1.00  0.00     0.293 HD
ENDBRANCH   6  22
BRANCH   8  24
ATOM     24  O   UNL     1      23.223  42.433  24.672  1.00  0.00    -0.508 OA
ATOM     25  H   UNL     1      24.081  41.915  24.820  1.00  0.00     0.293 HD
ENDBRANCH   8  24
TORSDOF 5
ENDMDL
MODEL 3
REMARK VINA RESULT:    -6.402      5.380      6.968
REMARK INTER + INTRA:          -7.814
REMARK INTER:                  -7.550
REMARK INTRA:                  -0.264
REMARK UNBOUND:                -0.289
REMARK SMILES O=c1cc(-c2ccc(O)c(O)c2)oc2cc(O)cc(O)c12
REMARK SMILES IDX 4 1 3 2 2 3 1 4 21 5 19 6 18 7 16 8 15 9 14 10 13 11 5 12
REMARK SMILES IDX 6 13 7 14 8 15 12 16 10 17 9 18 11 20 20 22 17 24
REMARK H PARENT 9 19 11 21 20 23 17 25
REMARK Flexibility Score: inf
ROOT
ATOM      1  C   UNL     1      21.000  38.899  22.609  1.00  0.00     0.138 A 
ATOM      2  C   UNL     1      21.089  39.786  21.529  1.00  0.00     0.100 A 
ATOM      3  C   UNL     1      21.854  39.442  20.414  1.00  0.00     0.197 A 
ATOM      4  O   UNL     1      21.869  40.235  19.437  1.00  0.00    -0.289 OA
ATOM      5  C   UNL     1      22.564  38.217  20.397  1.00  0.00     0.107 A 
ATOM      6  C   UNL     1      23.403  37.776  19.329  1.00  0.00     0.134 A 
ATOM      7  C   UNL     1      23.975  36.499  19.385  1.00  0.00     0.093 A 
ATOM      8  C   UNL     1      23.788  35.672  20.490  1.00  0.00     0.123 A 
ATOM      9  C   UNL     1      23.010  36.113  21.563  1.00  0.00     0.094 A 
ATOM     10  C   UNL     1      22.397  37.367  21.522  1.00  0.00     0.146 A 
ATOM     11  O   UNL     1      21.650  37.741  22.556  1.00  0.00    -0.456 OA
ENDROOT
BRANCH   1  12
ATOM     12  C   UNL     1      20.203  39.215  23.821  1.00  0.00     0.021 A 
ATOM     13  C   UNL     1      19.114  38.418  24.221  1.00  0.00     0.016 A 
ATOM     14  C   UNL     1      18.389  38.735  25.373  1.00  0.00     0.051 A 
ATOM     15  C   UNL     1      18.742  39.845  26.149  1.00  0.00     0.157 A 
ATOM     16  C   UNL     1      20.560  40.321  24.614  1.00  0.00     0.062 A 
ATOM     17  C   UNL     1      19.835  40.641  25.768  1.00  0.00     0.158 A 
BRANCH  15  18
ATOM     18  O   UNL     1      18.015  40.158  27.296  1.00  0.00    -0.504 OA
ATOM     19  H   UNL     1      18.442  40.642  28.079  1.00  0.00     0.293 HD
ENDBRANCH  15  18
BRANCH  17  20
ATOM     20  O   UNL     1      20.214  41.751  26.521  1.00  0.00    -0.504 OA
ATOM     21  H   UNL     1      20.093  41.787  27.525  1.00  0.00     0.293 HD
ENDBRANCH  17  20
ENDBRANCH   1  12
BRANCH   6  22
ATOM     22  O   UNL     1      23.723  38.553  18.211  1.00  0.00    -0.507 OA
ATOM     23  H   UNL     1      24.133  39.474  18.244  1.00  0.00     0.293 HD
ENDBRANCH   6  22
BRANCH   8  24
ATOM     24  O   UNL     1      24.386  34.414  20.517  1.00  0.00    -0.508 OA
ATOM     25  H   UNL     1      24.729  34.008  21.380  1.00  0.00     0.293 HD
ENDBRANCH   8  24
TORSDOF 5
ENDMDL
MODEL 4
REMARK VINA RESULT:    -6.301      2.575      2.767
REMARK INTER + INTRA:          -7.695
REMARK INTER:                  -7.407
REMARK INTRA:                  -0.288
REMARK UNBOUND:                -0.289
REMARK SMILES O=c1cc(-c2ccc(O)c(O)c2)oc2cc(O)cc(O)c12
REMARK SMILES IDX 4 1 3 2 2 3 1 4 21 5 19 6 18 7 16 8 15 9 14 10 13 11 5 12
REMARK SMILES IDX 6 13 7 14 8 15 12 16 10 17 9 18 11 20 20 22 17 24
REMARK H PARENT 9 19 11 21 20 23 17 25
REMARK Flexibility Score: inf
ROOT
ATOM      1  C   UNL     1      17.491  43.457  25.874  1.00  0.00     0.138 A 
ATOM      2  C   UNL     1      17.875  43.796  24.571  1.00  0.00     0.100 A 
ATOM      3  C   UNL     1      19.130  43.414  24.099  1.00  0.00     0.197 A 
ATOM      4  O   UNL     1      19.423  43.685  22.906  1.00  0.00    -0.289 OA
ATOM      5  C   UNL     1      20.022  42.719  24.952  1.00  0.00     0.107 A 
ATOM      6  C   UNL     1      21.340  42.308  24.591  1.00  0.00     0.134 A 
ATOM      7  C   UNL     1      22.093  41.539  25.488  1.00  0.00     0.093 A 
ATOM      8  C   UNL     1      21.600  41.216  26.751  1.00  0.00     0.123 A 
ATOM      9  C   UNL     1      20.331  41.655  27.133  1.00  0.00     0.094 A 
ATOM     10  C   UNL     1      19.542  42.394  26.248  1.00  0.00     0.146 A 
ATOM     11  O   UNL     1      18.333  42.777  26.645  1.00  0.00    -0.456 OA
ENDROOT
BRANCH   1  12
ATOM     12  C   UNL     1      16.168  43.841  26.429  1.00  0.00     0.021 A 
ATOM     13  C   UNL     1      15.960  43.989  27.814  1.00  0.00     0.016 A 
ATOM     14  C   UNL     1      14.706  44.362  28.306  1.00  0.00     0.051 A 
ATOM     15  C   UNL     1      13.642  44.600  27.427  1.00  0.00     0.157 A 
ATOM     16  C   UNL     1      15.098  44.095  25.552  1.00  0.00     0.062 A 
ATOM     17  C   UNL     1      13.841  44.468  26.043  1.00  0.00     0.158 A 
BRANCH  15  18
ATOM     18  O   UNL     1      12.393  44.970  27.922  1.00  0.00    -0.504 OA
ATOM     19  H   UNL     1      12.039  44.600  28.797  1.00  0.00     0.293 HD
ENDBRANCH  15  18
BRANCH  17  20
ATOM     20  O   UNL     1      12.803  44.701  25.141  1.00  0.00    -0.504 OA
ATOM     21  H   UNL     1      12.054  44.035  24.998  1.00  0.00     0.293 HD
ENDBRANCH  17  20
ENDBRANCH   1  12
BRANCH   6  22
ATOM     22  O   UNL     1      21.964  42.643  23.385  1.00  0.00    -0.507 OA
ATOM     23  H   UNL     1      22.751  43.267  23.293  1.00  0.00     0.293 HD
ENDBRANCH   6  22
BRANCH   8  24
ATOM     24  O   UNL     1      22.383  40.462  27.622  1.00  0.00    -0.508 OA
ATOM     25  H   UNL     1      22.610  39.493  27.427  1.00  0.00     0.293 HD
ENDBRANCH   8  24
TORSDOF 5
ENDMDL
MODEL 5
REMARK VINA RESULT:    -6.207      5.174      7.865
REMARK INTER + INTRA:          -7.584
REMARK INTER:                  -7.322
REMARK INTRA:                  -0.262
REMARK UNBOUND:                -0.289
REMARK SMILES O=c1cc(-c2ccc(O)c(O)c2)oc2cc(O)cc(O)c12
REMARK SMILES IDX 4 1 3 2 2 3 1 4 21 5 19 6 18 7 16 8 15 9 14 10 13 11 5 12
REMARK SMILES IDX 6 13 7 14 8 15 12 16 10 17 9 18 11 20 20 22 17 24
REMARK H PARENT 9 19 11 21 20 23 17 25
REMARK Flexibility Score: inf
ROOT
ATOM      1  C   UNL     1      20.806  38.554  21.825  1.00  0.00     0.138 A 
ATOM      2  C   UNL     1      19.457  38.313  21.533  1.00  0.00     0.100 A 
ATOM      3  C   UNL     1      18.469  38.771  22.406  1.00  0.00     0.197 A 
ATOM      4  O   UNL     1      17.266  38.588  22.088  1.00  0.00    -0.289 OA
ATOM      5  C   UNL     1      18.838  39.441  23.598  1.00  0.00     0.107 A 
ATOM      6  C   UNL     1      17.919  39.921  24.579  1.00  0.00     0.134 A 
ATOM      7  C   UNL     1      18.399  40.657  25.670  1.00  0.00     0.093 A 
ATOM      8  C   UNL     1      19.763  40.880  25.847  1.00  0.00     0.123 A 
ATOM      9  C   UNL     1      20.674  40.372  24.919  1.00  0.00     0.094 A 
ATOM     10  C   UNL     1      20.225  39.664  23.802  1.00  0.00     0.146 A 
ATOM     11  O   UNL     1      21.125  39.212  22.934  1.00  0.00    -0.456 OA
ENDROOT
BRANCH   1  12
ATOM     12  C   UNL     1      21.898  38.087  20.933  1.00  0.00     0.021 A 
ATOM     13  C   UNL     1      22.577  36.876  21.165  1.00  0.00     0.016 A 
ATOM     14  C   UNL     1      23.594  36.457  20.302  1.00  0.00     0.051 A 
ATOM     15  C   UNL     1      23.945  37.234  19.192  1.00  0.00     0.157 A 
ATOM     16  C   UNL     1      22.248  38.855  19.808  1.00  0.00     0.062 A 
ATOM     17  C   UNL     1      23.266  38.438  18.943  1.00  0.00     0.158 A 
BRANCH  15  18
ATOM     18  O   UNL     1      24.961  36.814  18.335  1.00  0.00    -0.504 OA
ATOM     19  H   UNL     1      25.691  37.447  18.028  1.00  0.00     0.293 HD
ENDBRANCH  15  18
BRANCH  17  20
ATOM     20  O   UNL     1      23.590  39.233  17.844  1.00  0.00    -0.504 OA
ATOM     21  H   UNL     1      24.215  40.026  17.918  1.00  0.00     0.293 HD
ENDBRANCH  17  20
ENDBRANCH   1  12
BRANCH   6  22
ATOM     22  O   UNL     1      16.541  39.687  24.544  1.00  0.00    -0.507 OA
ATOM     23  H   UNL     1      15.893  39.935  25.276  1.00  0.00     0.293 HD
ENDBRANCH   6  22
BRANCH   8  24
ATOM     24  O   UNL     1      20.204  41.603  26.953  1.00  0.00    -0.508 OA
ATOM     25  H   UNL     1      19.565  41.901  27.681  1.00  0.00     0.293 HD
ENDBRANCH   8  24
TORSDOF 5
ENDMDL
MODEL 6
REMARK VINA RESULT:    -6.178     13.915     16.234
REMARK INTER + INTRA:          -7.551
REMARK INTER:                  -7.258
REMARK INTRA:                  -0.293
REMARK UNBOUND:                -0.289
REMARK SMILES O=c1cc(-c2ccc(O)c(O)c2)oc2cc(O)cc(O)c12
REMARK SMILES IDX 4 1 3 2 2 3 1 4 21 5 19 6 18 7 16 8 15 9 14 10 13 11 5 12
REMARK SMILES IDX 6 13 7 14 8 15 12 16 10 17 9 18 11 20 20 22 17 24
REMARK H PARENT 9 19 11 21 20 23 17 25
REMARK Flexibility Score: inf
ROOT
ATOM      1  C   UNL     1      14.040  38.040  11.297  1.00  0.00     0.138 A 
ATOM      2  C   UNL     1      13.859  37.405  12.532  1.00  0.00     0.100 A 
ATOM      3  C   UNL     1      12.577  37.292  13.069  1.00  0.00     0.197 A 
ATOM      4  O   UNL     1      12.440  36.668  14.153  1.00  0.00    -0.289 OA
ATOM      5  C   UNL     1      11.473  37.852  12.381  1.00  0.00     0.107 A 
ATOM      6  C   UNL     1      10.124  37.827  12.848  1.00  0.00     0.134 A 
ATOM      7  C   UNL     1       9.102  38.327  12.032  1.00  0.00     0.093 A 
ATOM      8  C   UNL     1       9.384  38.902  10.794  1.00  0.00     0.123 A 
ATOM      9  C   UNL     1      10.705  38.976  10.348  1.00  0.00     0.094 A 
ATOM     10  C   UNL     1      11.743  38.454  11.124  1.00  0.00     0.146 A 
ATOM     11  O   UNL     1      12.985  38.529  10.655  1.00  0.00    -0.456 OA
ENDROOT
BRANCH   1  12
ATOM     12  C   UNL     1      15.383  38.191  10.681  1.00  0.00     0.021 A 
ATOM     13  C   UNL     1      15.607  39.062   9.597  1.00  0.00     0.016 A 
ATOM     14  C   UNL     1      16.884  39.191   9.044  1.00  0.00     0.051 A 
ATOM     15  C   UNL     1      17.959  38.461   9.566  1.00  0.00     0.157 A 
ATOM     16  C   UNL     1      16.471  37.471  11.207  1.00  0.00     0.062 A 
ATOM     17  C   UNL     1      17.750  37.599  10.655  1.00  0.00     0.158 A 
BRANCH  15  18
ATOM     18  O   UNL     1      19.231  38.592   9.011  1.00  0.00    -0.504 OA
ATOM     19  H   UNL     1      19.517  39.440   8.534  1.00  0.00     0.293 HD
ENDBRANCH  15  18
BRANCH  17  20
ATOM     20  O   UNL     1      18.800  36.861  11.200  1.00  0.00    -0.504 OA
ATOM     21  H   UNL     1      19.720  36.841  10.778  1.00  0.00     0.293 HD
ENDBRANCH  17  20
ENDBRANCH   1  12
BRANCH   6  22
ATOM     22  O   UNL     1       9.738  37.349  14.105  1.00  0.00    -0.507 OA
ATOM     23  H   UNL     1       9.660  37.909  14.939  1.00  0.00     0.293 HD
ENDBRANCH   6  22
BRANCH   8  24
ATOM     24  O   UNL     1       8.343  39.403  10.015  1.00  0.00    -0.508 OA
ATOM     25  H   UNL     1       8.519  39.870   9.132  1.00  0.00     0.293 HD
ENDBRANCH   8  24
TORSDOF 5
ENDMDL
MODEL 7
REMARK VINA RESULT:    -6.099      2.566      3.964
REMARK INTER + INTRA:          -7.458
REMARK INTER:                  -7.193
REMARK INTRA:                  -0.265
REMARK UNBOUND:                -0.289
REMARK SMILES O=c1cc(-c2ccc(O)c(O)c2)oc2cc(O)cc(O)c12
REMARK SMILES IDX 4 1 3 2 2 3 1 4 21 5 19 6 18 7 16 8 15 9 14 10 13 11 5 12
REMARK SMILES IDX 6 13 7 14 8 15 12 16 10 17 9 18 11 20 20 22 17 24
REMARK H PARENT 9 19 11 21 20 23 17 25
REMARK Flexibility Score: inf
ROOT
ATOM      1  C   UNL     1      17.753  40.073  24.252  1.00  0.00     0.138 A 
ATOM      2  C   UNL     1      17.630  39.604  25.567  1.00  0.00     0.100 A 
ATOM      3  C   UNL     1      18.661  39.829  26.480  1.00  0.00     0.197 A 
ATOM      4  O   UNL     1      18.497  39.445  27.666  1.00  0.00    -0.289 OA
ATOM      5  C   UNL     1      19.839  40.496  26.063  1.00  0.00     0.107 A 
ATOM      6  C   UNL     1      20.969  40.751  26.896  1.00  0.00     0.134 A 
ATOM      7  C   UNL     1      22.037  41.507  26.398  1.00  0.00     0.093 A 
ATOM      8  C   UNL     1      22.043  41.968  25.082  1.00  0.00     0.123 A 
ATOM      9  C   UNL     1      20.965  41.682  24.243  1.00  0.00     0.094 A 
ATOM     10  C   UNL     1      19.869  40.959  24.721  1.00  0.00     0.146 A 
ATOM     11  O   UNL     1      18.855  40.724  23.894  1.00  0.00    -0.456 OA
ENDROOT
BRANCH   1  12
ATOM     12  C   UNL     1      16.690  39.859  23.239  1.00  0.00     0.021 A 
ATOM     13  C   UNL     1      15.978  40.934  22.674  1.00  0.00     0.016 A 
ATOM     14  C   UNL     1      14.988  40.703  21.714  1.00  0.00     0.051 A 
ATOM     15  C   UNL     1      14.698  39.398  21.297  1.00  0.00     0.157 A 
ATOM     16  C   UNL     1      16.400  38.553  22.805  1.00  0.00     0.062 A 
ATOM     17  C   UNL     1      15.409  38.318  21.845  1.00  0.00     0.158 A 
BRANCH  15  18
ATOM     18  O   UNL     1      13.709  39.171  20.341  1.00  0.00    -0.504 OA
ATOM     19  H   UNL     1      13.591  39.787  19.544  1.00  0.00     0.293 HD
ENDBRANCH  15  18
BRANCH  17  20
ATOM     20  O   UNL     1      15.146  37.008  21.448  1.00  0.00    -0.504 OA
ATOM     21  H   UNL     1      15.875  36.389  21.115  1.00  0.00     0.293 HD
ENDBRANCH  17  20
ENDBRANCH   1  12
BRANCH   6  22
ATOM     22  O   UNL     1      21.104  40.270  28.203  1.00  0.00    -0.507 OA
ATOM     23  H   UNL     1      20.583  40.602  28.999  1.00  0.00     0.293 HD
ENDBRANCH   6  22
BRANCH   8  24
ATOM     24  O   UNL     1      23.129  42.705  24.616  1.00  0.00    -0.508 OA
ATOM     25  H   UNL     1      23.697  42.380  23.841  1.00  0.00     0.293 HD
ENDBRANCH   8  24
TORSDOF 5
ENDMDL
MODEL 8
REMARK VINA RESULT:    -6.066      8.919     11.034
REMARK INTER + INTRA:          -7.419
REMARK INTER:                  -7.148
REMARK INTRA:                  -0.271
REMARK UNBOUND:                -0.289
REMARK SMILES O=c1cc(-c2ccc(O)c(O)c2)oc2cc(O)cc(O)c12
REMARK SMILES IDX 4 1 3 2 2 3 1 4 21 5 19 6 18 7 16 8 15 9 14 10 13 11 5 12
REMARK SMILES IDX 6 13 7 14 8 15 12 16 10 17 9 18 11 20 20 22 17 24
REMARK H PARENT 9 19 11 21 20 23 17 25
REMARK Flexibility Score: inf
ROOT
ATOM      1  C   UNL     1      12.636  37.079  17.130  1.00  0.00     0.138 A 
ATOM      2  C   UNL     1      13.284  35.837  17.133  1.00  0.00     0.100 A 
ATOM      3  C   UNL     1      13.580  35.216  18.346  1.00  0.00     0.197 A 
ATOM      4  O   UNL     1      14.111  34.075  18.315  1.00  0.00    -0.289 OA
ATOM      5  C   UNL     1      13.258  35.860  19.565  1.00  0.00     0.107 A 
ATOM      6  C   UNL     1      13.543  35.338  20.863  1.00  0.00     0.134 A 
ATOM      7  C   UNL     1      13.088  36.022  21.997  1.00  0.00     0.093 A 
ATOM      8  C   UNL     1      12.411  37.235  21.884  1.00  0.00     0.123 A 
ATOM      9  C   UNL     1      12.170  37.780  20.622  1.00  0.00     0.094 A 
ATOM     10  C   UNL     1      12.581  37.105  19.470  1.00  0.00     0.146 A 
ATOM     11  O   UNL     1      12.316  37.650  18.287  1.00  0.00    -0.456 OA
ENDROOT
BRANCH   1  12
ATOM     12  C   UNL     1      12.300  37.787  15.869  1.00  0.00     0.021 A 
ATOM     13  C   UNL     1      12.672  39.127  15.649  1.00  0.00     0.016 A 
ATOM     14  C   UNL     1      12.350  39.764  14.448  1.00  0.00     0.051 A 
ATOM     15  C   UNL     1      11.660  39.074  13.443  1.00  0.00     0.157 A 
ATOM     16  C   UNL     1      11.619  37.097  14.849  1.00  0.00     0.062 A 
ATOM     17  C   UNL     1      11.295  37.734  13.645  1.00  0.00     0.158 A 
BRANCH  15  18
ATOM     18  O   UNL     1      11.340  39.714  12.247  1.00  0.00    -0.504 OA
ATOM     19  H   UNL     1      11.604  39.322  11.349  1.00  0.00     0.293 HD
ENDBRANCH  15  18
BRANCH  17  20
ATOM     20  O   UNL     1      10.611  37.018  12.663  1.00  0.00    -0.504 OA
ATOM     21  H   UNL     1       9.682  36.647  12.817  1.00  0.00     0.293 HD
ENDBRANCH  17  20
ENDBRANCH   1  12
BRANCH   6  22
ATOM     22  O   UNL     1      14.283  34.174  21.095  1.00  0.00    -0.507 OA
ATOM     23  H   UNL     1      14.413  33.741  21.996  1.00  0.00     0.293 HD
ENDBRANCH   6  22
BRANCH   8  24
ATOM     24  O   UNL     1      11.985  37.895  23.035  1.00  0.00    -0.508 OA
ATOM     25  H   UNL     1      11.002  38.066  23.215  1.00  0.00     0.293 HD
ENDBRANCH   8  24
TORSDOF 5
ENDMDL
MODEL 9
REMARK VINA RESULT:    -6.003     10.123     12.197
REMARK INTER + INTRA:          -7.344
REMARK INTER:                  -7.054
REMARK INTRA:                  -0.291
REMARK UNBOUND:                -0.289
REMARK SMILES O=c1cc(-c2ccc(O)c(O)c2)oc2cc(O)cc(O)c12
REMARK SMILES IDX 4 1 3 2 2 3 1 4 21 5 19 6 18 7 16 8 15 9 14 10 13 11 5 12
REMARK SMILES IDX 6 13 7 14 8 15 12 16 10 17 9 18 11 20 20 22 17 24
REMARK H PARENT 9 19 11 21 20 23 17 25
REMARK Flexibility Score: inf
ROOT
ATOM      1  C   UNL     1      12.318  38.358  14.406  1.00  0.00     0.138 A 
ATOM      2  C   UNL     1      13.704  38.325  14.203  1.00  0.00     0.100 A 
ATOM      3  C   UNL     1      14.562  38.273  15.301  1.00  0.00     0.197 A 
ATOM      4  O   UNL     1      15.798  38.188  15.085  1.00  0.00    -0.289 OA
ATOM      5  C   UNL     1      14.029  38.292  16.613  1.00  0.00     0.107 A 
ATOM      6  C   UNL     1      14.808  38.278  17.809  1.00  0.00     0.134 A 
ATOM      7  C   UNL     1      14.164  38.200  19.050  1.00  0.00     0.093 A 
ATOM      8  C   UNL     1      12.773  38.194  19.143  1.00  0.00     0.123 A 
ATOM      9  C   UNL     1      12.001  38.257  17.982  1.00  0.00     0.094 A 
ATOM     10  C   UNL     1      12.613  38.301  16.727  1.00  0.00     0.146 A 
ATOM     11  O   UNL     1      11.841  38.343  15.646  1.00  0.00    -0.456 OA
ENDROOT
BRANCH   1  12
ATOM     12  C   UNL     1      11.359  38.417  13.274  1.00  0.00     0.021 A 
ATOM     13  C   UNL     1      11.537  39.307  12.197  1.00  0.00     0.016 A 
ATOM     14  C   UNL     1      10.623  39.332  11.140  1.00  0.00     0.051 A 
ATOM     15  C   UNL     1       9.522  38.467  11.135  1.00  0.00     0.157 A 
ATOM     16  C   UNL     1      10.258  37.541  13.254  1.00  0.00     0.062 A 
ATOM     17  C   UNL     1       9.341  37.566  12.196  1.00  0.00     0.158 A 
BRANCH  15  18
ATOM     18  O   UNL     1       8.612  38.496  10.079  1.00  0.00    -0.504 OA
ATOM     19  H   UNL     1       8.871  38.852   9.166  1.00  0.00     0.293 HD
ENDBRANCH  15  18
BRANCH  17  20
ATOM     20  O   UNL     1       8.258  36.688  12.219  1.00  0.00    -0.504 OA
ATOM     21  H   UNL     1       7.403  36.901  12.717  1.00  0.00     0.293 HD
ENDBRANCH  17  20
ENDBRANCH   1  12
BRANCH   6  22
ATOM     22  O   UNL     1      16.204  38.361  17.837  1.00  0.00    -0.507 OA
ATOM     23  H   UNL     1      16.767  38.359  18.673  1.00  0.00     0.293 HD
ENDBRANCH   6  22
BRANCH   8  24
ATOM     24  O   UNL     1      12.168  38.130  20.396  1.00  0.00    -0.508 OA
ATOM     25  H   UNL     1      11.528  37.381  20.638  1.00  0.00     0.293 HD
ENDBRANCH   8  24
TORSDOF 5
ENDMDL
