MODEL 1
REMARK VINA RESULT:    -3.025      0.000      0.000
REMARK INTER + INTRA:          -3.418
REMARK INTER:                  -3.556
REMARK INTRA:                   0.138
REMARK UNBOUND:                 0.138
REMARK SMILES O=C([O-])CCC(=O)[O-]
REMARK SMILES IDX 4 1 2 2 1 3 3 4 5 5 6 6 7 7 8 8
REMARK H PARENT
REMARK Flexibility Score: inf
ROOT
ATOM      1  C   UNL     1      -3.428  17.041 -19.307  1.00  0.00     0.059 C 
ENDROOT
BRANCH   1   2
ATOM      2  C   UNL     1      -4.511  17.958 -18.827  1.00  0.00     0.042 C 
ATOM      3  O   UNL     1      -5.314  17.578 -17.935  1.00  0.00    -0.550 OA
ATOM      4  O   UNL     1      -4.608  19.247 -19.335  1.00  0.00    -0.550 OA
ENDBRANCH   1   2
BRANCH   1   5
ATOM      5  C   UNL     1      -2.730  17.595 -20.554  1.00  0.00     0.059 C 
BRANCH   5   6
ATOM      6  C   UNL     1      -1.552  18.447 -20.194  1.00  0.00     0.042 C 
ATOM      7  O   UNL     1      -0.641  18.660 -21.036  1.00  0.00    -0.550 OA
ATOM      8  O   UNL     1      -1.441  18.973 -18.912  1.00  0.00    -0.550 OA
ENDBRANCH   5   6
ENDBRANCH   1   5
TORSDOF 3
ENDMDL
MODEL 2
REMARK VINA RESULT:    -3.011      0.050      3.743
REMARK INTER + INTRA:          -3.401
REMARK INTER:                  -3.562
REMARK INTRA:                   0.162
REMARK UNBOUND:                 0.138
REMARK SMILES O=C([O-])CCC(=O)[O-]
REMARK SMILES IDX 4 1 2 2 1 3 3 4 5 5 6 6 7 7 8 8
REMARK H PARENT
REMARK Flexibility Score: inf
ROOT
ATOM      1  C   UNL     1      -2.709  17.553 -20.500  1.00  0.00     0.059 C 
ENDROOT
BRANCH   1   2
ATOM      2  C   UNL     1      -1.535  18.414 -20.147  1.00  0.00     0.042 C 
ATOM      3  O   UNL     1      -0.643  18.650 -21.003  1.00  0.00    -0.550 OA
ATOM      4  O   UNL     1      -1.446  18.987 -18.885  1.00  0.00    -0.550 OA
ENDBRANCH   1   2
BRANCH   1   5
ATOM      5  C   UNL     1      -3.411  17.014 -19.249  1.00  0.00     0.059 C 
BRANCH   5   6
ATOM      6  C   UNL     1      -4.490  17.942 -18.780  1.00  0.00     0.042 C 
ATOM      7  O   UNL     1      -5.327  17.560 -17.921  1.00  0.00    -0.550 OA
ATOM      8  O   UNL     1      -4.595  19.217 -19.323  1.00  0.00    -0.550 OA
ENDBRANCH   5   6
ENDBRANCH   1   5
TORSDOF 3
ENDMDL
MODEL 3
REMARK VINA RESULT:    -2.965      9.811     11.016
REMARK INTER + INTRA:          -3.347
REMARK INTER:                  -3.227
REMARK INTRA:                  -0.119
REMARK UNBOUND:                 0.138
REMARK SMILES O=C([O-])CCC(=O)[O-]
REMARK SMILES IDX 4 1 2 2 1 3 3 4 5 5 6 6 7 7 8 8
REMARK H PARENT
REMARK Flexibility Score: inf
ROOT
ATOM      1  C   UNL     1     -12.328  16.399 -19.533  1.00  0.00     0.059 C 
ENDROOT
BRANCH   1   2
ATOM      2  C   UNL     1     -13.138  17.659 -19.496  1.00  0.00     0.042 C 
ATOM      3  O   UNL     1     -14.125  17.800 -20.265  1.00  0.00    -0.550 OA
ATOM      4  O   UNL     1     -12.828  18.660 -18.584  1.00  0.00    -0.550 OA
ENDBRANCH   1   2
BRANCH   1   5
ATOM      5  C   UNL     1     -12.998  15.273 -18.738  1.00  0.00     0.059 C 
BRANCH   5   6
ATOM      6  C   UNL     1     -13.608  14.247 -19.643  1.00  0.00     0.042 C 
ATOM      7  O   UNL     1     -13.960  13.127 -19.188  1.00  0.00    -0.550 OA
ATOM      8  O   UNL     1     -13.751  14.514 -21.000  1.00  0.00    -0.550 OA
ENDBRANCH   5   6
ENDBRANCH   1   5
TORSDOF 3
ENDMDL
MODEL 4
REMARK VINA RESULT:    -2.846      9.876     10.776
REMARK INTER + INTRA:          -3.207
REMARK INTER:                  -3.105
REMARK INTRA:                  -0.102
REMARK UNBOUND:                 0.138
REMARK SMILES O=C([O-])CCC(=O)[O-]
REMARK SMILES IDX 4 1 2 2 1 3 3 4 5 5 6 6 7 7 8 8
REMARK H PARENT
REMARK Flexibility Score: inf
ROOT
ATOM      1  C   UNL     1     -12.951  16.386 -20.217  1.00  0.00     0.059 C 
ENDROOT
BRANCH   1   2
ATOM      2  C   UNL     1     -13.315  15.047 -19.656  1.00  0.00     0.042 C 
ATOM      3  O   UNL     1     -13.293  14.854 -18.412  1.00  0.00    -0.550 OA
ATOM      4  O   UNL     1     -13.717  14.022 -20.503  1.00  0.00    -0.550 OA
ENDBRANCH   1   2
BRANCH   1   5
ATOM      5  C   UNL     1     -13.987  17.454 -19.848  1.00  0.00     0.059 C 
BRANCH   5   6
ATOM      6  C   UNL     1     -13.352  18.622 -19.157  1.00  0.00     0.042 C 
ATOM      7  O   UNL     1     -12.314  18.462 -18.464  1.00  0.00    -0.550 OA
ATOM      8  O   UNL     1     -13.931  19.883 -19.249  1.00  0.00    -0.550 OA
ENDBRANCH   5   6
ENDBRANCH   1   5
TORSDOF 3
ENDMDL
MODEL 5
REMARK VINA RESULT:    -2.830      0.192      3.678
REMARK INTER + INTRA:          -3.187
REMARK INTER:                  -3.261
REMARK INTRA:                   0.074
REMARK UNBOUND:                 0.138
REMARK SMILES O=C([O-])CCC(=O)[O-]
REMARK SMILES IDX 4 1 2 2 1 3 3 4 5 5 6 6 7 7 8 8
REMARK H PARENT
REMARK Flexibility Score: inf
ROOT
ATOM      1  C   UNL     1      -2.789  17.511 -20.471  1.00  0.00     0.059 C 
ENDROOT
BRANCH   1   2
ATOM      2  C   UNL     1      -1.648  18.415 -20.118  1.00  0.00     0.042 C 
ATOM      3  O   UNL     1      -1.581  18.931 -18.971  1.00  0.00    -0.550 OA
ATOM      4  O   UNL     1      -0.639  18.656 -21.041  1.00  0.00    -0.550 OA
ENDBRANCH   1   2
BRANCH   1   5
ATOM      5  C   UNL     1      -3.467  16.941 -19.220  1.00  0.00     0.059 C 
BRANCH   5   6
ATOM      6  C   UNL     1      -4.591  17.817 -18.755  1.00  0.00     0.042 C 
ATOM      7  O   UNL     1      -5.298  17.475 -17.772  1.00  0.00    -0.550 OA
ATOM      8  O   UNL     1      -4.881  18.994 -19.435  1.00  0.00    -0.550 OA
ENDBRANCH   5   6
ENDBRANCH   1   5
TORSDOF 3
ENDMDL
MODEL 6
REMARK VINA RESULT:    -2.709     10.200     10.957
REMARK INTER + INTRA:          -3.046
REMARK INTER:                  -2.969
REMARK INTRA:                  -0.077
REMARK UNBOUND:                 0.138
REMARK SMILES O=C([O-])CCC(=O)[O-]
REMARK SMILES IDX 4 1 2 2 1 3 3 4 5 5 6 6 7 7 8 8
REMARK H PARENT
REMARK Flexibility Score: inf
ROOT
ATOM      1  C   UNL     1     -12.491  16.717 -19.157  1.00  0.00     0.059 C 
ENDROOT
BRANCH   1   2
ATOM      2  C   UNL     1     -13.380  17.922 -19.145  1.00  0.00     0.042 C 
ATOM      3  O   UNL     1     -14.125  18.169 -20.129  1.00  0.00    -0.550 OA
ATOM      4  O   UNL     1     -13.415  18.750 -18.030  1.00  0.00    -0.550 OA
ENDBRANCH   1   2
BRANCH   1   5
ATOM      5  C   UNL     1     -13.119  15.559 -19.942  1.00  0.00     0.059 C 
BRANCH   5   6
ATOM      6  C   UNL     1     -13.408  14.386 -19.056  1.00  0.00     0.042 C 
ATOM      7  O   UNL     1     -13.369  13.216 -19.519  1.00  0.00    -0.550 OA
ATOM      8  O   UNL     1     -13.758  14.588 -17.726  1.00  0.00    -0.550 OA
ENDBRANCH   5   6
ENDBRANCH   1   5
TORSDOF 3
ENDMDL
MODEL 7
REMARK VINA RESULT:    -2.605      9.734     11.063
REMARK INTER + INTRA:          -2.923
REMARK INTER:                  -2.848
REMARK INTRA:                  -0.075
REMARK UNBOUND:                 0.138
REMARK SMILES O=C([O-])CCC(=O)[O-]
REMARK SMILES IDX 4 1 2 2 1 3 3 4 5 5 6 6 7 7 8 8
REMARK H PARENT
REMARK Flexibility Score: inf
ROOT
ATOM      1  C   UNL     1     -12.818  16.622 -19.732  1.00  0.00     0.059 C 
ENDROOT
BRANCH   1   2
ATOM      2  C   UNL     1     -13.080  18.026 -19.282  1.00  0.00     0.042 C 
ATOM      3  O   UNL     1     -14.119  18.629 -19.660  1.00  0.00    -0.550 OA
ATOM      4  O   UNL     1     -12.198  18.656 -18.413  1.00  0.00    -0.550 OA
ENDBRANCH   1   2
BRANCH   1   5
ATOM      5  C   UNL     1     -14.115  15.898 -20.110  1.00  0.00     0.059 C 
BRANCH   5   6
ATOM      6  C   UNL     1     -13.990  15.195 -21.427  1.00  0.00     0.042 C 
ATOM      7  O   UNL     1     -14.016  13.938 -21.481  1.00  0.00    -0.550 OA
ATOM      8  O   UNL     1     -13.806  15.930 -22.592  1.00  0.00    -0.550 OA
ENDBRANCH   5   6
ENDBRANCH   1   5
TORSDOF 3
ENDMDL
MODEL 8
REMARK VINA RESULT:    -2.419      1.678      3.470
REMARK INTER + INTRA:          -2.705
REMARK INTER:                  -2.867
REMARK INTRA:                   0.162
REMARK UNBOUND:                 0.138
REMARK SMILES O=C([O-])CCC(=O)[O-]
REMARK SMILES IDX 4 1 2 2 1 3 3 4 5 5 6 6 7 7 8 8
REMARK H PARENT
REMARK Flexibility Score: inf
ROOT
ATOM      1  C   UNL     1      -1.897  18.366 -20.256  1.00  0.00     0.059 C 
ENDROOT
BRANCH   1   2
ATOM      2  C   UNL     1      -2.497  17.275 -21.088  1.00  0.00     0.042 C 
ATOM      3  O   UNL     1      -3.640  17.421 -21.596  1.00  0.00    -0.550 OA
ATOM      4  O   UNL     1      -1.778  16.113 -21.338  1.00  0.00    -0.550 OA
ENDBRANCH   1   2
BRANCH   1   5
ATOM      5  C   UNL     1      -2.498  18.395 -18.845  1.00  0.00     0.059 C 
BRANCH   5   6
ATOM      6  C   UNL     1      -3.981  18.599 -18.882  1.00  0.00     0.042 C 
ATOM      7  O   UNL     1      -4.463  19.690 -19.284  1.00  0.00    -0.550 OA
ATOM      8  O   UNL     1      -4.832  17.595 -18.435  1.00  0.00    -0.550 OA
ENDBRANCH   5   6
ENDBRANCH   1   5
TORSDOF 3
ENDMDL
MODEL 9
REMARK VINA RESULT:    -2.376     10.531     11.214
REMARK INTER + INTRA:          -2.654
REMARK INTER:                  -2.555
REMARK INTRA:                  -0.099
REMARK UNBOUND:                 0.138
REMARK SMILES O=C([O-])CCC(=O)[O-]
REMARK SMILES IDX 4 1 2 2 1 3 3 4 5 5 6 6 7 7 8 8
REMARK H PARENT
REMARK Flexibility Score: inf
ROOT
ATOM      1  C   UNL     1     -13.883  16.048 -19.911  1.00  0.00     0.059 C 
ENDROOT
BRANCH   1   2
ATOM      2  C   UNL     1     -14.033  15.851 -21.388  1.00  0.00     0.042 C 
ATOM      3  O   UNL     1     -14.113  14.690 -21.868  1.00  0.00    -0.550 OA
ATOM      4  O   UNL     1     -14.124  16.951 -22.232  1.00  0.00    -0.550 OA
ENDBRANCH   1   2
BRANCH   1   5
ATOM      5  C   UNL     1     -12.910  17.187 -19.588  1.00  0.00     0.059 C 
BRANCH   5   6
ATOM      6  C   UNL     1     -13.632  18.415 -19.127  1.00  0.00     0.042 C 
ATOM      7  O   UNL     1     -13.766  19.401 -19.899  1.00  0.00    -0.550 OA
ATOM      8  O   UNL     1     -14.125  18.486 -17.830  1.00  0.00    -0.550 OA
ENDBRANCH   5   6
ENDBRANCH   1   5
TORSDOF 3
ENDMDL
