MODEL 1
REMARK VINA RESULT:    -3.400      0.000      0.000
REMARK INTER + INTRA:          -4.314
REMARK INTER:                  -4.095
REMARK INTRA:                  -0.219
REMARK UNBOUND:                -0.219
REMARK SMILES OCC(O)CO
REMARK SMILES IDX 3 1 5 2 6 3 2 5 1 6 4 8
REMARK H PARENT 6 4 1 7 4 9
REMARK Flexibility Score: inf
ROOT
ATOM      1  C   UNL     1     -29.095 -41.235  25.716  1.00  0.00     0.165 C 
ENDROOT
BRANCH   1   2
ATOM      2  C   UNL     1     -29.226 -39.738  26.045  1.00  0.00     0.190 C 
BRANCH   2   3
ATOM      3  O   UNL     1     -27.973 -39.107  26.025  1.00  0.00    -0.394 OA
ATOM      4  H   UNL     1     -27.940 -38.514  26.820  1.00  0.00     0.210 HD
ENDBRANCH   2   3
ENDBRANCH   1   2
BRANCH   1   5
ATOM      5  C   UNL     1     -27.628 -41.673  25.619  1.00  0.00     0.190 C 
BRANCH   5   6
ATOM      6  O   UNL     1     -27.027 -41.657  26.885  1.00  0.00    -0.394 OA
ATOM      7  H   UNL     1     -27.518 -40.976  27.414  1.00  0.00     0.210 HD
ENDBRANCH   5   6
ENDBRANCH   1   5
BRANCH   1   8
ATOM      8  O   UNL     1     -29.737 -41.997  26.705  1.00  0.00    -0.388 OA
ATOM      9  H   UNL     1     -30.446 -41.422  27.096  1.00  0.00     0.211 HD
ENDBRANCH   1   8
TORSDOF 5
ENDMDL
MODEL 2
REMARK VINA RESULT:    -3.384      0.824      2.366
REMARK INTER + INTRA:          -4.295
REMARK INTER:                  -4.071
REMARK INTRA:                  -0.223
REMARK UNBOUND:                -0.219
REMARK SMILES OCC(O)CO
REMARK SMILES IDX 3 1 5 2 6 3 2 5 1 6 4 8
REMARK H PARENT 6 4 1 7 4 9
REMARK Flexibility Score: inf
ROOT
ATOM      1  C   UNL     1     -29.105 -41.307  25.831  1.00  0.00     0.165 C 
ENDROOT
BRANCH   1   2
ATOM      2  C   UNL     1     -27.653 -41.774  25.633  1.00  0.00     0.190 C 
BRANCH   2   3
ATOM      3  O   UNL     1     -26.969 -41.822  26.857  1.00  0.00    -0.394 OA
ATOM      4  H   UNL     1     -26.000 -41.850  26.641  1.00  0.00     0.210 HD
ENDBRANCH   2   3
ENDBRANCH   1   2
BRANCH   1   5
ATOM      5  C   UNL     1     -29.200 -39.785  25.990  1.00  0.00     0.190 C 
BRANCH   5   6
ATOM      6  O   UNL     1     -27.920 -39.213  26.003  1.00  0.00    -0.394 OA
ATOM      7  H   UNL     1     -28.057 -38.230  25.969  1.00  0.00     0.210 HD
ENDBRANCH   5   6
ENDBRANCH   1   5
BRANCH   1   8
ATOM      8  O   UNL     1     -29.886 -41.704  24.734  1.00  0.00    -0.388 OA
ATOM      9  H   UNL     1     -30.481 -40.940  24.514  1.00  0.00     0.211 HD
ENDBRANCH   1   8
TORSDOF 5
ENDMDL
MODEL 3
REMARK VINA RESULT:    -3.326      1.286      1.671
REMARK INTER + INTRA:          -4.226
REMARK INTER:                  -4.209
REMARK INTRA:                  -0.017
REMARK UNBOUND:                -0.219
REMARK SMILES OCC(O)CO
REMARK SMILES IDX 3 1 5 2 6 3 2 5 1 6 4 8
REMARK H PARENT 6 4 1 7 4 9
REMARK Flexibility Score: inf
ROOT
ATOM      1  C   UNL     1     -28.452 -41.417  26.457  1.00  0.00     0.165 C 
ENDROOT
BRANCH   1   2
ATOM      2  C   UNL     1     -28.978 -40.023  26.074  1.00  0.00     0.190 C 
BRANCH   2   3
ATOM      3  O   UNL     1     -27.939 -39.080  26.063  1.00  0.00    -0.394 OA
ATOM      4  H   UNL     1     -27.238 -39.422  26.676  1.00  0.00     0.210 HD
ENDBRANCH   2   3
ENDBRANCH   1   2
BRANCH   1   5
ATOM      5  C   UNL     1     -27.663 -42.065  25.312  1.00  0.00     0.190 C 
BRANCH   5   6
ATOM      6  O   UNL     1     -28.526 -42.446  24.276  1.00  0.00    -0.394 OA
ATOM      7  H   UNL     1     -29.150 -41.686  24.143  1.00  0.00     0.210 HD
ENDBRANCH   5   6
ENDBRANCH   1   5
BRANCH   1   8
ATOM      8  O   UNL     1     -27.626 -41.320  27.587  1.00  0.00    -0.388 OA
ATOM      9  H   UNL     1     -27.487 -42.245  27.922  1.00  0.00     0.211 HD
ENDBRANCH   1   8
TORSDOF 5
ENDMDL
MODEL 4
REMARK VINA RESULT:    -3.268      1.878      2.629
REMARK INTER + INTRA:          -4.155
REMARK INTER:                  -4.153
REMARK INTRA:                  -0.003
REMARK UNBOUND:                -0.219
REMARK SMILES OCC(O)CO
REMARK SMILES IDX 3 1 5 2 6 3 2 5 1 6 4 8
REMARK H PARENT 6 4 1 7 4 9
REMARK Flexibility Score: inf
ROOT
ATOM      1  C   UNL     1     -28.208 -41.643  25.437  1.00  0.00     0.165 C 
ENDROOT
BRANCH   1   2
ATOM      2  C   UNL     1     -29.358 -41.758  24.421  1.00  0.00     0.190 C 
BRANCH   2   3
ATOM      3  O   UNL     1     -29.078 -42.733  23.452  1.00  0.00    -0.394 OA
ATOM      4  H   UNL     1     -29.526 -42.440  22.616  1.00  0.00     0.210 HD
ENDBRANCH   2   3
ENDBRANCH   1   2
BRANCH   1   5
ATOM      5  C   UNL     1     -28.717 -41.675  26.883  1.00  0.00     0.190 C 
BRANCH   5   6
ATOM      6  O   UNL     1     -27.699 -41.297  27.769  1.00  0.00    -0.394 OA
ATOM      7  H   UNL     1     -27.170 -42.118  27.947  1.00  0.00     0.210 HD
ENDBRANCH   5   6
ENDBRANCH   1   5
BRANCH   1   8
ATOM      8  O   UNL     1     -27.299 -42.696  25.247  1.00  0.00    -0.388 OA
ATOM      9  H   UNL     1     -27.837 -43.524  25.139  1.00  0.00     0.211 HD
ENDBRANCH   1   8
TORSDOF 5
ENDMDL
MODEL 5
REMARK VINA RESULT:    -3.266      1.661      2.424
REMARK INTER + INTRA:          -4.153
REMARK INTER:                  -4.140
REMARK INTRA:                  -0.012
REMARK UNBOUND:                -0.219
REMARK SMILES OCC(O)CO
REMARK SMILES IDX 3 1 5 2 6 3 2 5 1 6 4 8
REMARK H PARENT 6 4 1 7 4 9
REMARK Flexibility Score: inf
ROOT
ATOM      1  C   UNL     1     -27.723 -40.719  26.482  1.00  0.00     0.165 C 
ENDROOT
BRANCH   1   2
ATOM      2  C   UNL     1     -28.729 -40.821  27.643  1.00  0.00     0.190 C 
BRANCH   2   3
ATOM      3  O   UNL     1     -28.119 -41.347  28.792  1.00  0.00    -0.394 OA
ATOM      4  H   UNL     1     -27.401 -41.956  28.478  1.00  0.00     0.210 HD
ENDBRANCH   2   3
ENDBRANCH   1   2
BRANCH   1   5
ATOM      5  C   UNL     1     -28.108 -41.632  25.311  1.00  0.00     0.190 C 
BRANCH   5   6
ATOM      6  O   UNL     1     -27.202 -42.696  25.202  1.00  0.00    -0.394 OA
ATOM      7  H   UNL     1     -27.733 -43.481  24.906  1.00  0.00     0.210 HD
ENDBRANCH   5   6
ENDBRANCH   1   5
BRANCH   1   8
ATOM      8  O   UNL     1     -27.654 -39.393  26.028  1.00  0.00    -0.388 OA
ATOM      9  H   UNL     1     -28.070 -39.376  25.126  1.00  0.00     0.211 HD
ENDBRANCH   1   8
TORSDOF 5
ENDMDL
MODEL 6
REMARK VINA RESULT:    -3.260      1.348      2.744
REMARK INTER + INTRA:          -4.145
REMARK INTER:                  -3.922
REMARK INTRA:                  -0.224
REMARK UNBOUND:                -0.219
REMARK SMILES OCC(O)CO
REMARK SMILES IDX 3 1 5 2 6 3 2 5 1 6 4 8
REMARK H PARENT 6 4 1 7 4 9
REMARK Flexibility Score: inf
ROOT
ATOM      1  C   UNL     1     -28.031 -41.037  26.232  1.00  0.00     0.165 C 
ENDROOT
BRANCH   1   2
ATOM      2  C   UNL     1     -27.574 -42.118  25.237  1.00  0.00     0.190 C 
BRANCH   2   3
ATOM      3  O   UNL     1     -28.595 -42.428  24.327  1.00  0.00    -0.394 OA
ATOM      4  H   UNL     1     -28.219 -43.093  23.693  1.00  0.00     0.210 HD
ENDBRANCH   2   3
ENDBRANCH   1   2
BRANCH   1   5
ATOM      5  C   UNL     1     -29.558 -40.885  26.250  1.00  0.00     0.190 C 
BRANCH   5   6
ATOM      6  O   UNL     1     -30.158 -42.035  26.780  1.00  0.00    -0.394 OA
ATOM      7  H   UNL     1     -30.497 -42.553  26.004  1.00  0.00     0.210 HD
ENDBRANCH   5   6
ENDBRANCH   1   5
BRANCH   1   8
ATOM      8  O   UNL     1     -27.587 -41.361  27.524  1.00  0.00    -0.388 OA
ATOM      9  H   UNL     1     -28.141 -40.834  28.158  1.00  0.00     0.211 HD
ENDBRANCH   1   8
TORSDOF 5
ENDMDL
MODEL 7
REMARK VINA RESULT:    -3.226      1.819      2.660
REMARK INTER + INTRA:          -4.105
REMARK INTER:                  -3.892
REMARK INTRA:                  -0.213
REMARK UNBOUND:                -0.219
REMARK SMILES OCC(O)CO
REMARK SMILES IDX 3 1 5 2 6 3 2 5 1 6 4 8
REMARK H PARENT 6 4 1 7 4 9
REMARK Flexibility Score: inf
ROOT
ATOM      1  C   UNL     1     -28.956 -41.218  26.243  1.00  0.00     0.165 C 
ENDROOT
BRANCH   1   2
ATOM      2  C   UNL     1     -27.566 -41.394  25.607  1.00  0.00     0.190 C 
BRANCH   2   3
ATOM      3  O   UNL     1     -27.325 -42.739  25.290  1.00  0.00    -0.394 OA
ATOM      4  H   UNL     1     -26.351 -42.820  25.116  1.00  0.00     0.210 HD
ENDBRANCH   2   3
ENDBRANCH   1   2
BRANCH   1   5
ATOM      5  C   UNL     1     -30.064 -41.152  25.185  1.00  0.00     0.190 C 
BRANCH   5   6
ATOM      6  O   UNL     1     -29.810 -42.063  24.151  1.00  0.00    -0.394 OA
ATOM      7  H   UNL     1     -29.918 -42.967  24.547  1.00  0.00     0.210 HD
ENDBRANCH   5   6
ENDBRANCH   1   5
BRANCH   1   8
ATOM      8  O   UNL     1     -29.218 -42.285  27.117  1.00  0.00    -0.388 OA
ATOM      9  H   UNL     1     -29.845 -42.894  26.647  1.00  0.00     0.211 HD
ENDBRANCH   1   8
TORSDOF 5
ENDMDL
MODEL 8
REMARK VINA RESULT:    -3.211      1.372      1.995
REMARK INTER + INTRA:          -4.087
REMARK INTER:                  -3.869
REMARK INTRA:                  -0.218
REMARK UNBOUND:                -0.219
REMARK SMILES OCC(O)CO
REMARK SMILES IDX 3 1 5 2 6 3 2 5 1 6 4 8
REMARK H PARENT 6 4 1 7 4 9
REMARK Flexibility Score: inf
ROOT
ATOM      1  C   UNL     1     -29.020 -41.250  25.468  1.00  0.00     0.165 C 
ENDROOT
BRANCH   1   2
ATOM      2  C   UNL     1     -29.706 -41.128  26.840  1.00  0.00     0.190 C 
BRANCH   2   3
ATOM      3  O   UNL     1     -29.963 -42.394  27.388  1.00  0.00    -0.394 OA
ATOM      4  H   UNL     1     -29.959 -42.282  28.374  1.00  0.00     0.210 HD
ENDBRANCH   2   3
ENDBRANCH   1   2
BRANCH   1   5
ATOM      5  C   UNL     1     -27.614 -41.852  25.583  1.00  0.00     0.190 C 
BRANCH   5   6
ATOM      6  O   UNL     1     -27.090 -41.632  26.865  1.00  0.00    -0.394 OA
ATOM      7  H   UNL     1     -27.096 -40.648  26.999  1.00  0.00     0.210 HD
ENDBRANCH   5   6
ENDBRANCH   1   5
BRANCH   1   8
ATOM      8  O   UNL     1     -29.795 -42.054  24.618  1.00  0.00    -0.388 OA
ATOM      9  H   UNL     1     -29.817 -41.601  23.734  1.00  0.00     0.211 HD
ENDBRANCH   1   8
TORSDOF 5
ENDMDL
MODEL 9
REMARK VINA RESULT:    -3.146      3.269      3.938
REMARK INTER + INTRA:          -4.008
REMARK INTER:                  -3.785
REMARK INTRA:                  -0.223
REMARK UNBOUND:                -0.219
REMARK SMILES OCC(O)CO
REMARK SMILES IDX 3 1 5 2 6 3 2 5 1 6 4 8
REMARK H PARENT 6 4 1 7 4 9
REMARK Flexibility Score: inf
ROOT
ATOM      1  C   UNL     1     -31.323 -41.200  23.596  1.00  0.00     0.165 C 
ENDROOT
BRANCH   1   2
ATOM      2  C   UNL     1     -31.503 -40.982  25.108  1.00  0.00     0.190 C 
BRANCH   2   3
ATOM      3  O   UNL     1     -30.720 -41.885  25.843  1.00  0.00    -0.394 OA
ATOM      4  H   UNL     1     -29.919 -42.082  25.290  1.00  0.00     0.210 HD
ENDBRANCH   2   3
ENDBRANCH   1   2
BRANCH   1   5
ATOM      5  C   UNL     1     -30.904 -42.639  23.271  1.00  0.00     0.190 C 
BRANCH   5   6
ATOM      6  O   UNL     1     -29.508 -42.761  23.294  1.00  0.00    -0.394 OA
ATOM      7  H   UNL     1     -29.306 -43.492  23.935  1.00  0.00     0.210 HD
ENDBRANCH   5   6
ENDBRANCH   1   5
BRANCH   1   8
ATOM      8  O   UNL     1     -32.522 -40.908  22.927  1.00  0.00    -0.388 OA
ATOM      9  H   UNL     1     -32.788 -39.992  23.201  1.00  0.00     0.211 HD
ENDBRANCH   1   8
TORSDOF 5
ENDMDL
