MODEL 1
REMARK VINA RESULT:    -6.341      0.000      0.000
REMARK INTER + INTRA:          -7.577
REMARK INTER:                  -7.453
REMARK INTRA:                  -0.124
REMARK UNBOUND:                -0.124
REMARK SMILES O=C([O-])C=Cc1ccc(O)c(O)c1
REMARK SMILES IDX 6 1 13 2 7 3 11 4 8 5 9 6 5 7 4 8 2 9 1 10 3 11 12 12 10 14
REMARK H PARENT 12 13 10 15
REMARK Flexibility Score: inf
ROOT
ATOM      1  C   UNL     1     -20.828 -14.432 -10.992  1.00  0.00    -0.022 A 
ATOM      2  C   UNL     1     -19.964 -13.822 -11.914  1.00  0.00     0.058 A 
ATOM      3  C   UNL     1     -21.950 -15.133 -11.473  1.00  0.00     0.012 A 
ATOM      4  C   UNL     1     -20.216 -13.879 -13.291  1.00  0.00     0.157 A 
ATOM      5  C   UNL     1     -22.207 -15.195 -12.844  1.00  0.00     0.051 A 
ATOM      6  C   UNL     1     -21.355 -14.573 -13.761  1.00  0.00     0.157 A 
ENDROOT
BRANCH   1   7
ATOM      7  C   UNL     1     -20.501 -14.345  -9.547  1.00  0.00     0.010 C 
ATOM      8  C   UNL     1     -21.119 -13.517  -8.691  1.00  0.00     0.025 C 
BRANCH   8   9
ATOM      9  C   UNL     1     -20.759 -13.448  -7.265  1.00  0.00     0.064 C 
ATOM     10  O   UNL     1     -21.509 -12.875  -6.430  1.00  0.00    -0.545 OA
ATOM     11  O   UNL     1     -19.571 -14.023  -6.833  1.00  0.00    -0.545 OA
ENDBRANCH   8   9
ENDBRANCH   1   7
BRANCH   4  12
ATOM     12  O   UNL     1     -19.316 -13.239 -14.146  1.00  0.00    -0.504 OA
ATOM     13  H   UNL     1     -18.996 -13.629 -15.021  1.00  0.00     0.293 HD
ENDBRANCH   4  12
BRANCH   6  14
ATOM     14  O   UNL     1     -21.674 -14.671 -15.118  1.00  0.00    -0.504 OA
ATOM     15  H   UNL     1     -21.104 -14.290 -15.861  1.00  0.00     0.293 HD
ENDBRANCH   6  14
TORSDOF 4
ENDMDL
MODEL 2
REMARK VINA RESULT:    -6.098      2.748      5.357
REMARK INTER + INTRA:          -7.292
REMARK INTER:                  -7.162
REMARK INTRA:                  -0.130
REMARK UNBOUND:                -0.124
REMARK SMILES O=C([O-])C=Cc1ccc(O)c(O)c1
REMARK SMILES IDX 6 1 13 2 7 3 11 4 8 5 9 6 5 7 4 8 2 9 1 10 3 11 12 12 10 14
REMARK H PARENT 12 13 10 15
REMARK Flexibility Score: inf
ROOT
ATOM      1  C   UNL     1     -21.918 -15.071 -12.358  1.00  0.00    -0.022 A 
ATOM      2  C   UNL     1     -21.305 -14.418 -13.439  1.00  0.00     0.058 A 
ATOM      3  C   UNL     1     -21.317 -14.995 -11.089  1.00  0.00     0.012 A 
ATOM      4  C   UNL     1     -20.100 -13.721 -13.275  1.00  0.00     0.157 A 
ATOM      5  C   UNL     1     -20.117 -14.301 -10.917  1.00  0.00     0.051 A 
ATOM      6  C   UNL     1     -19.498 -13.665 -11.997  1.00  0.00     0.157 A 
ENDROOT
BRANCH   1   7
ATOM      7  C   UNL     1     -23.199 -15.784 -12.594  1.00  0.00     0.010 C 
ATOM      8  C   UNL     1     -23.526 -16.364 -13.758  1.00  0.00     0.025 C 
BRANCH   8   9
ATOM      9  C   UNL     1     -24.811 -17.053 -13.959  1.00  0.00     0.064 C 
ATOM     10  O   UNL     1     -25.612 -16.690 -14.862  1.00  0.00    -0.545 OA
ATOM     11  O   UNL     1     -25.149 -18.121 -13.138  1.00  0.00    -0.545 OA
ENDBRANCH   8   9
ENDBRANCH   1   7
BRANCH   4  12
ATOM     12  O   UNL     1     -19.546 -13.106 -14.399  1.00  0.00    -0.504 OA
ATOM     13  H   UNL     1     -19.553 -12.108 -14.556  1.00  0.00     0.293 HD
ENDBRANCH   4  12
BRANCH   6  14
ATOM     14  O   UNL     1     -18.297 -12.992 -11.757  1.00  0.00    -0.504 OA
ATOM     15  H   UNL     1     -17.842 -12.392 -12.430  1.00  0.00     0.293 HD
ENDBRANCH   6  14
TORSDOF 4
ENDMDL
MODEL 3
REMARK VINA RESULT:    -6.098      2.227      6.107
REMARK INTER + INTRA:          -7.291
REMARK INTER:                  -7.160
REMARK INTRA:                  -0.132
REMARK UNBOUND:                -0.124
REMARK SMILES O=C([O-])C=Cc1ccc(O)c(O)c1
REMARK SMILES IDX 6 1 13 2 7 3 11 4 8 5 9 6 5 7 4 8 2 9 1 10 3 11 12 12 10 14
REMARK H PARENT 12 13 10 15
REMARK Flexibility Score: inf
ROOT
ATOM      1  C   UNL     1     -21.954 -14.822 -11.742  1.00  0.00    -0.022 A 
ATOM      2  C   UNL     1     -23.011 -14.256 -11.013  1.00  0.00     0.058 A 
ATOM      3  C   UNL     1     -20.651 -14.745 -11.219  1.00  0.00     0.012 A 
ATOM      4  C   UNL     1     -22.783 -13.599  -9.797  1.00  0.00     0.157 A 
ATOM      5  C   UNL     1     -20.415 -14.093 -10.007  1.00  0.00     0.051 A 
ATOM      6  C   UNL     1     -21.466 -13.515  -9.289  1.00  0.00     0.157 A 
ENDROOT
BRANCH   1   7
ATOM      7  C   UNL     1     -22.262 -15.513 -13.019  1.00  0.00     0.010 C 
ATOM      8  C   UNL     1     -23.496 -15.898 -13.381  1.00  0.00     0.025 C 
BRANCH   8   9
ATOM      9  C   UNL     1     -23.762 -16.592 -14.651  1.00  0.00     0.064 C 
ATOM     10  O   UNL     1     -24.139 -15.960 -15.674  1.00  0.00    -0.545 OA
ATOM     11  O   UNL     1     -23.598 -17.969 -14.722  1.00  0.00    -0.545 OA
ENDBRANCH   8   9
ENDBRANCH   1   7
BRANCH   4  12
ATOM     12  O   UNL     1     -23.884 -13.053  -9.134  1.00  0.00    -0.504 OA
ATOM     13  H   UNL     1     -23.941 -12.091  -8.834  1.00  0.00     0.293 HD
ENDBRANCH   4  12
BRANCH   6  14
ATOM     14  O   UNL     1     -21.160 -12.875  -8.085  1.00  0.00    -0.504 OA
ATOM     15  H   UNL     1     -20.410 -13.159  -7.470  1.00  0.00     0.293 HD
ENDBRANCH   6  14
TORSDOF 4
ENDMDL
MODEL 4
REMARK VINA RESULT:    -5.784      2.749      6.041
REMARK INTER + INTRA:          -6.923
REMARK INTER:                  -6.786
REMARK INTRA:                  -0.137
REMARK UNBOUND:                -0.124
REMARK SMILES O=C([O-])C=Cc1ccc(O)c(O)c1
REMARK SMILES IDX 6 1 13 2 7 3 11 4 8 5 9 6 5 7 4 8 2 9 1 10 3 11 12 12 10 14
REMARK H PARENT 12 13 10 15
REMARK Flexibility Score: inf
ROOT
ATOM      1  C   UNL     1     -22.389 -15.400 -12.741  1.00  0.00    -0.022 A 
ATOM      2  C   UNL     1     -22.166 -15.076 -11.393  1.00  0.00     0.058 A 
ATOM      3  C   UNL     1     -21.298 -15.397 -13.629  1.00  0.00     0.012 A 
ATOM      4  C   UNL     1     -20.889 -14.729 -10.933  1.00  0.00     0.157 A 
ATOM      5  C   UNL     1     -20.022 -15.053 -13.178  1.00  0.00     0.051 A 
ATOM      6  C   UNL     1     -19.804 -14.714 -11.839  1.00  0.00     0.157 A 
ENDROOT
BRANCH   1   7
ATOM      7  C   UNL     1     -23.763 -15.769 -13.164  1.00  0.00     0.010 C 
ATOM      8  C   UNL     1     -24.041 -16.436 -14.295  1.00  0.00     0.025 C 
BRANCH   8   9
ATOM      9  C   UNL     1     -25.418 -16.775 -14.689  1.00  0.00     0.064 C 
ATOM     10  O   UNL     1     -25.896 -17.921 -14.472  1.00  0.00    -0.545 OA
ATOM     11  O   UNL     1     -26.204 -15.816 -15.314  1.00  0.00    -0.545 OA
ENDBRANCH   8   9
ENDBRANCH   1   7
BRANCH   4  12
ATOM     12  O   UNL     1     -20.748 -14.411  -9.581  1.00  0.00    -0.504 OA
ATOM     13  H   UNL     1     -21.287 -13.698  -9.110  1.00  0.00     0.293 HD
ENDBRANCH   4  12
BRANCH   6  14
ATOM     14  O   UNL     1     -18.503 -14.377 -11.456  1.00  0.00    -0.504 OA
ATOM     15  H   UNL     1     -17.754 -14.188 -12.106  1.00  0.00     0.293 HD
ENDBRANCH   6  14
TORSDOF 4
ENDMDL
MODEL 5
REMARK VINA RESULT:    -5.735      7.137      9.232
REMARK INTER + INTRA:          -6.865
REMARK INTER:                  -6.735
REMARK INTRA:                  -0.130
REMARK UNBOUND:                -0.124
REMARK SMILES O=C([O-])C=Cc1ccc(O)c(O)c1
REMARK SMILES IDX 6 1 13 2 7 3 11 4 8 5 9 6 5 7 4 8 2 9 1 10 3 11 12 12 10 14
REMARK H PARENT 12 13 10 15
REMARK Flexibility Score: inf
ROOT
ATOM      1  C   UNL     1     -24.430 -21.129 -13.297  1.00  0.00    -0.022 A 
ATOM      2  C   UNL     1     -24.670 -21.767 -14.525  1.00  0.00     0.058 A 
ATOM      3  C   UNL     1     -23.897 -21.882 -12.235  1.00  0.00     0.012 A 
ATOM      4  C   UNL     1     -24.413 -23.133 -14.694  1.00  0.00     0.157 A 
ATOM      5  C   UNL     1     -23.637 -23.244 -12.396  1.00  0.00     0.051 A 
ATOM      6  C   UNL     1     -23.892 -23.882 -13.614  1.00  0.00     0.157 A 
ENDROOT
BRANCH   1   7
ATOM      7  C   UNL     1     -24.713 -19.677 -13.184  1.00  0.00     0.010 C 
ATOM      8  C   UNL     1     -24.594 -18.812 -14.202  1.00  0.00     0.025 C 
BRANCH   8   9
ATOM      9  C   UNL     1     -24.872 -17.374 -14.050  1.00  0.00     0.064 C 
ATOM     10  O   UNL     1     -25.699 -16.787 -14.798  1.00  0.00    -0.545 OA
ATOM     11  O   UNL     1     -24.210 -16.652 -13.066  1.00  0.00    -0.545 OA
ENDBRANCH   8   9
ENDBRANCH   1   7
BRANCH   4  12
ATOM     12  O   UNL     1     -24.686 -23.698 -15.941  1.00  0.00    -0.504 OA
ATOM     13  H   UNL     1     -24.439 -23.269 -16.821  1.00  0.00     0.293 HD
ENDBRANCH   4  12
BRANCH   6  14
ATOM     14  O   UNL     1     -23.612 -25.248 -13.706  1.00  0.00    -0.504 OA
ATOM     15  H   UNL     1     -24.133 -25.893 -14.283  1.00  0.00     0.293 HD
ENDBRANCH   6  14
TORSDOF 4
ENDMDL
MODEL 6
REMARK VINA RESULT:    -5.699      2.295      6.117
REMARK INTER + INTRA:          -6.823
REMARK INTER:                  -6.697
REMARK INTRA:                  -0.126
REMARK UNBOUND:                -0.124
REMARK SMILES O=C([O-])C=Cc1ccc(O)c(O)c1
REMARK SMILES IDX 6 1 13 2 7 3 11 4 8 5 9 6 5 7 4 8 2 9 1 10 3 11 12 12 10 14
REMARK H PARENT 12 13 10 15
REMARK Flexibility Score: inf
ROOT
ATOM      1  C   UNL     1     -22.302 -15.190 -12.814  1.00  0.00    -0.022 A 
ATOM      2  C   UNL     1     -20.900 -15.131 -12.823  1.00  0.00     0.058 A 
ATOM      3  C   UNL     1     -22.988 -14.853 -11.633  1.00  0.00     0.012 A 
ATOM      4  C   UNL     1     -20.182 -14.770 -11.675  1.00  0.00     0.157 A 
ATOM      5  C   UNL     1     -22.281 -14.491 -10.485  1.00  0.00     0.051 A 
ATOM      6  C   UNL     1     -20.883 -14.448 -10.490  1.00  0.00     0.157 A 
ENDROOT
BRANCH   1   7
ATOM      7  C   UNL     1     -23.005 -15.570 -14.065  1.00  0.00     0.010 C 
ATOM      8  C   UNL     1     -23.616 -14.692 -14.873  1.00  0.00     0.025 C 
BRANCH   8   9
ATOM      9  C   UNL     1     -24.314 -15.107 -16.101  1.00  0.00     0.064 C 
ATOM     10  O   UNL     1     -25.509 -15.505 -16.069  1.00  0.00    -0.545 OA
ATOM     11  O   UNL     1     -23.643 -15.060 -17.316  1.00  0.00    -0.545 OA
ENDBRANCH   8   9
ENDBRANCH   1   7
BRANCH   4  12
ATOM     12  O   UNL     1     -18.789 -14.743 -11.759  1.00  0.00    -0.504 OA
ATOM     13  H   UNL     1     -18.173 -14.939 -10.983  1.00  0.00     0.293 HD
ENDBRANCH   4  12
BRANCH   6  14
ATOM     14  O   UNL     1     -20.237 -14.081  -9.306  1.00  0.00    -0.504 OA
ATOM     15  H   UNL     1     -20.182 -13.132  -8.965  1.00  0.00     0.293 HD
ENDBRANCH   6  14
TORSDOF 4
ENDMDL
MODEL 7
REMARK VINA RESULT:    -5.662      7.711      9.740
REMARK INTER + INTRA:          -6.779
REMARK INTER:                  -6.648
REMARK INTRA:                  -0.131
REMARK UNBOUND:                -0.124
REMARK SMILES O=C([O-])C=Cc1ccc(O)c(O)c1
REMARK SMILES IDX 6 1 13 2 7 3 11 4 8 5 9 6 5 7 4 8 2 9 1 10 3 11 12 12 10 14
REMARK H PARENT 12 13 10 15
REMARK Flexibility Score: inf
ROOT
ATOM      1  C   UNL     1     -24.853 -21.316 -11.294  1.00  0.00    -0.022 A 
ATOM      2  C   UNL     1     -24.610 -22.471 -12.055  1.00  0.00     0.058 A 
ATOM      3  C   UNL     1     -24.634 -21.360  -9.905  1.00  0.00     0.012 A 
ATOM      4  C   UNL     1     -24.181 -23.660 -11.450  1.00  0.00     0.157 A 
ATOM      5  C   UNL     1     -24.207 -22.541  -9.295  1.00  0.00     0.051 A 
ATOM      6  C   UNL     1     -23.980 -23.695 -10.051  1.00  0.00     0.157 A 
ENDROOT
BRANCH   1   7
ATOM      7  C   UNL     1     -25.296 -20.085 -11.995  1.00  0.00     0.010 C 
ATOM      8  C   UNL     1     -24.970 -19.790 -13.263  1.00  0.00     0.025 C 
BRANCH   8   9
ATOM      9  C   UNL     1     -25.418 -18.552 -13.922  1.00  0.00     0.064 C 
ATOM     10  O   UNL     1     -26.642 -18.269 -14.015  1.00  0.00    -0.545 OA
ATOM     11  O   UNL     1     -24.474 -17.683 -14.452  1.00  0.00    -0.545 OA
ENDBRANCH   8   9
ENDBRANCH   1   7
BRANCH   4  12
ATOM     12  O   UNL     1     -23.969 -24.769 -12.271  1.00  0.00    -0.504 OA
ATOM     13  H   UNL     1     -24.368 -25.681 -12.101  1.00  0.00     0.293 HD
ENDBRANCH   4  12
BRANCH   6  14
ATOM     14  O   UNL     1     -23.557 -24.843  -9.377  1.00  0.00    -0.504 OA
ATOM     15  H   UNL     1     -23.792 -25.784  -9.661  1.00  0.00     0.293 HD
ENDBRANCH   6  14
TORSDOF 4
ENDMDL
MODEL 8
REMARK VINA RESULT:    -5.610      0.951      1.882
REMARK INTER + INTRA:          -6.719
REMARK INTER:                  -6.591
REMARK INTRA:                  -0.127
REMARK UNBOUND:                -0.124
REMARK SMILES O=C([O-])C=Cc1ccc(O)c(O)c1
REMARK SMILES IDX 6 1 13 2 7 3 11 4 8 5 9 6 5 7 4 8 2 9 1 10 3 11 12 12 10 14
REMARK H PARENT 12 13 10 15
REMARK Flexibility Score: inf
ROOT
ATOM      1  C   UNL     1     -20.753 -14.696 -10.964  1.00  0.00    -0.022 A 
ATOM      2  C   UNL     1     -22.066 -14.800 -11.447  1.00  0.00     0.058 A 
ATOM      3  C   UNL     1     -19.687 -14.714 -11.883  1.00  0.00     0.012 A 
ATOM      4  C   UNL     1     -22.325 -14.947 -12.817  1.00  0.00     0.157 A 
ATOM      5  C   UNL     1     -19.937 -14.859 -13.249  1.00  0.00     0.051 A 
ATOM      6  C   UNL     1     -21.245 -14.980 -13.729  1.00  0.00     0.157 A 
ENDROOT
BRANCH   1   7
ATOM      7  C   UNL     1     -20.545 -14.532  -9.503  1.00  0.00     0.010 C 
ATOM      8  C   UNL     1     -20.992 -13.481  -8.799  1.00  0.00     0.025 C 
BRANCH   8   9
ATOM      9  C   UNL     1     -20.756 -13.346  -7.353  1.00  0.00     0.064 C 
ATOM     10  O   UNL     1     -21.641 -12.875  -6.589  1.00  0.00    -0.545 OA
ATOM     11  O   UNL     1     -19.537 -13.742  -6.821  1.00  0.00    -0.545 OA
ENDBRANCH   8   9
ENDBRANCH   1   7
BRANCH   4  12
ATOM     12  O   UNL     1     -23.657 -15.054 -13.220  1.00  0.00    -0.504 OA
ATOM     13  H   UNL     1     -24.446 -14.925 -12.602  1.00  0.00     0.293 HD
ENDBRANCH   4  12
BRANCH   6  14
ATOM     14  O   UNL     1     -21.424 -15.125 -15.107  1.00  0.00    -0.504 OA
ATOM     15  H   UNL     1     -22.232 -15.560 -15.528  1.00  0.00     0.293 HD
ENDBRANCH   6  14
TORSDOF 4
ENDMDL
MODEL 9
REMARK VINA RESULT:    -5.578      2.917      4.411
REMARK INTER + INTRA:          -6.681
REMARK INTER:                  -6.550
REMARK INTRA:                  -0.131
REMARK UNBOUND:                -0.124
REMARK SMILES O=C([O-])C=Cc1ccc(O)c(O)c1
REMARK SMILES IDX 6 1 13 2 7 3 11 4 8 5 9 6 5 7 4 8 2 9 1 10 3 11 12 12 10 14
REMARK H PARENT 12 13 10 15
REMARK Flexibility Score: inf
ROOT
ATOM      1  C   UNL     1     -23.079 -14.870 -13.466  1.00  0.00    -0.022 A 
ATOM      2  C   UNL     1     -23.298 -16.249 -13.612  1.00  0.00     0.058 A 
ATOM      3  C   UNL     1     -24.008 -13.973 -14.026  1.00  0.00     0.012 A 
ATOM      4  C   UNL     1     -24.403 -16.737 -14.322  1.00  0.00     0.157 A 
ATOM      5  C   UNL     1     -25.112 -14.451 -14.734  1.00  0.00     0.051 A 
ATOM      6  C   UNL     1     -25.320 -15.825 -14.893  1.00  0.00     0.157 A 
ENDROOT
BRANCH   1   7
ATOM      7  C   UNL     1     -21.896 -14.416 -12.694  1.00  0.00     0.010 C 
ATOM      8  C   UNL     1     -21.388 -15.083 -11.647  1.00  0.00     0.025 C 
BRANCH   8   9
ATOM      9  C   UNL     1     -20.219 -14.596 -10.896  1.00  0.00     0.064 C 
ATOM     10  O   UNL     1     -20.279 -14.396  -9.653  1.00  0.00    -0.545 OA
ATOM     11  O   UNL     1     -19.030 -14.351 -11.570  1.00  0.00    -0.545 OA
ENDBRANCH   8   9
ENDBRANCH   1   7
BRANCH   4  12
ATOM     12  O   UNL     1     -24.548 -18.121 -14.431  1.00  0.00    -0.504 OA
ATOM     13  H   UNL     1     -25.145 -18.675 -13.834  1.00  0.00     0.293 HD
ENDBRANCH   4  12
BRANCH   6  14
ATOM     14  O   UNL     1     -26.443 -16.235 -15.616  1.00  0.00    -0.504 OA
ATOM     15  H   UNL     1     -27.067 -16.972 -15.319  1.00  0.00     0.293 HD
ENDBRANCH   6  14
TORSDOF 4
ENDMDL
