MODEL 1
REMARK VINA RESULT:    -4.280      0.000      0.000
REMARK INTER + INTRA:         -12.484
REMARK INTER:                  -9.784
REMARK INTRA:                  -2.700
REMARK UNBOUND:                -2.700
REMARK SMILES CCCCCCCCCCCCCCCCCCCCCCCC(=O)[O-]
REMARK SMILES IDX 13 1 14 2 15 3 16 4 17 5 18 6 19 7 20 8 21 9 22 10 23 11
REMARK SMILES IDX 24 12 25 13 26 14 12 15 11 16 10 17 9 18 8 19 7 20 6 21 5 22
REMARK SMILES IDX 4 23 3 24 2 25 1 26
REMARK H PARENT
REMARK Flexibility Score: inf
ROOT
ATOM      1  C   UNL     1      -6.152  -4.313   6.036  1.00  0.00     0.000 C 
ENDROOT
BRANCH   1   2
ATOM      2  C   UNL     1      -7.472  -3.972   6.745  1.00  0.00     0.000 C 
BRANCH   2   3
ATOM      3  C   UNL     1      -7.435  -2.598   7.433  1.00  0.00     0.000 C 
BRANCH   3   4
ATOM      4  C   UNL     1      -7.383  -2.749   8.961  1.00  0.00     0.000 C 
BRANCH   4   5
ATOM      5  C   UNL     1      -6.478  -3.906   9.414  1.00  0.00     0.000 C 
BRANCH   5   6
ATOM      6  C   UNL     1      -5.153  -3.473  10.068  1.00  0.00     0.000 C 
BRANCH   6   7
ATOM      7  C   UNL     1      -4.580  -2.157   9.502  1.00  0.00     0.000 C 
BRANCH   7   8
ATOM      8  C   UNL     1      -3.652  -2.390   8.297  1.00  0.00     0.000 C 
BRANCH   8   9
ATOM      9  C   UNL     1      -4.011  -1.502   7.095  1.00  0.00     0.000 C 
BRANCH   9  10
ATOM     10  C   UNL     1      -4.725  -0.203   7.508  1.00  0.00     0.006 C 
BRANCH  10  11
ATOM     11  C   UNL     1      -4.173   1.023   6.770  1.00  0.00     0.053 C 
BRANCH  11  12
ATOM     12  C   UNL     1      -3.243   1.821   7.633  1.00  0.00     0.041 C 
ATOM     13  O   UNL     1      -3.594   2.948   8.074  1.00  0.00    -0.550 OA
ATOM     14  O   UNL     1      -2.002   1.304   7.980  1.00  0.00    -0.550 OA
ENDBRANCH  11  12
ENDBRANCH  10  11
ENDBRANCH   9  10
ENDBRANCH   8   9
ENDBRANCH   7   8
ENDBRANCH   6   7
ENDBRANCH   5   6
ENDBRANCH   4   5
ENDBRANCH   3   4
ENDBRANCH   2   3
ENDBRANCH   1   2
BRANCH   1  15
ATOM     15  C   UNL     1      -6.009  -3.603   4.677  1.00  0.00     0.000 C 
BRANCH  15  16
ATOM     16  C   UNL     1      -7.357  -3.410   3.965  1.00  0.00     0.000 C 
BRANCH  16  17
ATOM     17  C   UNL     1      -7.576  -1.958   3.504  1.00  0.00     0.000 C 
BRANCH  17  18
ATOM     18  C   UNL     1      -6.717  -0.954   4.287  1.00  0.00    -0.000 C 
BRANCH  18  19
ATOM     19  C   UNL     1      -7.217   0.493   4.143  1.00  0.00    -0.000 C 
BRANCH  19  20
ATOM     20  C   UNL     1      -7.179   0.994   2.688  1.00  0.00    -0.000 C 
BRANCH  20  21
ATOM     21  C   UNL     1      -7.884   2.344   2.443  1.00  0.00    -0.000 C 
BRANCH  21  22
ATOM     22  C   UNL     1      -7.958   2.786   0.971  1.00  0.00    -0.000 C 
BRANCH  22  23
ATOM     23  C   UNL     1      -7.056   3.994   0.666  1.00  0.00    -0.000 C 
BRANCH  23  24
ATOM     24  C   UNL     1      -7.074   4.383  -0.822  1.00  0.00    -0.000 C 
BRANCH  24  25
ATOM     25  C   UNL     1      -6.560   5.809  -1.067  1.00  0.00    -0.003 C 
ATOM     26  C   UNL     1      -6.287   6.529   0.251  1.00  0.00     0.004 C 
ENDBRANCH  24  25
ENDBRANCH  23  24
ENDBRANCH  22  23
ENDBRANCH  21  22
ENDBRANCH  20  21
ENDBRANCH  19  20
ENDBRANCH  18  19
ENDBRANCH  17  18
ENDBRANCH  16  17
ENDBRANCH  15  16
ENDBRANCH   1  15
TORSDOF 22
ENDMDL
MODEL 2
REMARK VINA RESULT:    -4.186     11.080     14.053
REMARK INTER + INTRA:         -12.268
REMARK INTER:                  -9.303
REMARK INTRA:                  -2.966
REMARK UNBOUND:                -2.700
REMARK SMILES CCCCCCCCCCCCCCCCCCCCCCCC(=O)[O-]
REMARK SMILES IDX 13 1 14 2 15 3 16 4 17 5 18 6 19 7 20 8 21 9 22 10 23 11
REMARK SMILES IDX 24 12 25 13 26 14 12 15 11 16 10 17 9 18 8 19 7 20 6 21 5 22
REMARK SMILES IDX 4 23 3 24 2 25 1 26
REMARK H PARENT
REMARK Flexibility Score: inf
ROOT
ATOM      1  C   UNL     1      -4.007  -0.166  -6.671  1.00  0.00     0.000 C 
ENDROOT
BRANCH   1   2
ATOM      2  C   UNL     1      -4.401  -1.355  -5.781  1.00  0.00     0.000 C 
BRANCH   2   3
ATOM      3  C   UNL     1      -5.082  -0.915  -4.475  1.00  0.00     0.000 C 
BRANCH   3   4
ATOM      4  C   UNL     1      -5.572   0.538  -4.573  1.00  0.00     0.000 C 
BRANCH   4   5
ATOM      5  C   UNL     1      -7.104   0.643  -4.663  1.00  0.00     0.000 C 
BRANCH   5   6
ATOM      6  C   UNL     1      -7.622   1.792  -5.548  1.00  0.00     0.000 C 
BRANCH   6   7
ATOM      7  C   UNL     1      -7.620   1.466  -7.057  1.00  0.00     0.000 C 
BRANCH   7   8
ATOM      8  C   UNL     1      -7.786  -0.039  -7.333  1.00  0.00     0.000 C 
BRANCH   8   9
ATOM      9  C   UNL     1      -6.992  -0.505  -8.563  1.00  0.00     0.000 C 
BRANCH   9  10
ATOM     10  C   UNL     1      -6.851  -2.036  -8.635  1.00  0.00     0.006 C 
BRANCH  10  11
ATOM     11  C   UNL     1      -5.500  -2.468  -9.219  1.00  0.00     0.053 C 
BRANCH  11  12
ATOM     12  C   UNL     1      -5.120  -3.851  -8.782  1.00  0.00     0.041 C 
ATOM     13  O   UNL     1      -4.719  -4.697  -9.625  1.00  0.00    -0.550 OA
ATOM     14  O   UNL     1      -5.175  -4.194  -7.438  1.00  0.00    -0.550 OA
ENDBRANCH  11  12
ENDBRANCH  10  11
ENDBRANCH   9  10
ENDBRANCH   8   9
ENDBRANCH   7   8
ENDBRANCH   6   7
ENDBRANCH   5   6
ENDBRANCH   4   5
ENDBRANCH   3   4
ENDBRANCH   2   3
ENDBRANCH   1   2
BRANCH   1  15
ATOM     15  C   UNL     1      -2.771  -0.462  -7.541  1.00  0.00     0.000 C 
BRANCH  15  16
ATOM     16  C   UNL     1      -2.507   0.633  -8.586  1.00  0.00     0.000 C 
BRANCH  16  17
ATOM     17  C   UNL     1      -3.775   1.017  -9.370  1.00  0.00     0.000 C 
BRANCH  17  18
ATOM     18  C   UNL     1      -3.836   2.516  -9.697  1.00  0.00    -0.000 C 
BRANCH  18  19
ATOM     19  C   UNL     1      -5.245   3.106  -9.512  1.00  0.00    -0.000 C 
BRANCH  19  20
ATOM     20  C   UNL     1      -5.228   4.629  -9.289  1.00  0.00    -0.000 C 
BRANCH  20  21
ATOM     21  C   UNL     1      -3.829   5.278  -9.320  1.00  0.00    -0.000 C 
BRANCH  21  22
ATOM     22  C   UNL     1      -3.743   6.677  -8.683  1.00  0.00    -0.000 C 
BRANCH  22  23
ATOM     23  C   UNL     1      -2.958   6.683  -7.360  1.00  0.00    -0.000 C 
BRANCH  23  24
ATOM     24  C   UNL     1      -3.245   7.932  -6.511  1.00  0.00    -0.000 C 
BRANCH  24  25
ATOM     25  C   UNL     1      -4.316   7.685  -5.438  1.00  0.00    -0.003 C 
ATOM     26  C   UNL     1      -3.725   7.798  -4.035  1.00  0.00     0.004 C 
ENDBRANCH  24  25
ENDBRANCH  23  24
ENDBRANCH  22  23
ENDBRANCH  21  22
ENDBRANCH  20  21
ENDBRANCH  19  20
ENDBRANCH  18  19
ENDBRANCH  17  18
ENDBRANCH  16  17
ENDBRANCH  15  16
ENDBRANCH   1  15
TORSDOF 22
ENDMDL
MODEL 3
REMARK VINA RESULT:    -4.037     11.177     14.138
REMARK INTER + INTRA:         -11.930
REMARK INTER:                  -8.436
REMARK INTRA:                  -3.493
REMARK UNBOUND:                -2.700
REMARK SMILES CCCCCCCCCCCCCCCCCCCCCCCC(=O)[O-]
REMARK SMILES IDX 13 1 14 2 15 3 16 4 17 5 18 6 19 7 20 8 21 9 22 10 23 11
REMARK SMILES IDX 24 12 25 13 26 14 12 15 11 16 10 17 9 18 8 19 7 20 6 21 5 22
REMARK SMILES IDX 4 23 3 24 2 25 1 26
REMARK H PARENT
REMARK Flexibility Score: inf
ROOT
ATOM      1  C   UNL     1      -5.308  -1.171  -5.264  1.00  0.00     0.000 C 
ENDROOT
BRANCH   1   2
ATOM      2  C   UNL     1      -5.181   0.130  -4.457  1.00  0.00     0.000 C 
BRANCH   2   3
ATOM      3  C   UNL     1      -6.462   0.979  -4.499  1.00  0.00     0.000 C 
BRANCH   3   4
ATOM      4  C   UNL     1      -7.532   0.318  -5.381  1.00  0.00     0.000 C 
BRANCH   4   5
ATOM      5  C   UNL     1      -7.889   1.163  -6.615  1.00  0.00     0.000 C 
BRANCH   5   6
ATOM      6  C   UNL     1      -6.688   1.578  -7.486  1.00  0.00     0.000 C 
BRANCH   6   7
ATOM      7  C   UNL     1      -6.658   0.897  -8.871  1.00  0.00     0.000 C 
BRANCH   7   8
ATOM      8  C   UNL     1      -7.211  -0.538  -8.832  1.00  0.00     0.000 C 
BRANCH   8   9
ATOM      9  C   UNL     1      -6.138  -1.593  -9.147  1.00  0.00     0.000 C 
BRANCH   9  10
ATOM     10  C   UNL     1      -6.373  -2.919  -8.402  1.00  0.00     0.006 C 
BRANCH  10  11
ATOM     11  C   UNL     1      -5.190  -3.885  -8.551  1.00  0.00     0.053 C 
BRANCH  11  12
ATOM     12  C   UNL     1      -5.246  -4.994  -7.544  1.00  0.00     0.041 C 
ATOM     13  O   UNL     1      -4.290  -5.174  -6.743  1.00  0.00    -0.550 OA
ATOM     14  O   UNL     1      -6.370  -5.804  -7.464  1.00  0.00    -0.550 OA
ENDBRANCH  11  12
ENDBRANCH  10  11
ENDBRANCH   9  10
ENDBRANCH   8   9
ENDBRANCH   7   8
ENDBRANCH   6   7
ENDBRANCH   5   6
ENDBRANCH   4   5
ENDBRANCH   3   4
ENDBRANCH   2   3
ENDBRANCH   1   2
BRANCH   1  15
ATOM     15  C   UNL     1      -4.036  -1.494  -6.070  1.00  0.00     0.000 C 
BRANCH  15  16
ATOM     16  C   UNL     1      -3.591  -0.329  -6.967  1.00  0.00     0.000 C 
BRANCH  16  17
ATOM     17  C   UNL     1      -2.436  -0.718  -7.907  1.00  0.00     0.000 C 
BRANCH  17  18
ATOM     18  C   UNL     1      -2.542  -0.043  -9.283  1.00  0.00    -0.000 C 
BRANCH  18  19
ATOM     19  C   UNL     1      -2.286   1.472  -9.221  1.00  0.00    -0.000 C 
BRANCH  19  20
ATOM     20  C   UNL     1      -3.467   2.297  -9.763  1.00  0.00    -0.000 C 
BRANCH  20  21
ATOM     21  C   UNL     1      -3.336   3.824  -9.582  1.00  0.00    -0.000 C 
BRANCH  21  22
ATOM     22  C   UNL     1      -4.653   4.612  -9.696  1.00  0.00    -0.000 C 
BRANCH  22  23
ATOM     23  C   UNL     1      -4.759   5.748  -8.664  1.00  0.00    -0.000 C 
BRANCH  23  24
ATOM     24  C   UNL     1      -3.797   6.909  -8.964  1.00  0.00    -0.000 C 
BRANCH  24  25
ATOM     25  C   UNL     1      -2.761   7.121  -7.850  1.00  0.00    -0.003 C 
ATOM     26  C   UNL     1      -3.426   7.130  -6.476  1.00  0.00     0.004 C 
ENDBRANCH  24  25
ENDBRANCH  23  24
ENDBRANCH  22  23
ENDBRANCH  21  22
ENDBRANCH  20  21
ENDBRANCH  19  20
ENDBRANCH  18  19
ENDBRANCH  17  18
ENDBRANCH  16  17
ENDBRANCH  15  16
ENDBRANCH   1  15
TORSDOF 22
ENDMDL
MODEL 4
REMARK VINA RESULT:    -4.022     11.242     14.006
REMARK INTER + INTRA:         -11.896
REMARK INTER:                  -8.874
REMARK INTRA:                  -3.022
REMARK UNBOUND:                -2.700
REMARK SMILES CCCCCCCCCCCCCCCCCCCCCCCC(=O)[O-]
REMARK SMILES IDX 13 1 14 2 15 3 16 4 17 5 18 6 19 7 20 8 21 9 22 10 23 11
REMARK SMILES IDX 24 12 25 13 26 14 12 15 11 16 10 17 9 18 8 19 7 20 6 21 5 22
REMARK SMILES IDX 4 23 3 24 2 25 1 26
REMARK H PARENT
REMARK Flexibility Score: inf
ROOT
ATOM      1  C   UNL     1      -2.299  -0.073  -7.678  1.00  0.00     0.000 C 
ENDROOT
BRANCH   1   2
ATOM      2  C   UNL     1      -3.124  -1.369  -7.657  1.00  0.00     0.000 C 
BRANCH   2   3
ATOM      3  C   UNL     1      -4.039  -1.466  -6.426  1.00  0.00     0.000 C 
BRANCH   3   4
ATOM      4  C   UNL     1      -4.553  -0.079  -6.011  1.00  0.00     0.000 C 
BRANCH   4   5
ATOM      5  C   UNL     1      -5.181  -0.075  -4.606  1.00  0.00     0.000 C 
BRANCH   5   6
ATOM      6  C   UNL     1      -6.659   0.356  -4.560  1.00  0.00     0.000 C 
BRANCH   6   7
ATOM      7  C   UNL     1      -7.653  -0.812  -4.735  1.00  0.00     0.000 C 
BRANCH   7   8
ATOM      8  C   UNL     1      -8.031  -1.046  -6.208  1.00  0.00     0.000 C 
BRANCH   8   9
ATOM      9  C   UNL     1      -8.033  -2.536  -6.587  1.00  0.00     0.000 C 
BRANCH   9  10
ATOM     10  C   UNL     1      -6.907  -2.901  -7.571  1.00  0.00     0.006 C 
BRANCH  10  11
ATOM     11  C   UNL     1      -6.645  -4.412  -7.618  1.00  0.00     0.053 C 
BRANCH  11  12
ATOM     12  C   UNL     1      -5.200  -4.719  -7.873  1.00  0.00     0.041 C 
ATOM     13  O   UNL     1      -4.727  -4.628  -9.037  1.00  0.00    -0.550 OA
ATOM     14  O   UNL     1      -4.368  -5.068  -6.818  1.00  0.00    -0.550 OA
ENDBRANCH  11  12
ENDBRANCH  10  11
ENDBRANCH   9  10
ENDBRANCH   8   9
ENDBRANCH   7   8
ENDBRANCH   6   7
ENDBRANCH   5   6
ENDBRANCH   4   5
ENDBRANCH   3   4
ENDBRANCH   2   3
ENDBRANCH   1   2
BRANCH   1  15
ATOM     15  C   UNL     1      -1.383   0.026  -8.912  1.00  0.00     0.000 C 
BRANCH  15  16
ATOM     16  C   UNL     1      -1.856   1.088  -9.917  1.00  0.00     0.000 C 
BRANCH  16  17
ATOM     17  C   UNL     1      -2.807   2.117  -9.281  1.00  0.00     0.000 C 
BRANCH  17  18
ATOM     18  C   UNL     1      -4.166   2.185  -9.995  1.00  0.00    -0.000 C 
BRANCH  18  19
ATOM     19  C   UNL     1      -5.224   1.278  -9.344  1.00  0.00    -0.000 C 
BRANCH  19  20
ATOM     20  C   UNL     1      -6.299   2.072  -8.579  1.00  0.00    -0.000 C 
BRANCH  20  21
ATOM     21  C   UNL     1      -6.715   3.405  -9.234  1.00  0.00    -0.000 C 
BRANCH  21  22
ATOM     22  C   UNL     1      -6.717   4.623  -8.293  1.00  0.00    -0.000 C 
BRANCH  22  23
ATOM     23  C   UNL     1      -5.980   5.836  -8.886  1.00  0.00    -0.000 C 
BRANCH  23  24
ATOM     24  C   UNL     1      -4.451   5.690  -8.814  1.00  0.00    -0.000 C 
BRANCH  24  25
ATOM     25  C   UNL     1      -3.751   6.996  -8.409  1.00  0.00    -0.003 C 
ATOM     26  C   UNL     1      -3.299   6.947  -6.952  1.00  0.00     0.004 C 
ENDBRANCH  24  25
ENDBRANCH  23  24
ENDBRANCH  22  23
ENDBRANCH  21  22
ENDBRANCH  20  21
ENDBRANCH  19  20
ENDBRANCH  18  19
ENDBRANCH  17  18
ENDBRANCH  16  17
ENDBRANCH  15  16
ENDBRANCH   1  15
TORSDOF 22
ENDMDL
MODEL 5
REMARK VINA RESULT:    -3.830     11.365     14.519
REMARK INTER + INTRA:         -11.455
REMARK INTER:                  -8.846
REMARK INTRA:                  -2.609
REMARK UNBOUND:                -2.700
REMARK SMILES CCCCCCCCCCCCCCCCCCCCCCCC(=O)[O-]
REMARK SMILES IDX 13 1 14 2 15 3 16 4 17 5 18 6 19 7 20 8 21 9 22 10 23 11
REMARK SMILES IDX 24 12 25 13 26 14 12 15 11 16 10 17 9 18 8 19 7 20 6 21 5 22
REMARK SMILES IDX 4 23 3 24 2 25 1 26
REMARK H PARENT
REMARK Flexibility Score: inf
ROOT
ATOM      1  C   UNL     1      -2.405   1.344  -9.005  1.00  0.00     0.000 C 
ENDROOT
BRANCH   1   2
ATOM      2  C   UNL     1      -2.219   0.382  -7.822  1.00  0.00     0.000 C 
BRANCH   2   3
ATOM      3  C   UNL     1      -2.943  -0.957  -8.030  1.00  0.00     0.000 C 
BRANCH   3   4
ATOM      4  C   UNL     1      -3.622  -1.424  -6.733  1.00  0.00     0.000 C 
BRANCH   4   5
ATOM      5  C   UNL     1      -4.344  -0.283  -5.997  1.00  0.00     0.000 C 
BRANCH   5   6
ATOM      6  C   UNL     1      -5.882  -0.366  -6.024  1.00  0.00     0.000 C 
BRANCH   6   7
ATOM      7  C   UNL     1      -6.500  -0.026  -7.397  1.00  0.00     0.000 C 
BRANCH   7   8
ATOM      8  C   UNL     1      -7.151  -1.249  -8.067  1.00  0.00     0.000 C 
BRANCH   8   9
ATOM      9  C   UNL     1      -6.430  -1.669  -9.357  1.00  0.00     0.000 C 
BRANCH   9  10
ATOM     10  C   UNL     1      -5.919  -3.120  -9.307  1.00  0.00     0.006 C 
BRANCH  10  11
ATOM     11  C   UNL     1      -6.018  -3.722  -7.898  1.00  0.00     0.053 C 
BRANCH  11  12
ATOM     12  C   UNL     1      -5.077  -4.875  -7.718  1.00  0.00     0.041 C 
ATOM     13  O   UNL     1      -5.113  -5.854  -8.511  1.00  0.00    -0.550 OA
ATOM     14  O   UNL     1      -4.137  -4.852  -6.697  1.00  0.00    -0.550 OA
ENDBRANCH  11  12
ENDBRANCH  10  11
ENDBRANCH   9  10
ENDBRANCH   8   9
ENDBRANCH   7   8
ENDBRANCH   6   7
ENDBRANCH   5   6
ENDBRANCH   4   5
ENDBRANCH   3   4
ENDBRANCH   2   3
ENDBRANCH   1   2
BRANCH   1  15
ATOM     15  C   UNL     1      -3.851   1.357  -9.536  1.00  0.00     0.000 C 
BRANCH  15  16
ATOM     16  C   UNL     1      -4.367   2.777  -9.815  1.00  0.00     0.000 C 
BRANCH  16  17
ATOM     17  C   UNL     1      -3.225   3.779 -10.066  1.00  0.00     0.000 C 
BRANCH  17  18
ATOM     18  C   UNL     1      -3.631   5.227  -9.752  1.00  0.00    -0.000 C 
BRANCH  18  19
ATOM     19  C   UNL     1      -4.940   5.314  -8.950  1.00  0.00    -0.000 C 
BRANCH  19  20
ATOM     20  C   UNL     1      -4.938   6.468  -7.930  1.00  0.00    -0.000 C 
BRANCH  20  21
ATOM     21  C   UNL     1      -3.539   6.951  -7.494  1.00  0.00    -0.000 C 
BRANCH  21  22
ATOM     22  C   UNL     1      -3.366   7.171  -5.981  1.00  0.00    -0.000 C 
BRANCH  22  23
ATOM     23  C   UNL     1      -4.594   7.831  -5.330  1.00  0.00    -0.000 C 
BRANCH  23  24
ATOM     24  C   UNL     1      -4.594   7.694  -3.799  1.00  0.00    -0.000 C 
BRANCH  24  25
ATOM     25  C   UNL     1      -5.989   7.394  -3.231  1.00  0.00    -0.003 C 
ATOM     26  C   UNL     1      -5.904   6.929  -1.780  1.00  0.00     0.004 C 
ENDBRANCH  24  25
ENDBRANCH  23  24
ENDBRANCH  22  23
ENDBRANCH  21  22
ENDBRANCH  20  21
ENDBRANCH  19  20
ENDBRANCH  18  19
ENDBRANCH  17  18
ENDBRANCH  16  17
ENDBRANCH  15  16
ENDBRANCH   1  15
TORSDOF 22
ENDMDL
MODEL 6
REMARK VINA RESULT:    -3.788     10.609     13.628
REMARK INTER + INTRA:         -11.361
REMARK INTER:                  -8.973
REMARK INTRA:                  -2.388
REMARK UNBOUND:                -2.700
REMARK SMILES CCCCCCCCCCCCCCCCCCCCCCCC(=O)[O-]
REMARK SMILES IDX 13 1 14 2 15 3 16 4 17 5 18 6 19 7 20 8 21 9 22 10 23 11
REMARK SMILES IDX 24 12 25 13 26 14 12 15 11 16 10 17 9 18 8 19 7 20 6 21 5 22
REMARK SMILES IDX 4 23 3 24 2 25 1 26
REMARK H PARENT
REMARK Flexibility Score: inf
ROOT
ATOM      1  C   UNL     1      -6.836   3.261  -8.167  1.00  0.00     0.000 C 
ENDROOT
BRANCH   1   2
ATOM      2  C   UNL     1      -7.508   1.887  -8.310  1.00  0.00     0.000 C 
BRANCH   2   3
ATOM      3  C   UNL     1      -7.959   1.307  -6.961  1.00  0.00     0.000 C 
BRANCH   3   4
ATOM      4  C   UNL     1      -7.663   2.285  -5.814  1.00  0.00     0.000 C 
BRANCH   4   5
ATOM      5  C   UNL     1      -7.699   1.608  -4.433  1.00  0.00     0.000 C 
BRANCH   5   6
ATOM      6  C   UNL     1      -7.177   0.160  -4.408  1.00  0.00     0.000 C 
BRANCH   6   7
ATOM      7  C   UNL     1      -5.661   0.048  -4.140  1.00  0.00     0.000 C 
BRANCH   7   8
ATOM      8  C   UNL     1      -4.831   0.083  -5.436  1.00  0.00     0.000 C 
BRANCH   8   9
ATOM      9  C   UNL     1      -4.906  -1.237  -6.220  1.00  0.00     0.000 C 
BRANCH   9  10
ATOM     10  C   UNL     1      -4.547  -1.065  -7.707  1.00  0.00     0.006 C 
BRANCH  10  11
ATOM     11  C   UNL     1      -3.566   0.092  -7.938  1.00  0.00     0.053 C 
BRANCH  11  12
ATOM     12  C   UNL     1      -2.189  -0.403  -8.266  1.00  0.00     0.041 C 
ATOM     13  O   UNL     1      -1.939  -1.637  -8.256  1.00  0.00    -0.550 OA
ATOM     14  O   UNL     1      -1.194   0.498  -8.618  1.00  0.00    -0.550 OA
ENDBRANCH  11  12
ENDBRANCH  10  11
ENDBRANCH   9  10
ENDBRANCH   8   9
ENDBRANCH   7   8
ENDBRANCH   6   7
ENDBRANCH   5   6
ENDBRANCH   4   5
ENDBRANCH   3   4
ENDBRANCH   2   3
ENDBRANCH   1   2
BRANCH   1  15
ATOM     15  C   UNL     1      -7.119   4.188  -9.364  1.00  0.00     0.000 C 
BRANCH  15  16
ATOM     16  C   UNL     1      -5.898   5.033  -9.761  1.00  0.00     0.000 C 
BRANCH  16  17
ATOM     17  C   UNL     1      -5.207   5.676  -8.545  1.00  0.00     0.000 C 
BRANCH  17  18
ATOM     18  C   UNL     1      -3.763   6.105  -8.845  1.00  0.00    -0.000 C 
BRANCH  18  19
ATOM     19  C   UNL     1      -2.963   6.425  -7.570  1.00  0.00    -0.000 C 
BRANCH  19  20
ATOM     20  C   UNL     1      -3.528   7.631  -6.800  1.00  0.00    -0.000 C 
BRANCH  20  21
ATOM     21  C   UNL     1      -3.517   7.489  -5.264  1.00  0.00    -0.000 C 
BRANCH  21  22
ATOM     22  C   UNL     1      -4.795   7.968  -4.553  1.00  0.00    -0.000 C 
BRANCH  22  23
ATOM     23  C   UNL     1      -6.078   7.414  -5.196  1.00  0.00    -0.000 C 
BRANCH  23  24
ATOM     24  C   UNL     1      -7.230   7.274  -4.187  1.00  0.00    -0.000 C 
BRANCH  24  25
ATOM     25  C   UNL     1      -6.760   7.402  -2.731  1.00  0.00    -0.003 C 
ATOM     26  C   UNL     1      -6.974   6.097  -1.968  1.00  0.00     0.004 C 
ENDBRANCH  24  25
ENDBRANCH  23  24
ENDBRANCH  22  23
ENDBRANCH  21  22
ENDBRANCH  20  21
ENDBRANCH  19  20
ENDBRANCH  18  19
ENDBRANCH  17  18
ENDBRANCH  16  17
ENDBRANCH  15  16
ENDBRANCH   1  15
TORSDOF 22
ENDMDL
MODEL 7
REMARK VINA RESULT:    -3.769     11.304     14.348
REMARK INTER + INTRA:         -11.317
REMARK INTER:                  -7.738
REMARK INTRA:                  -3.579
REMARK UNBOUND:                -2.700
REMARK SMILES CCCCCCCCCCCCCCCCCCCCCCCC(=O)[O-]
REMARK SMILES IDX 13 1 14 2 15 3 16 4 17 5 18 6 19 7 20 8 21 9 22 10 23 11
REMARK SMILES IDX 24 12 25 13 26 14 12 15 11 16 10 17 9 18 8 19 7 20 6 21 5 22
REMARK SMILES IDX 4 23 3 24 2 25 1 26
REMARK H PARENT
REMARK Flexibility Score: inf
ROOT
ATOM      1  C   UNL     1      -4.342  -1.373  -6.300  1.00  0.00     0.000 C 
ENDROOT
BRANCH   1   2
ATOM      2  C   UNL     1      -4.356  -2.831  -6.786  1.00  0.00     0.000 C 
BRANCH   2   3
ATOM      3  C   UNL     1      -4.627  -2.948  -8.294  1.00  0.00     0.000 C 
BRANCH   3   4
ATOM      4  C   UNL     1      -5.593  -1.851  -8.767  1.00  0.00     0.000 C 
BRANCH   4   5
ATOM      5  C   UNL     1      -7.023  -2.372  -8.987  1.00  0.00     0.000 C 
BRANCH   5   6
ATOM      6  C   UNL     1      -7.897  -2.417  -7.719  1.00  0.00     0.000 C 
BRANCH   6   7
ATOM      7  C   UNL     1      -8.047  -3.830  -7.117  1.00  0.00     0.000 C 
BRANCH   7   8
ATOM      8  C   UNL     1      -7.789  -4.941  -8.151  1.00  0.00     0.000 C 
BRANCH   8   9
ATOM      9  C   UNL     1      -7.248  -6.228  -7.511  1.00  0.00     0.000 C 
BRANCH   9  10
ATOM     10  C   UNL     1      -5.711  -6.307  -7.542  1.00  0.00     0.006 C 
BRANCH  10  11
ATOM     11  C   UNL     1      -5.201  -7.751  -7.445  1.00  0.00     0.053 C 
BRANCH  11  12
ATOM     12  C   UNL     1      -6.300  -8.707  -7.091  1.00  0.00     0.041 C 
ATOM     13  O   UNL     1      -6.535  -8.986  -5.886  1.00  0.00    -0.550 OA
ATOM     14  O   UNL     1      -7.088  -9.260  -8.091  1.00  0.00    -0.550 OA
ENDBRANCH  11  12
ENDBRANCH  10  11
ENDBRANCH   9  10
ENDBRANCH   8   9
ENDBRANCH   7   8
ENDBRANCH   6   7
ENDBRANCH   5   6
ENDBRANCH   4   5
ENDBRANCH   3   4
ENDBRANCH   2   3
ENDBRANCH   1   2
BRANCH   1  15
ATOM     15  C   UNL     1      -5.348  -1.119  -5.162  1.00  0.00     0.000 C 
BRANCH  15  16
ATOM     16  C   UNL     1      -5.144   0.246  -4.486  1.00  0.00     0.000 C 
BRANCH  16  17
ATOM     17  C   UNL     1      -6.472   0.976  -4.222  1.00  0.00     0.000 C 
BRANCH  17  18
ATOM     18  C   UNL     1      -7.499   0.758  -5.344  1.00  0.00    -0.000 C 
BRANCH  18  19
ATOM     19  C   UNL     1      -7.402   1.821  -6.451  1.00  0.00    -0.000 C 
BRANCH  19  20
ATOM     20  C   UNL     1      -7.413   1.211  -7.864  1.00  0.00    -0.000 C 
BRANCH  20  21
ATOM     21  C   UNL     1      -6.399   1.828  -8.850  1.00  0.00    -0.000 C 
BRANCH  21  22
ATOM     22  C   UNL     1      -4.921   1.535  -8.537  1.00  0.00    -0.000 C 
BRANCH  22  23
ATOM     23  C   UNL     1      -4.029   1.568  -9.789  1.00  0.00    -0.000 C 
BRANCH  23  24
ATOM     24  C   UNL     1      -2.532   1.646  -9.445  1.00  0.00    -0.000 C 
BRANCH  24  25
ATOM     25  C   UNL     1      -2.125   0.646  -8.352  1.00  0.00    -0.003 C 
ATOM     26  C   UNL     1      -1.771  -0.711  -8.954  1.00  0.00     0.004 C 
ENDBRANCH  24  25
ENDBRANCH  23  24
ENDBRANCH  22  23
ENDBRANCH  21  22
ENDBRANCH  20  21
ENDBRANCH  19  20
ENDBRANCH  18  19
ENDBRANCH  17  18
ENDBRANCH  16  17
ENDBRANCH  15  16
ENDBRANCH   1  15
TORSDOF 22
ENDMDL
MODEL 8
REMARK VINA RESULT:    -3.763      4.574      7.807
REMARK INTER + INTRA:         -11.303
REMARK INTER:                  -8.152
REMARK INTRA:                  -3.151
REMARK UNBOUND:                -2.700
REMARK SMILES CCCCCCCCCCCCCCCCCCCCCCCC(=O)[O-]
REMARK SMILES IDX 13 1 14 2 15 3 16 4 17 5 18 6 19 7 20 8 21 9 22 10 23 11
REMARK SMILES IDX 24 12 25 13 26 14 12 15 11 16 10 17 9 18 8 19 7 20 6 21 5 22
REMARK SMILES IDX 4 23 3 24 2 25 1 26
REMARK H PARENT
REMARK Flexibility Score: inf
ROOT
ATOM      1  C   UNL     1      -6.703  -0.213   4.752  1.00  0.00     0.000 C 
ENDROOT
BRANCH   1   2
ATOM      2  C   UNL     1      -7.114  -0.799   3.392  1.00  0.00     0.000 C 
BRANCH   2   3
ATOM      3  C   UNL     1      -7.523  -2.278   3.486  1.00  0.00     0.000 C 
BRANCH   3   4
ATOM      4  C   UNL     1      -6.648  -3.027   4.503  1.00  0.00     0.000 C 
BRANCH   4   5
ATOM      5  C   UNL     1      -7.149  -4.456   4.777  1.00  0.00     0.000 C 
BRANCH   5   6
ATOM      6  C   UNL     1      -7.999  -4.610   6.052  1.00  0.00     0.000 C 
BRANCH   6   7
ATOM      7  C   UNL     1      -7.275  -5.350   7.198  1.00  0.00     0.000 C 
BRANCH   7   8
ATOM      8  C   UNL     1      -8.100  -5.371   8.497  1.00  0.00     0.000 C 
BRANCH   8   9
ATOM      9  C   UNL     1      -7.642  -6.469   9.469  1.00  0.00     0.000 C 
BRANCH   9  10
ATOM     10  C   UNL     1      -7.021  -7.679   8.748  1.00  0.00     0.006 C 
BRANCH  10  11
ATOM     11  C   UNL     1      -6.034  -8.443   9.640  1.00  0.00     0.053 C 
BRANCH  11  12
ATOM     12  C   UNL     1      -5.390  -9.583   8.910  1.00  0.00     0.041 C 
ATOM     13  O   UNL     1      -4.155  -9.563   8.663  1.00  0.00    -0.550 OA
ATOM     14  O   UNL     1      -6.147 -10.684   8.535  1.00  0.00    -0.550 OA
ENDBRANCH  11  12
ENDBRANCH  10  11
ENDBRANCH   9  10
ENDBRANCH   8   9
ENDBRANCH   7   8
ENDBRANCH   6   7
ENDBRANCH   5   6
ENDBRANCH   4   5
ENDBRANCH   3   4
ENDBRANCH   2   3
ENDBRANCH   1   2
BRANCH   1  15
ATOM     15  C   UNL     1      -7.589   0.972   5.179  1.00  0.00     0.000 C 
BRANCH  15  16
ATOM     16  C   UNL     1      -8.125   0.824   6.611  1.00  0.00     0.000 C 
BRANCH  16  17
ATOM     17  C   UNL     1      -7.858   2.073   7.471  1.00  0.00     0.000 C 
BRANCH  17  18
ATOM     18  C   UNL     1      -7.712   1.741   8.964  1.00  0.00    -0.000 C 
BRANCH  18  19
ATOM     19  C   UNL     1      -6.244   1.565   9.390  1.00  0.00    -0.000 C 
BRANCH  19  20
ATOM     20  C   UNL     1      -5.351   2.737   8.946  1.00  0.00    -0.000 C 
BRANCH  20  21
ATOM     21  C   UNL     1      -4.034   2.328   8.254  1.00  0.00    -0.000 C 
BRANCH  21  22
ATOM     22  C   UNL     1      -4.191   1.364   7.065  1.00  0.00    -0.000 C 
BRANCH  22  23
ATOM     23  C   UNL     1      -3.259   0.144   7.159  1.00  0.00    -0.000 C 
BRANCH  23  24
ATOM     24  C   UNL     1      -3.790  -0.930   8.122  1.00  0.00    -0.000 C 
BRANCH  24  25
ATOM     25  C   UNL     1      -4.687  -1.961   7.422  1.00  0.00    -0.003 C 
ATOM     26  C   UNL     1      -6.096  -1.951   8.010  1.00  0.00     0.004 C 
ENDBRANCH  24  25
ENDBRANCH  23  24
ENDBRANCH  22  23
ENDBRANCH  21  22
ENDBRANCH  20  21
ENDBRANCH  19  20
ENDBRANCH  18  19
ENDBRANCH  17  18
ENDBRANCH  16  17
ENDBRANCH  15  16
ENDBRANCH   1  15
TORSDOF 22
ENDMDL
MODEL 9
REMARK VINA RESULT:    -3.742     11.468     14.198
REMARK INTER + INTRA:         -11.254
REMARK INTER:                  -7.835
REMARK INTRA:                  -3.420
REMARK UNBOUND:                -2.700
REMARK SMILES CCCCCCCCCCCCCCCCCCCCCCCC(=O)[O-]
REMARK SMILES IDX 13 1 14 2 15 3 16 4 17 5 18 6 19 7 20 8 21 9 22 10 23 11
REMARK SMILES IDX 24 12 25 13 26 14 12 15 11 16 10 17 9 18 8 19 7 20 6 21 5 22
REMARK SMILES IDX 4 23 3 24 2 25 1 26
REMARK H PARENT
REMARK Flexibility Score: inf
ROOT
ATOM      1  C   UNL     1      -4.785  -0.214  -4.931  1.00  0.00     0.000 C 
ENDROOT
BRANCH   1   2
ATOM      2  C   UNL     1      -4.955  -1.455  -5.820  1.00  0.00     0.000 C 
BRANCH   2   3
ATOM      3  C   UNL     1      -3.899  -1.533  -6.934  1.00  0.00     0.000 C 
BRANCH   3   4
ATOM      4  C   UNL     1      -3.491  -0.129  -7.405  1.00  0.00     0.000 C 
BRANCH   4   5
ATOM      5  C   UNL     1      -4.294   0.344  -8.628  1.00  0.00     0.000 C 
BRANCH   5   6
ATOM      6  C   UNL     1      -4.903  -0.785  -9.479  1.00  0.00     0.000 C 
BRANCH   6   7
ATOM      7  C   UNL     1      -6.432  -0.674  -9.660  1.00  0.00     0.000 C 
BRANCH   7   8
ATOM      8  C   UNL     1      -7.201  -1.687  -8.794  1.00  0.00     0.000 C 
BRANCH   8   9
ATOM      9  C   UNL     1      -6.904  -3.143  -9.184  1.00  0.00     0.000 C 
BRANCH   9  10
ATOM     10  C   UNL     1      -6.603  -4.035  -7.966  1.00  0.00     0.006 C 
BRANCH  10  11
ATOM     11  C   UNL     1      -6.193  -5.456  -8.374  1.00  0.00     0.053 C 
BRANCH  11  12
ATOM     12  C   UNL     1      -5.066  -5.974  -7.532  1.00  0.00     0.041 C 
ATOM     13  O   UNL     1      -4.779  -7.201  -7.540  1.00  0.00    -0.550 OA
ATOM     14  O   UNL     1      -4.310  -5.097  -6.768  1.00  0.00    -0.550 OA
ENDBRANCH  11  12
ENDBRANCH  10  11
ENDBRANCH   9  10
ENDBRANCH   8   9
ENDBRANCH   7   8
ENDBRANCH   6   7
ENDBRANCH   5   6
ENDBRANCH   4   5
ENDBRANCH   3   4
ENDBRANCH   2   3
ENDBRANCH   1   2
BRANCH   1  15
ATOM     15  C   UNL     1      -6.081   0.608  -4.807  1.00  0.00     0.000 C 
BRANCH  15  16
ATOM     16  C   UNL     1      -7.294  -0.103  -5.428  1.00  0.00     0.000 C 
BRANCH  16  17
ATOM     17  C   UNL     1      -8.031   0.778  -6.453  1.00  0.00     0.000 C 
BRANCH  17  18
ATOM     18  C   UNL     1      -7.173   1.953  -6.946  1.00  0.00    -0.000 C 
BRANCH  18  19
ATOM     19  C   UNL     1      -7.696   2.557  -8.261  1.00  0.00    -0.000 C 
BRANCH  19  20
ATOM     20  C   UNL     1      -6.989   3.873  -8.633  1.00  0.00    -0.000 C 
BRANCH  20  21
ATOM     21  C   UNL     1      -5.506   3.728  -9.033  1.00  0.00    -0.000 C 
BRANCH  21  22
ATOM     22  C   UNL     1      -4.912   4.928  -9.791  1.00  0.00    -0.000 C 
BRANCH  22  23
ATOM     23  C   UNL     1      -3.687   5.534  -9.082  1.00  0.00    -0.000 C 
BRANCH  23  24
ATOM     24  C   UNL     1      -4.031   6.812  -8.301  1.00  0.00    -0.000 C 
BRANCH  24  25
ATOM     25  C   UNL     1      -2.951   7.186  -7.275  1.00  0.00    -0.003 C 
ATOM     26  C   UNL     1      -3.526   7.229  -5.862  1.00  0.00     0.004 C 
ENDBRANCH  24  25
ENDBRANCH  23  24
ENDBRANCH  22  23
ENDBRANCH  21  22
ENDBRANCH  20  21
ENDBRANCH  19  20
ENDBRANCH  18  19
ENDBRANCH  17  18
ENDBRANCH  16  17
ENDBRANCH  15  16
ENDBRANCH   1  15
TORSDOF 22
ENDMDL
