MODEL 1
REMARK VINA RESULT:    -2.901      0.000      0.000
REMARK INTER + INTRA:          -3.966
REMARK INTER:                  -3.494
REMARK INTRA:                  -0.472
REMARK UNBOUND:                -0.472
REMARK SMILES NC(=O)C[C@@H]([NH3+])C(=O)[O-]
REMARK SMILES IDX 4 1 5 2 6 3 7 7 8 8 9 9 2 10 3 11 1 12
REMARK H PARENT 6 4 6 5 6 6 1 13 1 14
REMARK Flexibility Score: inf
ROOT
ATOM      1  C   UNL     1      32.767   5.113  -0.163  1.00  0.00     0.171 C 
ENDROOT
BRANCH   1   2
ATOM      2  C   UNL     1      32.299   6.086   0.938  1.00  0.00     0.237 C 
BRANCH   2   3
ATOM      3  N   UNL     1      33.111   5.919   2.150  1.00  0.00    -0.350 N 
ATOM      4  H   UNL     1      32.529   5.499   2.911  1.00  0.00     0.345 HD
ATOM      5  H   UNL     1      33.488   6.840   2.472  1.00  0.00     0.345 HD
ATOM      6  H   UNL     1      33.910   5.272   1.954  1.00  0.00     0.345 HD
ENDBRANCH   2   3
BRANCH   2   7
ATOM      7  C   UNL     1      32.375   7.514   0.459  1.00  0.00     0.100 C 
ATOM      8  O   UNL     1      33.105   7.813  -0.524  1.00  0.00    -0.544 OA
ATOM      9  O   UNL     1      31.651   8.510   1.102  1.00  0.00    -0.544 OA
ENDBRANCH   2   7
ENDBRANCH   1   2
BRANCH   1  10
ATOM     10  C   UNL     1      34.199   4.708   0.028  1.00  0.00     0.223 C 
ATOM     11  O   UNL     1      34.480   3.707   0.740  1.00  0.00    -0.275 OA
ATOM     12  N   UNL     1      35.251   5.473  -0.563  1.00  0.00    -0.369 N 
ATOM     13  H   UNL     1      35.035   6.314  -1.143  1.00  0.00     0.159 HD
ATOM     14  H   UNL     1      36.247   5.197  -0.418  1.00  0.00     0.159 HD
ENDBRANCH   1  10
TORSDOF 4
ENDMDL
MODEL 2
REMARK VINA RESULT:    -2.892      2.953      4.156
REMARK INTER + INTRA:          -3.955
REMARK INTER:                  -3.611
REMARK INTRA:                  -0.344
REMARK UNBOUND:                -0.472
REMARK SMILES NC(=O)C[C@@H]([NH3+])C(=O)[O-]
REMARK SMILES IDX 4 1 5 2 6 3 7 7 8 8 9 9 2 10 3 11 1 12
REMARK H PARENT 6 4 6 5 6 6 1 13 1 14
REMARK Flexibility Score: inf
ROOT
ATOM      1  C   UNL     1      30.432   6.691   1.280  1.00  0.00     0.171 C 
ENDROOT
BRANCH   1   2
ATOM      2  C   UNL     1      29.717   6.967   2.618  1.00  0.00     0.237 C 
BRANCH   2   3
ATOM      3  N   UNL     1      30.659   7.519   3.599  1.00  0.00    -0.350 N 
ATOM      4  H   UNL     1      31.639   7.415   3.247  1.00  0.00     0.345 HD
ATOM      5  H   UNL     1      30.568   7.026   4.517  1.00  0.00     0.345 HD
ATOM      6  H   UNL     1      30.468   8.539   3.737  1.00  0.00     0.345 HD
ENDBRANCH   2   3
BRANCH   2   7
ATOM      7  C   UNL     1      28.560   7.914   2.423  1.00  0.00     0.100 C 
ATOM      8  O   UNL     1      28.131   8.158   1.264  1.00  0.00    -0.544 OA
ATOM      9  O   UNL     1      27.967   8.532   3.516  1.00  0.00    -0.544 OA
ENDBRANCH   2   7
ENDBRANCH   1   2
BRANCH   1  10
ATOM     10  C   UNL     1      31.698   7.487   1.154  1.00  0.00     0.223 C 
ATOM     11  O   UNL     1      31.645   8.745   1.103  1.00  0.00    -0.275 OA
ATOM     12  N   UNL     1      32.960   6.827   1.056  1.00  0.00    -0.369 N 
ATOM     13  H   UNL     1      33.018   5.785   1.081  1.00  0.00     0.159 HD
ATOM     14  H   UNL     1      33.838   7.383   0.955  1.00  0.00     0.159 HD
ENDBRANCH   1  10
TORSDOF 4
ENDMDL
MODEL 3
REMARK VINA RESULT:    -2.863      0.649      1.248
REMARK INTER + INTRA:          -3.921
REMARK INTER:                  -3.432
REMARK INTRA:                  -0.488
REMARK UNBOUND:                -0.472
REMARK SMILES NC(=O)C[C@@H]([NH3+])C(=O)[O-]
REMARK SMILES IDX 4 1 5 2 6 3 7 7 8 8 9 9 2 10 3 11 1 12
REMARK H PARENT 6 4 6 5 6 6 1 13 1 14
REMARK Flexibility Score: inf
ROOT
ATOM      1  C   UNL     1      33.290   5.116  -0.750  1.00  0.00     0.171 C 
ENDROOT
BRANCH   1   2
ATOM      2  C   UNL     1      32.602   5.894   0.390  1.00  0.00     0.237 C 
BRANCH   2   3
ATOM      3  N   UNL     1      33.257   5.610   1.673  1.00  0.00    -0.350 N 
ATOM      4  H   UNL     1      33.802   6.446   1.985  1.00  0.00     0.345 HD
ATOM      5  H   UNL     1      33.901   4.791   1.586  1.00  0.00     0.345 HD
ATOM      6  H   UNL     1      32.534   5.402   2.401  1.00  0.00     0.345 HD
ENDBRANCH   2   3
BRANCH   2   7
ATOM      7  C   UNL     1      32.621   7.376   0.117  1.00  0.00     0.100 C 
ATOM      8  O   UNL     1      32.018   8.169   0.888  1.00  0.00    -0.544 OA
ATOM      9  O   UNL     1      33.294   7.877  -0.990  1.00  0.00    -0.544 OA
ENDBRANCH   2   7
ENDBRANCH   1   2
BRANCH   1  10
ATOM     10  C   UNL     1      34.737   4.857  -0.448  1.00  0.00     0.223 C 
ATOM     11  O   UNL     1      35.072   3.803   0.157  1.00  0.00    -0.275 OA
ATOM     12  N   UNL     1      35.734   5.813  -0.809  1.00  0.00    -0.369 N 
ATOM     13  H   UNL     1      35.469   6.697  -1.297  1.00  0.00     0.159 HD
ATOM     14  H   UNL     1      36.738   5.636  -0.586  1.00  0.00     0.159 HD
ENDBRANCH   1  10
TORSDOF 4
ENDMDL
MODEL 4
REMARK VINA RESULT:    -2.788     12.087     12.757
REMARK INTER + INTRA:          -3.831
REMARK INTER:                  -3.383
REMARK INTRA:                  -0.448
REMARK UNBOUND:                -0.472
REMARK SMILES NC(=O)C[C@@H]([NH3+])C(=O)[O-]
REMARK SMILES IDX 4 1 5 2 6 3 7 7 8 8 9 9 2 10 3 11 1 12
REMARK H PARENT 6 4 6 5 6 6 1 13 1 14
REMARK Flexibility Score: inf
ROOT
ATOM      1  C   UNL     1      43.809   6.494   8.426  1.00  0.00     0.171 C 
ENDROOT
BRANCH   1   2
ATOM      2  C   UNL     1      43.755   5.122   7.722  1.00  0.00     0.237 C 
BRANCH   2   3
ATOM      3  N   UNL     1      42.363   4.703   7.522  1.00  0.00    -0.350 N 
ATOM      4  H   UNL     1      41.748   5.545   7.437  1.00  0.00     0.345 HD
ATOM      5  H   UNL     1      42.034   4.116   8.322  1.00  0.00     0.345 HD
ATOM      6  H   UNL     1      42.284   4.150   6.637  1.00  0.00     0.345 HD
ENDBRANCH   2   3
BRANCH   2   7
ATOM      7  C   UNL     1      44.476   5.169   6.399  1.00  0.00     0.100 C 
ATOM      8  O   UNL     1      44.490   6.232   5.724  1.00  0.00    -0.544 OA
ATOM      9  O   UNL     1      45.122   4.039   5.911  1.00  0.00    -0.544 OA
ENDBRANCH   2   7
ENDBRANCH   1   2
BRANCH   1  10
ATOM     10  C   UNL     1      42.573   7.302   8.159  1.00  0.00     0.223 C 
ATOM     11  O   UNL     1      41.539   7.114   8.854  1.00  0.00    -0.275 OA
ATOM     12  N   UNL     1      42.549   8.257   7.098  1.00  0.00    -0.369 N 
ATOM     13  H   UNL     1      43.393   8.412   6.503  1.00  0.00     0.159 HD
ATOM     14  H   UNL     1      41.684   8.809   6.906  1.00  0.00     0.159 HD
ENDBRANCH   1  10
TORSDOF 4
ENDMDL
MODEL 5
REMARK VINA RESULT:    -2.767      3.250      4.787
REMARK INTER + INTRA:          -3.805
REMARK INTER:                  -3.552
REMARK INTRA:                  -0.253
REMARK UNBOUND:                -0.472
REMARK SMILES NC(=O)C[C@@H]([NH3+])C(=O)[O-]
REMARK SMILES IDX 4 1 5 2 6 3 7 7 8 8 9 9 2 10 3 11 1 12
REMARK H PARENT 6 4 6 5 6 6 1 13 1 14
REMARK Flexibility Score: inf
ROOT
ATOM      1  C   UNL     1      29.676   6.441   1.092  1.00  0.00     0.171 C 
ENDROOT
BRANCH   1   2
ATOM      2  C   UNL     1      30.725   7.483   1.529  1.00  0.00     0.237 C 
BRANCH   2   3
ATOM      3  N   UNL     1      30.769   7.585   2.993  1.00  0.00    -0.350 N 
ATOM      4  H   UNL     1      30.568   6.651   3.419  1.00  0.00     0.345 HD
ATOM      5  H   UNL     1      30.066   8.279   3.337  1.00  0.00     0.345 HD
ATOM      6  H   UNL     1      31.724   7.885   3.298  1.00  0.00     0.345 HD
ENDBRANCH   2   3
BRANCH   2   7
ATOM      7  C   UNL     1      32.090   7.128   0.995  1.00  0.00     0.100 C 
ATOM      8  O   UNL     1      32.675   6.088   1.398  1.00  0.00    -0.544 OA
ATOM      9  O   UNL     1      32.714   7.949   0.065  1.00  0.00    -0.544 OA
ENDBRANCH   2   7
ENDBRANCH   1   2
BRANCH   1  10
ATOM     10  C   UNL     1      28.294   7.025   1.062  1.00  0.00     0.223 C 
ATOM     11  O   UNL     1      28.101   8.201   1.470  1.00  0.00    -0.275 OA
ATOM     12  N   UNL     1      27.189   6.243   0.607  1.00  0.00    -0.369 N 
ATOM     13  H   UNL     1      27.331   5.262   0.280  1.00  0.00     0.159 HD
ATOM     14  H   UNL     1      26.226   6.647   0.599  1.00  0.00     0.159 HD
ENDBRANCH   1  10
TORSDOF 4
ENDMDL
MODEL 6
REMARK VINA RESULT:    -2.758     12.671     13.278
REMARK INTER + INTRA:          -3.795
REMARK INTER:                  -3.541
REMARK INTRA:                  -0.253
REMARK UNBOUND:                -0.472
REMARK SMILES NC(=O)C[C@@H]([NH3+])C(=O)[O-]
REMARK SMILES IDX 4 1 5 2 6 3 7 7 8 8 9 9 2 10 3 11 1 12
REMARK H PARENT 6 4 6 5 6 6 1 13 1 14
REMARK Flexibility Score: inf
ROOT
ATOM      1  C   UNL     1      43.382   9.826   8.136  1.00  0.00     0.171 C 
ENDROOT
BRANCH   1   2
ATOM      2  C   UNL     1      42.839   8.385   8.223  1.00  0.00     0.237 C 
BRANCH   2   3
ATOM      3  N   UNL     1      43.074   7.671   6.962  1.00  0.00    -0.350 N 
ATOM      4  H   UNL     1      42.339   7.931   6.265  1.00  0.00     0.345 HD
ATOM      5  H   UNL     1      43.055   6.637   7.114  1.00  0.00     0.345 HD
ATOM      6  H   UNL     1      44.006   7.942   6.571  1.00  0.00     0.345 HD
ENDBRANCH   2   3
BRANCH   2   7
ATOM      7  C   UNL     1      43.479   7.638   9.366  1.00  0.00     0.100 C 
ATOM      8  O   UNL     1      44.137   6.588   9.145  1.00  0.00    -0.544 OA
ATOM      9  O   UNL     1      43.339   8.097  10.669  1.00  0.00    -0.544 OA
ENDBRANCH   2   7
ENDBRANCH   1   2
BRANCH   1  10
ATOM     10  C   UNL     1      42.571  10.667   7.194  1.00  0.00     0.223 C 
ATOM     11  O   UNL     1      41.377  10.353   6.942  1.00  0.00    -0.275 OA
ATOM     12  N   UNL     1      43.155  11.802   6.553  1.00  0.00    -0.369 N 
ATOM     13  H   UNL     1      44.148  12.064   6.740  1.00  0.00     0.159 HD
ATOM     14  H   UNL     1      42.593  12.378   5.888  1.00  0.00     0.159 HD
ENDBRANCH   1  10
TORSDOF 4
ENDMDL
MODEL 7
REMARK VINA RESULT:    -2.738     12.021     12.542
REMARK INTER + INTRA:          -3.771
REMARK INTER:                  -3.275
REMARK INTRA:                  -0.495
REMARK UNBOUND:                -0.472
REMARK SMILES NC(=O)C[C@@H]([NH3+])C(=O)[O-]
REMARK SMILES IDX 4 1 5 2 6 3 7 7 8 8 9 9 2 10 3 11 1 12
REMARK H PARENT 6 4 6 5 6 6 1 13 1 14
REMARK Flexibility Score: inf
ROOT
ATOM      1  C   UNL     1      44.111   6.508   8.519  1.00  0.00     0.171 C 
ENDROOT
BRANCH   1   2
ATOM      2  C   UNL     1      43.133   7.696   8.416  1.00  0.00     0.237 C 
BRANCH   2   3
ATOM      3  N   UNL     1      42.871   8.025   7.010  1.00  0.00    -0.350 N 
ATOM      4  H   UNL     1      42.529   9.011   6.934  1.00  0.00     0.345 HD
ATOM      5  H   UNL     1      42.154   7.380   6.606  1.00  0.00     0.345 HD
ATOM      6  H   UNL     1      43.756   7.943   6.457  1.00  0.00     0.345 HD
ENDBRANCH   2   3
BRANCH   2   7
ATOM      7  C   UNL     1      41.837   7.387   9.123  1.00  0.00     0.100 C 
ATOM      8  O   UNL     1      41.022   6.569   8.621  1.00  0.00    -0.544 OA
ATOM      9  O   UNL     1      41.530   8.008  10.327  1.00  0.00    -0.544 OA
ENDBRANCH   2   7
ENDBRANCH   1   2
BRANCH   1  10
ATOM     10  C   UNL     1      44.020   5.611   7.319  1.00  0.00     0.223 C 
ATOM     11  O   UNL     1      44.786   5.797   6.336  1.00  0.00    -0.275 OA
ATOM     12  N   UNL     1      43.045   4.569   7.268  1.00  0.00    -0.369 N 
ATOM     13  H   UNL     1      42.392   4.412   8.067  1.00  0.00     0.159 HD
ATOM     14  H   UNL     1      42.974   3.954   6.427  1.00  0.00     0.159 HD
ENDBRANCH   1  10
TORSDOF 4
ENDMDL
MODEL 8
REMARK VINA RESULT:    -2.663      3.181      4.202
REMARK INTER + INTRA:          -3.680
REMARK INTER:                  -3.243
REMARK INTRA:                  -0.437
REMARK UNBOUND:                -0.472
REMARK SMILES NC(=O)C[C@@H]([NH3+])C(=O)[O-]
REMARK SMILES IDX 4 1 5 2 6 3 7 7 8 8 9 9 2 10 3 11 1 12
REMARK H PARENT 6 4 6 5 6 6 1 13 1 14
REMARK Flexibility Score: inf
ROOT
ATOM      1  C   UNL     1      29.627   5.716   1.945  1.00  0.00     0.171 C 
ENDROOT
BRANCH   1   2
ATOM      2  C   UNL     1      31.006   6.362   1.698  1.00  0.00     0.237 C 
BRANCH   2   3
ATOM      3  N   UNL     1      31.566   5.903   0.422  1.00  0.00    -0.350 N 
ATOM      4  H   UNL     1      32.523   6.304   0.290  1.00  0.00     0.345 HD
ATOM      5  H   UNL     1      30.957   6.196  -0.376  1.00  0.00     0.345 HD
ATOM      6  H   UNL     1      31.646   4.859   0.425  1.00  0.00     0.345 HD
ENDBRANCH   2   3
BRANCH   2   7
ATOM      7  C   UNL     1      30.903   7.866   1.706  1.00  0.00     0.100 C 
ATOM      8  O   UNL     1      31.717   8.558   1.039  1.00  0.00    -0.544 OA
ATOM      9  O   UNL     1      29.919   8.498   2.456  1.00  0.00    -0.544 OA
ENDBRANCH   2   7
ENDBRANCH   1   2
BRANCH   1  10
ATOM     10  C   UNL     1      28.760   5.779   0.722  1.00  0.00     0.223 C 
ATOM     11  O   UNL     1      28.859   4.887  -0.163  1.00  0.00    -0.275 OA
ATOM     12  N   UNL     1      27.849   6.862   0.536  1.00  0.00    -0.369 N 
ATOM     13  H   UNL     1      27.768   7.617   1.253  1.00  0.00     0.159 HD
ATOM     14  H   UNL     1      27.256   6.910  -0.322  1.00  0.00     0.159 HD
ENDBRANCH   1  10
TORSDOF 4
ENDMDL
MODEL 9
REMARK VINA RESULT:    -2.638     12.662     13.397
REMARK INTER + INTRA:          -3.651
REMARK INTER:                  -3.141
REMARK INTRA:                  -0.509
REMARK UNBOUND:                -0.472
REMARK SMILES NC(=O)C[C@@H]([NH3+])C(=O)[O-]
REMARK SMILES IDX 4 1 5 2 6 3 7 7 8 8 9 9 2 10 3 11 1 12
REMARK H PARENT 6 4 6 5 6 6 1 13 1 14
REMARK Flexibility Score: inf
ROOT
ATOM      1  C   UNL     1      42.676   8.744   9.433  1.00  0.00     0.171 C 
ENDROOT
BRANCH   1   2
ATOM      2  C   UNL     1      42.345   7.557  10.359  1.00  0.00     0.237 C 
BRANCH   2   3
ATOM      3  N   UNL     1      41.107   6.897   9.924  1.00  0.00    -0.350 N 
ATOM      4  H   UNL     1      41.065   6.876   8.879  1.00  0.00     0.345 HD
ATOM      5  H   UNL     1      40.270   7.403  10.293  1.00  0.00     0.345 HD
ATOM      6  H   UNL     1      41.092   5.910  10.272  1.00  0.00     0.345 HD
ENDBRANCH   2   3
BRANCH   2   7
ATOM      7  C   UNL     1      43.478   6.563  10.383  1.00  0.00     0.100 C 
ATOM      8  O   UNL     1      44.246   6.504  11.380  1.00  0.00    -0.544 OA
ATOM      9  O   UNL     1      43.690   5.713   9.305  1.00  0.00    -0.544 OA
ENDBRANCH   2   7
ENDBRANCH   1   2
BRANCH   1  10
ATOM     10  C   UNL     1      42.171   8.517   8.038  1.00  0.00     0.223 C 
ATOM     11  O   UNL     1      41.027   8.932   7.709  1.00  0.00    -0.275 OA
ATOM     12  N   UNL     1      42.963   7.800   7.090  1.00  0.00    -0.369 N 
ATOM     13  H   UNL     1      43.906   7.437   7.353  1.00  0.00     0.159 HD
ATOM     14  H   UNL     1      42.604   7.632   6.125  1.00  0.00     0.159 HD
ENDBRANCH   1  10
TORSDOF 4
ENDMDL
