MODEL 1
REMARK VINA RESULT:    -6.101      0.000      0.000
REMARK INTER + INTRA:          -7.447
REMARK INTER:                  -7.171
REMARK INTRA:                  -0.276
REMARK UNBOUND:                -0.276
REMARK SMILES O=c1c(O)c(-c2ccc(O)c(O)c2)oc2cc(O)ccc12
REMARK SMILES IDX 5 1 3 2 2 3 1 4 21 5 15 6 14 7 16 8 17 9 19 10 20 11 6 12
REMARK SMILES IDX 7 13 8 14 9 15 13 16 11 17 10 18 12 20 4 22 18 24
REMARK H PARENT 10 19 12 21 4 23 18 25
REMARK Flexibility Score: inf
ROOT
ATOM      1  C   UNL     1      39.665  20.742  -5.937  1.00  0.00     0.180 A 
ATOM      2  C   UNL     1      40.366  19.526  -6.079  1.00  0.00     0.208 A 
ATOM      3  C   UNL     1      41.166  19.079  -5.016  1.00  0.00     0.235 A 
ATOM      4  O   UNL     1      41.811  17.999  -5.124  1.00  0.00    -0.285 OA
ATOM      5  C   UNL     1      41.236  19.837  -3.837  1.00  0.00     0.069 A 
ATOM      6  C   UNL     1      40.487  21.032  -3.765  1.00  0.00     0.142 A 
ATOM      7  O   UNL     1      39.749  21.424  -4.796  1.00  0.00    -0.452 OA
ATOM      8  C   UNL     1      40.523  21.810  -2.603  1.00  0.00     0.094 A 
ATOM      9  C   UNL     1      41.300  21.413  -1.511  1.00  0.00     0.119 A 
ATOM     10  C   UNL     1      42.047  20.228  -1.579  1.00  0.00     0.047 A 
ATOM     11  C   UNL     1      42.016  19.442  -2.735  1.00  0.00     0.020 A 
ENDROOT
BRANCH   1  12
ATOM     12  C   UNL     1      38.815  21.291  -7.017  1.00  0.00     0.025 A 
ATOM     13  C   UNL     1      39.377  21.911  -8.148  1.00  0.00     0.016 A 
ATOM     14  C   UNL     1      38.554  22.442  -9.144  1.00  0.00     0.051 A 
ATOM     15  C   UNL     1      37.161  22.375  -9.019  1.00  0.00     0.157 A 
ATOM     16  C   UNL     1      37.418  21.244  -6.888  1.00  0.00     0.062 A 
ATOM     17  C   UNL     1      36.591  21.777  -7.887  1.00  0.00     0.158 A 
BRANCH  15  18
ATOM     18  O   UNL     1      36.336  22.902 -10.011  1.00  0.00    -0.504 OA
ATOM     19  H   UNL     1      35.575  23.533  -9.786  1.00  0.00     0.293 HD
ENDBRANCH  15  18
BRANCH  17  20
ATOM     20  O   UNL     1      35.204  21.718  -7.763  1.00  0.00    -0.504 OA
ATOM     21  H   UNL     1      34.731  20.859  -7.504  1.00  0.00     0.293 HD
ENDBRANCH  17  20
ENDBRANCH   1  12
BRANCH   2  22
ATOM     22  O   UNL     1      40.237  18.768  -7.245  1.00  0.00    -0.502 OA
ATOM     23  H   UNL     1      39.664  19.067  -8.024  1.00  0.00     0.293 HD
ENDBRANCH   2  22
BRANCH   9  24
ATOM     24  O   UNL     1      41.324  22.200  -0.361  1.00  0.00    -0.508 OA
ATOM     25  H   UNL     1      40.805  21.941   0.469  1.00  0.00     0.293 HD
ENDBRANCH   9  24
TORSDOF 5
ENDMDL
MODEL 2
REMARK VINA RESULT:    -5.977      7.526     12.905
REMARK INTER + INTRA:          -7.301
REMARK INTER:                  -7.042
REMARK INTRA:                  -0.259
REMARK UNBOUND:                -0.276
REMARK SMILES O=c1c(O)c(-c2ccc(O)c(O)c2)oc2cc(O)ccc12
REMARK SMILES IDX 5 1 3 2 2 3 1 4 21 5 15 6 14 7 16 8 17 9 19 10 20 11 6 12
REMARK SMILES IDX 7 13 8 14 9 15 13 16 11 17 10 18 12 20 4 22 18 24
REMARK H PARENT 10 19 12 21 4 23 18 25
REMARK Flexibility Score: inf
ROOT
ATOM      1  C   UNL     1      42.045  20.563   5.621  1.00  0.00     0.180 A 
ATOM      2  C   UNL     1      42.178  21.959   5.778  1.00  0.00     0.208 A 
ATOM      3  C   UNL     1      42.312  22.758   4.632  1.00  0.00     0.235 A 
ATOM      4  O   UNL     1      42.443  24.008   4.748  1.00  0.00    -0.285 OA
ATOM      5  C   UNL     1      42.290  22.157   3.364  1.00  0.00     0.069 A 
ATOM      6  C   UNL     1      42.130  20.757   3.290  1.00  0.00     0.142 A 
ATOM      7  O   UNL     1      42.016  20.035   4.399  1.00  0.00    -0.452 OA
ATOM      8  C   UNL     1      42.094  20.122   2.044  1.00  0.00     0.094 A 
ATOM      9  C   UNL     1      42.219  20.867   0.868  1.00  0.00     0.119 A 
ATOM     10  C   UNL     1      42.380  22.258   0.937  1.00  0.00     0.047 A 
ATOM     11  C   UNL     1      42.415  22.903   2.178  1.00  0.00     0.020 A 
ENDROOT
BRANCH   1  12
ATOM     12  C   UNL     1      41.918  19.650   6.779  1.00  0.00     0.025 A 
ATOM     13  C   UNL     1      42.984  18.827   7.182  1.00  0.00     0.016 A 
ATOM     14  C   UNL     1      42.833  17.955   8.265  1.00  0.00     0.051 A 
ATOM     15  C   UNL     1      41.613  17.883   8.949  1.00  0.00     0.157 A 
ATOM     16  C   UNL     1      40.691  19.559   7.456  1.00  0.00     0.062 A 
ATOM     17  C   UNL     1      40.539  18.685   8.542  1.00  0.00     0.158 A 
BRANCH  15  18
ATOM     18  O   UNL     1      41.459  17.017  10.029  1.00  0.00    -0.504 OA
ATOM     19  H   UNL     1      41.815  17.249  10.950  1.00  0.00     0.293 HD
ENDBRANCH  15  18
BRANCH  17  20
ATOM     20  O   UNL     1      39.324  18.607   9.220  1.00  0.00    -0.504 OA
ATOM     21  H   UNL     1      38.960  17.723   9.558  1.00  0.00     0.293 HD
ENDBRANCH  17  20
ENDBRANCH   1  12
BRANCH   2  22
ATOM     22  O   UNL     1      42.146  22.533   7.051  1.00  0.00    -0.502 OA
ATOM     23  H   UNL     1      41.902  22.002   7.878  1.00  0.00     0.293 HD
ENDBRANCH   2  22
BRANCH   9  24
ATOM     24  O   UNL     1      42.180  20.219  -0.365  1.00  0.00    -0.508 OA
ATOM     25  H   UNL     1      41.461  20.422  -1.048  1.00  0.00     0.293 HD
ENDBRANCH   9  24
TORSDOF 5
ENDMDL
MODEL 3
REMARK VINA RESULT:    -5.621      2.598      6.507
REMARK INTER + INTRA:          -6.882
REMARK INTER:                  -7.167
REMARK INTRA:                   0.284
REMARK UNBOUND:                -0.276
REMARK SMILES O=c1c(O)c(-c2ccc(O)c(O)c2)oc2cc(O)ccc12
REMARK SMILES IDX 5 1 3 2 2 3 1 4 21 5 15 6 14 7 16 8 17 9 19 10 20 11 6 12
REMARK SMILES IDX 7 13 8 14 9 15 13 16 11 17 10 18 12 20 4 22 18 24
REMARK H PARENT 10 19 12 21 4 23 18 25
REMARK Flexibility Score: inf
ROOT
ATOM      1  C   UNL     1      40.928  19.607  -5.510  1.00  0.00     0.180 A 
ATOM      2  C   UNL     1      40.521  20.222  -6.712  1.00  0.00     0.208 A 
ATOM      3  C   UNL     1      40.498  19.457  -7.889  1.00  0.00     0.235 A 
ATOM      4  O   UNL     1      40.148  19.988  -8.979  1.00  0.00    -0.285 OA
ATOM      5  C   UNL     1      40.861  18.102  -7.839  1.00  0.00     0.069 A 
ATOM      6  C   UNL     1      41.235  17.555  -6.592  1.00  0.00     0.142 A 
ATOM      7  O   UNL     1      41.251  18.315  -5.504  1.00  0.00    -0.452 OA
ATOM      8  C   UNL     1      41.592  16.205  -6.500  1.00  0.00     0.094 A 
ATOM      9  C   UNL     1      41.586  15.394  -7.638  1.00  0.00     0.119 A 
ATOM     10  C   UNL     1      41.217  15.934  -8.878  1.00  0.00     0.047 A 
ATOM     11  C   UNL     1      40.855  17.281  -8.981  1.00  0.00     0.020 A 
ENDROOT
BRANCH   1  12
ATOM     12  C   UNL     1      40.997  20.349  -4.231  1.00  0.00     0.025 A 
ATOM     13  C   UNL     1      41.211  21.739  -4.201  1.00  0.00     0.016 A 
ATOM     14  C   UNL     1      41.295  22.414  -2.980  1.00  0.00     0.051 A 
ATOM     15  C   UNL     1      41.181  21.711  -1.775  1.00  0.00     0.157 A 
ATOM     16  C   UNL     1      40.903  19.647  -3.018  1.00  0.00     0.062 A 
ATOM     17  C   UNL     1      40.987  20.324  -1.793  1.00  0.00     0.158 A 
BRANCH  15  18
ATOM     18  O   UNL     1      41.263  22.381  -0.556  1.00  0.00    -0.504 OA
ATOM     19  H   UNL     1      40.788  23.264  -0.404  1.00  0.00     0.293 HD
ENDBRANCH  15  18
BRANCH  17  20
ATOM     20  O   UNL     1      40.881  19.626  -0.592  1.00  0.00    -0.504 OA
ATOM     21  H   UNL     1      40.245  19.922   0.139  1.00  0.00     0.293 HD
ENDBRANCH  17  20
ENDBRANCH   1  12
BRANCH   2  22
ATOM     22  O   UNL     1      40.118  21.559  -6.721  1.00  0.00    -0.502 OA
ATOM     23  H   UNL     1      39.457  21.930  -6.049  1.00  0.00     0.293 HD
ENDBRANCH   2  22
BRANCH   9  24
ATOM     24  O   UNL     1      41.945  14.052  -7.528  1.00  0.00    -0.508 OA
ATOM     25  H   UNL     1      42.699  13.754  -6.920  1.00  0.00     0.293 HD
ENDBRANCH   9  24
TORSDOF 5
ENDMDL
MODEL 4
REMARK VINA RESULT:    -5.582      1.618      6.770
REMARK INTER + INTRA:          -6.837
REMARK INTER:                  -6.723
REMARK INTRA:                  -0.113
REMARK UNBOUND:                -0.276
REMARK SMILES O=c1c(O)c(-c2ccc(O)c(O)c2)oc2cc(O)ccc12
REMARK SMILES IDX 5 1 3 2 2 3 1 4 21 5 15 6 14 7 16 8 17 9 19 10 20 11 6 12
REMARK SMILES IDX 7 13 8 14 9 15 13 16 11 17 10 18 12 20 4 22 18 24
REMARK H PARENT 10 19 12 21 4 23 18 25
REMARK Flexibility Score: inf
ROOT
ATOM      1  C   UNL     1      40.928  20.961  -4.551  1.00  0.00     0.180 A 
ATOM      2  C   UNL     1      41.719  21.129  -5.707  1.00  0.00     0.208 A 
ATOM      3  C   UNL     1      41.080  21.297  -6.945  1.00  0.00     0.235 A 
ATOM      4  O   UNL     1      41.767  21.438  -7.995  1.00  0.00    -0.285 OA
ATOM      5  C   UNL     1      39.677  21.312  -7.002  1.00  0.00     0.069 A 
ATOM      6  C   UNL     1      38.957  21.160  -5.797  1.00  0.00     0.142 A 
ATOM      7  O   UNL     1      39.600  20.996  -4.647  1.00  0.00    -0.452 OA
ATOM      8  C   UNL     1      37.558  21.181  -5.812  1.00  0.00     0.094 A 
ATOM      9  C   UNL     1      36.867  21.347  -7.016  1.00  0.00     0.119 A 
ATOM     10  C   UNL     1      37.579  21.496  -8.214  1.00  0.00     0.047 A 
ATOM     11  C   UNL     1      38.977  21.480  -8.210  1.00  0.00     0.020 A 
ENDROOT
BRANCH   1  12
ATOM     12  C   UNL     1      41.525  20.761  -3.212  1.00  0.00     0.025 A 
ATOM     13  C   UNL     1      42.403  19.693  -2.953  1.00  0.00     0.016 A 
ATOM     14  C   UNL     1      42.936  19.511  -1.674  1.00  0.00     0.051 A 
ATOM     15  C   UNL     1      42.590  20.382  -0.634  1.00  0.00     0.157 A 
ATOM     16  C   UNL     1      41.166  21.619  -2.159  1.00  0.00     0.062 A 
ATOM     17  C   UNL     1      41.700  21.436  -0.876  1.00  0.00     0.158 A 
BRANCH  15  18
ATOM     18  O   UNL     1      43.120  20.204   0.642  1.00  0.00    -0.504 OA
ATOM     19  H   UNL     1      43.559  19.332   0.917  1.00  0.00     0.293 HD
ENDBRANCH  15  18
BRANCH  17  20
ATOM     20  O   UNL     1      41.352  22.298   0.163  1.00  0.00    -0.504 OA
ATOM     21  H   UNL     1      40.419  22.684   0.242  1.00  0.00     0.293 HD
ENDBRANCH  17  20
ENDBRANCH   1  12
BRANCH   2  22
ATOM     22  O   UNL     1      43.112  21.160  -5.612  1.00  0.00    -0.502 OA
ATOM     23  H   UNL     1      43.593  21.647  -4.865  1.00  0.00     0.293 HD
ENDBRANCH   2  22
BRANCH   9  24
ATOM     24  O   UNL     1      35.474  21.365  -7.012  1.00  0.00    -0.508 OA
ATOM     25  H   UNL     1      34.933  20.510  -6.946  1.00  0.00     0.293 HD
ENDBRANCH   9  24
TORSDOF 5
ENDMDL
MODEL 5
REMARK VINA RESULT:    -5.547      2.312      4.148
REMARK INTER + INTRA:          -6.795
REMARK INTER:                  -6.497
REMARK INTRA:                  -0.299
REMARK UNBOUND:                -0.276
REMARK SMILES O=c1c(O)c(-c2ccc(O)c(O)c2)oc2cc(O)ccc12
REMARK SMILES IDX 5 1 3 2 2 3 1 4 21 5 15 6 14 7 16 8 17 9 19 10 20 11 6 12
REMARK SMILES IDX 7 13 8 14 9 15 13 16 11 17 10 18 12 20 4 22 18 24
REMARK H PARENT 10 19 12 21 4 23 18 25
REMARK Flexibility Score: inf
ROOT
ATOM      1  C   UNL     1      40.082  20.104  -7.105  1.00  0.00     0.180 A 
ATOM      2  C   UNL     1      40.976  20.559  -6.113  1.00  0.00     0.208 A 
ATOM      3  C   UNL     1      41.977  19.689  -5.655  1.00  0.00     0.235 A 
ATOM      4  O   UNL     1      42.782  20.069  -4.760  1.00  0.00    -0.285 OA
ATOM      5  C   UNL     1      42.078  18.401  -6.204  1.00  0.00     0.069 A 
ATOM      6  C   UNL     1      41.159  18.029  -7.210  1.00  0.00     0.142 A 
ATOM      7  O   UNL     1      40.221  18.879  -7.609  1.00  0.00    -0.452 OA
ATOM      8  C   UNL     1      41.234  16.758  -7.789  1.00  0.00     0.094 A 
ATOM      9  C   UNL     1      42.213  15.849  -7.375  1.00  0.00     0.119 A 
ATOM     10  C   UNL     1      43.125  16.214  -6.375  1.00  0.00     0.047 A 
ATOM     11  C   UNL     1      43.061  17.484  -5.791  1.00  0.00     0.020 A 
ENDROOT
BRANCH   1  12
ATOM     12  C   UNL     1      38.989  20.954  -7.628  1.00  0.00     0.025 A 
ATOM     13  C   UNL     1      39.223  21.917  -8.626  1.00  0.00     0.016 A 
ATOM     14  C   UNL     1      38.179  22.724  -9.087  1.00  0.00     0.051 A 
ATOM     15  C   UNL     1      36.893  22.590  -8.551  1.00  0.00     0.157 A 
ATOM     16  C   UNL     1      37.701  20.838  -7.080  1.00  0.00     0.062 A 
ATOM     17  C   UNL     1      36.654  21.647  -7.543  1.00  0.00     0.158 A 
BRANCH  15  18
ATOM     18  O   UNL     1      35.849  23.392  -9.009  1.00  0.00    -0.504 OA
ATOM     19  H   UNL     1      35.328  23.155  -9.846  1.00  0.00     0.293 HD
ENDBRANCH  15  18
BRANCH  17  20
ATOM     20  O   UNL     1      35.374  21.521  -7.006  1.00  0.00    -0.504 OA
ATOM     21  H   UNL     1      34.664  20.954  -7.455  1.00  0.00     0.293 HD
ENDBRANCH  17  20
ENDBRANCH   1  12
BRANCH   2  22
ATOM     22  O   UNL     1      40.882  21.863  -5.621  1.00  0.00    -0.502 OA
ATOM     23  H   UNL     1      41.075  22.091  -4.653  1.00  0.00     0.293 HD
ENDBRANCH   2  22
BRANCH   9  24
ATOM     24  O   UNL     1      42.272  14.587  -7.962  1.00  0.00    -0.508 OA
ATOM     25  H   UNL     1      41.625  14.311  -8.691  1.00  0.00     0.293 HD
ENDBRANCH   9  24
TORSDOF 5
ENDMDL
MODEL 6
REMARK VINA RESULT:    -5.428      2.951      5.621
REMARK INTER + INTRA:          -6.655
REMARK INTER:                  -6.333
REMARK INTRA:                  -0.322
REMARK UNBOUND:                -0.276
REMARK SMILES O=c1c(O)c(-c2ccc(O)c(O)c2)oc2cc(O)ccc12
REMARK SMILES IDX 5 1 3 2 2 3 1 4 21 5 15 6 14 7 16 8 17 9 19 10 20 11 6 12
REMARK SMILES IDX 7 13 8 14 9 15 13 16 11 17 10 18 12 20 4 22 18 24
REMARK H PARENT 10 19 12 21 4 23 18 25
REMARK Flexibility Score: inf
ROOT
ATOM      1  C   UNL     1      41.353  18.392  -5.329  1.00  0.00     0.180 A 
ATOM      2  C   UNL     1      42.026  18.589  -4.104  1.00  0.00     0.208 A 
ATOM      3  C   UNL     1      41.578  19.601  -3.242  1.00  0.00     0.235 A 
ATOM      4  O   UNL     1      42.170  19.803  -2.146  1.00  0.00    -0.285 OA
ATOM      5  C   UNL     1      40.467  20.378  -3.607  1.00  0.00     0.069 A 
ATOM      6  C   UNL     1      39.835  20.104  -4.839  1.00  0.00     0.142 A 
ATOM      7  O   UNL     1      40.295  19.142  -5.630  1.00  0.00    -0.452 OA
ATOM      8  C   UNL     1      38.718  20.849  -5.233  1.00  0.00     0.094 A 
ATOM      9  C   UNL     1      38.225  21.869  -4.414  1.00  0.00     0.119 A 
ATOM     10  C   UNL     1      38.851  22.146  -3.191  1.00  0.00     0.047 A 
ATOM     11  C   UNL     1      39.966  21.405  -2.786  1.00  0.00     0.020 A 
ENDROOT
BRANCH   1  12
ATOM     12  C   UNL     1      41.775  17.357  -6.300  1.00  0.00     0.025 A 
ATOM     13  C   UNL     1      42.760  17.620  -7.269  1.00  0.00     0.016 A 
ATOM     14  C   UNL     1      43.125  16.635  -8.190  1.00  0.00     0.051 A 
ATOM     15  C   UNL     1      42.503  15.381  -8.167  1.00  0.00     0.157 A 
ATOM     16  C   UNL     1      41.141  16.104  -6.295  1.00  0.00     0.062 A 
ATOM     17  C   UNL     1      41.506  15.116  -7.219  1.00  0.00     0.158 A 
BRANCH  15  18
ATOM     18  O   UNL     1      42.865  14.395  -9.083  1.00  0.00    -0.504 OA
ATOM     19  H   UNL     1      43.056  14.619 -10.054  1.00  0.00     0.293 HD
ENDBRANCH  15  18
BRANCH  17  20
ATOM     20  O   UNL     1      40.884  13.868  -7.202  1.00  0.00    -0.504 OA
ATOM     21  H   UNL     1      39.898  13.771  -6.990  1.00  0.00     0.293 HD
ENDBRANCH  17  20
ENDBRANCH   1  12
BRANCH   2  22
ATOM     22  O   UNL     1      43.097  17.767  -3.746  1.00  0.00    -0.502 OA
ATOM     23  H   UNL     1      43.810  18.063  -3.090  1.00  0.00     0.293 HD
ENDBRANCH   2  22
BRANCH   9  24
ATOM     24  O   UNL     1      37.113  22.601  -4.822  1.00  0.00    -0.508 OA
ATOM     25  H   UNL     1      36.806  22.606  -5.788  1.00  0.00     0.293 HD
ENDBRANCH   9  24
TORSDOF 5
ENDMDL
MODEL 7
REMARK VINA RESULT:    -5.395      1.682      6.747
REMARK INTER + INTRA:          -6.617
REMARK INTER:                  -6.372
REMARK INTRA:                  -0.245
REMARK UNBOUND:                -0.276
REMARK SMILES O=c1c(O)c(-c2ccc(O)c(O)c2)oc2cc(O)ccc12
REMARK SMILES IDX 5 1 3 2 2 3 1 4 21 5 15 6 14 7 16 8 17 9 19 10 20 11 6 12
REMARK SMILES IDX 7 13 8 14 9 15 13 16 11 17 10 18 12 20 4 22 18 24
REMARK H PARENT 10 19 12 21 4 23 18 25
REMARK Flexibility Score: inf
ROOT
ATOM      1  C   UNL     1      39.771  21.131  -6.335  1.00  0.00     0.180 A 
ATOM      2  C   UNL     1      40.530  21.618  -7.420  1.00  0.00     0.208 A 
ATOM      3  C   UNL     1      39.858  22.071  -8.566  1.00  0.00     0.235 A 
ATOM      4  O   UNL     1      40.516  22.502  -9.553  1.00  0.00    -0.285 OA
ATOM      5  C   UNL     1      38.455  22.047  -8.599  1.00  0.00     0.069 A 
ATOM      6  C   UNL     1      37.768  21.565  -7.464  1.00  0.00     0.142 A 
ATOM      7  O   UNL     1      38.441  21.138  -6.403  1.00  0.00    -0.452 OA
ATOM      8  C   UNL     1      36.369  21.535  -7.455  1.00  0.00     0.094 A 
ATOM      9  C   UNL     1      35.646  21.976  -8.567  1.00  0.00     0.119 A 
ATOM     10  C   UNL     1      36.325  22.453  -9.696  1.00  0.00     0.047 A 
ATOM     11  C   UNL     1      37.723  22.491  -9.715  1.00  0.00     0.020 A 
ENDROOT
BRANCH   1  12
ATOM     12  C   UNL     1      40.404  20.619  -5.099  1.00  0.00     0.025 A 
ATOM     13  C   UNL     1      41.092  19.392  -5.083  1.00  0.00     0.016 A 
ATOM     14  C   UNL     1      41.662  18.918  -3.898  1.00  0.00     0.051 A 
ATOM     15  C   UNL     1      41.542  19.654  -2.713  1.00  0.00     0.157 A 
ATOM     16  C   UNL     1      40.270  21.342  -3.903  1.00  0.00     0.062 A 
ATOM     17  C   UNL     1      40.842  20.867  -2.714  1.00  0.00     0.158 A 
BRANCH  15  18
ATOM     18  O   UNL     1      42.110  19.185  -1.530  1.00  0.00    -0.504 OA
ATOM     19  H   UNL     1      41.538  18.936  -0.730  1.00  0.00     0.293 HD
ENDBRANCH  15  18
BRANCH  17  20
ATOM     20  O   UNL     1      40.718  21.594  -1.531  1.00  0.00    -0.504 OA
ATOM     21  H   UNL     1      41.246  21.350  -0.701  1.00  0.00     0.293 HD
ENDBRANCH  17  20
ENDBRANCH   1  12
BRANCH   2  22
ATOM     22  O   UNL     1      41.923  21.677  -7.338  1.00  0.00    -0.502 OA
ATOM     23  H   UNL     1      42.406  22.421  -6.849  1.00  0.00     0.293 HD
ENDBRANCH   2  22
BRANCH   9  24
ATOM     24  O   UNL     1      34.253  21.939  -8.540  1.00  0.00    -0.508 OA
ATOM     25  H   UNL     1      33.730  22.239  -7.726  1.00  0.00     0.293 HD
ENDBRANCH   9  24
TORSDOF 5
ENDMDL
MODEL 8
REMARK VINA RESULT:    -5.165      2.862      5.195
REMARK INTER + INTRA:          -6.347
REMARK INTER:                  -6.031
REMARK INTRA:                  -0.315
REMARK UNBOUND:                -0.276
REMARK SMILES O=c1c(O)c(-c2ccc(O)c(O)c2)oc2cc(O)ccc12
REMARK SMILES IDX 5 1 3 2 2 3 1 4 21 5 15 6 14 7 16 8 17 9 19 10 20 11 6 12
REMARK SMILES IDX 7 13 8 14 9 15 13 16 11 17 10 18 12 20 4 22 18 24
REMARK H PARENT 10 19 12 21 4 23 18 25
REMARK Flexibility Score: inf
ROOT
ATOM      1  C   UNL     1      41.368  18.621  -5.475  1.00  0.00     0.180 A 
ATOM      2  C   UNL     1      40.267  19.463  -5.736  1.00  0.00     0.208 A 
ATOM      3  C   UNL     1      39.930  20.447  -4.794  1.00  0.00     0.235 A 
ATOM      4  O   UNL     1      38.943  21.206  -5.001  1.00  0.00    -0.285 OA
ATOM      5  C   UNL     1      40.702  20.582  -3.630  1.00  0.00     0.069 A 
ATOM      6  C   UNL     1      41.802  19.715  -3.453  1.00  0.00     0.142 A 
ATOM      7  O   UNL     1      42.083  18.792  -4.364  1.00  0.00    -0.452 OA
ATOM      8  C   UNL     1      42.603  19.826  -2.310  1.00  0.00     0.094 A 
ATOM      9  C   UNL     1      42.317  20.790  -1.339  1.00  0.00     0.119 A 
ATOM     10  C   UNL     1      41.224  21.651  -1.510  1.00  0.00     0.047 A 
ATOM     11  C   UNL     1      40.420  21.551  -2.650  1.00  0.00     0.020 A 
ENDROOT
BRANCH   1  12
ATOM     12  C   UNL     1      41.777  17.547  -6.409  1.00  0.00     0.025 A 
ATOM     13  C   UNL     1      42.727  17.779  -7.420  1.00  0.00     0.016 A 
ATOM     14  C   UNL     1      43.080  16.757  -8.305  1.00  0.00     0.051 A 
ATOM     15  C   UNL     1      42.481  15.495  -8.202  1.00  0.00     0.157 A 
ATOM     16  C   UNL     1      41.165  16.286  -6.323  1.00  0.00     0.062 A 
ATOM     17  C   UNL     1      41.519  15.260  -7.211  1.00  0.00     0.158 A 
BRANCH  15  18
ATOM     18  O   UNL     1      42.831  14.473  -9.081  1.00  0.00    -0.504 OA
ATOM     19  H   UNL     1      42.830  14.614 -10.086  1.00  0.00     0.293 HD
ENDBRANCH  15  18
BRANCH  17  20
ATOM     20  O   UNL     1      40.919  14.005  -7.115  1.00  0.00    -0.504 OA
ATOM     21  H   UNL     1      41.018  13.313  -7.848  1.00  0.00     0.293 HD
ENDBRANCH  17  20
ENDBRANCH   1  12
BRANCH   2  22
ATOM     22  O   UNL     1      39.548  19.337  -6.927  1.00  0.00    -0.502 OA
ATOM     23  H   UNL     1      39.142  20.135  -7.401  1.00  0.00     0.293 HD
ENDBRANCH   2  22
BRANCH   9  24
ATOM     24  O   UNL     1      43.124  20.886  -0.207  1.00  0.00    -0.508 OA
ATOM     25  H   UNL     1      42.869  21.475   0.577  1.00  0.00     0.293 HD
ENDBRANCH   9  24
TORSDOF 5
ENDMDL
MODEL 9
REMARK VINA RESULT:    -5.104      2.273      7.166
REMARK INTER + INTRA:          -6.275
REMARK INTER:                  -6.306
REMARK INTRA:                   0.030
REMARK UNBOUND:                -0.276
REMARK SMILES O=c1c(O)c(-c2ccc(O)c(O)c2)oc2cc(O)ccc12
REMARK SMILES IDX 5 1 3 2 2 3 1 4 21 5 15 6 14 7 16 8 17 9 19 10 20 11 6 12
REMARK SMILES IDX 7 13 8 14 9 15 13 16 11 17 10 18 12 20 4 22 18 24
REMARK H PARENT 10 19 12 21 4 23 18 25
REMARK Flexibility Score: inf
ROOT
ATOM      1  C   UNL     1      40.852  20.693  -3.508  1.00  0.00     0.180 A 
ATOM      2  C   UNL     1      39.471  20.907  -3.703  1.00  0.00     0.208 A 
ATOM      3  C   UNL     1      38.962  20.889  -5.010  1.00  0.00     0.235 A 
ATOM      4  O   UNL     1      37.732  21.089  -5.211  1.00  0.00    -0.285 OA
ATOM      5  C   UNL     1      39.829  20.641  -6.086  1.00  0.00     0.069 A 
ATOM      6  C   UNL     1      41.194  20.414  -5.806  1.00  0.00     0.142 A 
ATOM      7  O   UNL     1      41.637  20.448  -4.555  1.00  0.00    -0.452 OA
ATOM      8  C   UNL     1      42.087  20.153  -6.851  1.00  0.00     0.094 A 
ATOM      9  C   UNL     1      41.637  20.119  -8.174  1.00  0.00     0.119 A 
ATOM     10  C   UNL     1      40.283  20.347  -8.456  1.00  0.00     0.047 A 
ATOM     11  C   UNL     1      39.380  20.606  -7.419  1.00  0.00     0.020 A 
ENDROOT
BRANCH   1  12
ATOM     12  C   UNL     1      41.469  20.715  -2.163  1.00  0.00     0.025 A 
ATOM     13  C   UNL     1      42.277  19.656  -1.712  1.00  0.00     0.016 A 
ATOM     14  C   UNL     1      42.830  19.687  -0.428  1.00  0.00     0.051 A 
ATOM     15  C   UNL     1      42.574  20.768   0.425  1.00  0.00     0.157 A 
ATOM     16  C   UNL     1      41.199  21.785  -1.295  1.00  0.00     0.062 A 
ATOM     17  C   UNL     1      41.754  21.818  -0.008  1.00  0.00     0.158 A 
BRANCH  15  18
ATOM     18  O   UNL     1      43.125  20.804   1.704  1.00  0.00    -0.504 OA
ATOM     19  H   UNL     1      44.093  20.550   1.872  1.00  0.00     0.293 HD
ENDBRANCH  15  18
BRANCH  17  20
ATOM     20  O   UNL     1      41.495  22.888   0.846  1.00  0.00    -0.504 OA
ATOM     21  H   UNL     1      41.324  22.749   1.835  1.00  0.00     0.293 HD
ENDBRANCH  17  20
ENDBRANCH   1  12
BRANCH   2  22
ATOM     22  O   UNL     1      38.625  21.102  -2.609  1.00  0.00    -0.502 OA
ATOM     23  H   UNL     1      37.619  21.176  -2.709  1.00  0.00     0.293 HD
ENDBRANCH   2  22
BRANCH   9  24
ATOM     24  O   UNL     1      42.540  19.858  -9.202  1.00  0.00    -0.508 OA
ATOM     25  H   UNL     1      43.093  19.009  -9.218  1.00  0.00     0.293 HD
ENDBRANCH   9  24
TORSDOF 5
ENDMDL
