MODEL 1
REMARK VINA RESULT:    -5.254      0.000      0.000
REMARK INTER + INTRA:         -11.797
REMARK INTER:                  -9.554
REMARK INTRA:                  -2.242
REMARK UNBOUND:                -2.242
REMARK SMILES CCCCCCCCCCCCCCCC(=O)[O-]
REMARK SMILES IDX 9 1 10 2 11 3 12 4 13 5 14 6 15 7 16 8 17 9 18 10 8 11 7 12
REMARK SMILES IDX 6 13 5 14 4 15 3 16 2 17 1 18
REMARK H PARENT
REMARK Flexibility Score: inf
ROOT
ATOM      1  C   UNL     1      -9.204  -5.678  15.713  1.00  0.00     0.000 C 
ENDROOT
BRANCH   1   2
ATOM      2  C   UNL     1      -9.358  -4.422  16.589  1.00  0.00     0.000 C 
BRANCH   2   3
ATOM      3  C   UNL     1     -10.346  -3.407  15.992  1.00  0.00     0.000 C 
BRANCH   3   4
ATOM      4  C   UNL     1     -11.546  -3.134  16.915  1.00  0.00     0.000 C 
BRANCH   4   5
ATOM      5  C   UNL     1     -12.875  -3.636  16.309  1.00  0.00     0.000 C 
BRANCH   5   6
ATOM      6  C   UNL     1     -12.914  -3.567  14.770  1.00  0.00     0.006 C 
BRANCH   6   7
ATOM      7  C   UNL     1     -13.705  -2.373  14.218  1.00  0.00     0.053 C 
BRANCH   7   8
ATOM      8  C   UNL     1     -13.068  -1.803  12.987  1.00  0.00     0.041 C 
ATOM      9  O   UNL     1     -13.773  -1.536  11.978  1.00  0.00    -0.550 OA
ATOM     10  O   UNL     1     -11.698  -1.586  12.945  1.00  0.00    -0.550 OA
ENDBRANCH   7   8
ENDBRANCH   6   7
ENDBRANCH   5   6
ENDBRANCH   4   5
ENDBRANCH   3   4
ENDBRANCH   2   3
ENDBRANCH   1   2
BRANCH   1  11
ATOM     11  C   UNL     1     -10.508  -6.484  15.599  1.00  0.00     0.000 C 
BRANCH  11  12
ATOM     12  C   UNL     1     -10.616  -7.249  14.268  1.00  0.00    -0.000 C 
BRANCH  12  13
ATOM     13  C   UNL     1     -11.529  -6.541  13.252  1.00  0.00    -0.000 C 
BRANCH  13  14
ATOM     14  C   UNL     1     -10.763  -5.551  12.356  1.00  0.00    -0.000 C 
BRANCH  14  15
ATOM     15  C   UNL     1      -9.469  -6.153  11.783  1.00  0.00    -0.000 C 
BRANCH  15  16
ATOM     16  C   UNL     1      -8.222  -5.330  12.150  1.00  0.00    -0.000 C 
BRANCH  16  17
ATOM     17  C   UNL     1      -8.577  -3.966  12.761  1.00  0.00    -0.003 C 
ATOM     18  C   UNL     1      -7.347  -3.102  13.043  1.00  0.00     0.004 C 
ENDBRANCH  16  17
ENDBRANCH  15  16
ENDBRANCH  14  15
ENDBRANCH  13  14
ENDBRANCH  12  13
ENDBRANCH  11  12
ENDBRANCH   1  11
TORSDOF 14
ENDMDL
MODEL 2
REMARK VINA RESULT:    -5.190      2.479      4.535
REMARK INTER + INTRA:         -11.680
REMARK INTER:                  -9.578
REMARK INTRA:                  -2.102
REMARK UNBOUND:                -2.242
REMARK SMILES CCCCCCCCCCCCCCCC(=O)[O-]
REMARK SMILES IDX 9 1 10 2 11 3 12 4 13 5 14 6 15 7 16 8 17 9 18 10 8 11 7 12
REMARK SMILES IDX 6 13 5 14 4 15 3 16 2 17 1 18
REMARK H PARENT
REMARK Flexibility Score: inf
ROOT
ATOM      1  C   UNL     1     -12.816  -3.554  16.326  1.00  0.00     0.000 C 
ENDROOT
BRANCH   1   2
ATOM      2  C   UNL     1     -11.294  -3.336  16.391  1.00  0.00     0.000 C 
BRANCH   2   3
ATOM      3  C   UNL     1     -10.865  -2.556  17.645  1.00  0.00     0.000 C 
BRANCH   3   4
ATOM      4  C   UNL     1      -9.415  -2.856  18.062  1.00  0.00     0.000 C 
BRANCH   4   5
ATOM      5  C   UNL     1      -8.691  -3.768  17.047  1.00  0.00     0.000 C 
BRANCH   5   6
ATOM      6  C   UNL     1      -7.675  -3.018  16.165  1.00  0.00     0.006 C 
BRANCH   6   7
ATOM      7  C   UNL     1      -7.912  -3.184  14.658  1.00  0.00     0.053 C 
BRANCH   7   8
ATOM      8  C   UNL     1      -7.153  -4.349  14.097  1.00  0.00     0.041 C 
ATOM      9  O   UNL     1      -6.275  -4.924  14.793  1.00  0.00    -0.550 OA
ATOM     10  O   UNL     1      -7.396  -4.784  12.802  1.00  0.00    -0.550 OA
ENDBRANCH   7   8
ENDBRANCH   6   7
ENDBRANCH   5   6
ENDBRANCH   4   5
ENDBRANCH   3   4
ENDBRANCH   2   3
ENDBRANCH   1   2
BRANCH   1  11
ATOM     11  C   UNL     1     -13.392  -3.291  14.925  1.00  0.00     0.000 C 
BRANCH  11  12
ATOM     12  C   UNL     1     -12.490  -3.836  13.803  1.00  0.00    -0.000 C 
BRANCH  12  13
ATOM     13  C   UNL     1     -13.195  -4.895  12.939  1.00  0.00    -0.000 C 
BRANCH  13  14
ATOM     14  C   UNL     1     -12.205  -5.777  12.158  1.00  0.00    -0.000 C 
BRANCH  14  15
ATOM     15  C   UNL     1     -10.766  -5.662  12.690  1.00  0.00    -0.000 C 
BRANCH  15  16
ATOM     16  C   UNL     1     -10.342  -6.890  13.515  1.00  0.00    -0.000 C 
BRANCH  16  17
ATOM     17  C   UNL     1     -10.237  -6.582  15.016  1.00  0.00    -0.003 C 
ATOM     18  C   UNL     1     -11.457  -7.053  15.808  1.00  0.00     0.004 C 
ENDBRANCH  16  17
ENDBRANCH  15  16
ENDBRANCH  14  15
ENDBRANCH  13  14
ENDBRANCH  12  13
ENDBRANCH  11  12
ENDBRANCH   1  11
TORSDOF 14
ENDMDL
MODEL 3
REMARK VINA RESULT:    -5.175      2.296      4.750
REMARK INTER + INTRA:         -11.653
REMARK INTER:                  -9.561
REMARK INTRA:                  -2.092
REMARK UNBOUND:                -2.242
REMARK SMILES CCCCCCCCCCCCCCCC(=O)[O-]
REMARK SMILES IDX 9 1 10 2 11 3 12 4 13 5 14 6 15 7 16 8 17 9 18 10 8 11 7 12
REMARK SMILES IDX 6 13 5 14 4 15 3 16 2 17 1 18
REMARK H PARENT
REMARK Flexibility Score: inf
ROOT
ATOM      1  C   UNL     1      -9.199  -4.655  15.578  1.00  0.00     0.000 C 
ENDROOT
BRANCH   1   2
ATOM      2  C   UNL     1      -9.441  -6.143  15.889  1.00  0.00     0.000 C 
BRANCH   2   3
ATOM      3  C   UNL     1     -10.855  -6.602  15.500  1.00  0.00     0.000 C 
BRANCH   3   4
ATOM      4  C   UNL     1     -10.943  -7.083  14.042  1.00  0.00     0.000 C 
BRANCH   4   5
ATOM      5  C   UNL     1     -12.257  -6.642  13.360  1.00  0.00     0.000 C 
BRANCH   5   6
ATOM      6  C   UNL     1     -12.037  -5.787  12.097  1.00  0.00     0.006 C 
BRANCH   6   7
ATOM      7  C   UNL     1     -10.671  -5.090  12.044  1.00  0.00     0.053 C 
BRANCH   7   8
ATOM      8  C   UNL     1      -9.769  -5.705  11.017  1.00  0.00     0.041 C 
ATOM      9  O   UNL     1      -8.660  -6.193  11.361  1.00  0.00    -0.550 OA
ATOM     10  O   UNL     1     -10.140  -5.719   9.679  1.00  0.00    -0.550 OA
ENDBRANCH   7   8
ENDBRANCH   6   7
ENDBRANCH   5   6
ENDBRANCH   4   5
ENDBRANCH   3   4
ENDBRANCH   2   3
ENDBRANCH   1   2
BRANCH   1  11
ATOM     11  C   UNL     1      -9.308  -3.765  16.827  1.00  0.00     0.000 C 
BRANCH  11  12
ATOM     12  C   UNL     1     -10.652  -3.020  16.906  1.00  0.00    -0.000 C 
BRANCH  12  13
ATOM     13  C   UNL     1     -11.440  -3.078  15.587  1.00  0.00    -0.000 C 
BRANCH  13  14
ATOM     14  C   UNL     1     -12.920  -3.442  15.796  1.00  0.00    -0.000 C 
BRANCH  14  15
ATOM     15  C   UNL     1     -13.732  -3.383  14.491  1.00  0.00    -0.000 C 
BRANCH  15  16
ATOM     16  C   UNL     1     -13.868  -1.951  13.944  1.00  0.00    -0.000 C 
BRANCH  16  17
ATOM     17  C   UNL     1     -13.429  -1.838  12.477  1.00  0.00    -0.003 C 
ATOM     18  C   UNL     1     -11.962  -1.433  12.324  1.00  0.00     0.004 C 
ENDBRANCH  16  17
ENDBRANCH  15  16
ENDBRANCH  14  15
ENDBRANCH  13  14
ENDBRANCH  12  13
ENDBRANCH  11  12
ENDBRANCH   1  11
TORSDOF 14
ENDMDL
MODEL 4
REMARK VINA RESULT:    -5.174      1.035      2.395
REMARK INTER + INTRA:         -11.651
REMARK INTER:                  -9.569
REMARK INTRA:                  -2.082
REMARK UNBOUND:                -2.242
REMARK SMILES CCCCCCCCCCCCCCCC(=O)[O-]
REMARK SMILES IDX 9 1 10 2 11 3 12 4 13 5 14 6 15 7 16 8 17 9 18 10 8 11 7 12
REMARK SMILES IDX 6 13 5 14 4 15 3 16 2 17 1 18
REMARK H PARENT
REMARK Flexibility Score: inf
ROOT
ATOM      1  C   UNL     1     -10.237  -3.845  15.318  1.00  0.00     0.000 C 
ENDROOT
BRANCH   1   2
ATOM      2  C   UNL     1     -11.010  -3.128  16.439  1.00  0.00     0.000 C 
BRANCH   2   3
ATOM      3  C   UNL     1     -12.527  -3.362  16.350  1.00  0.00     0.000 C 
BRANCH   3   4
ATOM      4  C   UNL     1     -12.978  -3.801  14.946  1.00  0.00     0.000 C 
BRANCH   4   5
ATOM      5  C   UNL     1     -14.128  -2.926  14.402  1.00  0.00     0.000 C 
BRANCH   5   6
ATOM      6  C   UNL     1     -13.643  -1.693  13.616  1.00  0.00     0.006 C 
BRANCH   6   7
ATOM      7  C   UNL     1     -12.812  -2.033  12.371  1.00  0.00     0.053 C 
BRANCH   7   8
ATOM      8  C   UNL     1     -11.694  -1.056  12.163  1.00  0.00     0.041 C 
ATOM      9  O   UNL     1     -10.597  -1.216  12.761  1.00  0.00    -0.550 OA
ATOM     10  O   UNL     1     -11.869   0.039  11.328  1.00  0.00    -0.550 OA
ENDBRANCH   7   8
ENDBRANCH   6   7
ENDBRANCH   5   6
ENDBRANCH   4   5
ENDBRANCH   3   4
ENDBRANCH   2   3
ENDBRANCH   1   2
BRANCH   1  11
ATOM     11  C   UNL     1      -9.046  -4.659  15.848  1.00  0.00     0.000 C 
BRANCH  11  12
ATOM     12  C   UNL     1      -9.419  -6.119  16.161  1.00  0.00    -0.000 C 
BRANCH  12  13
ATOM     13  C   UNL     1     -10.780  -6.522  15.567  1.00  0.00    -0.000 C 
BRANCH  13  14
ATOM     14  C   UNL     1     -10.643  -7.332  14.266  1.00  0.00    -0.000 C 
BRANCH  14  15
ATOM     15  C   UNL     1     -11.455  -6.730  13.107  1.00  0.00    -0.000 C 
BRANCH  15  16
ATOM     16  C   UNL     1     -10.670  -5.659  12.330  1.00  0.00    -0.000 C 
BRANCH  16  17
ATOM     17  C   UNL     1      -9.283  -6.151  11.890  1.00  0.00    -0.003 C 
ATOM     18  C   UNL     1      -8.161  -5.182  12.266  1.00  0.00     0.004 C 
ENDBRANCH  16  17
ENDBRANCH  15  16
ENDBRANCH  14  15
ENDBRANCH  13  14
ENDBRANCH  12  13
ENDBRANCH  11  12
ENDBRANCH   1  11
TORSDOF 14
ENDMDL
MODEL 5
REMARK VINA RESULT:    -5.168      1.127      2.899
REMARK INTER + INTRA:         -11.640
REMARK INTER:                  -9.203
REMARK INTRA:                  -2.437
REMARK UNBOUND:                -2.242
REMARK SMILES CCCCCCCCCCCCCCCC(=O)[O-]
REMARK SMILES IDX 9 1 10 2 11 3 12 4 13 5 14 6 15 7 16 8 17 9 18 10 8 11 7 12
REMARK SMILES IDX 6 13 5 14 4 15 3 16 2 17 1 18
REMARK H PARENT
REMARK Flexibility Score: inf
ROOT
ATOM      1  C   UNL     1      -7.867  -4.377  15.244  1.00  0.00     0.000 C 
ENDROOT
BRANCH   1   2
ATOM      2  C   UNL     1      -8.946  -4.643  16.308  1.00  0.00     0.000 C 
BRANCH   2   3
ATOM      3  C   UNL     1      -9.290  -3.387  17.124  1.00  0.00     0.000 C 
BRANCH   3   4
ATOM      4  C   UNL     1     -10.778  -3.009  17.033  1.00  0.00     0.000 C 
BRANCH   4   5
ATOM      5  C   UNL     1     -11.596  -4.046  16.233  1.00  0.00     0.000 C 
BRANCH   5   6
ATOM      6  C   UNL     1     -12.587  -3.413  15.239  1.00  0.00     0.006 C 
BRANCH   6   7
ATOM      7  C   UNL     1     -11.930  -2.862  13.966  1.00  0.00     0.053 C 
BRANCH   7   8
ATOM      8  C   UNL     1     -12.947  -2.380  12.975  1.00  0.00     0.041 C 
ATOM      9  O   UNL     1     -13.718  -1.430  13.273  1.00  0.00    -0.550 OA
ATOM     10  O   UNL     1     -13.059  -2.993  11.735  1.00  0.00    -0.550 OA
ENDBRANCH   7   8
ENDBRANCH   6   7
ENDBRANCH   5   6
ENDBRANCH   4   5
ENDBRANCH   3   4
ENDBRANCH   2   3
ENDBRANCH   1   2
BRANCH   1  11
ATOM     11  C   UNL     1      -8.254  -3.242  14.281  1.00  0.00     0.000 C 
BRANCH  11  12
ATOM     12  C   UNL     1      -7.889  -3.557  12.819  1.00  0.00    -0.000 C 
BRANCH  12  13
ATOM     13  C   UNL     1      -7.625  -5.054  12.585  1.00  0.00    -0.000 C 
BRANCH  13  14
ATOM     14  C   UNL     1      -8.708  -5.718  11.717  1.00  0.00    -0.000 C 
BRANCH  14  15
ATOM     15  C   UNL     1     -10.108  -5.630  12.350  1.00  0.00    -0.000 C 
BRANCH  15  16
ATOM     16  C   UNL     1     -10.301  -6.637  13.496  1.00  0.00    -0.000 C 
BRANCH  16  17
ATOM     17  C   UNL     1     -11.782  -6.867  13.834  1.00  0.00    -0.003 C 
ATOM     18  C   UNL     1     -12.727  -6.352  12.747  1.00  0.00     0.004 C 
ENDBRANCH  16  17
ENDBRANCH  15  16
ENDBRANCH  14  15
ENDBRANCH  13  14
ENDBRANCH  12  13
ENDBRANCH  11  12
ENDBRANCH   1  11
TORSDOF 14
ENDMDL
MODEL 6
REMARK VINA RESULT:    -5.167      1.667      4.781
REMARK INTER + INTRA:         -11.638
REMARK INTER:                  -9.745
REMARK INTRA:                  -1.892
REMARK UNBOUND:                -2.242
REMARK SMILES CCCCCCCCCCCCCCCC(=O)[O-]
REMARK SMILES IDX 9 1 10 2 11 3 12 4 13 5 14 6 15 7 16 8 17 9 18 10 8 11 7 12
REMARK SMILES IDX 6 13 5 14 4 15 3 16 2 17 1 18
REMARK H PARENT
REMARK Flexibility Score: inf
ROOT
ATOM      1  C   UNL     1      -7.438  -3.767  15.427  1.00  0.00     0.000 C 
ENDROOT
BRANCH   1   2
ATOM      2  C   UNL     1      -7.228  -2.880  14.187  1.00  0.00     0.000 C 
BRANCH   2   3
ATOM      3  C   UNL     1      -7.446  -3.647  12.873  1.00  0.00     0.000 C 
BRANCH   3   4
ATOM      4  C   UNL     1      -8.540  -4.723  12.989  1.00  0.00     0.000 C 
BRANCH   4   5
ATOM      5  C   UNL     1      -8.487  -5.737  11.824  1.00  0.00     0.000 C 
BRANCH   5   6
ATOM      6  C   UNL     1      -9.763  -5.748  10.962  1.00  0.00     0.006 C 
BRANCH   6   7
ATOM      7  C   UNL     1     -11.063  -5.610  11.766  1.00  0.00     0.053 C 
BRANCH   7   8
ATOM      8  C   UNL     1     -11.926  -4.499  11.247  1.00  0.00     0.041 C 
ATOM      9  O   UNL     1     -12.833  -4.742  10.409  1.00  0.00    -0.550 OA
ATOM     10  O   UNL     1     -11.714  -3.194  11.671  1.00  0.00    -0.550 OA
ENDBRANCH   7   8
ENDBRANCH   6   7
ENDBRANCH   5   6
ENDBRANCH   4   5
ENDBRANCH   3   4
ENDBRANCH   2   3
ENDBRANCH   1   2
BRANCH   1  11
ATOM     11  C   UNL     1      -7.348  -2.976  16.742  1.00  0.00     0.000 C 
BRANCH  11  12
ATOM     12  C   UNL     1      -8.681  -2.951  17.511  1.00  0.00    -0.000 C 
BRANCH  12  13
ATOM     13  C   UNL     1      -9.892  -2.734  16.587  1.00  0.00    -0.000 C 
BRANCH  13  14
ATOM     14  C   UNL     1     -11.234  -2.879  17.326  1.00  0.00    -0.000 C 
BRANCH  14  15
ATOM     15  C   UNL     1     -12.275  -3.664  16.509  1.00  0.00    -0.000 C 
BRANCH  15  16
ATOM     16  C   UNL     1     -11.659  -4.365  15.286  1.00  0.00    -0.000 C 
BRANCH  16  17
ATOM     17  C   UNL     1     -11.526  -5.883  15.484  1.00  0.00    -0.003 C 
ATOM     18  C   UNL     1     -10.091  -6.321  15.775  1.00  0.00     0.004 C 
ENDBRANCH  16  17
ENDBRANCH  15  16
ENDBRANCH  14  15
ENDBRANCH  13  14
ENDBRANCH  12  13
ENDBRANCH  11  12
ENDBRANCH   1  11
TORSDOF 14
ENDMDL
MODEL 7
REMARK VINA RESULT:    -5.161      1.933      4.038
REMARK INTER + INTRA:         -11.627
REMARK INTER:                  -9.115
REMARK INTRA:                  -2.512
REMARK UNBOUND:                -2.242
REMARK SMILES CCCCCCCCCCCCCCCC(=O)[O-]
REMARK SMILES IDX 9 1 10 2 11 3 12 4 13 5 14 6 15 7 16 8 17 9 18 10 8 11 7 12
REMARK SMILES IDX 6 13 5 14 4 15 3 16 2 17 1 18
REMARK H PARENT
REMARK Flexibility Score: inf
ROOT
ATOM      1  C   UNL     1     -12.532  -3.842  16.273  1.00  0.00     0.000 C 
ENDROOT
BRANCH   1   2
ATOM      2  C   UNL     1     -13.012  -3.075  15.029  1.00  0.00     0.000 C 
BRANCH   2   3
ATOM      3  C   UNL     1     -13.008  -3.947  13.763  1.00  0.00     0.000 C 
BRANCH   3   4
ATOM      4  C   UNL     1     -12.181  -3.331  12.621  1.00  0.00     0.000 C 
BRANCH   4   5
ATOM      5  C   UNL     1     -12.148  -1.788  12.691  1.00  0.00     0.000 C 
BRANCH   5   6
ATOM      6  C   UNL     1     -10.739  -1.195  12.507  1.00  0.00     0.006 C 
BRANCH   6   7
ATOM      7  C   UNL     1      -9.602  -2.151  12.894  1.00  0.00     0.053 C 
BRANCH   7   8
ATOM      8  C   UNL     1      -8.370  -1.411  13.321  1.00  0.00     0.041 C 
ATOM      9  O   UNL     1      -8.333  -0.155  13.251  1.00  0.00    -0.550 OA
ATOM     10  O   UNL     1      -7.258  -2.108  13.772  1.00  0.00    -0.550 OA
ENDBRANCH   7   8
ENDBRANCH   6   7
ENDBRANCH   5   6
ENDBRANCH   4   5
ENDBRANCH   3   4
ENDBRANCH   2   3
ENDBRANCH   1   2
BRANCH   1  11
ATOM     11  C   UNL     1     -11.408  -3.109  17.023  1.00  0.00     0.000 C 
BRANCH  11  12
ATOM     12  C   UNL     1     -10.092  -3.073  16.227  1.00  0.00    -0.000 C 
BRANCH  12  13
ATOM     13  C   UNL     1      -9.286  -4.377  16.356  1.00  0.00    -0.000 C 
BRANCH  13  14
ATOM     14  C   UNL     1      -9.115  -5.103  15.010  1.00  0.00    -0.000 C 
BRANCH  14  15
ATOM     15  C   UNL     1     -10.230  -6.130  14.747  1.00  0.00    -0.000 C 
BRANCH  15  16
ATOM     16  C   UNL     1     -10.236  -6.634  13.294  1.00  0.00    -0.000 C 
BRANCH  16  17
ATOM     17  C   UNL     1      -9.264  -5.853  12.396  1.00  0.00    -0.003 C 
ATOM     18  C   UNL     1      -9.769  -5.705  10.960  1.00  0.00     0.004 C 
ENDBRANCH  16  17
ENDBRANCH  15  16
ENDBRANCH  14  15
ENDBRANCH  13  14
ENDBRANCH  12  13
ENDBRANCH  11  12
ENDBRANCH   1  11
TORSDOF 14
ENDMDL
MODEL 8
REMARK VINA RESULT:    -5.150      2.369      5.483
REMARK INTER + INTRA:         -11.608
REMARK INTER:                  -9.027
REMARK INTRA:                  -2.581
REMARK UNBOUND:                -2.242
REMARK SMILES CCCCCCCCCCCCCCCC(=O)[O-]
REMARK SMILES IDX 9 1 10 2 11 3 12 4 13 5 14 6 15 7 16 8 17 9 18 10 8 11 7 12
REMARK SMILES IDX 6 13 5 14 4 15 3 16 2 17 1 18
REMARK H PARENT
REMARK Flexibility Score: inf
ROOT
ATOM      1  C   UNL     1     -12.882  -5.145  12.713  1.00  0.00     0.000 C 
ENDROOT
BRANCH   1   2
ATOM      2  C   UNL     1     -12.102  -5.841  11.584  1.00  0.00     0.000 C 
BRANCH   2   3
ATOM      3  C   UNL     1     -10.783  -5.125  11.253  1.00  0.00     0.000 C 
BRANCH   3   4
ATOM      4  C   UNL     1      -9.560  -6.051  11.369  1.00  0.00     0.000 C 
BRANCH   4   5
ATOM      5  C   UNL     1      -8.391  -5.383  12.125  1.00  0.00     0.000 C 
BRANCH   5   6
ATOM      6  C   UNL     1      -8.790  -4.081  12.846  1.00  0.00     0.006 C 
BRANCH   6   7
ATOM      7  C   UNL     1      -7.599  -3.224  13.295  1.00  0.00     0.053 C 
BRANCH   7   8
ATOM      8  C   UNL     1      -7.143  -3.580  14.678  1.00  0.00     0.041 C 
ATOM      9  O   UNL     1      -6.500  -4.644  14.877  1.00  0.00    -0.550 OA
ATOM     10  O   UNL     1      -7.448  -2.751  15.749  1.00  0.00    -0.550 OA
ENDBRANCH   7   8
ENDBRANCH   6   7
ENDBRANCH   5   6
ENDBRANCH   4   5
ENDBRANCH   3   4
ENDBRANCH   2   3
ENDBRANCH   1   2
BRANCH   1  11
ATOM     11  C   UNL     1     -12.774  -3.613  12.650  1.00  0.00     0.000 C 
BRANCH  11  12
ATOM     12  C   UNL     1     -12.231  -3.004  13.954  1.00  0.00    -0.000 C 
BRANCH  12  13
ATOM     13  C   UNL     1     -13.081  -3.378  15.180  1.00  0.00    -0.000 C 
BRANCH  13  14
ATOM     14  C   UNL     1     -12.278  -4.144  16.247  1.00  0.00    -0.000 C 
BRANCH  14  15
ATOM     15  C   UNL     1     -10.759  -4.053  16.020  1.00  0.00    -0.000 C 
BRANCH  15  16
ATOM     16  C   UNL     1     -10.112  -5.431  15.803  1.00  0.00    -0.000 C 
BRANCH  16  17
ATOM     17  C   UNL     1     -11.151  -6.551  15.644  1.00  0.00    -0.003 C 
ATOM     18  C   UNL     1     -10.745  -7.597  14.605  1.00  0.00     0.004 C 
ENDBRANCH  16  17
ENDBRANCH  15  16
ENDBRANCH  14  15
ENDBRANCH  13  14
ENDBRANCH  12  13
ENDBRANCH  11  12
ENDBRANCH   1  11
TORSDOF 14
ENDMDL
MODEL 9
REMARK VINA RESULT:    -5.142      1.925      3.835
REMARK INTER + INTRA:         -11.592
REMARK INTER:                  -9.330
REMARK INTRA:                  -2.262
REMARK UNBOUND:                -2.242
REMARK SMILES CCCCCCCCCCCCCCCC(=O)[O-]
REMARK SMILES IDX 9 1 10 2 11 3 12 4 13 5 14 6 15 7 16 8 17 9 18 10 8 11 7 12
REMARK SMILES IDX 6 13 5 14 4 15 3 16 2 17 1 18
REMARK H PARENT
REMARK Flexibility Score: inf
ROOT
ATOM      1  C   UNL     1     -12.607  -3.432  15.106  1.00  0.00     0.000 C 
ENDROOT
BRANCH   1   2
ATOM      2  C   UNL     1     -11.784  -4.039  16.255  1.00  0.00     0.000 C 
BRANCH   2   3
ATOM      3  C   UNL     1     -11.120  -2.966  17.133  1.00  0.00     0.000 C 
BRANCH   3   4
ATOM      4  C   UNL     1      -9.593  -3.129  17.217  1.00  0.00     0.000 C 
BRANCH   4   5
ATOM      5  C   UNL     1      -9.099  -4.390  16.474  1.00  0.00     0.000 C 
BRANCH   5   6
ATOM      6  C   UNL     1      -8.089  -4.084  15.352  1.00  0.00     0.006 C 
BRANCH   6   7
ATOM      7  C   UNL     1      -8.015  -2.602  14.963  1.00  0.00     0.053 C 
BRANCH   7   8
ATOM      8  C   UNL     1      -7.884  -2.418  13.481  1.00  0.00     0.041 C 
ATOM      9  O   UNL     1      -8.541  -1.518  12.895  1.00  0.00    -0.550 OA
ATOM     10  O   UNL     1      -7.055  -3.254  12.744  1.00  0.00    -0.550 OA
ENDBRANCH   7   8
ENDBRANCH   6   7
ENDBRANCH   5   6
ENDBRANCH   4   5
ENDBRANCH   3   4
ENDBRANCH   2   3
ENDBRANCH   1   2
BRANCH   1  11
ATOM     11  C   UNL     1     -11.736  -3.013  13.911  1.00  0.00     0.000 C 
BRANCH  11  12
ATOM     12  C   UNL     1     -12.322  -3.470  12.563  1.00  0.00    -0.000 C 
BRANCH  12  13
ATOM     13  C   UNL     1     -13.250  -4.688  12.703  1.00  0.00    -0.000 C 
BRANCH  13  14
ATOM     14  C   UNL     1     -12.565  -6.005  12.300  1.00  0.00    -0.000 C 
BRANCH  14  15
ATOM     15  C   UNL     1     -11.896  -6.711  13.493  1.00  0.00    -0.000 C 
BRANCH  15  16
ATOM     16  C   UNL     1     -10.427  -7.073  13.216  1.00  0.00    -0.000 C 
BRANCH  16  17
ATOM     17  C   UNL     1      -9.598  -5.862  12.760  1.00  0.00    -0.003 C 
ATOM     18  C   UNL     1      -9.073  -6.005  11.331  1.00  0.00     0.004 C 
ENDBRANCH  16  17
ENDBRANCH  15  16
ENDBRANCH  14  15
ENDBRANCH  13  14
ENDBRANCH  12  13
ENDBRANCH  11  12
ENDBRANCH   1  11
TORSDOF 14
ENDMDL
