MODEL 1
REMARK VINA RESULT:    -3.954      0.000      0.000
REMARK INTER + INTRA:          -6.508
REMARK INTER:                  -6.034
REMARK INTRA:                  -0.475
REMARK UNBOUND:                -0.475
REMARK SMILES CC1=CCC[C@@H](C)C(=O)C[C@@H](C(C)C)C(=O)C1
REMARK SMILES IDX 8 1 9 2 6 3 7 4 5 5 4 6 3 7 2 8 1 9 10 11 11 12 15 13 16 14
REMARK SMILES IDX 17 15 12 17 13 18 14 19
REMARK H PARENT
REMARK Flexibility Score: 70.00
ROOT
ATOM      1  C   UNL     1     -15.369  14.153 -32.029  1.00  0.00     0.136 C 
ATOM      2  O   UNL     1     -15.614  14.093 -33.226  1.00  0.00    -0.299 OA
ENDROOT
BRANCH   1   3
ATOM      3  C   UNL     1     -16.089  13.176 -31.088  1.00  0.00     0.053 C 
ATOM      4  C   UNL     1     -16.980  12.217 -31.882  1.00  0.00     0.016 C 
BRANCH   3   5
ATOM      5  C   UNL     1     -16.888  14.022 -30.121  1.00  0.00     0.015 C 
BRANCH   5   6
ATOM      6  C   UNL     1     -16.610  14.183 -28.649  1.00  0.00     0.028 C 
BRANCH   6   7
ATOM      7  C   UNL     1     -15.444  13.266 -28.272  1.00  0.00    -0.028 C 
ATOM      8  C   UNL     1     -14.095  13.549 -28.227  1.00  0.00    -0.070 CG0
ATOM      9  C   UNL     1     -13.204  12.455 -27.688  1.00  0.00     0.039 C 
ATOM     10  G   UNL     1     -13.400  14.848 -28.696  1.00  0.00     0.000 G0
ENDBRANCH   6   7
ENDBRANCH   5   6
ENDBRANCH   3   5
ENDBRANCH   1   3
BRANCH   1  11
ATOM     11  C   UNL     1     -14.346  15.197 -31.539  1.00  0.00     0.087 C 
BRANCH  11  12
ATOM     12  C   UNL     1     -12.868  14.666 -31.342  1.00  0.00     0.066 C 
BRANCH  12  13
ATOM     13  C   UNL     1     -12.410  14.668 -29.865  1.00  0.00     0.140 C 
ATOM     14  O   UNL     1     -11.224  14.518 -29.606  1.00  0.00    -0.299 OA
BRANCH  13  15
ATOM     15  C   UNL     1     -13.390  14.846 -28.699  1.00  0.00     0.106 CG0
ATOM     16  G   UNL     1     -14.085  13.542 -28.240  1.00  0.00     0.000 G0
ENDBRANCH  13  15
ENDBRANCH  12  13
BRANCH  12  17
ATOM     17  C   UNL     1     -11.817  15.407 -32.229  1.00  0.00    -0.006 C 
ATOM     18  C   UNL     1     -12.291  16.771 -32.766  1.00  0.00     0.008 C 
ATOM     19  C   UNL     1     -11.320  14.523 -33.386  1.00  0.00     0.008 C 
ENDBRANCH  12  17
ENDBRANCH  11  12
ENDBRANCH   1  11
TORSDOF 1
ENDMDL
MODEL 2
REMARK VINA RESULT:    -3.939      2.787      5.254
REMARK INTER + INTRA:          -6.486
REMARK INTER:                  -5.802
REMARK INTRA:                  -0.683
REMARK UNBOUND:                -0.475
REMARK SMILES CC1=CCC[C@@H](C)C(=O)C[C@@H](C(C)C)C(=O)C1
REMARK SMILES IDX 8 1 9 2 6 3 7 4 5 5 4 6 3 7 2 8 1 9 10 11 11 12 15 13 16 14
REMARK SMILES IDX 17 15 12 17 13 18 14 19
REMARK H PARENT
REMARK Flexibility Score: 70.00
ROOT
ATOM      1  C   UNL     1     -12.725  15.000 -27.512  1.00  0.00     0.136 C 
ATOM      2  O   UNL     1     -12.263  16.091 -27.207  1.00  0.00    -0.299 OA
ENDROOT
BRANCH   1   3
ATOM      3  C   UNL     1     -12.672  14.572 -28.985  1.00  0.00     0.053 C 
ATOM      4  C   UNL     1     -11.303  14.887 -29.591  1.00  0.00     0.016 C 
BRANCH   3   5
ATOM      5  C   UNL     1     -13.788  15.314 -29.689  1.00  0.00     0.015 C 
BRANCH   5   6
ATOM      6  C   UNL     1     -15.261  15.033 -29.550  1.00  0.00     0.028 C 
BRANCH   6   7
ATOM      7  C   UNL     1     -15.502  13.549 -29.834  1.00  0.00    -0.028 C 
ATOM      8  C   UNL     1     -15.888  12.549 -28.968  1.00  0.00    -0.070 CG0
ATOM      9  C   UNL     1     -16.165  11.200 -29.588  1.00  0.00     0.039 C 
ATOM     10  G   UNL     1     -16.037  12.654 -27.432  1.00  0.00     0.000 G0
ENDBRANCH   6   7
ENDBRANCH   5   6
ENDBRANCH   3   5
ENDBRANCH   1   3
BRANCH   1  11
ATOM     11  C   UNL     1     -13.325  14.119 -26.398  1.00  0.00     0.087 C 
BRANCH  11  12
ATOM     12  C   UNL     1     -13.434  12.575 -26.732  1.00  0.00     0.066 C 
BRANCH  12  13
ATOM     13  C   UNL     1     -14.878  12.029 -26.630  1.00  0.00     0.140 C 
ATOM     14  O   UNL     1     -15.107  11.076 -25.899  1.00  0.00    -0.299 OA
BRANCH  13  15
ATOM     15  C   UNL     1     -16.045  12.634 -27.420  1.00  0.00     0.106 CG0
ATOM     16  G   UNL     1     -15.894  12.544 -28.957  1.00  0.00     0.000 G0
ENDBRANCH  13  15
ENDBRANCH  12  13
BRANCH  12  17
ATOM     17  C   UNL     1     -12.465  11.685 -25.889  1.00  0.00    -0.006 C 
ATOM     18  C   UNL     1     -11.911  12.373 -24.627  1.00  0.00     0.008 C 
ATOM     19  C   UNL     1     -11.311  11.131 -26.743  1.00  0.00     0.008 C 
ENDBRANCH  12  17
ENDBRANCH  11  12
ENDBRANCH   1  11
TORSDOF 1
ENDMDL
MODEL 3
REMARK VINA RESULT:    -3.882      1.878      4.032
REMARK INTER + INTRA:          -6.400
REMARK INTER:                  -6.022
REMARK INTRA:                  -0.377
REMARK UNBOUND:                -0.475
REMARK SMILES CC1=CCC[C@@H](C)C(=O)C[C@@H](C(C)C)C(=O)C1
REMARK SMILES IDX 8 1 9 2 6 3 7 4 5 5 4 6 3 7 2 8 1 9 10 11 11 12 15 13 16 14
REMARK SMILES IDX 17 15 12 17 13 18 14 19
REMARK H PARENT
REMARK Flexibility Score: 70.00
ROOT
ATOM      1  C   UNL     1     -12.807  14.651 -27.748  1.00  0.00     0.136 C 
ATOM      2  O   UNL     1     -12.715  15.766 -27.255  1.00  0.00    -0.299 OA
ENDROOT
BRANCH   1   3
ATOM      3  C   UNL     1     -13.168  13.474 -26.830  1.00  0.00     0.053 C 
ATOM      4  C   UNL     1     -12.380  13.550 -25.520  1.00  0.00     0.016 C 
BRANCH   3   5
ATOM      5  C   UNL     1     -12.858  12.213 -27.606  1.00  0.00     0.015 C 
BRANCH   5   6
ATOM      6  C   UNL     1     -13.822  11.454 -28.480  1.00  0.00     0.028 C 
BRANCH   6   7
ATOM      7  C   UNL     1     -15.237  11.964 -28.200  1.00  0.00    -0.028 C 
ATOM      8  C   UNL     1     -16.022  12.808 -28.955  1.00  0.00    -0.070 CG0
ATOM      9  C   UNL     1     -17.434  13.022 -28.464  1.00  0.00     0.039 C 
ATOM     10  G   UNL     1     -15.603  13.579 -30.229  1.00  0.00     0.000 G0
ENDBRANCH   6   7
ENDBRANCH   5   6
ENDBRANCH   3   5
ENDBRANCH   1   3
BRANCH   1  11
ATOM     11  C   UNL     1     -12.564  14.495 -29.263  1.00  0.00     0.087 C 
BRANCH  11  12
ATOM     12  C   UNL     1     -13.541  15.314 -30.200  1.00  0.00     0.066 C 
BRANCH  12  13
ATOM     13  C   UNL     1     -15.034  14.983 -29.966  1.00  0.00     0.140 C 
ATOM     14  O   UNL     1     -15.784  15.857 -29.556  1.00  0.00    -0.299 OA
BRANCH  13  15
ATOM     15  C   UNL     1     -15.617  13.587 -30.220  1.00  0.00     0.106 CG0
ATOM     16  G   UNL     1     -16.026  12.819 -28.942  1.00  0.00     0.000 G0
ENDBRANCH  13  15
ENDBRANCH  12  13
BRANCH  12  17
ATOM     17  C   UNL     1     -13.198  15.190 -31.719  1.00  0.00    -0.006 C 
ATOM     18  C   UNL     1     -12.141  14.118 -32.042  1.00  0.00     0.008 C 
ATOM     19  C   UNL     1     -12.786  16.543 -32.325  1.00  0.00     0.008 C 
ENDBRANCH  12  17
ENDBRANCH  11  12
ENDBRANCH   1  11
TORSDOF 1
ENDMDL
MODEL 4
REMARK VINA RESULT:    -3.705      2.593      4.956
REMARK INTER + INTRA:          -6.129
REMARK INTER:                  -5.797
REMARK INTRA:                  -0.332
REMARK UNBOUND:                -0.475
REMARK SMILES CC1=CCC[C@@H](C)C(=O)C[C@@H](C(C)C)C(=O)C1
REMARK SMILES IDX 8 1 9 2 6 3 7 4 5 5 4 6 3 7 2 8 1 9 10 11 11 12 15 13 16 14
REMARK SMILES IDX 17 15 12 17 13 18 14 19
REMARK H PARENT
REMARK Flexibility Score: 70.00
ROOT
ATOM      1  C   UNL     1     -14.700  15.046 -29.870  1.00  0.00     0.136 C 
ATOM      2  O   UNL     1     -15.174  16.136 -29.582  1.00  0.00    -0.299 OA
ENDROOT
BRANCH   1   3
ATOM      3  C   UNL     1     -14.474  14.718 -31.352  1.00  0.00     0.053 C 
ATOM      4  C   UNL     1     -13.659  15.821 -32.032  1.00  0.00     0.016 C 
BRANCH   3   5
ATOM      5  C   UNL     1     -15.845  14.562 -31.972  1.00  0.00     0.015 C 
BRANCH   5   6
ATOM      6  C   UNL     1     -16.509  13.259 -32.333  1.00  0.00     0.028 C 
BRANCH   6   7
ATOM      7  C   UNL     1     -17.897  13.226 -31.689  1.00  0.00    -0.028 C 
ATOM      8  C   UNL     1     -18.286  12.667 -30.491  1.00  0.00    -0.070 CG0
ATOM      9  C   UNL     1     -19.716  12.916 -30.073  1.00  0.00     0.039 C 
ATOM     10  G   UNL     1     -17.427  11.791 -29.549  1.00  0.00     0.000 G0
ENDBRANCH   6   7
ENDBRANCH   5   6
ENDBRANCH   3   5
ENDBRANCH   1   3
BRANCH   1  11
ATOM     11  C   UNL     1     -14.350  14.072 -28.727  1.00  0.00     0.087 C 
BRANCH  11  12
ATOM     12  C   UNL     1     -14.947  12.613 -28.865  1.00  0.00     0.066 C 
BRANCH  12  13
ATOM     13  C   UNL     1     -16.473  12.552 -28.619  1.00  0.00     0.140 C 
ATOM     14  O   UNL     1     -16.947  13.129 -27.650  1.00  0.00    -0.299 OA
BRANCH  13  15
ATOM     15  C   UNL     1     -17.426  11.784 -29.544  1.00  0.00     0.106 CG0
ATOM     16  G   UNL     1     -18.280  12.680 -30.471  1.00  0.00     0.000 G0
ENDBRANCH  13  15
ENDBRANCH  12  13
BRANCH  12  17
ATOM     17  C   UNL     1     -14.220  11.555 -27.974  1.00  0.00    -0.006 C 
ATOM     18  C   UNL     1     -14.349  11.807 -26.460  1.00  0.00     0.008 C 
ATOM     19  C   UNL     1     -12.739  11.402 -28.363  1.00  0.00     0.008 C 
ENDBRANCH  12  17
ENDBRANCH  11  12
ENDBRANCH   1  11
TORSDOF 1
ENDMDL
MODEL 5
REMARK VINA RESULT:    -3.703      2.205      5.438
REMARK INTER + INTRA:          -6.125
REMARK INTER:                  -5.743
REMARK INTRA:                  -0.382
REMARK UNBOUND:                -0.475
REMARK SMILES CC1=CCC[C@@H](C)C(=O)C[C@@H](C(C)C)C(=O)C1
REMARK SMILES IDX 8 1 9 2 6 3 7 4 5 5 4 6 3 7 2 8 1 9 10 11 11 12 15 13 16 14
REMARK SMILES IDX 17 15 12 17 13 18 14 19
REMARK H PARENT
REMARK Flexibility Score: 70.00
ROOT
ATOM      1  C   UNL     1     -13.391  14.429 -28.272  1.00  0.00     0.136 C 
ATOM      2  O   UNL     1     -12.991  15.440 -27.714  1.00  0.00    -0.299 OA
ENDROOT
BRANCH   1   3
ATOM      3  C   UNL     1     -12.612  13.913 -29.490  1.00  0.00     0.053 C 
ATOM      4  C   UNL     1     -11.137  14.314 -29.400  1.00  0.00     0.016 C 
BRANCH   3   5
ATOM      5  C   UNL     1     -13.285  14.500 -30.712  1.00  0.00     0.015 C 
BRANCH   5   6
ATOM      6  C   UNL     1     -14.525  15.355 -30.712  1.00  0.00     0.028 C 
BRANCH   6   7
ATOM      7  C   UNL     1     -15.592  14.665 -31.564  1.00  0.00    -0.028 C 
ATOM      8  C   UNL     1     -16.595  13.804 -31.173  1.00  0.00    -0.070 CG0
ATOM      9  C   UNL     1     -17.573  13.390 -32.246  1.00  0.00     0.039 C 
ATOM     10  G   UNL     1     -16.805  13.197 -29.766  1.00  0.00     0.000 G0
ENDBRANCH   6   7
ENDBRANCH   5   6
ENDBRANCH   3   5
ENDBRANCH   1   3
BRANCH   1  11
ATOM     11  C   UNL     1     -14.646  13.729 -27.715  1.00  0.00     0.087 C 
BRANCH  11  12
ATOM     12  C   UNL     1     -14.854  12.229 -28.175  1.00  0.00     0.066 C 
BRANCH  12  13
ATOM     13  C   UNL     1     -15.830  12.085 -29.367  1.00  0.00     0.140 C 
ATOM     14  O   UNL     1     -15.822  11.056 -30.026  1.00  0.00    -0.299 OA
BRANCH  13  15
ATOM     15  C   UNL     1     -16.813  13.193 -29.764  1.00  0.00     0.106 CG0
ATOM     16  G   UNL     1     -16.577  13.786 -31.173  1.00  0.00     0.000 G0
ENDBRANCH  13  15
ENDBRANCH  12  13
BRANCH  12  17
ATOM     17  C   UNL     1     -15.283  11.274 -27.015  1.00  0.00    -0.006 C 
ATOM     18  C   UNL     1     -16.670  11.583 -26.422  1.00  0.00     0.008 C 
ATOM     19  C   UNL     1     -14.227  11.223 -25.897  1.00  0.00     0.008 C 
ENDBRANCH  12  17
ENDBRANCH  11  12
ENDBRANCH   1  11
TORSDOF 1
ENDMDL
MODEL 6
REMARK VINA RESULT:    -3.566      1.817      4.089
REMARK INTER + INTRA:          -5.918
REMARK INTER:                  -5.364
REMARK INTRA:                  -0.553
REMARK UNBOUND:                -0.475
REMARK SMILES CC1=CCC[C@@H](C)C(=O)C[C@@H](C(C)C)C(=O)C1
REMARK SMILES IDX 8 1 9 2 6 3 7 4 5 5 4 6 3 7 2 8 1 9 10 11 11 12 15 13 16 14
REMARK SMILES IDX 17 15 12 17 13 18 14 19
REMARK H PARENT
REMARK Flexibility Score: 70.00
ROOT
ATOM      1  C   UNL     1     -15.105  12.458 -29.893  1.00  0.00     0.136 C 
ATOM      2  O   UNL     1     -15.209  11.724 -30.865  1.00  0.00    -0.299 OA
ENDROOT
BRANCH   1   3
ATOM      3  C   UNL     1     -16.119  13.599 -29.730  1.00  0.00     0.053 C 
ATOM      4  C   UNL     1     -17.549  13.054 -29.711  1.00  0.00     0.016 C 
BRANCH   3   5
ATOM      5  C   UNL     1     -15.889  14.547 -30.888  1.00  0.00     0.015 C 
BRANCH   5   6
ATOM      6  C   UNL     1     -14.869  15.655 -30.933  1.00  0.00     0.028 C 
BRANCH   6   7
ATOM      7  C   UNL     1     -13.850  15.333 -32.028  1.00  0.00    -0.028 C 
ATOM      8  C   UNL     1     -12.539  14.928 -31.903  1.00  0.00    -0.070 CG0
ATOM      9  C   UNL     1     -11.829  14.564 -33.186  1.00  0.00     0.039 C 
ATOM     10  G   UNL     1     -11.713  14.835 -30.599  1.00  0.00     0.000 G0
ENDBRANCH   6   7
ENDBRANCH   5   6
ENDBRANCH   3   5
ENDBRANCH   1   3
BRANCH   1  11
ATOM     11  C   UNL     1     -13.969  12.189 -28.885  1.00  0.00     0.087 C 
BRANCH  11  12
ATOM     12  C   UNL     1     -12.948  13.379 -28.672  1.00  0.00     0.066 C 
BRANCH  12  13
ATOM     13  C   UNL     1     -11.923  13.518 -29.823  1.00  0.00     0.140 C 
ATOM     14  O   UNL     1     -11.234  12.557 -30.130  1.00  0.00    -0.299 OA
BRANCH  13  15
ATOM     15  C   UNL     1     -11.728  14.828 -30.598  1.00  0.00     0.106 CG0
ATOM     16  G   UNL     1     -12.533  14.919 -31.916  1.00  0.00     0.000 G0
ENDBRANCH  13  15
ENDBRANCH  12  13
BRANCH  12  17
ATOM     17  C   UNL     1     -12.205  13.325 -27.299  1.00  0.00    -0.006 C 
ATOM     18  C   UNL     1     -12.094  11.911 -26.696  1.00  0.00     0.008 C 
ATOM     19  C   UNL     1     -12.824  14.292 -26.275  1.00  0.00     0.008 C 
ENDBRANCH  12  17
ENDBRANCH  11  12
ENDBRANCH   1  11
TORSDOF 1
ENDMDL
MODEL 7
REMARK VINA RESULT:    -3.525      2.117      4.646
REMARK INTER + INTRA:          -5.855
REMARK INTER:                  -5.715
REMARK INTRA:                  -0.139
REMARK UNBOUND:                -0.475
REMARK SMILES CC1=CCC[C@@H](C)C(=O)C[C@@H](C(C)C)C(=O)C1
REMARK SMILES IDX 8 1 9 2 6 3 7 4 5 5 4 6 3 7 2 8 1 9 10 11 11 12 15 13 16 14
REMARK SMILES IDX 17 15 12 17 13 18 14 19
REMARK H PARENT
REMARK Flexibility Score: 70.00
ROOT
ATOM      1  C   UNL     1     -15.230  12.556 -27.590  1.00  0.00     0.136 C 
ATOM      2  O   UNL     1     -15.802  12.743 -26.526  1.00  0.00    -0.299 OA
ENDROOT
BRANCH   1   3
ATOM      3  C   UNL     1     -13.696  12.622 -27.615  1.00  0.00     0.053 C 
ATOM      4  C   UNL     1     -13.090  11.409 -26.905  1.00  0.00     0.016 C 
BRANCH   3   5
ATOM      5  C   UNL     1     -13.312  13.923 -26.943  1.00  0.00     0.015 C 
BRANCH   5   6
ATOM      6  C   UNL     1     -12.744  15.138 -27.629  1.00  0.00     0.028 C 
BRANCH   6   7
ATOM      7  C   UNL     1     -12.452  14.780 -29.087  1.00  0.00    -0.028 C 
ATOM      8  C   UNL     1     -13.210  15.027 -30.212  1.00  0.00    -0.070 CG0
ATOM      9  C   UNL     1     -12.580  14.658 -31.534  1.00  0.00     0.039 C 
ATOM     10  G   UNL     1     -14.641  15.611 -30.260  1.00  0.00     0.000 G0
ENDBRANCH   6   7
ENDBRANCH   5   6
ENDBRANCH   3   5
ENDBRANCH   1   3
BRANCH   1  11
ATOM     11  C   UNL     1     -16.082  12.256 -28.840  1.00  0.00     0.087 C 
BRANCH  11  12
ATOM     12  C   UNL     1     -15.805  13.181 -30.094  1.00  0.00     0.066 C 
BRANCH  12  13
ATOM     13  C   UNL     1     -15.751  14.687 -29.742  1.00  0.00     0.140 C 
ATOM     14  O   UNL     1     -16.612  15.163 -29.017  1.00  0.00    -0.299 OA
BRANCH  13  15
ATOM     15  C   UNL     1     -14.655  15.617 -30.277  1.00  0.00     0.106 CG0
ATOM     16  G   UNL     1     -13.225  15.030 -30.210  1.00  0.00     0.000 G0
ENDBRANCH  13  15
ENDBRANCH  12  13
BRANCH  12  17
ATOM     17  C   UNL     1     -16.800  12.944 -31.275  1.00  0.00    -0.006 C 
ATOM     18  C   UNL     1     -16.538  13.827 -32.509  1.00  0.00     0.008 C 
ATOM     19  C   UNL     1     -18.265  13.081 -30.824  1.00  0.00     0.008 C 
ENDBRANCH  12  17
ENDBRANCH  11  12
ENDBRANCH   1  11
TORSDOF 1
ENDMDL
MODEL 8
REMARK VINA RESULT:    -3.520      2.047      2.447
REMARK INTER + INTRA:          -5.846
REMARK INTER:                  -5.379
REMARK INTRA:                  -0.468
REMARK UNBOUND:                -0.475
REMARK SMILES CC1=CCC[C@@H](C)C(=O)C[C@@H](C(C)C)C(=O)C1
REMARK SMILES IDX 8 1 9 2 6 3 7 4 5 5 4 6 3 7 2 8 1 9 10 11 11 12 15 13 16 14
REMARK SMILES IDX 17 15 12 17 13 18 14 19
REMARK H PARENT
REMARK Flexibility Score: 70.00
ROOT
ATOM      1  C   UNL     1     -14.963  15.106 -29.927  1.00  0.00     0.136 C 
ATOM      2  O   UNL     1     -15.725  16.053 -29.796  1.00  0.00    -0.299 OA
ENDROOT
BRANCH   1   3
ATOM      3  C   UNL     1     -15.426  13.909 -30.768  1.00  0.00     0.053 C 
ATOM      4  C   UNL     1     -16.112  14.382 -32.052  1.00  0.00     0.016 C 
BRANCH   3   5
ATOM      5  C   UNL     1     -16.359  13.103 -29.891  1.00  0.00     0.015 C 
BRANCH   5   6
ATOM      6  C   UNL     1     -16.704  13.405 -28.456  1.00  0.00     0.028 C 
BRANCH   6   7
ATOM      7  C   UNL     1     -16.139  12.289 -27.575  1.00  0.00    -0.028 C 
ATOM      8  C   UNL     1     -14.984  12.276 -26.822  1.00  0.00    -0.070 CG0
ATOM      9  C   UNL     1     -14.768  11.058 -25.954  1.00  0.00     0.039 C 
ATOM     10  G   UNL     1     -13.878  13.356 -26.795  1.00  0.00     0.000 G0
ENDBRANCH   6   7
ENDBRANCH   5   6
ENDBRANCH   3   5
ENDBRANCH   1   3
BRANCH   1  11
ATOM     11  C   UNL     1     -13.580  15.177 -29.250  1.00  0.00     0.087 C 
BRANCH  11  12
ATOM     12  C   UNL     1     -12.763  13.821 -29.219  1.00  0.00     0.066 C 
BRANCH  12  13
ATOM     13  C   UNL     1     -12.741  13.152 -27.825  1.00  0.00     0.140 C 
ATOM     14  O   UNL     1     -11.806  12.423 -27.526  1.00  0.00    -0.299 OA
BRANCH  13  15
ATOM     15  C   UNL     1     -13.857  13.361 -26.793  1.00  0.00     0.106 CG0
ATOM     16  G   UNL     1     -14.966  12.285 -26.821  1.00  0.00     0.000 G0
ENDBRANCH  13  15
ENDBRANCH  12  13
BRANCH  12  17
ATOM     17  C   UNL     1     -11.308  13.958 -29.770  1.00  0.00    -0.006 C 
ATOM     18  C   UNL     1     -10.944  15.375 -30.251  1.00  0.00     0.008 C 
ATOM     19  C   UNL     1     -11.016  12.930 -30.877  1.00  0.00     0.008 C 
ENDBRANCH  12  17
ENDBRANCH  11  12
ENDBRANCH   1  11
TORSDOF 1
ENDMDL
MODEL 9
REMARK VINA RESULT:    -3.362      2.378      4.781
REMARK INTER + INTRA:          -5.605
REMARK INTER:                  -5.349
REMARK INTRA:                  -0.256
REMARK UNBOUND:                -0.475
REMARK SMILES CC1=CCC[C@@H](C)C(=O)C[C@@H](C(C)C)C(=O)C1
REMARK SMILES IDX 8 1 9 2 6 3 7 4 5 5 4 6 3 7 2 8 1 9 10 11 11 12 15 13 16 14
REMARK SMILES IDX 17 15 12 17 13 18 14 19
REMARK H PARENT
REMARK Flexibility Score: 70.00
ROOT
ATOM      1  C   UNL     1     -15.413  14.615 -29.526  1.00  0.00     0.136 C 
ATOM      2  O   UNL     1     -16.369  15.164 -28.996  1.00  0.00    -0.299 OA
ENDROOT
BRANCH   1   3
ATOM      3  C   UNL     1     -14.291  15.494 -30.094  1.00  0.00     0.053 C 
ATOM      4  C   UNL     1     -14.739  16.174 -31.390  1.00  0.00     0.016 C 
BRANCH   3   5
ATOM      5  C   UNL     1     -13.101  14.585 -30.312  1.00  0.00     0.015 C 
BRANCH   5   6
ATOM      6  C   UNL     1     -11.815  14.610 -29.530  1.00  0.00     0.028 C 
BRANCH   6   7
ATOM      7  C   UNL     1     -12.153  14.627 -28.038  1.00  0.00    -0.028 C 
ATOM      8  C   UNL     1     -12.674  13.620 -27.253  1.00  0.00    -0.070 CG0
ATOM      9  C   UNL     1     -12.776  13.913 -25.775  1.00  0.00     0.039 C 
ATOM     10  G   UNL     1     -13.191  12.242 -27.728  1.00  0.00     0.000 G0
ENDBRANCH   6   7
ENDBRANCH   5   6
ENDBRANCH   3   5
ENDBRANCH   1   3
BRANCH   1  11
ATOM     11  C   UNL     1     -15.389  13.074 -29.582  1.00  0.00     0.087 C 
BRANCH  11  12
ATOM     12  C   UNL     1     -15.841  12.334 -28.258  1.00  0.00     0.066 C 
BRANCH  12  13
ATOM     13  C   UNL     1     -14.656  11.931 -27.348  1.00  0.00     0.140 C 
ATOM     14  O   UNL     1     -14.881  11.358 -26.292  1.00  0.00    -0.299 OA
BRANCH  13  15
ATOM     15  C   UNL     1     -13.197  12.231 -27.716  1.00  0.00     0.106 CG0
ATOM     16  G   UNL     1     -12.690  13.617 -27.254  1.00  0.00     0.000 G0
ENDBRANCH  13  15
ENDBRANCH  12  13
BRANCH  12  17
ATOM     17  C   UNL     1     -16.760  11.098 -28.518  1.00  0.00    -0.006 C 
ATOM     18  C   UNL     1     -17.191  10.928 -29.987  1.00  0.00     0.008 C 
ATOM     19  C   UNL     1     -17.993  11.099 -27.598  1.00  0.00     0.008 C 
ENDBRANCH  12  17
ENDBRANCH  11  12
ENDBRANCH   1  11
TORSDOF 1
ENDMDL
